[H]c1nc([H])n([H])c1C([H])(c1c([H])c([H])c(Cl)c([H])c1[H])n1c([H])nc([H])c1[H]


 19 21  0  0  0  0  0  0  0  0999 V2000
   -3.3105   22.7765  -27.1327 C   0  0  0  0  0  0  0  0  0  0  0  0
   -5.8582   25.7630  -31.7630 Cl  0  0  0  0  0  0  0  0  0  0  0  0
   -5.1139   24.9130  -30.4200 C   0  0  0  0  0  0  0  0  0  0  0  0
   -5.3901   23.5938  -30.2044 C   0  0  0  0  0  0  0  0  0  0  0  0
   -4.8184   22.9253  -29.1659 C   0  0  0  0  0  0  0  0  0  0  0  0
   -3.9279   23.5331  -28.2689 C   0  0  0  0  0  0  0  0  0  0  0  0
   -3.6801   24.8633  -28.5264 C   0  0  0  0  0  0  0  0  0  0  0  0
   -4.2544   25.5539  -29.5778 C   0  0  0  0  0  0  0  0  0  0  0  0
   -1.8413   22.7781  -27.1865 C   0  0  0  0  0  0  0  0  0  0  0  0
   -1.0009   22.9860  -28.2532 C   0  0  0  0  0  0  0  0  0  0  0  0
    0.2854   22.9058  -27.8745 N   0  0  0  0  0  0  0  0  0  0  0  0
    0.2760   22.6486  -26.5767 C   0  0  0  0  0  0  0  0  0  0  0  0
   -0.9687   22.5687  -26.1488 N   0  0  0  0  0  0  0  0  0  0  0  0
   -1.2404   22.3738  -25.1598 H   0  0  0  0  0  0  0  0  0  0  0  0
   -3.9024   23.0373  -25.8614 N   0  0  0  0  0  0  0  0  0  0  0  0
   -3.9259   24.1586  -25.1177 C   0  0  0  0  0  0  0  0  0  0  0  0
   -4.6268   23.9337  -23.9485 C   0  0  0  0  0  0  0  0  0  0  0  0
   -5.0408   22.6511  -23.9752 N   0  0  0  0  0  0  0  0  0  0  0  0
   -4.6094   22.1321  -25.1050 C   0  0  0  0  0  0  0  0  0  0  0  0
  2  3  1  0  0  0
  3  4  2  0  0  0
  4  5  1  0  0  0
  5  6  2  0  0  0
  6  7  1  0  0  0
  7  8  2  0  0  0
  6  1  1  0  0  0
  1  9  1  0  0  0
  9 10  2  0  0  0
 10 11  1  0  0  0
 11 12  2  0  0  0
 12 13  1  0  0  0
  1 15  1  0  0  0
 15 16  1  0  0  0
 16 17  2  0  0  0
 17 18  1  0  0  0
 18 19  2  0  0  0
  8  3  1  0  0  0
 13  9  1  0  0  0
 19 15  1  0  0  0
 13 14  1  0  0  0
M  END
> <minimizedAffinity>
-7.06955

> <CNNscore>
0.8518624306

> <CNNaffinity>
6.6753549576

> <CNN_VS>
5.6864843369

> <CNNaffinity_variance>
0.1411945075

$$$$
[H]c1nc([H])n([H])c1C([H])(c1c([H])c([H])c(Cl)c([H])c1[H])n1c([H])nc([H])c1[H]


 19 21  0  0  0  0  0  0  0  0999 V2000
   -3.5278   22.9937  -27.6291 C   0  0  0  0  0  0  0  0  0  0  0  0
   -5.7489   24.8637  -22.2982 Cl  0  0  0  0  0  0  0  0  0  0  0  0
   -5.1119   24.3082  -23.8362 C   0  0  0  0  0  0  0  0  0  0  0  0
   -4.4948   25.1850  -24.6810 C   0  0  0  0  0  0  0  0  0  0  0  0
   -3.9973   24.7645  -25.8759 C   0  0  0  0  0  0  0  0  0  0  0  0
   -4.0833   23.4333  -26.3090 C   0  0  0  0  0  0  0  0  0  0  0  0
   -4.7135   22.5865  -25.4241 C   0  0  0  0  0  0  0  0  0  0  0  0
   -5.2232   23.0010  -24.2073 C   0  0  0  0  0  0  0  0  0  0  0  0
   -4.2137   23.6230  -28.7672 C   0  0  0  0  0  0  0  0  0  0  0  0
   -5.1681   23.1096  -29.6114 C   0  0  0  0  0  0  0  0  0  0  0  0
   -5.5403   24.0199  -30.5264 N   0  0  0  0  0  0  0  0  0  0  0  0
   -4.8335   25.1099  -30.2759 C   0  0  0  0  0  0  0  0  0  0  0  0
   -4.0433   24.8989  -29.2416 N   0  0  0  0  0  0  0  0  0  0  0  0
   -3.3859   25.6080  -28.8478 H   0  0  0  0  0  0  0  0  0  0  0  0
   -2.1030   22.9558  -27.6849 N   0  0  0  0  0  0  0  0  0  0  0  0
   -1.1979   22.5880  -26.7595 C   0  0  0  0  0  0  0  0  0  0  0  0
    0.0787   22.7179  -27.2716 C   0  0  0  0  0  0  0  0  0  0  0  0
   -0.0454   23.1736  -28.5342 N   0  0  0  0  0  0  0  0  0  0  0  0
   -1.3331   23.3105  -28.7680 C   0  0  0  0  0  0  0  0  0  0  0  0
  2  3  1  0  0  0
  3  4  2  0  0  0
  4  5  1  0  0  0
  5  6  2  0  0  0
  6  7  1  0  0  0
  7  8  2  0  0  0
  6  1  1  0  0  0
  1  9  1  0  0  0
  9 10  2  0  0  0
 10 11  1  0  0  0
 11 12  2  0  0  0
 12 13  1  0  0  0
  1 15  1  0  0  0
 15 16  1  0  0  0
 16 17  2  0  0  0
 17 18  1  0  0  0
 18 19  2  0  0  0
  8  3  1  0  0  0
 13  9  1  0  0  0
 19 15  1  0  0  0
 13 14  1  0  0  0
M  END
> <minimizedAffinity>
-6.61778

> <CNNscore>
0.6662079692

> <CNNaffinity>
6.3901300430

> <CNN_VS>
4.2571554184

> <CNNaffinity_variance>
0.1859625429

$$$$
[H]c1nc([H])n([H])c1C([H])(c1c([H])c([H])c(Cl)c([H])c1[H])n1c([H])nc([H])c1[H]


 19 21  0  0  0  0  0  0  0  0999 V2000
   -5.5781   22.1734  -17.9795 C   0  0  0  0  0  0  0  0  0  0  0  0
   -6.1113   23.4753  -12.0744 Cl  0  0  0  0  0  0  0  0  0  0  0  0
   -5.9417   23.1031  -13.7811 C   0  0  0  0  0  0  0  0  0  0  0  0
   -7.0109   22.6412  -14.4928 C   0  0  0  0  0  0  0  0  0  0  0  0
   -6.8900   22.3496  -15.8167 C   0  0  0  0  0  0  0  0  0  0  0  0
   -5.6870   22.5008  -16.5216 C   0  0  0  0  0  0  0  0  0  0  0  0
   -4.6375   22.9690  -15.7623 C   0  0  0  0  0  0  0  0  0  0  0  0
   -4.7471   23.2690  -14.4169 C   0  0  0  0  0  0  0  0  0  0  0  0
   -6.2433   20.9084  -18.3245 C   0  0  0  0  0  0  0  0  0  0  0  0
   -7.3918   20.6872  -19.0450 C   0  0  0  0  0  0  0  0  0  0  0  0
   -7.6571   19.3735  -19.1352 N   0  0  0  0  0  0  0  0  0  0  0  0
   -6.6901   18.7526  -18.4797 C   0  0  0  0  0  0  0  0  0  0  0  0
   -5.8439   19.6387  -17.9924 N   0  0  0  0  0  0  0  0  0  0  0  0
   -4.9946   19.3980  -17.4350 H   0  0  0  0  0  0  0  0  0  0  0  0
   -5.8170   23.2777  -18.8501 N   0  0  0  0  0  0  0  0  0  0  0  0
   -6.5885   24.3689  -18.6923 C   0  0  0  0  0  0  0  0  0  0  0  0
   -6.5039   25.1719  -19.8134 C   0  0  0  0  0  0  0  0  0  0  0  0
   -5.6651   24.5623  -20.6748 N   0  0  0  0  0  0  0  0  0  0  0  0
   -5.2663   23.4483  -20.0988 C   0  0  0  0  0  0  0  0  0  0  0  0
  2  3  1  0  0  0
  3  4  2  0  0  0
  4  5  1  0  0  0
  5  6  2  0  0  0
  6  7  1  0  0  0
  7  8  2  0  0  0
  6  1  1  0  0  0
  1  9  1  0  0  0
  9 10  2  0  0  0
 10 11  1  0  0  0
 11 12  2  0  0  0
 12 13  1  0  0  0
  1 15  1  0  0  0
 15 16  1  0  0  0
 16 17  2  0  0  0
 17 18  1  0  0  0
 18 19  2  0  0  0
  8  3  1  0  0  0
 13  9  1  0  0  0
 19 15  1  0  0  0
 13 14  1  0  0  0
M  END
> <minimizedAffinity>
-3.23887

> <CNNscore>
0.5818887949

> <CNNaffinity>
4.6411504745

> <CNN_VS>
2.7006335258

> <CNNaffinity_variance>
0.1862539351

$$$$
[H]c1nc([H])n([H])c1C([H])(c1c([H])c([H])c(Cl)c([H])c1[H])n1c([H])nc([H])c1[H]


 19 21  0  0  0  0  0  0  0  0999 V2000
   -5.2231   21.6978  -19.4465 C   0  0  0  0  0  0  0  0  0  0  0  0
   -7.7423   16.5156  -17.5368 Cl  0  0  0  0  0  0  0  0  0  0  0  0
   -7.0286   18.0203  -18.0903 C   0  0  0  0  0  0  0  0  0  0  0  0
   -5.6732   18.1377  -18.2010 C   0  0  0  0  0  0  0  0  0  0  0  0
   -5.1096   19.3001  -18.6292 C   0  0  0  0  0  0  0  0  0  0  0  0
   -5.8661   20.4286  -18.9773 C   0  0  0  0  0  0  0  0  0  0  0  0
   -7.2275   20.2626  -18.8496 C   0  0  0  0  0  0  0  0  0  0  0  0
   -7.8126   19.0872  -18.4158 C   0  0  0  0  0  0  0  0  0  0  0  0
   -5.6676   22.0914  -20.7916 C   0  0  0  0  0  0  0  0  0  0  0  0
   -5.0458   21.9280  -22.0057 C   0  0  0  0  0  0  0  0  0  0  0  0
   -5.7959   22.4290  -23.0011 N   0  0  0  0  0  0  0  0  0  0  0  0
   -6.8906   22.9111  -22.4358 C   0  0  0  0  0  0  0  0  0  0  0  0
   -6.8369   22.7230  -21.1318 N   0  0  0  0  0  0  0  0  0  0  0  0
   -7.5827   23.0165  -20.4628 H   0  0  0  0  0  0  0  0  0  0  0  0
   -5.1731   22.7305  -18.4639 N   0  0  0  0  0  0  0  0  0  0  0  0
   -6.0946   23.6413  -18.1003 C   0  0  0  0  0  0  0  0  0  0  0  0
   -5.5925   24.4434  -17.0936 C   0  0  0  0  0  0  0  0  0  0  0  0
   -4.3402   24.0169  -16.8348 N   0  0  0  0  0  0  0  0  0  0  0  0
   -4.1027   23.0086  -17.6463 C   0  0  0  0  0  0  0  0  0  0  0  0
  2  3  1  0  0  0
  3  4  2  0  0  0
  4  5  1  0  0  0
  5  6  2  0  0  0
  6  7  1  0  0  0
  7  8  2  0  0  0
  6  1  1  0  0  0
  1  9  1  0  0  0
  9 10  2  0  0  0
 10 11  1  0  0  0
 11 12  2  0  0  0
 12 13  1  0  0  0
  1 15  1  0  0  0
 15 16  1  0  0  0
 16 17  2  0  0  0
 17 18  1  0  0  0
 18 19  2  0  0  0
  8  3  1  0  0  0
 13  9  1  0  0  0
 19 15  1  0  0  0
 13 14  1  0  0  0
M  END
> <minimizedAffinity>
-3.32539

> <CNNscore>
0.5020385385

> <CNNaffinity>
4.7841629982

> <CNN_VS>
2.4018342495

> <CNNaffinity_variance>
0.2697590590

$$$$
[H]c1nc([H])n([H])c1C([H])(c1c([H])c([H])c(Cl)c([H])c1[H])n1c([H])nc([H])c1[H]


 19 21  0  0  0  0  0  0  0  0999 V2000
   -5.2290   23.8063  -27.9610 C   0  0  0  0  0  0  0  0  0  0  0  0
    0.3961   22.0105  -26.5535 Cl  0  0  0  0  0  0  0  0  0  0  0  0
   -1.2252   22.5332  -26.9753 C   0  0  0  0  0  0  0  0  0  0  0  0
   -2.2279   22.4749  -26.0509 C   0  0  0  0  0  0  0  0  0  0  0  0
   -3.4886   22.8777  -26.3678 C   0  0  0  0  0  0  0  0  0  0  0  0
   -3.8338   23.3683  -27.6355 C   0  0  0  0  0  0  0  0  0  0  0  0
   -2.7903   23.4085  -28.5337 C   0  0  0  0  0  0  0  0  0  0  0  0
   -1.5052   23.0023  -28.2245 C   0  0  0  0  0  0  0  0  0  0  0  0
   -5.9489   24.3162  -26.7849 C   0  0  0  0  0  0  0  0  0  0  0  0
   -7.0540   23.8115  -26.1435 C   0  0  0  0  0  0  0  0  0  0  0  0
   -7.3977   24.5829  -25.0990 N   0  0  0  0  0  0  0  0  0  0  0  0
   -6.5238   25.5757  -25.0660 C   0  0  0  0  0  0  0  0  0  0  0  0
   -5.6590   25.4391  -26.0520 N   0  0  0  0  0  0  0  0  0  0  0  0
   -4.8702   26.0969  -26.2393 H   0  0  0  0  0  0  0  0  0  0  0  0
   -5.3410   24.5726  -29.1589 N   0  0  0  0  0  0  0  0  0  0  0  0
   -5.6252   24.1952  -30.4189 C   0  0  0  0  0  0  0  0  0  0  0  0
   -5.6245   25.2972  -31.2522 C   0  0  0  0  0  0  0  0  0  0  0  0
   -5.3347   26.3703  -30.4896 N   0  0  0  0  0  0  0  0  0  0  0  0
   -5.1695   25.9335  -29.2593 C   0  0  0  0  0  0  0  0  0  0  0  0
  2  3  1  0  0  0
  3  4  2  0  0  0
  4  5  1  0  0  0
  5  6  2  0  0  0
  6  7  1  0  0  0
  7  8  2  0  0  0
  6  1  1  0  0  0
  1  9  1  0  0  0
  9 10  2  0  0  0
 10 11  1  0  0  0
 11 12  2  0  0  0
 12 13  1  0  0  0
  1 15  1  0  0  0
 15 16  1  0  0  0
 16 17  2  0  0  0
 17 18  1  0  0  0
 18 19  2  0  0  0
  8  3  1  0  0  0
 13  9  1  0  0  0
 19 15  1  0  0  0
 13 14  1  0  0  0
M  END
> <minimizedAffinity>
-7.20127

> <CNNscore>
0.4940777421

> <CNNaffinity>
6.1486964226

> <CNN_VS>
3.0379340649

> <CNNaffinity_variance>
0.0552223809

$$$$
[H]c1nc([H])n([H])c1C([H])(c1c([H])c([H])c(Cl)c([H])c1[H])n1c([H])nc([H])c1[H]


 19 21  0  0  0  0  0  0  0  0999 V2000
   -6.4035   22.9637  -19.9480 C   0  0  0  0  0  0  0  0  0  0  0  0
   -8.0622   18.6276  -16.0370 Cl  0  0  0  0  0  0  0  0  0  0  0  0
   -7.5880   19.8722  -17.1799 C   0  0  0  0  0  0  0  0  0  0  0  0
   -7.0116   21.0276  -16.7371 C   0  0  0  0  0  0  0  0  0  0  0  0
   -6.6403   21.9990  -17.6149 C   0  0  0  0  0  0  0  0  0  0  0  0
   -6.8207   21.8806  -19.0007 C   0  0  0  0  0  0  0  0  0  0  0  0
   -7.4054   20.6989  -19.3996 C   0  0  0  0  0  0  0  0  0  0  0  0
   -7.7872   19.7042  -18.5181 C   0  0  0  0  0  0  0  0  0  0  0  0
   -5.8851   22.4337  -21.2176 C   0  0  0  0  0  0  0  0  0  0  0  0
   -4.6526   21.9020  -21.5103 C   0  0  0  0  0  0  0  0  0  0  0  0
   -4.5839   21.5287  -22.7988 N   0  0  0  0  0  0  0  0  0  0  0  0
   -5.7596   21.8165  -23.3329 C   0  0  0  0  0  0  0  0  0  0  0  0
   -6.5440   22.3518  -22.4181 N   0  0  0  0  0  0  0  0  0  0  0  0
   -7.5245   22.6649  -22.5926 H   0  0  0  0  0  0  0  0  0  0  0  0
   -7.3212   24.0519  -20.0386 N   0  0  0  0  0  0  0  0  0  0  0  0
   -8.6550   24.0626  -20.2168 C   0  0  0  0  0  0  0  0  0  0  0  0
   -9.1169   25.3646  -20.2387 C   0  0  0  0  0  0  0  0  0  0  0  0
   -8.0470   26.1673  -20.0709 N   0  0  0  0  0  0  0  0  0  0  0  0
   -6.9950   25.3853  -19.9542 C   0  0  0  0  0  0  0  0  0  0  0  0
  2  3  1  0  0  0
  3  4  2  0  0  0
  4  5  1  0  0  0
  5  6  2  0  0  0
  6  7  1  0  0  0
  7  8  2  0  0  0
  6  1  1  0  0  0
  1  9  1  0  0  0
  9 10  2  0  0  0
 10 11  1  0  0  0
 11 12  2  0  0  0
 12 13  1  0  0  0
  1 15  1  0  0  0
 15 16  1  0  0  0
 16 17  2  0  0  0
 17 18  1  0  0  0
 18 19  2  0  0  0
  8  3  1  0  0  0
 13  9  1  0  0  0
 19 15  1  0  0  0
 13 14  1  0  0  0
M  END
> <minimizedAffinity>
-3.52730

> <CNNscore>
0.4326736331

> <CNNaffinity>
4.8131241798

> <CNN_VS>
2.0825119019

> <CNNaffinity_variance>
0.1410917342

$$$$
[H]c1nc([H])n([H])c1C([H])(c1c([H])c([H])c(Cl)c([H])c1[H])n1c([H])nc([H])c1[H]


 19 21  0  0  0  0  0  0  0  0999 V2000
   -4.1200   24.0610  -26.1062 C   0  0  0  0  0  0  0  0  0  0  0  0
   -7.6958   21.6685  -21.8239 Cl  0  0  0  0  0  0  0  0  0  0  0  0
   -6.6579   22.3454  -23.0667 C   0  0  0  0  0  0  0  0  0  0  0  0
   -6.5563   23.6985  -23.2146 C   0  0  0  0  0  0  0  0  0  0  0  0
   -5.7544   24.2337  -24.1752 C   0  0  0  0  0  0  0  0  0  0  0  0
   -4.9963   23.4490  -25.0564 C   0  0  0  0  0  0  0  0  0  0  0  0
   -5.1311   22.0911  -24.8690 C   0  0  0  0  0  0  0  0  0  0  0  0
   -5.9423   21.5347  -23.8971 C   0  0  0  0  0  0  0  0  0  0  0  0
   -2.8693   23.3135  -26.3027 C   0  0  0  0  0  0  0  0  0  0  0  0
   -2.3080   22.8275  -27.4586 C   0  0  0  0  0  0  0  0  0  0  0  0
   -1.1482   22.2000  -27.2028 N   0  0  0  0  0  0  0  0  0  0  0  0
   -0.9624   22.2796  -25.8954 C   0  0  0  0  0  0  0  0  0  0  0  0
   -1.9659   22.9327  -25.3430 N   0  0  0  0  0  0  0  0  0  0  0  0
   -2.0512   23.1270  -24.3208 H   0  0  0  0  0  0  0  0  0  0  0  0
   -4.8112   24.4687  -27.2854 N   0  0  0  0  0  0  0  0  0  0  0  0
   -4.8078   25.6427  -27.9432 C   0  0  0  0  0  0  0  0  0  0  0  0
   -5.6386   25.5681  -29.0445 C   0  0  0  0  0  0  0  0  0  0  0  0
   -6.1613   24.3256  -29.0629 N   0  0  0  0  0  0  0  0  0  0  0  0
   -5.6683   23.6864  -28.0236 C   0  0  0  0  0  0  0  0  0  0  0  0
  2  3  1  0  0  0
  3  4  2  0  0  0
  4  5  1  0  0  0
  5  6  2  0  0  0
  6  7  1  0  0  0
  7  8  2  0  0  0
  6  1  1  0  0  0
  1  9  1  0  0  0
  9 10  2  0  0  0
 10 11  1  0  0  0
 11 12  2  0  0  0
 12 13  1  0  0  0
  1 15  1  0  0  0
 15 16  1  0  0  0
 16 17  2  0  0  0
 17 18  1  0  0  0
 18 19  2  0  0  0
  8  3  1  0  0  0
 13  9  1  0  0  0
 19 15  1  0  0  0
 13 14  1  0  0  0
M  END
> <minimizedAffinity>
-6.21623

> <CNNscore>
0.4237906933

> <CNNaffinity>
5.9821438789

> <CNN_VS>
2.5351769924

> <CNNaffinity_variance>
0.2135272026

$$$$
[H]c1nc([H])n([H])c1C([H])(c1c([H])c([H])c(Cl)c([H])c1[H])n1c([H])nc([H])c1[H]


 19 21  0  0  0  0  0  0  0  0999 V2000
    2.4916   23.3724  -14.6149 C   0  0  0  0  0  0  0  0  0  0  0  0
    3.4505   24.3650   -8.7035 Cl  0  0  0  0  0  0  0  0  0  0  0  0
    3.1834   24.0656  -10.4120 C   0  0  0  0  0  0  0  0  0  0  0  0
    2.3314   24.8599  -11.1235 C   0  0  0  0  0  0  0  0  0  0  0  0
    2.1171   24.6363  -12.4487 C   0  0  0  0  0  0  0  0  0  0  0  0
    2.7430   23.5991  -13.1554 C   0  0  0  0  0  0  0  0  0  0  0  0
    3.5927   22.8251  -12.3964 C   0  0  0  0  0  0  0  0  0  0  0  0
    3.8190   23.0417  -11.0495 C   0  0  0  0  0  0  0  0  0  0  0  0
    3.6727   23.6600  -15.4418 C   0  0  0  0  0  0  0  0  0  0  0  0
    4.9277   23.1023  -15.4063 C   0  0  0  0  0  0  0  0  0  0  0  0
    5.7230   23.6481  -16.3411 N   0  0  0  0  0  0  0  0  0  0  0  0
    4.9894   24.5492  -16.9738 C   0  0  0  0  0  0  0  0  0  0  0  0
    3.7753   24.5739  -16.4599 N   0  0  0  0  0  0  0  0  0  0  0  0
    3.0091   25.2025  -16.7881 H   0  0  0  0  0  0  0  0  0  0  0  0
    1.7839   22.1697  -14.9103 N   0  0  0  0  0  0  0  0  0  0  0  0
    2.0733   21.1673  -15.7602 C   0  0  0  0  0  0  0  0  0  0  0  0
    1.0848   20.2035  -15.7059 C   0  0  0  0  0  0  0  0  0  0  0  0
    0.1724   20.6222  -14.8062 N   0  0  0  0  0  0  0  0  0  0  0  0
    0.5928   21.7802  -14.3437 C   0  0  0  0  0  0  0  0  0  0  0  0
  2  3  1  0  0  0
  3  4  2  0  0  0
  4  5  1  0  0  0
  5  6  2  0  0  0
  6  7  1  0  0  0
  7  8  2  0  0  0
  6  1  1  0  0  0
  1  9  1  0  0  0
  9 10  2  0  0  0
 10 11  1  0  0  0
 11 12  2  0  0  0
 12 13  1  0  0  0
  1 15  1  0  0  0
 15 16  1  0  0  0
 16 17  2  0  0  0
 17 18  1  0  0  0
 18 19  2  0  0  0
  8  3  1  0  0  0
 13  9  1  0  0  0
 19 15  1  0  0  0
 13 14  1  0  0  0
M  END
> <minimizedAffinity>
-3.93831

> <CNNscore>
0.4111298323

> <CNNaffinity>
4.0101766586

> <CNN_VS>
1.6487032175

> <CNNaffinity_variance>
0.4651300311

$$$$
[H]c1nc([H])n([H])c1C([H])(c1c([H])c([H])c(Cl)c([H])c1[H])n1c([H])nc([H])c1[H]


 19 21  0  0  0  0  0  0  0  0999 V2000
   -5.6799   21.8662  -19.2356 C   0  0  0  0  0  0  0  0  0  0  0  0
   -6.2635   24.1860  -24.8147 Cl  0  0  0  0  0  0  0  0  0  0  0  0
   -6.1051   23.5037  -23.2056 C   0  0  0  0  0  0  0  0  0  0  0  0
   -5.2746   24.0853  -22.2917 C   0  0  0  0  0  0  0  0  0  0  0  0
   -5.1445   23.5642  -21.0412 C   0  0  0  0  0  0  0  0  0  0  0  0
   -5.8391   22.4217  -20.6179 C   0  0  0  0  0  0  0  0  0  0  0  0
   -6.6640   21.8705  -21.5734 C   0  0  0  0  0  0  0  0  0  0  0  0
   -6.8050   22.3900  -22.8471 C   0  0  0  0  0  0  0  0  0  0  0  0
   -5.3428   22.9013  -18.2474 C   0  0  0  0  0  0  0  0  0  0  0  0
   -4.1924   23.0787  -17.5177 C   0  0  0  0  0  0  0  0  0  0  0  0
   -4.2890   24.1569  -16.7225 N   0  0  0  0  0  0  0  0  0  0  0  0
   -5.4894   24.6706  -16.9360 C   0  0  0  0  0  0  0  0  0  0  0  0
   -6.1296   23.9458  -17.8325 N   0  0  0  0  0  0  0  0  0  0  0  0
   -7.0964   24.1467  -18.1712 H   0  0  0  0  0  0  0  0  0  0  0  0
   -6.6862   20.9283  -18.8586 N   0  0  0  0  0  0  0  0  0  0  0  0
   -7.9359   21.1198  -18.3975 C   0  0  0  0  0  0  0  0  0  0  0  0
   -8.5450   19.9012  -18.1675 C   0  0  0  0  0  0  0  0  0  0  0  0
   -7.6528   18.9446  -18.4935 N   0  0  0  0  0  0  0  0  0  0  0  0
   -6.5621   19.5592  -18.8990 C   0  0  0  0  0  0  0  0  0  0  0  0
  2  3  1  0  0  0
  3  4  2  0  0  0
  4  5  1  0  0  0
  5  6  2  0  0  0
  6  7  1  0  0  0
  7  8  2  0  0  0
  6  1  1  0  0  0
  1  9  1  0  0  0
  9 10  2  0  0  0
 10 11  1  0  0  0
 11 12  2  0  0  0
 12 13  1  0  0  0
  1 15  1  0  0  0
 15 16  1  0  0  0
 16 17  2  0  0  0
 17 18  1  0  0  0
 18 19  2  0  0  0
  8  3  1  0  0  0
 13  9  1  0  0  0
 19 15  1  0  0  0
 13 14  1  0  0  0
M  END
> <minimizedAffinity>
-3.85531

> <CNNscore>
0.4095456898

> <CNNaffinity>
4.8750743866

> <CNN_VS>
1.9965656996

> <CNNaffinity_variance>
0.3182040155

$$$$
[H]C([H])=C([H])C(=O)N([H])[C@]1([H])C([H])([H])C([H])([H])[C@@]([H])(n2c([H])c(-c3c([H])c([H])c(Oc4c([H])c([H])c([H])c([H])c4[H])c([H])c3[H])c3c(N([H])[H])nc([H])nc32)C([H])([H])C1([H])[H]


 37 41  0  0  0  0  0  0  0  0999 V2000
   -3.4288   23.2437  -27.4499 N   0  0  0  0  0  0  0  0  0  0  0  0
   -2.0974   22.9213  -27.0659 C   0  0  0  0  0  0  0  0  0  0  0  0
   -1.1324   22.7475  -27.9954 N   0  0  0  0  0  0  0  0  0  0  0  0
    0.1180   22.4184  -27.6352 C   0  0  0  0  0  0  0  0  0  0  0  0
    0.4479   22.2519  -26.3434 N   0  0  0  0  0  0  0  0  0  0  0  0
   -0.4603   22.4088  -25.3645 C   0  0  0  0  0  0  0  0  0  0  0  0
   -0.3765   22.2876  -24.0126 N   0  0  0  0  0  0  0  0  0  0  0  0
   -1.5880   22.5460  -23.5251 C   0  0  0  0  0  0  0  0  0  0  0  0
   -2.4723   22.8386  -24.5526 C   0  0  0  0  0  0  0  0  0  0  0  0
   -1.7725   22.7541  -25.7257 C   0  0  0  0  0  0  0  0  0  0  0  0
   -4.2394   22.5919  -27.3832 H   0  0  0  0  0  0  0  0  0  0  0  0
   -3.6185   24.1973  -27.8264 H   0  0  0  0  0  0  0  0  0  0  0  0
   -3.8776   23.2169  -24.4104 C   0  0  0  0  0  0  0  0  0  0  0  0
   -4.9256   22.3217  -24.4566 C   0  0  0  0  0  0  0  0  0  0  0  0
   -6.2418   22.7007  -24.3085 C   0  0  0  0  0  0  0  0  0  0  0  0
   -6.5849   24.0187  -24.1032 C   0  0  0  0  0  0  0  0  0  0  0  0
   -5.5316   24.9181  -24.0573 C   0  0  0  0  0  0  0  0  0  0  0  0
   -4.2196   24.5535  -24.2030 C   0  0  0  0  0  0  0  0  0  0  0  0
   -7.9043   24.4309  -23.9501 O   0  0  0  0  0  0  0  0  0  0  0  0
   -8.4725   24.6640  -22.7061 C   0  0  0  0  0  0  0  0  0  0  0  0
   -8.1143   23.9805  -21.5816 C   0  0  0  0  0  0  0  0  0  0  0  0
   -8.7228   24.2702  -20.3933 C   0  0  0  0  0  0  0  0  0  0  0  0
   -9.7037   25.2436  -20.2768 C   0  0  0  0  0  0  0  0  0  0  0  0
  -10.0487   25.9211  -21.4289 C   0  0  0  0  0  0  0  0  0  0  0  0
   -9.4420   25.6377  -22.6329 C   0  0  0  0  0  0  0  0  0  0  0  0
    0.8476   21.9357  -23.2925 C   0  0  0  0  0  0  0  0  0  0  0  0
    0.5647   21.4015  -21.9186 C   0  0  0  0  0  0  0  0  0  0  0  0
    1.4875   20.3220  -21.4704 C   0  0  0  0  0  0  0  0  0  0  0  0
    2.8968   20.4517  -21.9438 C   0  0  0  0  0  0  0  0  0  0  0  0
    2.9933   20.8001  -23.4228 C   0  0  0  0  0  0  0  0  0  0  0  0
    1.6063   20.8426  -24.0501 C   0  0  0  0  0  0  0  0  0  0  0  0
    3.7031   21.3207  -21.1449 N   0  0  0  0  0  0  0  0  0  0  0  0
    4.7120   20.9038  -20.2581 C   0  0  0  0  0  0  0  0  0  0  0  0
    4.9388   19.6736  -20.1439 O   0  0  0  0  0  0  0  0  0  0  0  0
    3.5279   22.3539  -21.2266 H   0  0  0  0  0  0  0  0  0  0  0  0
    5.5026   21.8296  -19.4693 C   0  0  0  0  0  0  0  0  0  0  0  0
    4.9272   22.6699  -18.6322 C   0  0  0  0  0  0  0  0  0  0  0  0
  1  2  1  0  0  0
  2  3  2  0  0  0
  3  4  1  0  0  0
  4  5  2  0  0  0
  5  6  1  0  0  0
  6  7  1  0  0  0
  7  8  1  0  0  0
  8  9  2  0  0  0
  9 13  1  0  0  0
 13 14  2  0  0  0
 14 15  1  0  0  0
 15 16  2  0  0  0
 16 19  1  0  0  0
 19 20  1  0  0  0
 20 21  2  0  0  0
 21 22  1  0  0  0
 22 23  2  0  0  0
 23 24  1  0  0  0
 24 25  2  0  0  0
 16 17  1  0  0  0
 17 18  2  0  0  0
  9 10  1  0  0  0
  7 26  1  0  0  0
 26 27  1  0  0  0
 27 28  1  0  0  0
 28 29  1  0  0  0
 29 30  1  0  0  0
 30 31  1  0  0  0
 29 32  1  0  0  0
 32 33  1  0  0  0
 33 34  2  0  0  0
 33 36  1  0  0  0
 36 37  2  0  0  0
 10  2  1  0  0  0
 31 26  1  0  0  0
 10  6  2  0  0  0
 18 13  1  0  0  0
 25 20  1  0  0  0
  1 11  1  0  0  0
  1 12  1  0  0  0
 32 35  1  0  0  0
M  END
> <minimizedAffinity>
-8.08174

> <CNNscore>
0.2692930400

> <CNNaffinity>
6.8114304543

> <CNN_VS>
1.8342708349

> <CNNaffinity_variance>
0.2067819387

$$$$
[H]C([H])=C([H])C(=O)N([H])[C@]1([H])C([H])([H])C([H])([H])[C@@]([H])(n2c([H])c(-c3c([H])c([H])c(Oc4c([H])c([H])c([H])c([H])c4[H])c([H])c3[H])c3c(N([H])[H])nc([H])nc32)C([H])([H])C1([H])[H]


 37 41  0  0  0  0  0  0  0  0999 V2000
   -0.7966   22.1164  -25.6997 N   0  0  0  0  0  0  0  0  0  0  0  0
   -0.1657   21.8692  -24.4487 C   0  0  0  0  0  0  0  0  0  0  0  0
    1.1132   21.4372  -24.3926 N   0  0  0  0  0  0  0  0  0  0  0  0
    1.7008   21.1795  -23.2137 C   0  0  0  0  0  0  0  0  0  0  0  0
    1.0378   21.3424  -22.0565 N   0  0  0  0  0  0  0  0  0  0  0  0
   -0.2370   21.7695  -22.0357 C   0  0  0  0  0  0  0  0  0  0  0  0
   -1.1074   21.9980  -21.0162 N   0  0  0  0  0  0  0  0  0  0  0  0
   -2.2494   22.4045  -21.5662 C   0  0  0  0  0  0  0  0  0  0  0  0
   -2.1351   22.4457  -22.9477 C   0  0  0  0  0  0  0  0  0  0  0  0
   -0.8649   22.0441  -23.2613 C   0  0  0  0  0  0  0  0  0  0  0  0
   -1.5499   21.5250  -26.1109 H   0  0  0  0  0  0  0  0  0  0  0  0
   -0.4913   22.9456  -26.2530 H   0  0  0  0  0  0  0  0  0  0  0  0
   -3.1606   22.8842  -23.8934 C   0  0  0  0  0  0  0  0  0  0  0  0
   -3.4110   24.2049  -24.2017 C   0  0  0  0  0  0  0  0  0  0  0  0
   -4.3755   24.5934  -25.1054 C   0  0  0  0  0  0  0  0  0  0  0  0
   -5.1545   23.6648  -25.7594 C   0  0  0  0  0  0  0  0  0  0  0  0
   -4.9030   22.3377  -25.4490 C   0  0  0  0  0  0  0  0  0  0  0  0
   -3.9470   21.9393  -24.5529 C   0  0  0  0  0  0  0  0  0  0  0  0
   -6.1352   24.0269  -26.6765 O   0  0  0  0  0  0  0  0  0  0  0  0
   -5.8414   24.3489  -27.9935 C   0  0  0  0  0  0  0  0  0  0  0  0
   -5.6791   25.6305  -28.4306 C   0  0  0  0  0  0  0  0  0  0  0  0
   -5.3908   25.8637  -29.7454 C   0  0  0  0  0  0  0  0  0  0  0  0
   -5.2532   24.8397  -30.6705 C   0  0  0  0  0  0  0  0  0  0  0  0
   -5.4221   23.5518  -30.2037 C   0  0  0  0  0  0  0  0  0  0  0  0
   -5.7131   23.3043  -28.8800 C   0  0  0  0  0  0  0  0  0  0  0  0
   -0.7843   21.8116  -19.6013 C   0  0  0  0  0  0  0  0  0  0  0  0
   -0.7756   20.3634  -19.2067 C   0  0  0  0  0  0  0  0  0  0  0  0
    0.2554   20.0021  -18.1948 C   0  0  0  0  0  0  0  0  0  0  0  0
    0.5436   21.0537  -17.1759 C   0  0  0  0  0  0  0  0  0  0  0  0
    0.7070   22.4388  -17.7867 C   0  0  0  0  0  0  0  0  0  0  0  0
    0.6124   22.3644  -19.3048 C   0  0  0  0  0  0  0  0  0  0  0  0
   -0.3708   21.0678  -16.0772 N   0  0  0  0  0  0  0  0  0  0  0  0
   -0.0447   21.4189  -14.7549 C   0  0  0  0  0  0  0  0  0  0  0  0
    1.1394   21.7497  -14.4973 O   0  0  0  0  0  0  0  0  0  0  0  0
   -1.3665   20.7938  -16.2731 H   0  0  0  0  0  0  0  0  0  0  0  0
   -1.0134   21.4165  -13.6750 C   0  0  0  0  0  0  0  0  0  0  0  0
   -2.2784   21.7127  -13.8985 C   0  0  0  0  0  0  0  0  0  0  0  0
  1  2  1  0  0  0
  2  3  2  0  0  0
  3  4  1  0  0  0
  4  5  2  0  0  0
  5  6  1  0  0  0
  6  7  1  0  0  0
  7  8  1  0  0  0
  8  9  2  0  0  0
  9 13  1  0  0  0
 13 14  2  0  0  0
 14 15  1  0  0  0
 15 16  2  0  0  0
 16 19  1  0  0  0
 19 20  1  0  0  0
 20 21  2  0  0  0
 21 22  1  0  0  0
 22 23  2  0  0  0
 23 24  1  0  0  0
 24 25  2  0  0  0
 16 17  1  0  0  0
 17 18  2  0  0  0
  9 10  1  0  0  0
  7 26  1  0  0  0
 26 27  1  0  0  0
 27 28  1  0  0  0
 28 29  1  0  0  0
 29 30  1  0  0  0
 30 31  1  0  0  0
 29 32  1  0  0  0
 32 33  1  0  0  0
 33 34  2  0  0  0
 33 36  1  0  0  0
 36 37  2  0  0  0
 10  2  1  0  0  0
 31 26  1  0  0  0
 10  6  2  0  0  0
 18 13  1  0  0  0
 25 20  1  0  0  0
  1 11  1  0  0  0
  1 12  1  0  0  0
 32 35  1  0  0  0
M  END
> <minimizedAffinity>
-7.88578

> <CNNscore>
0.1446138918

> <CNNaffinity>
6.6040406227

> <CNN_VS>
0.9550360441

> <CNNaffinity_variance>
0.4194343686

$$$$
[H]C([H])=C([H])C(=O)N([H])[C@]1([H])C([H])([H])C([H])([H])[C@@]([H])(n2c([H])c(-c3c([H])c([H])c(Oc4c([H])c([H])c([H])c([H])c4[H])c([H])c3[H])c3c(N([H])[H])nc([H])nc32)C([H])([H])C1([H])[H]


 37 41  0  0  0  0  0  0  0  0999 V2000
   -3.2143   23.8703  -27.0113 N   0  0  0  0  0  0  0  0  0  0  0  0
   -2.0843   23.1291  -26.5666 C   0  0  0  0  0  0  0  0  0  0  0  0
   -1.0590   22.8617  -27.4048 N   0  0  0  0  0  0  0  0  0  0  0  0
   -0.0043   22.1409  -26.9931 C   0  0  0  0  0  0  0  0  0  0  0  0
    0.0646   21.6642  -25.7388 N   0  0  0  0  0  0  0  0  0  0  0  0
   -0.9185   21.8912  -24.8501 C   0  0  0  0  0  0  0  0  0  0  0  0
   -1.0829   21.5148  -23.5538 N   0  0  0  0  0  0  0  0  0  0  0  0
   -2.2523   22.0085  -23.1528 C   0  0  0  0  0  0  0  0  0  0  0  0
   -2.8610   22.7112  -24.1820 C   0  0  0  0  0  0  0  0  0  0  0  0
   -2.0281   22.6446  -25.2659 C   0  0  0  0  0  0  0  0  0  0  0  0
   -4.1623   23.4675  -27.1704 H   0  0  0  0  0  0  0  0  0  0  0  0
   -3.0969   24.8899  -27.1944 H   0  0  0  0  0  0  0  0  0  0  0  0
   -4.1308   23.4327  -24.1115 C   0  0  0  0  0  0  0  0  0  0  0  0
   -5.3653   22.8380  -24.2677 C   0  0  0  0  0  0  0  0  0  0  0  0
   -6.5495   23.5371  -24.1855 C   0  0  0  0  0  0  0  0  0  0  0  0
   -6.5613   24.8921  -23.9388 C   0  0  0  0  0  0  0  0  0  0  0  0
   -5.3206   25.4896  -23.7824 C   0  0  0  0  0  0  0  0  0  0  0  0
   -4.1370   24.8053  -23.8617 C   0  0  0  0  0  0  0  0  0  0  0  0
   -7.7405   25.6241  -23.8503 O   0  0  0  0  0  0  0  0  0  0  0  0
   -8.5539   25.5934  -22.7269 C   0  0  0  0  0  0  0  0  0  0  0  0
   -9.8966   25.3611  -22.7832 C   0  0  0  0  0  0  0  0  0  0  0  0
  -10.6280   25.3473  -21.6295 C   0  0  0  0  0  0  0  0  0  0  0  0
  -10.0578   25.5622  -20.3837 C   0  0  0  0  0  0  0  0  0  0  0  0
   -8.6977   25.7950  -20.3532 C   0  0  0  0  0  0  0  0  0  0  0  0
   -7.9496   25.8113  -21.5100 C   0  0  0  0  0  0  0  0  0  0  0  0
   -0.1159   20.7162  -22.8000 C   0  0  0  0  0  0  0  0  0  0  0  0
    1.2617   21.3111  -22.8346 C   0  0  0  0  0  0  0  0  0  0  0  0
    2.0401   21.1476  -21.5757 C   0  0  0  0  0  0  0  0  0  0  0  0
    1.7970   19.8735  -20.8376 C   0  0  0  0  0  0  0  0  0  0  0  0
    0.3180   19.5307  -20.7223 C   0  0  0  0  0  0  0  0  0  0  0  0
   -0.5328   20.6386  -21.3288 C   0  0  0  0  0  0  0  0  0  0  0  0
    2.5579   18.7644  -21.3218 N   0  0  0  0  0  0  0  0  0  0  0  0
    3.1789   17.7932  -20.5162 C   0  0  0  0  0  0  0  0  0  0  0  0
    3.0685   17.8896  -19.2686 O   0  0  0  0  0  0  0  0  0  0  0  0
    2.6617   18.6669  -22.3633 H   0  0  0  0  0  0  0  0  0  0  0  0
    3.9412   16.6852  -21.0602 C   0  0  0  0  0  0  0  0  0  0  0  0
    4.3235   16.6801  -22.3218 C   0  0  0  0  0  0  0  0  0  0  0  0
  1  2  1  0  0  0
  2  3  2  0  0  0
  3  4  1  0  0  0
  4  5  2  0  0  0
  5  6  1  0  0  0
  6  7  1  0  0  0
  7  8  1  0  0  0
  8  9  2  0  0  0
  9 13  1  0  0  0
 13 14  2  0  0  0
 14 15  1  0  0  0
 15 16  2  0  0  0
 16 19  1  0  0  0
 19 20  1  0  0  0
 20 21  2  0  0  0
 21 22  1  0  0  0
 22 23  2  0  0  0
 23 24  1  0  0  0
 24 25  2  0  0  0
 16 17  1  0  0  0
 17 18  2  0  0  0
  9 10  1  0  0  0
  7 26  1  0  0  0
 26 27  1  0  0  0
 27 28  1  0  0  0
 28 29  1  0  0  0
 29 30  1  0  0  0
 30 31  1  0  0  0
 29 32  1  0  0  0
 32 33  1  0  0  0
 33 34  2  0  0  0
 33 36  1  0  0  0
 36 37  2  0  0  0
 10  2  1  0  0  0
 31 26  1  0  0  0
 10  6  2  0  0  0
 18 13  1  0  0  0
 25 20  1  0  0  0
  1 11  1  0  0  0
  1 12  1  0  0  0
 32 35  1  0  0  0
M  END
> <minimizedAffinity>
-7.63463

> <CNNscore>
0.1250729561

> <CNNaffinity>
6.5977120399

> <CNN_VS>
0.8251953721

> <CNNaffinity_variance>
0.3056487441

$$$$
[H]C([H])=C([H])C(=O)N([H])[C@]1([H])C([H])([H])C([H])([H])[C@@]([H])(n2c([H])c(-c3c([H])c([H])c(Oc4c([H])c([H])c([H])c([H])c4[H])c([H])c3[H])c3c(N([H])[H])nc([H])nc32)C([H])([H])C1([H])[H]


 37 41  0  0  0  0  0  0  0  0999 V2000
   -0.6067   22.0752  -25.6042 N   0  0  0  0  0  0  0  0  0  0  0  0
    0.0471   21.7913  -24.3729 C   0  0  0  0  0  0  0  0  0  0  0  0
    1.3445   21.4151  -24.3496 N   0  0  0  0  0  0  0  0  0  0  0  0
    1.9549   21.1226  -23.1905 C   0  0  0  0  0  0  0  0  0  0  0  0
    1.2969   21.1943  -22.0212 N   0  0  0  0  0  0  0  0  0  0  0  0
    0.0046   21.5617  -21.9681 C   0  0  0  0  0  0  0  0  0  0  0  0
   -0.8649   21.6967  -20.9313 N   0  0  0  0  0  0  0  0  0  0  0  0
   -2.0295   22.0796  -21.4502 C   0  0  0  0  0  0  0  0  0  0  0  0
   -1.9309   22.1985  -22.8285 C   0  0  0  0  0  0  0  0  0  0  0  0
   -0.6473   21.8717  -23.1726 C   0  0  0  0  0  0  0  0  0  0  0  0
   -1.3369   21.4728  -26.0404 H   0  0  0  0  0  0  0  0  0  0  0  0
   -0.3443   22.9453  -26.1151 H   0  0  0  0  0  0  0  0  0  0  0  0
   -2.9844   22.6394  -23.7417 C   0  0  0  0  0  0  0  0  0  0  0  0
   -3.2169   23.9582  -24.0715 C   0  0  0  0  0  0  0  0  0  0  0  0
   -4.2089   24.3486  -24.9440 C   0  0  0  0  0  0  0  0  0  0  0  0
   -5.0355   23.4239  -25.5429 C   0  0  0  0  0  0  0  0  0  0  0  0
   -4.8020   22.0988  -25.2110 C   0  0  0  0  0  0  0  0  0  0  0  0
   -3.8192   21.6985  -24.3454 C   0  0  0  0  0  0  0  0  0  0  0  0
   -6.0450   23.7880  -26.4275 O   0  0  0  0  0  0  0  0  0  0  0  0
   -5.7966   24.0867  -27.7593 C   0  0  0  0  0  0  0  0  0  0  0  0
   -5.6316   23.1331  -28.7204 C   0  0  0  0  0  0  0  0  0  0  0  0
   -5.3897   23.5104  -30.0108 C   0  0  0  0  0  0  0  0  0  0  0  0
   -5.3030   24.8404  -30.3941 C   0  0  0  0  0  0  0  0  0  0  0  0
   -5.4734   25.7863  -29.4034 C   0  0  0  0  0  0  0  0  0  0  0  0
   -5.7179   25.4179  -28.0985 C   0  0  0  0  0  0  0  0  0  0  0  0
   -0.5197   21.4509  -19.5308 C   0  0  0  0  0  0  0  0  0  0  0  0
   -1.1416   22.4576  -18.6075 C   0  0  0  0  0  0  0  0  0  0  0  0
   -1.5688   21.9106  -17.2899 C   0  0  0  0  0  0  0  0  0  0  0  0
   -0.7008   20.8295  -16.7377 C   0  0  0  0  0  0  0  0  0  0  0  0
   -0.3338   19.7783  -17.7763 C   0  0  0  0  0  0  0  0  0  0  0  0
   -1.0289   20.0731  -19.0989 C   0  0  0  0  0  0  0  0  0  0  0  0
    0.4531   21.3061  -16.0413 N   0  0  0  0  0  0  0  0  0  0  0  0
    0.4790   21.7068  -14.6934 C   0  0  0  0  0  0  0  0  0  0  0  0
   -0.5863   21.6491  -14.0304 O   0  0  0  0  0  0  0  0  0  0  0  0
    1.3543   21.3617  -16.5796 H   0  0  0  0  0  0  0  0  0  0  0  0
    1.6799   22.1836  -14.0338 C   0  0  0  0  0  0  0  0  0  0  0  0
    2.3102   23.2574  -14.4670 C   0  0  0  0  0  0  0  0  0  0  0  0
  1  2  1  0  0  0
  2  3  2  0  0  0
  3  4  1  0  0  0
  4  5  2  0  0  0
  5  6  1  0  0  0
  6  7  1  0  0  0
  7  8  1  0  0  0
  8  9  2  0  0  0
  9 13  1  0  0  0
 13 14  2  0  0  0
 14 15  1  0  0  0
 15 16  2  0  0  0
 16 19  1  0  0  0
 19 20  1  0  0  0
 20 21  2  0  0  0
 21 22  1  0  0  0
 22 23  2  0  0  0
 23 24  1  0  0  0
 24 25  2  0  0  0
 16 17  1  0  0  0
 17 18  2  0  0  0
  9 10  1  0  0  0
  7 26  1  0  0  0
 26 27  1  0  0  0
 27 28  1  0  0  0
 28 29  1  0  0  0
 29 30  1  0  0  0
 30 31  1  0  0  0
 29 32  1  0  0  0
 32 33  1  0  0  0
 33 34  2  0  0  0
 33 36  1  0  0  0
 36 37  2  0  0  0
 10  2  1  0  0  0
 31 26  1  0  0  0
 10  6  2  0  0  0
 18 13  1  0  0  0
 25 20  1  0  0  0
  1 11  1  0  0  0
  1 12  1  0  0  0
 32 35  1  0  0  0
M  END
> <minimizedAffinity>
-8.10082

> <CNNscore>
0.1236518547

> <CNNaffinity>
6.4642877579

> <CNN_VS>
0.7993211746

> <CNNaffinity_variance>
0.2721100152

$$$$
[H]C([H])=C([H])C(=O)N([H])[C@]1([H])C([H])([H])C([H])([H])[C@@]([H])(n2c([H])c(-c3c([H])c([H])c(Oc4c([H])c([H])c([H])c([H])c4[H])c([H])c3[H])c3c(N([H])[H])nc([H])nc32)C([H])([H])C1([H])[H]


 37 41  0  0  0  0  0  0  0  0999 V2000
  -10.3382   23.8200  -19.7983 N   0  0  0  0  0  0  0  0  0  0  0  0
   -9.5806   24.1842  -20.9462 C   0  0  0  0  0  0  0  0  0  0  0  0
  -10.0800   25.0451  -21.8598 N   0  0  0  0  0  0  0  0  0  0  0  0
   -9.3762   25.3695  -22.9557 C   0  0  0  0  0  0  0  0  0  0  0  0
   -8.1572   24.8499  -23.1777 N   0  0  0  0  0  0  0  0  0  0  0  0
   -7.5971   23.9872  -22.3117 C   0  0  0  0  0  0  0  0  0  0  0  0
   -6.4065   23.3301  -22.3179 N   0  0  0  0  0  0  0  0  0  0  0  0
   -6.3675   22.5896  -21.2124 C   0  0  0  0  0  0  0  0  0  0  0  0
   -7.5302   22.7567  -20.4751 C   0  0  0  0  0  0  0  0  0  0  0  0
   -8.3210   23.6390  -21.1600 C   0  0  0  0  0  0  0  0  0  0  0  0
  -10.7692   22.8834  -19.6452 H   0  0  0  0  0  0  0  0  0  0  0  0
  -10.4786   24.5331  -19.0509 H   0  0  0  0  0  0  0  0  0  0  0  0
   -7.8364   22.1459  -19.1822 C   0  0  0  0  0  0  0  0  0  0  0  0
   -7.4942   22.7008  -17.9669 C   0  0  0  0  0  0  0  0  0  0  0  0
   -7.8039   22.1120  -16.7606 C   0  0  0  0  0  0  0  0  0  0  0  0
   -8.4840   20.9156  -16.7056 C   0  0  0  0  0  0  0  0  0  0  0  0
   -8.8274   20.3580  -17.9270 C   0  0  0  0  0  0  0  0  0  0  0  0
   -8.5253   20.9338  -19.1323 C   0  0  0  0  0  0  0  0  0  0  0  0
   -8.8106   20.2976  -15.5033 O   0  0  0  0  0  0  0  0  0  0  0  0
   -8.2049   20.6375  -14.3024 C   0  0  0  0  0  0  0  0  0  0  0  0
   -6.9862   20.1599  -13.9191 C   0  0  0  0  0  0  0  0  0  0  0  0
   -6.4581   20.5434  -12.7190 C   0  0  0  0  0  0  0  0  0  0  0  0
   -7.1155   21.4103  -11.8591 C   0  0  0  0  0  0  0  0  0  0  0  0
   -8.3471   21.8797  -12.2694 C   0  0  0  0  0  0  0  0  0  0  0  0
   -8.8898   21.5000  -13.4774 C   0  0  0  0  0  0  0  0  0  0  0  0
   -5.4016   23.4584  -23.3737 C   0  0  0  0  0  0  0  0  0  0  0  0
   -5.6765   22.5458  -24.5332 C   0  0  0  0  0  0  0  0  0  0  0  0
   -5.3247   23.1115  -25.8651 C   0  0  0  0  0  0  0  0  0  0  0  0
   -4.1249   23.9988  -25.8833 C   0  0  0  0  0  0  0  0  0  0  0  0
   -4.1170   25.0049  -24.7406 C   0  0  0  0  0  0  0  0  0  0  0  0
   -5.3954   24.8882  -23.9213 C   0  0  0  0  0  0  0  0  0  0  0  0
   -2.8824   23.2981  -25.9759 N   0  0  0  0  0  0  0  0  0  0  0  0
   -2.1941   23.0216  -27.1708 C   0  0  0  0  0  0  0  0  0  0  0  0
   -2.6940   23.4128  -28.2548 O   0  0  0  0  0  0  0  0  0  0  0  0
   -2.4483   22.9626  -25.0792 H   0  0  0  0  0  0  0  0  0  0  0  0
   -0.9331   22.3052  -27.2087 C   0  0  0  0  0  0  0  0  0  0  0  0
    0.0657   22.7303  -27.9568 C   0  0  0  0  0  0  0  0  0  0  0  0
  1  2  1  0  0  0
  2  3  2  0  0  0
  3  4  1  0  0  0
  4  5  2  0  0  0
  5  6  1  0  0  0
  6  7  1  0  0  0
  7  8  1  0  0  0
  8  9  2  0  0  0
  9 13  1  0  0  0
 13 14  2  0  0  0
 14 15  1  0  0  0
 15 16  2  0  0  0
 16 19  1  0  0  0
 19 20  1  0  0  0
 20 21  2  0  0  0
 21 22  1  0  0  0
 22 23  2  0  0  0
 23 24  1  0  0  0
 24 25  2  0  0  0
 16 17  1  0  0  0
 17 18  2  0  0  0
  9 10  1  0  0  0
  7 26  1  0  0  0
 26 27  1  0  0  0
 27 28  1  0  0  0
 28 29  1  0  0  0
 29 30  1  0  0  0
 30 31  1  0  0  0
 29 32  1  0  0  0
 32 33  1  0  0  0
 33 34  2  0  0  0
 33 36  1  0  0  0
 36 37  2  0  0  0
 10  2  1  0  0  0
 31 26  1  0  0  0
 10  6  2  0  0  0
 18 13  1  0  0  0
 25 20  1  0  0  0
  1 11  1  0  0  0
  1 12  1  0  0  0
 32 35  1  0  0  0
M  END
> <minimizedAffinity>
-6.85484

> <CNNscore>
0.1046577170

> <CNNaffinity>
6.0745892525

> <CNN_VS>
0.6357526183

> <CNNaffinity_variance>
0.1669172496

$$$$
[H]C([H])=C([H])C(=O)N([H])[C@]1([H])C([H])([H])C([H])([H])[C@@]([H])(n2c([H])c(-c3c([H])c([H])c(Oc4c([H])c([H])c([H])c([H])c4[H])c([H])c3[H])c3c(N([H])[H])nc([H])nc32)C([H])([H])C1([H])[H]


 37 41  0  0  0  0  0  0  0  0999 V2000
   -8.8251   25.6753  -23.2719 N   0  0  0  0  0  0  0  0  0  0  0  0
   -9.6407   25.0427  -22.2928 C   0  0  0  0  0  0  0  0  0  0  0  0
  -10.8924   25.4863  -22.0440 N   0  0  0  0  0  0  0  0  0  0  0  0
  -11.6532   24.9060  -21.1028 C   0  0  0  0  0  0  0  0  0  0  0  0
  -11.1953   23.8693  -20.3809 N   0  0  0  0  0  0  0  0  0  0  0  0
   -9.9601   23.3748  -20.5742 C   0  0  0  0  0  0  0  0  0  0  0  0
   -9.2780   22.3612  -19.9769 N   0  0  0  0  0  0  0  0  0  0  0  0
   -8.0796   22.3083  -20.5539 C   0  0  0  0  0  0  0  0  0  0  0  0
   -7.9686   23.2850  -21.5323 C   0  0  0  0  0  0  0  0  0  0  0  0
   -9.1526   23.9709  -21.5563 C   0  0  0  0  0  0  0  0  0  0  0  0
   -7.9907   26.2624  -23.0589 H   0  0  0  0  0  0  0  0  0  0  0  0
   -9.0705   25.5494  -24.2774 H   0  0  0  0  0  0  0  0  0  0  0  0
   -6.8218   23.5104  -22.4112 C   0  0  0  0  0  0  0  0  0  0  0  0
   -5.8284   24.4338  -22.1610 C   0  0  0  0  0  0  0  0  0  0  0  0
   -4.7507   24.6203  -22.9987 C   0  0  0  0  0  0  0  0  0  0  0  0
   -4.6079   23.8801  -24.1514 C   0  0  0  0  0  0  0  0  0  0  0  0
   -5.6066   22.9527  -24.4028 C   0  0  0  0  0  0  0  0  0  0  0  0
   -6.6822   22.7582  -23.5777 C   0  0  0  0  0  0  0  0  0  0  0  0
   -3.5312   24.0460  -25.0159 O   0  0  0  0  0  0  0  0  0  0  0  0
   -3.6941   24.2433  -26.3794 C   0  0  0  0  0  0  0  0  0  0  0  0
   -3.1294   23.4369  -27.3234 C   0  0  0  0  0  0  0  0  0  0  0  0
   -3.3384   23.6995  -28.6476 C   0  0  0  0  0  0  0  0  0  0  0  0
   -4.1111   24.7658  -29.0825 C   0  0  0  0  0  0  0  0  0  0  0  0
   -4.6715   25.5670  -28.1082 C   0  0  0  0  0  0  0  0  0  0  0  0
   -4.4679   25.3122  -26.7697 C   0  0  0  0  0  0  0  0  0  0  0  0
   -9.8195   21.5244  -18.9056 C   0  0  0  0  0  0  0  0  0  0  0  0
   -8.8241   20.5130  -18.4168 C   0  0  0  0  0  0  0  0  0  0  0  0
   -8.8878   20.2359  -16.9550 C   0  0  0  0  0  0  0  0  0  0  0  0
  -10.2538   20.2867  -16.3562 C   0  0  0  0  0  0  0  0  0  0  0  0
  -11.0532   21.5001  -16.8109 C   0  0  0  0  0  0  0  0  0  0  0  0
  -10.2019   22.3928  -17.7039 C   0  0  0  0  0  0  0  0  0  0  0  0
  -11.0017   19.0777  -16.5057 N   0  0  0  0  0  0  0  0  0  0  0  0
  -11.4199   18.2468  -15.4508 C   0  0  0  0  0  0  0  0  0  0  0  0
  -11.1227   18.5751  -14.2753 O   0  0  0  0  0  0  0  0  0  0  0  0
  -11.2599   18.7863  -17.4821 H   0  0  0  0  0  0  0  0  0  0  0  0
  -12.1788   17.0279  -15.6583 C   0  0  0  0  0  0  0  0  0  0  0  0
  -12.3207   16.5149  -16.8643 C   0  0  0  0  0  0  0  0  0  0  0  0
  1  2  1  0  0  0
  2  3  2  0  0  0
  3  4  1  0  0  0
  4  5  2  0  0  0
  5  6  1  0  0  0
  6  7  1  0  0  0
  7  8  1  0  0  0
  8  9  2  0  0  0
  9 13  1  0  0  0
 13 14  2  0  0  0
 14 15  1  0  0  0
 15 16  2  0  0  0
 16 19  1  0  0  0
 19 20  1  0  0  0
 20 21  2  0  0  0
 21 22  1  0  0  0
 22 23  2  0  0  0
 23 24  1  0  0  0
 24 25  2  0  0  0
 16 17  1  0  0  0
 17 18  2  0  0  0
  9 10  1  0  0  0
  7 26  1  0  0  0
 26 27  1  0  0  0
 27 28  1  0  0  0
 28 29  1  0  0  0
 29 30  1  0  0  0
 30 31  1  0  0  0
 29 32  1  0  0  0
 32 33  1  0  0  0
 33 34  2  0  0  0
 33 36  1  0  0  0
 36 37  2  0  0  0
 10  2  1  0  0  0
 31 26  1  0  0  0
 10  6  2  0  0  0
 18 13  1  0  0  0
 25 20  1  0  0  0
  1 11  1  0  0  0
  1 12  1  0  0  0
 32 35  1  0  0  0
M  END
> <minimizedAffinity>
-7.77263

> <CNNscore>
0.1040716767

> <CNNaffinity>
5.8270750046

> <CNN_VS>
0.6064334512

> <CNNaffinity_variance>
0.1209397465

$$$$
[H]C([H])=C([H])C(=O)N([H])[C@]1([H])C([H])([H])C([H])([H])[C@@]([H])(n2c([H])c(-c3c([H])c([H])c(Oc4c([H])c([H])c([H])c([H])c4[H])c([H])c3[H])c3c(N([H])[H])nc([H])nc32)C([H])([H])C1([H])[H]


 37 41  0  0  0  0  0  0  0  0999 V2000
  -10.4875   23.7183  -19.7351 N   0  0  0  0  0  0  0  0  0  0  0  0
   -9.7998   24.1820  -20.8910 C   0  0  0  0  0  0  0  0  0  0  0  0
  -10.3724   25.0797  -21.7227 N   0  0  0  0  0  0  0  0  0  0  0  0
   -9.7345   25.4984  -22.8269 C   0  0  0  0  0  0  0  0  0  0  0  0
   -8.5109   25.0393  -23.1387 N   0  0  0  0  0  0  0  0  0  0  0  0
   -7.8801   24.1451  -22.3575 C   0  0  0  0  0  0  0  0  0  0  0  0
   -6.6696   23.5343  -22.4619 N   0  0  0  0  0  0  0  0  0  0  0  0
   -6.5513   22.7275  -21.4097 C   0  0  0  0  0  0  0  0  0  0  0  0
   -7.6815   22.8046  -20.6096 C   0  0  0  0  0  0  0  0  0  0  0  0
   -8.5345   23.6984  -21.1982 C   0  0  0  0  0  0  0  0  0  0  0  0
  -10.8784   22.7587  -19.6229 H   0  0  0  0  0  0  0  0  0  0  0  0
  -10.6153   24.3772  -18.9373 H   0  0  0  0  0  0  0  0  0  0  0  0
   -7.9032   22.1026  -19.3461 C   0  0  0  0  0  0  0  0  0  0  0  0
   -8.4872   20.8571  -19.2481 C   0  0  0  0  0  0  0  0  0  0  0  0
   -8.6752   20.2102  -18.0465 C   0  0  0  0  0  0  0  0  0  0  0  0
   -8.2823   20.7856  -16.8584 C   0  0  0  0  0  0  0  0  0  0  0  0
   -7.6959   22.0374  -16.9571 C   0  0  0  0  0  0  0  0  0  0  0  0
   -7.5035   22.6902  -18.1456 C   0  0  0  0  0  0  0  0  0  0  0  0
   -8.4589   20.1569  -15.6306 O   0  0  0  0  0  0  0  0  0  0  0  0
   -9.3387   19.0987  -15.4551 C   0  0  0  0  0  0  0  0  0  0  0  0
   -8.9510   17.7915  -15.4892 C   0  0  0  0  0  0  0  0  0  0  0  0
   -9.8804   16.8071  -15.3072 C   0  0  0  0  0  0  0  0  0  0  0  0
  -11.2217   17.0809  -15.0858 C   0  0  0  0  0  0  0  0  0  0  0  0
  -11.5890   18.4111  -15.0559 C   0  0  0  0  0  0  0  0  0  0  0  0
  -10.6607   19.4127  -15.2380 C   0  0  0  0  0  0  0  0  0  0  0  0
   -5.7225   23.7660  -23.5529 C   0  0  0  0  0  0  0  0  0  0  0  0
   -6.1385   23.0799  -24.8214 C   0  0  0  0  0  0  0  0  0  0  0  0
   -5.8227   23.8330  -26.0666 C   0  0  0  0  0  0  0  0  0  0  0  0
   -4.5588   24.6256  -26.0282 C   0  0  0  0  0  0  0  0  0  0  0  0
   -4.4020   25.4251  -24.7420 C   0  0  0  0  0  0  0  0  0  0  0  0
   -5.6344   25.2630  -23.8622 C   0  0  0  0  0  0  0  0  0  0  0  0
   -3.3842   23.8655  -26.3218 N   0  0  0  0  0  0  0  0  0  0  0  0
   -2.9543   23.5020  -27.6106 C   0  0  0  0  0  0  0  0  0  0  0  0
   -3.6432   23.8641  -28.5966 O   0  0  0  0  0  0  0  0  0  0  0  0
   -2.7947   23.5533  -25.5094 H   0  0  0  0  0  0  0  0  0  0  0  0
   -1.7515   22.7280  -27.8532 C   0  0  0  0  0  0  0  0  0  0  0  0
   -1.0263   22.2706  -26.8518 C   0  0  0  0  0  0  0  0  0  0  0  0
  1  2  1  0  0  0
  2  3  2  0  0  0
  3  4  1  0  0  0
  4  5  2  0  0  0
  5  6  1  0  0  0
  6  7  1  0  0  0
  7  8  1  0  0  0
  8  9  2  0  0  0
  9 13  1  0  0  0
 13 14  2  0  0  0
 14 15  1  0  0  0
 15 16  2  0  0  0
 16 19  1  0  0  0
 19 20  1  0  0  0
 20 21  2  0  0  0
 21 22  1  0  0  0
 22 23  2  0  0  0
 23 24  1  0  0  0
 24 25  2  0  0  0
 16 17  1  0  0  0
 17 18  2  0  0  0
  9 10  1  0  0  0
  7 26  1  0  0  0
 26 27  1  0  0  0
 27 28  1  0  0  0
 28 29  1  0  0  0
 29 30  1  0  0  0
 30 31  1  0  0  0
 29 32  1  0  0  0
 32 33  1  0  0  0
 33 34  2  0  0  0
 33 36  1  0  0  0
 36 37  2  0  0  0
 10  2  1  0  0  0
 31 26  1  0  0  0
 10  6  2  0  0  0
 18 13  1  0  0  0
 25 20  1  0  0  0
  1 11  1  0  0  0
  1 12  1  0  0  0
 32 35  1  0  0  0
M  END
> <minimizedAffinity>
-7.18317

> <CNNscore>
0.0909836143

> <CNNaffinity>
6.0493302345

> <CNN_VS>
0.5503899455

> <CNNaffinity_variance>
0.1065501943

$$$$
[H]C([H])=C([H])C(=O)N([H])[C@]1([H])C([H])([H])C([H])([H])[C@@]([H])(n2c([H])c(-c3c([H])c([H])c(Oc4c([H])c([H])c([H])c([H])c4[H])c([H])c3[H])c3c(N([H])[H])nc([H])nc32)C([H])([H])C1([H])[H]


 37 41  0  0  0  0  0  0  0  0999 V2000
   -2.5124   23.8903  -23.0071 N   0  0  0  0  0  0  0  0  0  0  0  0
   -1.6735   23.2993  -22.0217 C   0  0  0  0  0  0  0  0  0  0  0  0
   -1.7909   23.6392  -20.7195 N   0  0  0  0  0  0  0  0  0  0  0  0
   -0.9828   23.1009  -19.7927 C   0  0  0  0  0  0  0  0  0  0  0  0
   -0.0349   22.2103  -20.1301 N   0  0  0  0  0  0  0  0  0  0  0  0
    0.1392   21.8251  -21.4065 C   0  0  0  0  0  0  0  0  0  0  0  0
    1.0168   20.9654  -21.9896 N   0  0  0  0  0  0  0  0  0  0  0  0
    0.7511   20.9667  -23.2939 C   0  0  0  0  0  0  0  0  0  0  0  0
   -0.3013   21.8255  -23.5739 C   0  0  0  0  0  0  0  0  0  0  0  0
   -0.6994   22.3789  -22.3872 C   0  0  0  0  0  0  0  0  0  0  0  0
   -2.1941   24.5809  -23.7199 H   0  0  0  0  0  0  0  0  0  0  0  0
   -3.5193   23.6206  -23.0266 H   0  0  0  0  0  0  0  0  0  0  0  0
   -0.9087   22.0602  -24.8832 C   0  0  0  0  0  0  0  0  0  0  0  0
   -0.2573   22.6638  -25.9384 C   0  0  0  0  0  0  0  0  0  0  0  0
   -0.8470   22.8639  -27.1672 C   0  0  0  0  0  0  0  0  0  0  0  0
   -2.1426   22.4640  -27.4093 C   0  0  0  0  0  0  0  0  0  0  0  0
   -2.7971   21.8580  -26.3487 C   0  0  0  0  0  0  0  0  0  0  0  0
   -2.2215   21.6535  -25.1230 C   0  0  0  0  0  0  0  0  0  0  0  0
   -2.7640   22.6525  -28.6391 O   0  0  0  0  0  0  0  0  0  0  0  0
   -3.7226   23.6335  -28.8469 C   0  0  0  0  0  0  0  0  0  0  0  0
   -5.0266   23.4949  -28.4719 C   0  0  0  0  0  0  0  0  0  0  0  0
   -5.9095   24.5091  -28.7129 C   0  0  0  0  0  0  0  0  0  0  0  0
   -5.5339   25.6922  -29.3313 C   0  0  0  0  0  0  0  0  0  0  0  0
   -4.2092   25.8082  -29.7014 C   0  0  0  0  0  0  0  0  0  0  0  0
   -3.3096   24.7923  -29.4636 C   0  0  0  0  0  0  0  0  0  0  0  0
    2.0376   20.2118  -21.2608 C   0  0  0  0  0  0  0  0  0  0  0  0
    1.5222   18.8933  -20.7620 C   0  0  0  0  0  0  0  0  0  0  0  0
    2.5192   17.7874  -20.7879 C   0  0  0  0  0  0  0  0  0  0  0  0
    3.9272   18.1926  -20.5041 C   0  0  0  0  0  0  0  0  0  0  0  0
    4.3450   19.4460  -21.2608 C   0  0  0  0  0  0  0  0  0  0  0  0
    3.2235   19.9095  -22.1809 C   0  0  0  0  0  0  0  0  0  0  0  0
    4.2368   18.2908  -19.1120 N   0  0  0  0  0  0  0  0  0  0  0  0
    5.4133   17.8136  -18.5069 C   0  0  0  0  0  0  0  0  0  0  0  0
    6.2740   17.2527  -19.2298 O   0  0  0  0  0  0  0  0  0  0  0  0
    3.5284   18.7570  -18.4907 H   0  0  0  0  0  0  0  0  0  0  0  0
    5.6782   17.9394  -17.0862 C   0  0  0  0  0  0  0  0  0  0  0  0
    5.7229   19.1230  -16.5073 C   0  0  0  0  0  0  0  0  0  0  0  0
  1  2  1  0  0  0
  2  3  2  0  0  0
  3  4  1  0  0  0
  4  5  2  0  0  0
  5  6  1  0  0  0
  6  7  1  0  0  0
  7  8  1  0  0  0
  8  9  2  0  0  0
  9 13  1  0  0  0
 13 14  2  0  0  0
 14 15  1  0  0  0
 15 16  2  0  0  0
 16 19  1  0  0  0
 19 20  1  0  0  0
 20 21  2  0  0  0
 21 22  1  0  0  0
 22 23  2  0  0  0
 23 24  1  0  0  0
 24 25  2  0  0  0
 16 17  1  0  0  0
 17 18  2  0  0  0
  9 10  1  0  0  0
  7 26  1  0  0  0
 26 27  1  0  0  0
 27 28  1  0  0  0
 28 29  1  0  0  0
 29 30  1  0  0  0
 30 31  1  0  0  0
 29 32  1  0  0  0
 32 33  1  0  0  0
 33 34  2  0  0  0
 33 36  1  0  0  0
 36 37  2  0  0  0
 10  2  1  0  0  0
 31 26  1  0  0  0
 10  6  2  0  0  0
 18 13  1  0  0  0
 25 20  1  0  0  0
  1 11  1  0  0  0
  1 12  1  0  0  0
 32 35  1  0  0  0
M  END
> <minimizedAffinity>
-8.30032

> <CNNscore>
0.0890521184

> <CNNaffinity>
5.9655089378

> <CNN_VS>
0.5312411785

> <CNNaffinity_variance>
0.1752478927

$$$$
[H]C([H])=C([H])C(=O)N([H])[C@]1([H])C([H])([H])C([H])([H])[C@@]([H])(n2c([H])c(-c3c([H])c([H])c(Oc4c([H])c([H])c([H])c([H])c4[H])c([H])c3[H])c3c(N([H])[H])nc([H])nc32)C([H])([H])C1([H])[H]


 37 41  0  0  0  0  0  0  0  0999 V2000
   -2.6919   23.7824  -23.2076 N   0  0  0  0  0  0  0  0  0  0  0  0
   -1.8228   23.2370  -22.2220 C   0  0  0  0  0  0  0  0  0  0  0  0
   -1.9735   23.5515  -20.9168 N   0  0  0  0  0  0  0  0  0  0  0  0
   -1.1383   23.0574  -19.9895 C   0  0  0  0  0  0  0  0  0  0  0  0
   -0.1295   22.2374  -20.3293 N   0  0  0  0  0  0  0  0  0  0  0  0
    0.0806   21.8812  -21.6086 C   0  0  0  0  0  0  0  0  0  0  0  0
    1.0192   21.0904  -22.1943 N   0  0  0  0  0  0  0  0  0  0  0  0
    0.7645   21.0903  -23.5009 C   0  0  0  0  0  0  0  0  0  0  0  0
   -0.3414   21.8794  -23.7797 C   0  0  0  0  0  0  0  0  0  0  0  0
   -0.7856   22.3894  -22.5900 C   0  0  0  0  0  0  0  0  0  0  0  0
   -2.4154   24.5020  -23.9090 H   0  0  0  0  0  0  0  0  0  0  0  0
   -3.6780   23.4454  -23.2393 H   0  0  0  0  0  0  0  0  0  0  0  0
   -0.9528   22.0892  -25.0914 C   0  0  0  0  0  0  0  0  0  0  0  0
   -2.2777   21.8318  -25.3747 C   0  0  0  0  0  0  0  0  0  0  0  0
   -2.8342   22.0484  -26.6162 C   0  0  0  0  0  0  0  0  0  0  0  0
   -2.0811   22.5422  -27.6582 C   0  0  0  0  0  0  0  0  0  0  0  0
   -0.7496   22.8002  -27.3735 C   0  0  0  0  0  0  0  0  0  0  0  0
   -0.1852   22.5892  -26.1436 C   0  0  0  0  0  0  0  0  0  0  0  0
   -2.6151   22.7710  -28.9218 O   0  0  0  0  0  0  0  0  0  0  0  0
   -3.6188   23.7014  -29.1491 C   0  0  0  0  0  0  0  0  0  0  0  0
   -3.3804   25.0359  -29.2981 C   0  0  0  0  0  0  0  0  0  0  0  0
   -4.4254   25.8875  -29.5194 C   0  0  0  0  0  0  0  0  0  0  0  0
   -5.7387   25.4494  -29.6007 C   0  0  0  0  0  0  0  0  0  0  0  0
   -5.9540   24.0948  -29.4465 C   0  0  0  0  0  0  0  0  0  0  0  0
   -4.9082   23.2262  -29.2230 C   0  0  0  0  0  0  0  0  0  0  0  0
    2.0828   20.3984  -21.4657 C   0  0  0  0  0  0  0  0  0  0  0  0
    2.7844   21.3004  -20.4927 C   0  0  0  0  0  0  0  0  0  0  0  0
    3.2103   20.6383  -19.2286 C   0  0  0  0  0  0  0  0  0  0  0  0
    3.6389   19.2156  -19.3682 C   0  0  0  0  0  0  0  0  0  0  0  0
    2.6896   18.3945  -20.2300 C   0  0  0  0  0  0  0  0  0  0  0  0
    1.4958   19.2382  -20.6571 C   0  0  0  0  0  0  0  0  0  0  0  0
    4.9978   19.0535  -19.7812 N   0  0  0  0  0  0  0  0  0  0  0  0
    5.4164   18.7280  -21.0838 C   0  0  0  0  0  0  0  0  0  0  0  0
    4.5422   18.5621  -21.9704 O   0  0  0  0  0  0  0  0  0  0  0  0
    5.7440   19.1882  -19.0531 H   0  0  0  0  0  0  0  0  0  0  0  0
    6.8118   18.5751  -21.4504 C   0  0  0  0  0  0  0  0  0  0  0  0
    7.1710   17.7677  -22.4286 C   0  0  0  0  0  0  0  0  0  0  0  0
  1  2  1  0  0  0
  2  3  2  0  0  0
  3  4  1  0  0  0
  4  5  2  0  0  0
  5  6  1  0  0  0
  6  7  1  0  0  0
  7  8  1  0  0  0
  8  9  2  0  0  0
  9 13  1  0  0  0
 13 14  2  0  0  0
 14 15  1  0  0  0
 15 16  2  0  0  0
 16 19  1  0  0  0
 19 20  1  0  0  0
 20 21  2  0  0  0
 21 22  1  0  0  0
 22 23  2  0  0  0
 23 24  1  0  0  0
 24 25  2  0  0  0
 16 17  1  0  0  0
 17 18  2  0  0  0
  9 10  1  0  0  0
  7 26  1  0  0  0
 26 27  1  0  0  0
 27 28  1  0  0  0
 28 29  1  0  0  0
 29 30  1  0  0  0
 30 31  1  0  0  0
 29 32  1  0  0  0
 32 33  1  0  0  0
 33 34  2  0  0  0
 33 36  1  0  0  0
 36 37  2  0  0  0
 10  2  1  0  0  0
 31 26  1  0  0  0
 10  6  2  0  0  0
 18 13  1  0  0  0
 25 20  1  0  0  0
  1 11  1  0  0  0
  1 12  1  0  0  0
 32 35  1  0  0  0
M  END
> <minimizedAffinity>
-8.54501

> <CNNscore>
0.0760450214

> <CNNaffinity>
6.0003938675

> <CNN_VS>
0.4563000798

> <CNNaffinity_variance>
0.1593152732

$$$$
[H]N=C(N([H])[H])N([H])C([H])([H])C([H])([H])C([H])([H])[C@@]([H])(C(=O)c1nc2c([H])c([H])c([H])c([H])c2s1)N([H])C(=O)[C@@]([H])(N([H])C(=O)[C@@]1([H])N(C(=O)[C@]([H])(N([H])C(=O)OC([H])([H])c2c([H])c([H])c([H])c([H])c2[H])C([H])([H])c2c([H])c([H])c([H])c([H])c2[H])C([H])([H])C([H])([H])C1([H])[H])C([H])([H])C([H])([H])C([H])([H])N([H])C(=N[H])N([H])[H]


 70 74  0  0  0  0  0  0  0  0999 V2000
   -3.3460   22.3997  -18.5480 C   0  0  0  0  0  0  0  0  0  0  0  0
   -4.7486   22.0841  -18.7711 N   0  0  0  0  0  0  0  0  0  0  0  0
   -5.7218   23.1194  -18.6550 C   0  0  0  0  0  0  0  0  0  0  0  0
   -5.2031   24.2688  -18.3538 O   0  0  0  0  0  0  0  0  0  0  0  0
   -5.0165   21.1106  -19.0063 H   0  0  0  0  0  0  0  0  0  0  0  0
   -7.1384   22.9469  -18.8365 C   0  0  0  0  0  0  0  0  0  0  0  0
   -7.7269   22.6090  -17.4649 C   0  0  0  0  0  0  0  0  0  0  0  0
   -8.3441   21.2581  -17.5555 C   0  0  0  0  0  0  0  0  0  0  0  0
   -8.0792   20.8049  -18.9483 C   0  0  0  0  0  0  0  0  0  0  0  0
   -7.6473   21.9385  -19.7035 N   0  0  0  0  0  0  0  0  0  0  0  0
   -7.7232   22.0402  -21.1298 C   0  0  0  0  0  0  0  0  0  0  0  0
   -8.2947   21.1263  -21.7761 O   0  0  0  0  0  0  0  0  0  0  0  0
   -7.1588   23.1777  -21.8713 C   0  0  0  0  0  0  0  0  0  0  0  0
   -8.1643   24.1753  -22.2469 N   0  0  0  0  0  0  0  0  0  0  0  0
   -8.1314   25.4737  -21.6651 C   0  0  0  0  0  0  0  0  0  0  0  0
   -7.2359   25.7457  -20.8573 O   0  0  0  0  0  0  0  0  0  0  0  0
   -8.9107   23.9759  -22.9295 H   0  0  0  0  0  0  0  0  0  0  0  0
   -9.0635   26.4342  -21.9759 O   0  0  0  0  0  0  0  0  0  0  0  0
  -10.1489   26.6245  -21.1476 C   0  0  0  0  0  0  0  0  0  0  0  0
  -10.5541   27.9689  -20.7862 C   0  0  0  0  0  0  0  0  0  0  0  0
   -9.7096   28.8688  -20.1906 C   0  0  0  0  0  0  0  0  0  0  0  0
  -10.0927   30.1579  -19.8573 C   0  0  0  0  0  0  0  0  0  0  0  0
  -11.4089   30.5052  -20.1625 C   0  0  0  0  0  0  0  0  0  0  0  0
  -12.2661   29.6202  -20.7556 C   0  0  0  0  0  0  0  0  0  0  0  0
  -11.8379   28.3603  -21.0644 C   0  0  0  0  0  0  0  0  0  0  0  0
   -6.4029   22.7282  -23.1101 C   0  0  0  0  0  0  0  0  0  0  0  0
   -5.6965   23.7417  -23.8503 C   0  0  0  0  0  0  0  0  0  0  0  0
   -4.7732   24.5708  -23.2760 C   0  0  0  0  0  0  0  0  0  0  0  0
   -4.1124   25.5555  -23.9851 C   0  0  0  0  0  0  0  0  0  0  0  0
   -4.3683   25.7350  -25.3159 C   0  0  0  0  0  0  0  0  0  0  0  0
   -5.2900   24.9235  -25.9316 C   0  0  0  0  0  0  0  0  0  0  0  0
   -5.9399   23.9392  -25.1888 C   0  0  0  0  0  0  0  0  0  0  0  0
   -2.5169   22.5136  -19.7374 C   0  0  0  0  0  0  0  0  0  0  0  0
   -1.8839   23.5676  -19.9759 O   0  0  0  0  0  0  0  0  0  0  0  0
   -2.4389   21.4236  -20.6196 N   0  0  0  0  0  0  0  0  0  0  0  0
   -2.9555   20.5414  -20.4004 H   0  0  0  0  0  0  0  0  0  0  0  0
   -1.6686   21.4608  -21.8344 C   0  0  0  0  0  0  0  0  0  0  0  0
   -2.5393   21.4459  -23.0198 C   0  0  0  0  0  0  0  0  0  0  0  0
   -3.7295   21.0600  -22.9017 O   0  0  0  0  0  0  0  0  0  0  0  0
   -2.0242   21.8765  -24.3206 C   0  0  0  0  0  0  0  0  0  0  0  0
   -2.6467   22.2341  -25.4189 N   0  0  0  0  0  0  0  0  0  0  0  0
   -1.9741   22.5854  -26.4764 C   0  0  0  0  0  0  0  0  0  0  0  0
   -2.5009   22.9840  -27.7135 C   0  0  0  0  0  0  0  0  0  0  0  0
   -1.7113   23.3322  -28.7712 C   0  0  0  0  0  0  0  0  0  0  0  0
   -0.3470   23.3100  -28.6783 C   0  0  0  0  0  0  0  0  0  0  0  0
    0.2106   22.9256  -27.4840 C   0  0  0  0  0  0  0  0  0  0  0  0
   -0.6094   22.5678  -26.3968 C   0  0  0  0  0  0  0  0  0  0  0  0
   -0.3627   22.0429  -24.7948 S   0  0  0  0  0  0  0  0  0  0  0  0
   -0.6451   20.3258  -21.8392 C   0  0  0  0  0  0  0  0  0  0  0  0
    0.2296   20.4496  -20.6205 C   0  0  0  0  0  0  0  0  0  0  0  0
    1.6121   19.8797  -20.8647 C   0  0  0  0  0  0  0  0  0  0  0  0
    2.3609   20.8513  -21.6293 N   0  0  0  0  0  0  0  0  0  0  0  0
    2.3499   21.8741  -21.3727 H   0  0  0  0  0  0  0  0  0  0  0  0
    3.1447   20.4952  -22.7542 C   0  0  0  0  0  0  0  0  0  0  0  0
    3.6952   19.1919  -22.8220 N   0  0  0  0  0  0  0  0  0  0  0  0
    3.3598   21.3168  -23.7042 N   0  0  0  0  0  0  0  0  0  0  0  0
    3.7998   18.6466  -21.9417 H   0  0  0  0  0  0  0  0  0  0  0  0
    3.9907   18.7780  -23.7143 H   0  0  0  0  0  0  0  0  0  0  0  0
    2.9586   22.2657  -23.6642 H   0  0  0  0  0  0  0  0  0  0  0  0
   -2.7861   21.1653  -17.7768 C   0  0  0  0  0  0  0  0  0  0  0  0
   -1.5373   21.5305  -17.0511 C   0  0  0  0  0  0  0  0  0  0  0  0
   -0.5782   20.3707  -16.9187 C   0  0  0  0  0  0  0  0  0  0  0  0
   -1.2383   19.1068  -17.1669 N   0  0  0  0  0  0  0  0  0  0  0  0
   -2.1422   18.9270  -16.6621 H   0  0  0  0  0  0  0  0  0  0  0  0
   -1.5647   17.5328  -19.0707 N   0  0  0  0  0  0  0  0  0  0  0  0
   -0.7603   18.1038  -18.0391 C   0  0  0  0  0  0  0  0  0  0  0  0
    0.4423   17.6807  -17.9133 N   0  0  0  0  0  0  0  0  0  0  0  0
   -1.5264   16.5210  -19.2954 H   0  0  0  0  0  0  0  0  0  0  0  0
   -2.2173   18.1420  -19.6201 H   0  0  0  0  0  0  0  0  0  0  0  0
    1.0540   18.0607  -17.1916 H   0  0  0  0  0  0  0  0  0  0  0  0
 65 66  1  0  0  0
 66 67  2  0  0  0
 66 63  1  0  0  0
 63 62  1  0  0  0
 62 61  1  0  0  0
 61 60  1  0  0  0
 60  1  1  0  0  0
  1  2  1  0  0  0
  2  3  1  0  0  0
  3  4  2  0  0  0
  3  6  1  0  0  0
  6  7  1  0  0  0
  7  8  1  0  0  0
  8  9  1  0  0  0
  9 10  1  0  0  0
 10 11  1  0  0  0
 11 12  2  0  0  0
 11 13  1  0  0  0
 13 26  1  0  0  0
 26 27  1  0  0  0
 27 28  2  0  0  0
 28 29  1  0  0  0
 29 30  2  0  0  0
 30 31  1  0  0  0
 31 32  2  0  0  0
 13 14  1  0  0  0
 14 15  1  0  0  0
 15 16  2  0  0  0
 15 18  1  0  0  0
 18 19  1  0  0  0
 19 20  1  0  0  0
 20 21  2  0  0  0
 21 22  1  0  0  0
 22 23  2  0  0  0
 23 24  1  0  0  0
 24 25  2  0  0  0
  1 33  1  0  0  0
 33 34  2  0  0  0
 33 35  1  0  0  0
 35 37  1  0  0  0
 37 49  1  0  0  0
 49 50  1  0  0  0
 50 51  1  0  0  0
 51 52  1  0  0  0
 52 54  1  0  0  0
 54 55  1  0  0  0
 54 56  2  0  0  0
 37 38  1  0  0  0
 38 39  2  0  0  0
 38 40  1  0  0  0
 40 41  2  0  0  0
 41 42  1  0  0  0
 42 43  2  0  0  0
 43 44  1  0  0  0
 44 45  2  0  0  0
 45 46  1  0  0  0
 46 47  2  0  0  0
 47 48  1  0  0  0
 10  6  1  0  0  0
 32 27  1  0  0  0
 25 20  1  0  0  0
 48 40  1  0  0  0
 47 42  1  0  0  0
 65 68  1  0  0  0
 65 69  1  0  0  0
 67 70  1  0  0  0
 63 64  1  0  0  0
  2  5  1  0  0  0
 14 17  1  0  0  0
 35 36  1  0  0  0
 52 53  1  0  0  0
 55 57  1  0  0  0
 55 58  1  0  0  0
 56 59  1  0  0  0
M  END
> <minimizedAffinity>
-8.40438

> <CNNscore>
0.2773930132

> <CNNaffinity>
7.3186707497

> <CNN_VS>
2.0301480293

> <CNNaffinity_variance>
1.4803195000

$$$$
[H]N=C(N([H])[H])N([H])C([H])([H])C([H])([H])C([H])([H])[C@@]([H])(C(=O)c1nc2c([H])c([H])c([H])c([H])c2s1)N([H])C(=O)[C@@]([H])(N([H])C(=O)[C@@]1([H])N(C(=O)[C@]([H])(N([H])C(=O)OC([H])([H])c2c([H])c([H])c([H])c([H])c2[H])C([H])([H])c2c([H])c([H])c([H])c([H])c2[H])C([H])([H])C([H])([H])C1([H])[H])C([H])([H])C([H])([H])C([H])([H])N([H])C(=N[H])N([H])[H]


 70 74  0  0  0  0  0  0  0  0999 V2000
   -2.4650   22.7246  -20.6998 C   0  0  0  0  0  0  0  0  0  0  0  0
   -3.8589   22.3811  -20.4638 N   0  0  0  0  0  0  0  0  0  0  0  0
   -4.4561   22.7159  -19.2134 C   0  0  0  0  0  0  0  0  0  0  0  0
   -3.6379   23.3182  -18.4080 O   0  0  0  0  0  0  0  0  0  0  0  0
   -4.3926   21.8946  -21.2077 H   0  0  0  0  0  0  0  0  0  0  0  0
   -5.8155   22.4266  -18.8422 C   0  0  0  0  0  0  0  0  0  0  0  0
   -5.7655   21.6851  -17.5045 C   0  0  0  0  0  0  0  0  0  0  0  0
   -6.3613   20.3372  -17.7095 C   0  0  0  0  0  0  0  0  0  0  0  0
   -6.7123   20.2857  -19.1551 C   0  0  0  0  0  0  0  0  0  0  0  0
   -6.6432   21.6166  -19.6706 N   0  0  0  0  0  0  0  0  0  0  0  0
   -7.3178   22.0656  -20.8513 C   0  0  0  0  0  0  0  0  0  0  0  0
   -8.1086   21.2830  -21.4358 O   0  0  0  0  0  0  0  0  0  0  0  0
   -7.1229   23.4126  -21.4078 C   0  0  0  0  0  0  0  0  0  0  0  0
   -8.1513   24.3655  -20.9814 N   0  0  0  0  0  0  0  0  0  0  0  0
   -7.7770   25.5692  -20.3207 C   0  0  0  0  0  0  0  0  0  0  0  0
   -6.5773   25.8004  -20.1313 O   0  0  0  0  0  0  0  0  0  0  0  0
   -9.1562   24.2009  -21.1425 H   0  0  0  0  0  0  0  0  0  0  0  0
   -8.7085   26.4825  -19.8895 O   0  0  0  0  0  0  0  0  0  0  0  0
   -9.8571   26.6839  -20.6245 C   0  0  0  0  0  0  0  0  0  0  0  0
  -10.4675   27.9985  -20.6640 C   0  0  0  0  0  0  0  0  0  0  0  0
  -11.6481   28.2546  -21.3109 C   0  0  0  0  0  0  0  0  0  0  0  0
  -12.2383   29.5078  -21.3376 C   0  0  0  0  0  0  0  0  0  0  0  0
  -11.5590   30.5207  -20.6602 C   0  0  0  0  0  0  0  0  0  0  0  0
  -10.3794   30.2840  -20.0103 C   0  0  0  0  0  0  0  0  0  0  0  0
   -9.8397   29.0291  -20.0140 C   0  0  0  0  0  0  0  0  0  0  0  0
   -7.0469   23.3938  -22.9251 C   0  0  0  0  0  0  0  0  0  0  0  0
   -6.3363   24.4742  -23.5590 C   0  0  0  0  0  0  0  0  0  0  0  0
   -4.9993   24.6920  -23.3727 C   0  0  0  0  0  0  0  0  0  0  0  0
   -4.3252   25.7418  -23.9666 C   0  0  0  0  0  0  0  0  0  0  0  0
   -4.9917   26.6165  -24.7787 C   0  0  0  0  0  0  0  0  0  0  0  0
   -6.3365   26.4341  -24.9916 C   0  0  0  0  0  0  0  0  0  0  0  0
   -6.9879   25.3653  -24.3781 C   0  0  0  0  0  0  0  0  0  0  0  0
   -2.1103   23.0622  -22.0691 C   0  0  0  0  0  0  0  0  0  0  0  0
   -1.6514   24.1934  -22.3494 O   0  0  0  0  0  0  0  0  0  0  0  0
   -2.2937   22.1010  -23.0765 N   0  0  0  0  0  0  0  0  0  0  0  0
   -2.6586   21.1532  -22.8281 H   0  0  0  0  0  0  0  0  0  0  0  0
   -1.9993   22.3603  -24.4608 C   0  0  0  0  0  0  0  0  0  0  0  0
   -3.1505   22.0444  -25.3202 C   0  0  0  0  0  0  0  0  0  0  0  0
   -3.8551   21.0378  -25.0560 O   0  0  0  0  0  0  0  0  0  0  0  0
   -3.4705   22.8937  -26.4687 C   0  0  0  0  0  0  0  0  0  0  0  0
   -4.5348   23.6116  -26.7401 N   0  0  0  0  0  0  0  0  0  0  0  0
   -4.6043   24.3017  -27.8414 C   0  0  0  0  0  0  0  0  0  0  0  0
   -5.6734   25.1053  -28.2635 C   0  0  0  0  0  0  0  0  0  0  0  0
   -5.6562   25.7919  -29.4433 C   0  0  0  0  0  0  0  0  0  0  0  0
   -4.5810   25.7308  -30.2864 C   0  0  0  0  0  0  0  0  0  0  0  0
   -3.5122   24.9552  -29.9112 C   0  0  0  0  0  0  0  0  0  0  0  0
   -3.5361   24.2495  -28.6930 C   0  0  0  0  0  0  0  0  0  0  0  0
   -2.4802   23.2033  -27.8603 S   0  0  0  0  0  0  0  0  0  0  0  0
   -0.7313   21.6139  -24.8741 C   0  0  0  0  0  0  0  0  0  0  0  0
    0.4411   22.1864  -24.1235 C   0  0  0  0  0  0  0  0  0  0  0  0
    1.5835   21.1954  -24.0314 C   0  0  0  0  0  0  0  0  0  0  0  0
    2.1222   21.2665  -22.6919 N   0  0  0  0  0  0  0  0  0  0  0  0
    1.8440   22.0405  -22.0320 H   0  0  0  0  0  0  0  0  0  0  0  0
    3.0433   20.3147  -22.1899 C   0  0  0  0  0  0  0  0  0  0  0  0
    4.2064   20.0219  -22.9432 N   0  0  0  0  0  0  0  0  0  0  0  0
    2.8512   19.7230  -21.0778 N   0  0  0  0  0  0  0  0  0  0  0  0
    4.2115   20.2402  -23.9608 H   0  0  0  0  0  0  0  0  0  0  0  0
    5.0374   19.6021  -22.5094 H   0  0  0  0  0  0  0  0  0  0  0  0
    2.0092   19.9342  -20.5215 H   0  0  0  0  0  0  0  0  0  0  0  0
   -1.6814   21.4131  -20.3866 C   0  0  0  0  0  0  0  0  0  0  0  0
   -0.2205   21.6910  -20.2977 C   0  0  0  0  0  0  0  0  0  0  0  0
    0.2762   21.7549  -18.8723 C   0  0  0  0  0  0  0  0  0  0  0  0
    1.7101   21.5718  -18.8025 N   0  0  0  0  0  0  0  0  0  0  0  0
    2.0654   20.5935  -18.6583 H   0  0  0  0  0  0  0  0  0  0  0  0
    3.9853   22.3866  -19.4094 N   0  0  0  0  0  0  0  0  0  0  0  0
    2.6632   22.6079  -18.9193 C   0  0  0  0  0  0  0  0  0  0  0  0
    2.3422   23.8001  -18.5778 N   0  0  0  0  0  0  0  0  0  0  0  0
    4.8078   22.8633  -18.9946 H   0  0  0  0  0  0  0  0  0  0  0  0
    4.1414   21.7248  -20.2072 H   0  0  0  0  0  0  0  0  0  0  0  0
    1.4085   24.0057  -18.2238 H   0  0  0  0  0  0  0  0  0  0  0  0
 65 66  1  0  0  0
 66 67  2  0  0  0
 66 63  1  0  0  0
 63 62  1  0  0  0
 62 61  1  0  0  0
 61 60  1  0  0  0
 60  1  1  0  0  0
  1  2  1  0  0  0
  2  3  1  0  0  0
  3  4  2  0  0  0
  3  6  1  0  0  0
  6  7  1  0  0  0
  7  8  1  0  0  0
  8  9  1  0  0  0
  9 10  1  0  0  0
 10 11  1  0  0  0
 11 12  2  0  0  0
 11 13  1  0  0  0
 13 26  1  0  0  0
 26 27  1  0  0  0
 27 28  2  0  0  0
 28 29  1  0  0  0
 29 30  2  0  0  0
 30 31  1  0  0  0
 31 32  2  0  0  0
 13 14  1  0  0  0
 14 15  1  0  0  0
 15 16  2  0  0  0
 15 18  1  0  0  0
 18 19  1  0  0  0
 19 20  1  0  0  0
 20 21  2  0  0  0
 21 22  1  0  0  0
 22 23  2  0  0  0
 23 24  1  0  0  0
 24 25  2  0  0  0
  1 33  1  0  0  0
 33 34  2  0  0  0
 33 35  1  0  0  0
 35 37  1  0  0  0
 37 49  1  0  0  0
 49 50  1  0  0  0
 50 51  1  0  0  0
 51 52  1  0  0  0
 52 54  1  0  0  0
 54 55  1  0  0  0
 54 56  2  0  0  0
 37 38  1  0  0  0
 38 39  2  0  0  0
 38 40  1  0  0  0
 40 41  2  0  0  0
 41 42  1  0  0  0
 42 43  2  0  0  0
 43 44  1  0  0  0
 44 45  2  0  0  0
 45 46  1  0  0  0
 46 47  2  0  0  0
 47 48  1  0  0  0
 10  6  1  0  0  0
 32 27  1  0  0  0
 25 20  1  0  0  0
 48 40  1  0  0  0
 47 42  1  0  0  0
 65 68  1  0  0  0
 65 69  1  0  0  0
 67 70  1  0  0  0
 63 64  1  0  0  0
  2  5  1  0  0  0
 14 17  1  0  0  0
 35 36  1  0  0  0
 52 53  1  0  0  0
 55 57  1  0  0  0
 55 58  1  0  0  0
 56 59  1  0  0  0
M  END
> <minimizedAffinity>
-8.63347

> <CNNscore>
0.1565260440

> <CNNaffinity>
7.6515130997

> <CNN_VS>
1.1976610422

> <CNNaffinity_variance>
0.7679253817

$$$$
[H]N=C(N([H])[H])N([H])C([H])([H])C([H])([H])C([H])([H])[C@@]([H])(C(=O)c1nc2c([H])c([H])c([H])c([H])c2s1)N([H])C(=O)[C@@]([H])(N([H])C(=O)[C@@]1([H])N(C(=O)[C@]([H])(N([H])C(=O)OC([H])([H])c2c([H])c([H])c([H])c([H])c2[H])C([H])([H])c2c([H])c([H])c([H])c([H])c2[H])C([H])([H])C([H])([H])C1([H])[H])C([H])([H])C([H])([H])C([H])([H])N([H])C(=N[H])N([H])[H]


 70 74  0  0  0  0  0  0  0  0999 V2000
   -2.3412   22.5576  -18.1628 C   0  0  0  0  0  0  0  0  0  0  0  0
   -3.6376   22.3304  -18.7829 N   0  0  0  0  0  0  0  0  0  0  0  0
   -4.7585   23.0996  -18.3540 C   0  0  0  0  0  0  0  0  0  0  0  0
   -4.4610   23.9491  -17.4208 O   0  0  0  0  0  0  0  0  0  0  0  0
   -3.7245   21.6097  -19.5231 H   0  0  0  0  0  0  0  0  0  0  0  0
   -6.0954   22.9719  -18.8698 C   0  0  0  0  0  0  0  0  0  0  0  0
   -6.8635   22.0688  -17.9022 C   0  0  0  0  0  0  0  0  0  0  0  0
   -7.2981   20.8614  -18.6554 C   0  0  0  0  0  0  0  0  0  0  0  0
   -6.7528   21.0452  -20.0281 C   0  0  0  0  0  0  0  0  0  0  0  0
   -6.3326   22.4052  -20.1543 N   0  0  0  0  0  0  0  0  0  0  0  0
   -6.1788   23.0947  -21.3999 C   0  0  0  0  0  0  0  0  0  0  0  0
   -6.5253   22.5187  -22.4618 O   0  0  0  0  0  0  0  0  0  0  0  0
   -5.6317   24.4569  -21.4858 C   0  0  0  0  0  0  0  0  0  0  0  0
   -6.6178   25.4460  -21.9293 N   0  0  0  0  0  0  0  0  0  0  0  0
   -7.4221   26.1278  -20.9735 C   0  0  0  0  0  0  0  0  0  0  0  0
   -7.2615   25.8837  -19.7722 O   0  0  0  0  0  0  0  0  0  0  0  0
   -6.7582   25.6767  -22.9243 H   0  0  0  0  0  0  0  0  0  0  0  0
   -8.3698   27.0504  -21.3457 O   0  0  0  0  0  0  0  0  0  0  0  0
   -9.5758   27.0959  -20.6796 C   0  0  0  0  0  0  0  0  0  0  0  0
  -10.2778   28.3572  -20.5430 C   0  0  0  0  0  0  0  0  0  0  0  0
   -9.7372   29.4487  -19.9152 C   0  0  0  0  0  0  0  0  0  0  0  0
  -10.4026   30.6581  -19.7963 C   0  0  0  0  0  0  0  0  0  0  0  0
  -11.6785   30.7144  -20.3577 C   0  0  0  0  0  0  0  0  0  0  0  0
  -12.2345   29.6351  -20.9868 C   0  0  0  0  0  0  0  0  0  0  0  0
  -11.5355   28.4649  -21.0773 C   0  0  0  0  0  0  0  0  0  0  0  0
   -4.4090   24.5212  -22.3854 C   0  0  0  0  0  0  0  0  0  0  0  0
   -4.5754   25.1430  -23.6736 C   0  0  0  0  0  0  0  0  0  0  0  0
   -5.1424   24.5003  -24.7392 C   0  0  0  0  0  0  0  0  0  0  0  0
   -5.2817   25.0934  -25.9794 C   0  0  0  0  0  0  0  0  0  0  0  0
   -4.8459   26.3729  -26.1836 C   0  0  0  0  0  0  0  0  0  0  0  0
   -4.2693   27.0541  -25.1392 C   0  0  0  0  0  0  0  0  0  0  0  0
   -4.1431   26.4281  -23.9001 C   0  0  0  0  0  0  0  0  0  0  0  0
   -1.2028   22.6326  -19.0647 C   0  0  0  0  0  0  0  0  0  0  0  0
   -1.0508   23.6199  -19.8201 O   0  0  0  0  0  0  0  0  0  0  0  0
   -0.2758   21.5778  -19.0797 N   0  0  0  0  0  0  0  0  0  0  0  0
   -0.4016   20.7679  -18.4305 H   0  0  0  0  0  0  0  0  0  0  0  0
    0.8609   21.5548  -19.9616 C   0  0  0  0  0  0  0  0  0  0  0  0
    0.6435   20.6364  -21.0898 C   0  0  0  0  0  0  0  0  0  0  0  0
    0.9720   19.4293  -20.9700 O   0  0  0  0  0  0  0  0  0  0  0  0
    0.0508   21.1242  -22.3362 C   0  0  0  0  0  0  0  0  0  0  0  0
    0.6015   21.4634  -23.4779 N   0  0  0  0  0  0  0  0  0  0  0  0
   -0.1327   21.8774  -24.4696 C   0  0  0  0  0  0  0  0  0  0  0  0
    0.3149   22.2755  -25.7377 C   0  0  0  0  0  0  0  0  0  0  0  0
   -0.5352   22.7008  -26.7175 C   0  0  0  0  0  0  0  0  0  0  0  0
   -1.8857   22.7616  -26.5106 C   0  0  0  0  0  0  0  0  0  0  0  0
   -2.3665   22.3805  -25.2825 C   0  0  0  0  0  0  0  0  0  0  0  0
   -1.4844   21.9428  -24.2760 C   0  0  0  0  0  0  0  0  0  0  0  0
   -1.6304   21.4022  -22.6669 S   0  0  0  0  0  0  0  0  0  0  0  0
    2.1286   21.2305  -19.1720 C   0  0  0  0  0  0  0  0  0  0  0  0
    3.0638   22.4078  -19.2412 C   0  0  0  0  0  0  0  0  0  0  0  0
    2.6607   23.4996  -18.2710 C   0  0  0  0  0  0  0  0  0  0  0  0
    3.6701   23.5670  -17.2385 N   0  0  0  0  0  0  0  0  0  0  0  0
    3.6361   22.9294  -16.3993 H   0  0  0  0  0  0  0  0  0  0  0  0
    4.7518   24.4800  -17.2894 C   0  0  0  0  0  0  0  0  0  0  0  0
    5.7329   24.3259  -18.2992 N   0  0  0  0  0  0  0  0  0  0  0  0
    4.8578   25.4355  -16.4529 N   0  0  0  0  0  0  0  0  0  0  0  0
    5.8336   23.3990  -18.7616 H   0  0  0  0  0  0  0  0  0  0  0  0
    6.3416   25.1035  -18.5817 H   0  0  0  0  0  0  0  0  0  0  0  0
    4.1452   25.5570  -15.7178 H   0  0  0  0  0  0  0  0  0  0  0  0
   -2.0937   21.2837  -17.2979 C   0  0  0  0  0  0  0  0  0  0  0  0
   -3.0014   20.1826  -17.7258 C   0  0  0  0  0  0  0  0  0  0  0  0
   -2.4086   18.8128  -17.4921 C   0  0  0  0  0  0  0  0  0  0  0  0
   -2.1850   18.1128  -18.7389 N   0  0  0  0  0  0  0  0  0  0  0  0
   -2.9602   18.1301  -19.4480 H   0  0  0  0  0  0  0  0  0  0  0  0
    0.2659   17.7319  -18.5002 N   0  0  0  0  0  0  0  0  0  0  0  0
   -1.0028   17.4153  -19.0726 C   0  0  0  0  0  0  0  0  0  0  0  0
   -1.0556   16.4558  -19.9198 N   0  0  0  0  0  0  0  0  0  0  0  0
    1.1374   17.7155  -19.0624 H   0  0  0  0  0  0  0  0  0  0  0  0
    0.3301   17.9921  -17.4869 H   0  0  0  0  0  0  0  0  0  0  0  0
   -1.9403   16.1933  -20.3530 H   0  0  0  0  0  0  0  0  0  0  0  0
 65 66  1  0  0  0
 66 67  2  0  0  0
 66 63  1  0  0  0
 63 62  1  0  0  0
 62 61  1  0  0  0
 61 60  1  0  0  0
 60  1  1  0  0  0
  1  2  1  0  0  0
  2  3  1  0  0  0
  3  4  2  0  0  0
  3  6  1  0  0  0
  6  7  1  0  0  0
  7  8  1  0  0  0
  8  9  1  0  0  0
  9 10  1  0  0  0
 10 11  1  0  0  0
 11 12  2  0  0  0
 11 13  1  0  0  0
 13 26  1  0  0  0
 26 27  1  0  0  0
 27 28  2  0  0  0
 28 29  1  0  0  0
 29 30  2  0  0  0
 30 31  1  0  0  0
 31 32  2  0  0  0
 13 14  1  0  0  0
 14 15  1  0  0  0
 15 16  2  0  0  0
 15 18  1  0  0  0
 18 19  1  0  0  0
 19 20  1  0  0  0
 20 21  2  0  0  0
 21 22  1  0  0  0
 22 23  2  0  0  0
 23 24  1  0  0  0
 24 25  2  0  0  0
  1 33  1  0  0  0
 33 34  2  0  0  0
 33 35  1  0  0  0
 35 37  1  0  0  0
 37 49  1  0  0  0
 49 50  1  0  0  0
 50 51  1  0  0  0
 51 52  1  0  0  0
 52 54  1  0  0  0
 54 55  1  0  0  0
 54 56  2  0  0  0
 37 38  1  0  0  0
 38 39  2  0  0  0
 38 40  1  0  0  0
 40 41  2  0  0  0
 41 42  1  0  0  0
 42 43  2  0  0  0
 43 44  1  0  0  0
 44 45  2  0  0  0
 45 46  1  0  0  0
 46 47  2  0  0  0
 47 48  1  0  0  0
 10  6  1  0  0  0
 32 27  1  0  0  0
 25 20  1  0  0  0
 48 40  1  0  0  0
 47 42  1  0  0  0
 65 68  1  0  0  0
 65 69  1  0  0  0
 67 70  1  0  0  0
 63 64  1  0  0  0
  2  5  1  0  0  0
 14 17  1  0  0  0
 35 36  1  0  0  0
 52 53  1  0  0  0
 55 57  1  0  0  0
 55 58  1  0  0  0
 56 59  1  0  0  0
M  END
> <minimizedAffinity>
-8.58724

> <CNNscore>
0.1314354241

> <CNNaffinity>
6.7732038498

> <CNN_VS>
0.8902389407

> <CNNaffinity_variance>
1.9144220352

$$$$
[H]N=C(N([H])[H])N([H])C([H])([H])C([H])([H])C([H])([H])[C@@]([H])(C(=O)c1nc2c([H])c([H])c([H])c([H])c2s1)N([H])C(=O)[C@@]([H])(N([H])C(=O)[C@@]1([H])N(C(=O)[C@]([H])(N([H])C(=O)OC([H])([H])c2c([H])c([H])c([H])c([H])c2[H])C([H])([H])c2c([H])c([H])c([H])c([H])c2[H])C([H])([H])C([H])([H])C1([H])[H])C([H])([H])C([H])([H])C([H])([H])N([H])C(=N[H])N([H])[H]


 70 74  0  0  0  0  0  0  0  0999 V2000
   -3.9866   21.4126  -18.2758 C   0  0  0  0  0  0  0  0  0  0  0  0
   -4.7802   21.5892  -19.4824 N   0  0  0  0  0  0  0  0  0  0  0  0
   -5.3840   22.8548  -19.7390 C   0  0  0  0  0  0  0  0  0  0  0  0
   -5.1313   23.7313  -18.8177 O   0  0  0  0  0  0  0  0  0  0  0  0
   -4.8964   20.7901  -20.1326 H   0  0  0  0  0  0  0  0  0  0  0  0
   -6.2008   23.1649  -20.8820 C   0  0  0  0  0  0  0  0  0  0  0  0
   -7.6125   23.4425  -20.3605 C   0  0  0  0  0  0  0  0  0  0  0  0
   -8.5261   22.4351  -20.9641 C   0  0  0  0  0  0  0  0  0  0  0  0
   -7.6476   21.5624  -21.7899 C   0  0  0  0  0  0  0  0  0  0  0  0
   -6.3848   22.2169  -21.9282 N   0  0  0  0  0  0  0  0  0  0  0  0
   -5.4451   21.9541  -22.9763 C   0  0  0  0  0  0  0  0  0  0  0  0
   -5.7710   21.1721  -23.9046 O   0  0  0  0  0  0  0  0  0  0  0  0
   -4.1093   22.5678  -23.0110 C   0  0  0  0  0  0  0  0  0  0  0  0
   -4.0329   23.7295  -23.9010 N   0  0  0  0  0  0  0  0  0  0  0  0
   -4.0783   25.0451  -23.3601 C   0  0  0  0  0  0  0  0  0  0  0  0
   -4.1652   25.1866  -22.1350 O   0  0  0  0  0  0  0  0  0  0  0  0
   -3.9446   23.6356  -24.9238 H   0  0  0  0  0  0  0  0  0  0  0  0
   -4.0262   26.1622  -24.1585 O   0  0  0  0  0  0  0  0  0  0  0  0
   -5.0181   26.3813  -25.0903 C   0  0  0  0  0  0  0  0  0  0  0  0
   -5.1887   25.4567  -26.1940 C   0  0  0  0  0  0  0  0  0  0  0  0
   -4.3465   25.4197  -27.2743 C   0  0  0  0  0  0  0  0  0  0  0  0
   -4.5016   24.5274  -28.3228 C   0  0  0  0  0  0  0  0  0  0  0  0
   -5.5803   23.6481  -28.2258 C   0  0  0  0  0  0  0  0  0  0  0  0
   -6.4317   23.6712  -27.1561 C   0  0  0  0  0  0  0  0  0  0  0  0
   -6.2341   24.5714  -26.1477 C   0  0  0  0  0  0  0  0  0  0  0  0
   -3.0342   21.5647  -23.3931 C   0  0  0  0  0  0  0  0  0  0  0  0
   -2.2606   21.8511  -24.5736 C   0  0  0  0  0  0  0  0  0  0  0  0
   -2.8038   21.8735  -25.8283 C   0  0  0  0  0  0  0  0  0  0  0  0
   -2.0541   22.1286  -26.9606 C   0  0  0  0  0  0  0  0  0  0  0  0
   -0.7130   22.3726  -26.8580 C   0  0  0  0  0  0  0  0  0  0  0  0
   -0.1274   22.3586  -25.6154 C   0  0  0  0  0  0  0  0  0  0  0  0
   -0.9107   22.0979  -24.4923 C   0  0  0  0  0  0  0  0  0  0  0  0
   -2.5714   21.1418  -18.4726 C   0  0  0  0  0  0  0  0  0  0  0  0
   -2.0359   20.1353  -17.9541 O   0  0  0  0  0  0  0  0  0  0  0  0
   -1.8103   22.0290  -19.2510 N   0  0  0  0  0  0  0  0  0  0  0  0
   -2.2719   22.8551  -19.6958 H   0  0  0  0  0  0  0  0  0  0  0  0
   -0.3991   21.8552  -19.4714 C   0  0  0  0  0  0  0  0  0  0  0  0
    0.3563   23.0502  -19.0652 C   0  0  0  0  0  0  0  0  0  0  0  0
   -0.2071   24.1730  -19.0999 O   0  0  0  0  0  0  0  0  0  0  0  0
    1.7474   22.9310  -18.6255 C   0  0  0  0  0  0  0  0  0  0  0  0
    2.5804   21.9179  -18.6652 N   0  0  0  0  0  0  0  0  0  0  0  0
    3.7932   22.0401  -18.2090 C   0  0  0  0  0  0  0  0  0  0  0  0
    4.7848   21.0487  -18.1817 C   0  0  0  0  0  0  0  0  0  0  0  0
    6.0334   21.2711  -17.6768 C   0  0  0  0  0  0  0  0  0  0  0  0
    6.3871   22.4888  -17.1643 C   0  0  0  0  0  0  0  0  0  0  0  0
    5.4458   23.4882  -17.1717 C   0  0  0  0  0  0  0  0  0  0  0  0
    4.1597   23.2524  -17.6940 C   0  0  0  0  0  0  0  0  0  0  0  0
    2.7314   24.1595  -17.8935 S   0  0  0  0  0  0  0  0  0  0  0  0
   -0.1420   21.4599  -20.9251 C   0  0  0  0  0  0  0  0  0  0  0  0
    0.0606   19.9702  -20.9994 C   0  0  0  0  0  0  0  0  0  0  0  0
    1.5288   19.6103  -21.1018 C   0  0  0  0  0  0  0  0  0  0  0  0
    2.2390   20.7817  -21.5634 N   0  0  0  0  0  0  0  0  0  0  0  0
    2.1419   21.7086  -21.0700 H   0  0  0  0  0  0  0  0  0  0  0  0
    3.0969   20.7575  -22.6902 C   0  0  0  0  0  0  0  0  0  0  0  0
    4.2191   19.8934  -22.6797 N   0  0  0  0  0  0  0  0  0  0  0  0
    2.8787   21.4893  -23.7103 N   0  0  0  0  0  0  0  0  0  0  0  0
    4.5789   19.5517  -21.7648 H   0  0  0  0  0  0  0  0  0  0  0  0
    4.6809   19.6000  -23.5490 H   0  0  0  0  0  0  0  0  0  0  0  0
    2.0614   22.1175  -23.7273 H   0  0  0  0  0  0  0  0  0  0  0  0
   -4.5615   20.1216  -17.6162 C   0  0  0  0  0  0  0  0  0  0  0  0
   -5.6178   20.4721  -16.6258 C   0  0  0  0  0  0  0  0  0  0  0  0
   -5.1761   21.5420  -15.6549 C   0  0  0  0  0  0  0  0  0  0  0  0
   -4.3090   21.0015  -14.6299 N   0  0  0  0  0  0  0  0  0  0  0  0
   -4.6560   20.1661  -14.0952 H   0  0  0  0  0  0  0  0  0  0  0  0
   -2.8207   22.4188  -13.2210 N   0  0  0  0  0  0  0  0  0  0  0  0
   -3.0328   21.5101  -14.3011 C   0  0  0  0  0  0  0  0  0  0  0  0
   -2.0145   21.1488  -14.9892 N   0  0  0  0  0  0  0  0  0  0  0  0
   -2.1530   23.2090  -13.2959 H   0  0  0  0  0  0  0  0  0  0  0  0
   -3.3503   22.2958  -12.3248 H   0  0  0  0  0  0  0  0  0  0  0  0
   -2.1179   20.5001  -15.7689 H   0  0  0  0  0  0  0  0  0  0  0  0
 65 66  1  0  0  0
 66 67  2  0  0  0
 66 63  1  0  0  0
 63 62  1  0  0  0
 62 61  1  0  0  0
 61 60  1  0  0  0
 60  1  1  0  0  0
  1  2  1  0  0  0
  2  3  1  0  0  0
  3  4  2  0  0  0
  3  6  1  0  0  0
  6  7  1  0  0  0
  7  8  1  0  0  0
  8  9  1  0  0  0
  9 10  1  0  0  0
 10 11  1  0  0  0
 11 12  2  0  0  0
 11 13  1  0  0  0
 13 26  1  0  0  0
 26 27  1  0  0  0
 27 28  2  0  0  0
 28 29  1  0  0  0
 29 30  2  0  0  0
 30 31  1  0  0  0
 31 32  2  0  0  0
 13 14  1  0  0  0
 14 15  1  0  0  0
 15 16  2  0  0  0
 15 18  1  0  0  0
 18 19  1  0  0  0
 19 20  1  0  0  0
 20 21  2  0  0  0
 21 22  1  0  0  0
 22 23  2  0  0  0
 23 24  1  0  0  0
 24 25  2  0  0  0
  1 33  1  0  0  0
 33 34  2  0  0  0
 33 35  1  0  0  0
 35 37  1  0  0  0
 37 49  1  0  0  0
 49 50  1  0  0  0
 50 51  1  0  0  0
 51 52  1  0  0  0
 52 54  1  0  0  0
 54 55  1  0  0  0
 54 56  2  0  0  0
 37 38  1  0  0  0
 38 39  2  0  0  0
 38 40  1  0  0  0
 40 41  2  0  0  0
 41 42  1  0  0  0
 42 43  2  0  0  0
 43 44  1  0  0  0
 44 45  2  0  0  0
 45 46  1  0  0  0
 46 47  2  0  0  0
 47 48  1  0  0  0
 10  6  1  0  0  0
 32 27  1  0  0  0
 25 20  1  0  0  0
 48 40  1  0  0  0
 47 42  1  0  0  0
 65 68  1  0  0  0
 65 69  1  0  0  0
 67 70  1  0  0  0
 63 64  1  0  0  0
  2  5  1  0  0  0
 14 17  1  0  0  0
 35 36  1  0  0  0
 52 53  1  0  0  0
 55 57  1  0  0  0
 55 58  1  0  0  0
 56 59  1  0  0  0
M  END
> <minimizedAffinity>
-8.05132

> <CNNscore>
0.1035181135

> <CNNaffinity>
6.9109725952

> <CNN_VS>
0.7154108286

> <CNNaffinity_variance>
1.9006532431

$$$$
[H]N=C(N([H])[H])N([H])C([H])([H])C([H])([H])C([H])([H])[C@@]([H])(C(=O)c1nc2c([H])c([H])c([H])c([H])c2s1)N([H])C(=O)[C@@]([H])(N([H])C(=O)[C@@]1([H])N(C(=O)[C@]([H])(N([H])C(=O)OC([H])([H])c2c([H])c([H])c([H])c([H])c2[H])C([H])([H])c2c([H])c([H])c([H])c([H])c2[H])C([H])([H])C([H])([H])C1([H])[H])C([H])([H])C([H])([H])C([H])([H])N([H])C(=N[H])N([H])[H]


 70 74  0  0  0  0  0  0  0  0999 V2000
   -4.2014   21.3619  -18.2468 C   0  0  0  0  0  0  0  0  0  0  0  0
   -5.0651   21.5273  -19.4059 N   0  0  0  0  0  0  0  0  0  0  0  0
   -5.4273   22.8418  -19.8217 C   0  0  0  0  0  0  0  0  0  0  0  0
   -4.9099   23.7681  -19.0766 O   0  0  0  0  0  0  0  0  0  0  0  0
   -5.4058   20.6859  -19.9067 H   0  0  0  0  0  0  0  0  0  0  0  0
   -6.2804   23.1504  -20.9383 C   0  0  0  0  0  0  0  0  0  0  0  0
   -7.6806   23.4027  -20.3748 C   0  0  0  0  0  0  0  0  0  0  0  0
   -8.5964   22.3877  -20.9621 C   0  0  0  0  0  0  0  0  0  0  0  0
   -7.7291   21.5353  -21.8205 C   0  0  0  0  0  0  0  0  0  0  0  0
   -6.4802   22.2093  -21.9880 N   0  0  0  0  0  0  0  0  0  0  0  0
   -5.5668   21.9698  -23.0645 C   0  0  0  0  0  0  0  0  0  0  0  0
   -5.9075   21.1915  -23.9906 O   0  0  0  0  0  0  0  0  0  0  0  0
   -4.2413   22.6031  -23.1308 C   0  0  0  0  0  0  0  0  0  0  0  0
   -4.1694   23.6847  -24.1169 N   0  0  0  0  0  0  0  0  0  0  0  0
   -4.2215   25.0415  -23.6907 C   0  0  0  0  0  0  0  0  0  0  0  0
   -4.3105   25.2869  -22.4823 O   0  0  0  0  0  0  0  0  0  0  0  0
   -4.0795   23.5040  -25.1279 H   0  0  0  0  0  0  0  0  0  0  0  0
   -4.1736   26.0864  -24.5817 O   0  0  0  0  0  0  0  0  0  0  0  0
   -5.1413   26.1954  -25.5574 C   0  0  0  0  0  0  0  0  0  0  0  0
   -5.1364   25.2828  -26.6841 C   0  0  0  0  0  0  0  0  0  0  0  0
   -6.0448   24.2668  -26.8262 C   0  0  0  0  0  0  0  0  0  0  0  0
   -6.0485   23.4029  -27.9094 C   0  0  0  0  0  0  0  0  0  0  0  0
   -5.0611   23.6198  -28.8707 C   0  0  0  0  0  0  0  0  0  0  0  0
   -4.1456   24.6277  -28.7451 C   0  0  0  0  0  0  0  0  0  0  0  0
   -4.1859   25.4527  -27.6570 C   0  0  0  0  0  0  0  0  0  0  0  0
   -3.1425   21.5910  -23.4070 C   0  0  0  0  0  0  0  0  0  0  0  0
   -2.3106   21.8251  -24.5590 C   0  0  0  0  0  0  0  0  0  0  0  0
   -0.9644   22.0473  -24.4682 C   0  0  0  0  0  0  0  0  0  0  0  0
   -0.1730   22.2919  -25.5741 C   0  0  0  0  0  0  0  0  0  0  0  0
   -0.7260   22.3198  -26.8239 C   0  0  0  0  0  0  0  0  0  0  0  0
   -2.0757   22.1024  -26.9593 C   0  0  0  0  0  0  0  0  0  0  0  0
   -2.8470   21.8584  -25.8242 C   0  0  0  0  0  0  0  0  0  0  0  0
   -2.7948   21.1180  -18.5244 C   0  0  0  0  0  0  0  0  0  0  0  0
   -2.2746   20.0100  -18.2593 O   0  0  0  0  0  0  0  0  0  0  0  0
   -2.0247   22.1462  -19.0918 N   0  0  0  0  0  0  0  0  0  0  0  0
   -2.4740   23.0604  -19.3277 H   0  0  0  0  0  0  0  0  0  0  0  0
   -0.6204   22.0023  -19.3700 C   0  0  0  0  0  0  0  0  0  0  0  0
    0.1312   23.1978  -18.9587 C   0  0  0  0  0  0  0  0  0  0  0  0
   -0.3654   24.3344  -19.1617 O   0  0  0  0  0  0  0  0  0  0  0  0
    1.4414   23.0637  -18.3201 C   0  0  0  0  0  0  0  0  0  0  0  0
    2.4138   23.9296  -18.1571 N   0  0  0  0  0  0  0  0  0  0  0  0
    3.5112   23.5854  -17.5476 C   0  0  0  0  0  0  0  0  0  0  0  0
    4.6289   24.3975  -17.3068 C   0  0  0  0  0  0  0  0  0  0  0  0
    5.7418   23.9438  -16.6594 C   0  0  0  0  0  0  0  0  0  0  0  0
    5.8257   22.6562  -16.2058 C   0  0  0  0  0  0  0  0  0  0  0  0
    4.7528   21.8270  -16.4207 C   0  0  0  0  0  0  0  0  0  0  0  0
    3.6079   22.3011  -17.0891 C   0  0  0  0  0  0  0  0  0  0  0  0
    2.1058   21.6506  -17.5617 S   0  0  0  0  0  0  0  0  0  0  0  0
   -0.4127   21.6519  -20.8431 C   0  0  0  0  0  0  0  0  0  0  0  0
    0.3246   20.3430  -20.9363 C   0  0  0  0  0  0  0  0  0  0  0  0
    1.8103   20.5522  -21.1475 C   0  0  0  0  0  0  0  0  0  0  0  0
    2.3731   19.2983  -21.5951 N   0  0  0  0  0  0  0  0  0  0  0  0
    1.7552   18.4841  -21.8544 H   0  0  0  0  0  0  0  0  0  0  0  0
    3.7691   19.0884  -21.7116 C   0  0  0  0  0  0  0  0  0  0  0  0
    4.5157   19.9112  -22.5902 N   0  0  0  0  0  0  0  0  0  0  0  0
    4.3655   18.1828  -21.0423 N   0  0  0  0  0  0  0  0  0  0  0  0
    4.0155   20.4104  -23.3543 H   0  0  0  0  0  0  0  0  0  0  0  0
    5.5316   20.0239  -22.4894 H   0  0  0  0  0  0  0  0  0  0  0  0
    3.8297   17.5829  -20.3973 H   0  0  0  0  0  0  0  0  0  0  0  0
   -4.7141   20.0585  -17.5609 C   0  0  0  0  0  0  0  0  0  0  0  0
   -5.2928   20.3698  -16.2238 C   0  0  0  0  0  0  0  0  0  0  0  0
   -6.5081   19.5314  -15.9038 C   0  0  0  0  0  0  0  0  0  0  0  0
   -7.5871   19.7861  -16.8340 N   0  0  0  0  0  0  0  0  0  0  0  0
   -7.3735   20.3891  -17.6677 H   0  0  0  0  0  0  0  0  0  0  0  0
   -9.3105   18.4742  -15.6022 N   0  0  0  0  0  0  0  0  0  0  0  0
   -8.8999   19.2807  -16.7060 C   0  0  0  0  0  0  0  0  0  0  0  0
   -9.7692   19.5504  -17.6075 N   0  0  0  0  0  0  0  0  0  0  0  0
   -9.9472   17.6647  -15.7251 H   0  0  0  0  0  0  0  0  0  0  0  0
   -8.9633   18.6946  -14.6381 H   0  0  0  0  0  0  0  0  0  0  0  0
   -9.5216   20.1242  -18.4130 H   0  0  0  0  0  0  0  0  0  0  0  0
 65 66  1  0  0  0
 66 67  2  0  0  0
 66 63  1  0  0  0
 63 62  1  0  0  0
 62 61  1  0  0  0
 61 60  1  0  0  0
 60  1  1  0  0  0
  1  2  1  0  0  0
  2  3  1  0  0  0
  3  4  2  0  0  0
  3  6  1  0  0  0
  6  7  1  0  0  0
  7  8  1  0  0  0
  8  9  1  0  0  0
  9 10  1  0  0  0
 10 11  1  0  0  0
 11 12  2  0  0  0
 11 13  1  0  0  0
 13 26  1  0  0  0
 26 27  1  0  0  0
 27 28  2  0  0  0
 28 29  1  0  0  0
 29 30  2  0  0  0
 30 31  1  0  0  0
 31 32  2  0  0  0
 13 14  1  0  0  0
 14 15  1  0  0  0
 15 16  2  0  0  0
 15 18  1  0  0  0
 18 19  1  0  0  0
 19 20  1  0  0  0
 20 21  2  0  0  0
 21 22  1  0  0  0
 22 23  2  0  0  0
 23 24  1  0  0  0
 24 25  2  0  0  0
  1 33  1  0  0  0
 33 34  2  0  0  0
 33 35  1  0  0  0
 35 37  1  0  0  0
 37 49  1  0  0  0
 49 50  1  0  0  0
 50 51  1  0  0  0
 51 52  1  0  0  0
 52 54  1  0  0  0
 54 55  1  0  0  0
 54 56  2  0  0  0
 37 38  1  0  0  0
 38 39  2  0  0  0
 38 40  1  0  0  0
 40 41  2  0  0  0
 41 42  1  0  0  0
 42 43  2  0  0  0
 43 44  1  0  0  0
 44 45  2  0  0  0
 45 46  1  0  0  0
 46 47  2  0  0  0
 47 48  1  0  0  0
 10  6  1  0  0  0
 32 27  1  0  0  0
 25 20  1  0  0  0
 48 40  1  0  0  0
 47 42  1  0  0  0
 65 68  1  0  0  0
 65 69  1  0  0  0
 67 70  1  0  0  0
 63 64  1  0  0  0
  2  5  1  0  0  0
 14 17  1  0  0  0
 35 36  1  0  0  0
 52 53  1  0  0  0
 55 57  1  0  0  0
 55 58  1  0  0  0
 56 59  1  0  0  0
M  END
> <minimizedAffinity>
-7.93727

> <CNNscore>
0.1023208946

> <CNNaffinity>
6.6687574387

> <CNN_VS>
0.6823531985

> <CNNaffinity_variance>
2.2280926704

$$$$
[H]N=C(N([H])[H])N([H])C([H])([H])C([H])([H])C([H])([H])[C@@]([H])(C(=O)c1nc2c([H])c([H])c([H])c([H])c2s1)N([H])C(=O)[C@@]([H])(N([H])C(=O)[C@@]1([H])N(C(=O)[C@]([H])(N([H])C(=O)OC([H])([H])c2c([H])c([H])c([H])c([H])c2[H])C([H])([H])c2c([H])c([H])c([H])c([H])c2[H])C([H])([H])C([H])([H])C1([H])[H])C([H])([H])C([H])([H])C([H])([H])N([H])C(=N[H])N([H])[H]


 70 74  0  0  0  0  0  0  0  0999 V2000
   -1.9309   21.9727  -20.2395 C   0  0  0  0  0  0  0  0  0  0  0  0
   -2.9915   22.6727  -20.9479 N   0  0  0  0  0  0  0  0  0  0  0  0
   -4.3470   22.2928  -20.7228 C   0  0  0  0  0  0  0  0  0  0  0  0
   -4.4652   21.3248  -19.8684 O   0  0  0  0  0  0  0  0  0  0  0  0
   -2.7428   23.4328  -21.6076 H   0  0  0  0  0  0  0  0  0  0  0  0
   -5.4899   22.8888  -21.3616 C   0  0  0  0  0  0  0  0  0  0  0  0
   -6.5137   23.1823  -20.2627 C   0  0  0  0  0  0  0  0  0  0  0  0
   -7.7402   22.3949  -20.5622 C   0  0  0  0  0  0  0  0  0  0  0  0
   -7.4142   21.6254  -21.7938 C   0  0  0  0  0  0  0  0  0  0  0  0
   -6.2237   22.1813  -22.3558 N   0  0  0  0  0  0  0  0  0  0  0  0
   -5.8334   22.0456  -23.7269 C   0  0  0  0  0  0  0  0  0  0  0  0
   -6.6219   21.4898  -24.5325 O   0  0  0  0  0  0  0  0  0  0  0  0
   -4.5422   22.5351  -24.2322 C   0  0  0  0  0  0  0  0  0  0  0  0
   -4.6771   23.4238  -25.3896 N   0  0  0  0  0  0  0  0  0  0  0  0
   -4.8965   24.8166  -25.1962 C   0  0  0  0  0  0  0  0  0  0  0  0
   -4.9532   25.2598  -24.0434 O   0  0  0  0  0  0  0  0  0  0  0  0
   -4.6179   23.0791  -26.3594 H   0  0  0  0  0  0  0  0  0  0  0  0
   -5.0449   25.6833  -26.2519 O   0  0  0  0  0  0  0  0  0  0  0  0
   -4.2104   25.5770  -27.3440 C   0  0  0  0  0  0  0  0  0  0  0  0
   -4.7188   25.0407  -28.5914 C   0  0  0  0  0  0  0  0  0  0  0  0
   -4.9575   23.7057  -28.7882 C   0  0  0  0  0  0  0  0  0  0  0  0
   -5.4558   23.1945  -29.9756 C   0  0  0  0  0  0  0  0  0  0  0  0
   -5.7086   24.1233  -30.9855 C   0  0  0  0  0  0  0  0  0  0  0  0
   -5.4753   25.4589  -30.8075 C   0  0  0  0  0  0  0  0  0  0  0  0
   -4.9834   25.9116  -29.6162 C   0  0  0  0  0  0  0  0  0  0  0  0
   -3.5986   21.3950  -24.5756 C   0  0  0  0  0  0  0  0  0  0  0  0
   -2.3537   21.7434  -25.2103 C   0  0  0  0  0  0  0  0  0  0  0  0
   -1.1818   21.8793  -24.5189 C   0  0  0  0  0  0  0  0  0  0  0  0
    0.0065   22.2337  -25.1284 C   0  0  0  0  0  0  0  0  0  0  0  0
    0.0473   22.4650  -26.4751 C   0  0  0  0  0  0  0  0  0  0  0  0
   -1.1085   22.3401  -27.2070 C   0  0  0  0  0  0  0  0  0  0  0  0
   -2.2913   21.9812  -26.5628 C   0  0  0  0  0  0  0  0  0  0  0  0
   -1.7496   22.3289  -18.8412 C   0  0  0  0  0  0  0  0  0  0  0  0
   -1.3719   23.4788  -18.5191 O   0  0  0  0  0  0  0  0  0  0  0  0
   -2.0008   21.3617  -17.8544 N   0  0  0  0  0  0  0  0  0  0  0  0
   -2.3351   20.4112  -18.1335 H   0  0  0  0  0  0  0  0  0  0  0  0
   -1.8172   21.6182  -16.4505 C   0  0  0  0  0  0  0  0  0  0  0  0
   -0.5781   21.0018  -15.9522 C   0  0  0  0  0  0  0  0  0  0  0  0
   -0.6251   19.8514  -15.4484 O   0  0  0  0  0  0  0  0  0  0  0  0
    0.6936   21.7207  -16.0436 C   0  0  0  0  0  0  0  0  0  0  0  0
    1.3787   22.1320  -17.0845 N   0  0  0  0  0  0  0  0  0  0  0  0
    2.5059   22.7634  -16.9273 C   0  0  0  0  0  0  0  0  0  0  0  0
    3.3428   23.2539  -17.9402 C   0  0  0  0  0  0  0  0  0  0  0  0
    4.5141   23.9033  -17.6762 C   0  0  0  0  0  0  0  0  0  0  0  0
    4.9383   24.1121  -16.3929 C   0  0  0  0  0  0  0  0  0  0  0  0
    4.1484   23.6478  -15.3704 C   0  0  0  0  0  0  0  0  0  0  0  0
    2.9413   22.9788  -15.6494 C   0  0  0  0  0  0  0  0  0  0  0  0
    1.6989   22.2569  -14.7339 S   0  0  0  0  0  0  0  0  0  0  0  0
   -3.0538   21.1713  -15.6715 C   0  0  0  0  0  0  0  0  0  0  0  0
   -4.2841   21.6951  -16.3626 C   0  0  0  0  0  0  0  0  0  0  0  0
   -4.5578   23.1399  -15.9976 C   0  0  0  0  0  0  0  0  0  0  0  0
   -4.4433   23.2614  -14.5617 N   0  0  0  0  0  0  0  0  0  0  0  0
   -3.6087   22.8749  -14.0460 H   0  0  0  0  0  0  0  0  0  0  0  0
   -5.4304   23.8979  -13.7700 C   0  0  0  0  0  0  0  0  0  0  0  0
   -6.7969   23.6922  -14.0807 N   0  0  0  0  0  0  0  0  0  0  0  0
   -5.1168   24.6441  -12.7859 N   0  0  0  0  0  0  0  0  0  0  0  0
   -7.0493   23.3689  -15.0373 H   0  0  0  0  0  0  0  0  0  0  0  0
   -7.5371   23.8543  -13.3873 H   0  0  0  0  0  0  0  0  0  0  0  0
   -4.1243   24.7951  -12.5506 H   0  0  0  0  0  0  0  0  0  0  0  0
   -0.6198   22.4290  -20.9503 C   0  0  0  0  0  0  0  0  0  0  0  0
    0.5105   21.5329  -20.5775 C   0  0  0  0  0  0  0  0  0  0  0  0
    1.0054   20.7029  -21.7388 C   0  0  0  0  0  0  0  0  0  0  0  0
    2.3830   20.3001  -21.5527 N   0  0  0  0  0  0  0  0  0  0  0  0
    2.6531   19.9254  -20.6088 H   0  0  0  0  0  0  0  0  0  0  0  0
    3.2486   21.1607  -23.7249 N   0  0  0  0  0  0  0  0  0  0  0  0
    3.3855   20.3686  -22.5454 C   0  0  0  0  0  0  0  0  0  0  0  0
    4.4681   19.7006  -22.3944 N   0  0  0  0  0  0  0  0  0  0  0  0
    3.5834   20.8269  -24.6481 H   0  0  0  0  0  0  0  0  0  0  0  0
    2.7966   22.1048  -23.6691 H   0  0  0  0  0  0  0  0  0  0  0  0
    4.6106   19.1224  -21.5669 H   0  0  0  0  0  0  0  0  0  0  0  0
 65 66  1  0  0  0
 66 67  2  0  0  0
 66 63  1  0  0  0
 63 62  1  0  0  0
 62 61  1  0  0  0
 61 60  1  0  0  0
 60  1  1  0  0  0
  1  2  1  0  0  0
  2  3  1  0  0  0
  3  4  2  0  0  0
  3  6  1  0  0  0
  6  7  1  0  0  0
  7  8  1  0  0  0
  8  9  1  0  0  0
  9 10  1  0  0  0
 10 11  1  0  0  0
 11 12  2  0  0  0
 11 13  1  0  0  0
 13 26  1  0  0  0
 26 27  1  0  0  0
 27 28  2  0  0  0
 28 29  1  0  0  0
 29 30  2  0  0  0
 30 31  1  0  0  0
 31 32  2  0  0  0
 13 14  1  0  0  0
 14 15  1  0  0  0
 15 16  2  0  0  0
 15 18  1  0  0  0
 18 19  1  0  0  0
 19 20  1  0  0  0
 20 21  2  0  0  0
 21 22  1  0  0  0
 22 23  2  0  0  0
 23 24  1  0  0  0
 24 25  2  0  0  0
  1 33  1  0  0  0
 33 34  2  0  0  0
 33 35  1  0  0  0
 35 37  1  0  0  0
 37 49  1  0  0  0
 49 50  1  0  0  0
 50 51  1  0  0  0
 51 52  1  0  0  0
 52 54  1  0  0  0
 54 55  1  0  0  0
 54 56  2  0  0  0
 37 38  1  0  0  0
 38 39  2  0  0  0
 38 40  1  0  0  0
 40 41  2  0  0  0
 41 42  1  0  0  0
 42 43  2  0  0  0
 43 44  1  0  0  0
 44 45  2  0  0  0
 45 46  1  0  0  0
 46 47  2  0  0  0
 47 48  1  0  0  0
 10  6  1  0  0  0
 32 27  1  0  0  0
 25 20  1  0  0  0
 48 40  1  0  0  0
 47 42  1  0  0  0
 65 68  1  0  0  0
 65 69  1  0  0  0
 67 70  1  0  0  0
 63 64  1  0  0  0
  2  5  1  0  0  0
 14 17  1  0  0  0
 35 36  1  0  0  0
 52 53  1  0  0  0
 55 57  1  0  0  0
 55 58  1  0  0  0
 56 59  1  0  0  0
M  END
> <minimizedAffinity>
-8.56048

> <CNNscore>
0.0838486627

> <CNNaffinity>
6.8730325699

> <CNN_VS>
0.5762946010

> <CNNaffinity_variance>
1.2812880278

$$$$
[H]N=C(N([H])[H])N([H])C([H])([H])C([H])([H])C([H])([H])[C@@]([H])(C(=O)c1nc2c([H])c([H])c([H])c([H])c2s1)N([H])C(=O)[C@@]([H])(N([H])C(=O)[C@@]1([H])N(C(=O)[C@]([H])(N([H])C(=O)OC([H])([H])c2c([H])c([H])c([H])c([H])c2[H])C([H])([H])c2c([H])c([H])c([H])c([H])c2[H])C([H])([H])C([H])([H])C1([H])[H])C([H])([H])C([H])([H])C([H])([H])N([H])C(=N[H])N([H])[H]


 70 74  0  0  0  0  0  0  0  0999 V2000
   -1.1160   22.3659  -19.0601 C   0  0  0  0  0  0  0  0  0  0  0  0
   -2.1218   21.4215  -18.5986 N   0  0  0  0  0  0  0  0  0  0  0  0
   -3.2894   21.9127  -17.9446 C   0  0  0  0  0  0  0  0  0  0  0  0
   -3.3063   23.2052  -17.8442 O   0  0  0  0  0  0  0  0  0  0  0  0
   -1.9698   20.4071  -18.7494 H   0  0  0  0  0  0  0  0  0  0  0  0
   -4.3545   21.0946  -17.4288 C   0  0  0  0  0  0  0  0  0  0  0  0
   -3.7027   19.9618  -16.6327 C   0  0  0  0  0  0  0  0  0  0  0  0
   -4.0826   18.6760  -17.2778 C   0  0  0  0  0  0  0  0  0  0  0  0
   -4.9079   19.0629  -18.4545 C   0  0  0  0  0  0  0  0  0  0  0  0
   -5.2639   20.4390  -18.3067 N   0  0  0  0  0  0  0  0  0  0  0  0
   -6.3813   21.0618  -18.9502 C   0  0  0  0  0  0  0  0  0  0  0  0
   -7.1753   20.3502  -19.6156 O   0  0  0  0  0  0  0  0  0  0  0  0
   -6.6392   22.5067  -18.8606 C   0  0  0  0  0  0  0  0  0  0  0  0
   -6.7072   22.9944  -17.4804 N   0  0  0  0  0  0  0  0  0  0  0  0
   -6.2793   24.3157  -17.1702 C   0  0  0  0  0  0  0  0  0  0  0  0
   -5.8693   25.0424  -18.0825 O   0  0  0  0  0  0  0  0  0  0  0  0
   -7.0597   22.4116  -16.7065 H   0  0  0  0  0  0  0  0  0  0  0  0
   -6.3103   24.8084  -15.8879 O   0  0  0  0  0  0  0  0  0  0  0  0
   -6.6792   23.9815  -14.8484 C   0  0  0  0  0  0  0  0  0  0  0  0
   -5.6675   23.4436  -13.9599 C   0  0  0  0  0  0  0  0  0  0  0  0
   -4.4623   22.9652  -14.4031 C   0  0  0  0  0  0  0  0  0  0  0  0
   -3.4901   22.4634  -13.5530 C   0  0  0  0  0  0  0  0  0  0  0  0
   -3.8024   22.4673  -12.1933 C   0  0  0  0  0  0  0  0  0  0  0  0
   -5.0003   22.9395  -11.7330 C   0  0  0  0  0  0  0  0  0  0  0  0
   -5.9251   23.4243  -12.6138 C   0  0  0  0  0  0  0  0  0  0  0  0
   -7.9046   22.9038  -19.6017 C   0  0  0  0  0  0  0  0  0  0  0  0
   -7.7427   23.6657  -20.8130 C   0  0  0  0  0  0  0  0  0  0  0  0
   -7.3613   23.1009  -21.9985 C   0  0  0  0  0  0  0  0  0  0  0  0
   -7.1872   23.8386  -23.1537 C   0  0  0  0  0  0  0  0  0  0  0  0
   -7.3965   25.1895  -23.1462 C   0  0  0  0  0  0  0  0  0  0  0  0
   -7.7800   25.7968  -21.9751 C   0  0  0  0  0  0  0  0  0  0  0  0
   -7.9471   25.0250  -20.8265 C   0  0  0  0  0  0  0  0  0  0  0  0
   -1.2620   22.8420  -20.4265 C   0  0  0  0  0  0  0  0  0  0  0  0
   -1.5525   24.0381  -20.6581 O   0  0  0  0  0  0  0  0  0  0  0  0
   -1.0762   21.9387  -21.4856 N   0  0  0  0  0  0  0  0  0  0  0  0
   -0.8142   20.9473  -21.2813 H   0  0  0  0  0  0  0  0  0  0  0  0
   -1.2318   22.3163  -22.8653 C   0  0  0  0  0  0  0  0  0  0  0  0
   -2.6109   22.0963  -23.3272 C   0  0  0  0  0  0  0  0  0  0  0  0
   -3.1884   21.0171  -23.0419 O   0  0  0  0  0  0  0  0  0  0  0  0
   -3.3010   23.1233  -24.1092 C   0  0  0  0  0  0  0  0  0  0  0  0
   -3.4134   24.4175  -23.9242 N   0  0  0  0  0  0  0  0  0  0  0  0
   -4.0875   25.1498  -24.7629 C   0  0  0  0  0  0  0  0  0  0  0  0
   -4.2951   26.5349  -24.6908 C   0  0  0  0  0  0  0  0  0  0  0  0
   -5.0240   27.2186  -25.6207 C   0  0  0  0  0  0  0  0  0  0  0  0
   -5.5976   26.5798  -26.6853 C   0  0  0  0  0  0  0  0  0  0  0  0
   -5.4188   25.2229  -26.7942 C   0  0  0  0  0  0  0  0  0  0  0  0
   -4.6658   24.5235  -25.8317 C   0  0  0  0  0  0  0  0  0  0  0  0
   -4.2075   22.9031  -25.5732 S   0  0  0  0  0  0  0  0  0  0  0  0
   -0.1980   21.5904  -23.7256 C   0  0  0  0  0  0  0  0  0  0  0  0
   -0.6037   21.6942  -25.1714 C   0  0  0  0  0  0  0  0  0  0  0  0
    0.4793   22.3410  -26.0107 C   0  0  0  0  0  0  0  0  0  0  0  0
    0.1819   22.0706  -27.3991 N   0  0  0  0  0  0  0  0  0  0  0  0
    0.3675   21.1229  -27.8227 H   0  0  0  0  0  0  0  0  0  0  0  0
   -0.3697   23.0473  -28.2642 C   0  0  0  0  0  0  0  0  0  0  0  0
   -1.7763   23.1138  -28.4157 N   0  0  0  0  0  0  0  0  0  0  0  0
    0.3691   23.8667  -28.9019 N   0  0  0  0  0  0  0  0  0  0  0  0
   -2.3460   22.2778  -28.1711 H   0  0  0  0  0  0  0  0  0  0  0  0
   -2.2413   23.9628  -28.7593 H   0  0  0  0  0  0  0  0  0  0  0  0
    1.3936   23.8275  -28.7933 H   0  0  0  0  0  0  0  0  0  0  0  0
    0.2154   21.5537  -19.0509 C   0  0  0  0  0  0  0  0  0  0  0  0
    0.9278   21.7414  -17.7560 C   0  0  0  0  0  0  0  0  0  0  0  0
    2.3661   22.1670  -17.9371 C   0  0  0  0  0  0  0  0  0  0  0  0
    2.6525   23.3867  -17.2128 N   0  0  0  0  0  0  0  0  0  0  0  0
    2.4535   23.3936  -16.1810 H   0  0  0  0  0  0  0  0  0  0  0  0
    4.5439   24.9578  -17.6165 N   0  0  0  0  0  0  0  0  0  0  0  0
    3.1833   24.5622  -17.7887 C   0  0  0  0  0  0  0  0  0  0  0  0
    2.4262   25.3128  -18.4990 N   0  0  0  0  0  0  0  0  0  0  0  0
    4.8101   25.9508  -17.4788 H   0  0  0  0  0  0  0  0  0  0  0  0
    5.3021   24.2340  -17.6245 H   0  0  0  0  0  0  0  0  0  0  0  0
    1.4479   25.0692  -18.6508 H   0  0  0  0  0  0  0  0  0  0  0  0
 65 66  1  0  0  0
 66 67  2  0  0  0
 66 63  1  0  0  0
 63 62  1  0  0  0
 62 61  1  0  0  0
 61 60  1  0  0  0
 60  1  1  0  0  0
  1  2  1  0  0  0
  2  3  1  0  0  0
  3  4  2  0  0  0
  3  6  1  0  0  0
  6  7  1  0  0  0
  7  8  1  0  0  0
  8  9  1  0  0  0
  9 10  1  0  0  0
 10 11  1  0  0  0
 11 12  2  0  0  0
 11 13  1  0  0  0
 13 26  1  0  0  0
 26 27  1  0  0  0
 27 28  2  0  0  0
 28 29  1  0  0  0
 29 30  2  0  0  0
 30 31  1  0  0  0
 31 32  2  0  0  0
 13 14  1  0  0  0
 14 15  1  0  0  0
 15 16  2  0  0  0
 15 18  1  0  0  0
 18 19  1  0  0  0
 19 20  1  0  0  0
 20 21  2  0  0  0
 21 22  1  0  0  0
 22 23  2  0  0  0
 23 24  1  0  0  0
 24 25  2  0  0  0
  1 33  1  0  0  0
 33 34  2  0  0  0
 33 35  1  0  0  0
 35 37  1  0  0  0
 37 49  1  0  0  0
 49 50  1  0  0  0
 50 51  1  0  0  0
 51 52  1  0  0  0
 52 54  1  0  0  0
 54 55  1  0  0  0
 54 56  2  0  0  0
 37 38  1  0  0  0
 38 39  2  0  0  0
 38 40  1  0  0  0
 40 41  2  0  0  0
 41 42  1  0  0  0
 42 43  2  0  0  0
 43 44  1  0  0  0
 44 45  2  0  0  0
 45 46  1  0  0  0
 46 47  2  0  0  0
 47 48  1  0  0  0
 10  6  1  0  0  0
 32 27  1  0  0  0
 25 20  1  0  0  0
 48 40  1  0  0  0
 47 42  1  0  0  0
 65 68  1  0  0  0
 65 69  1  0  0  0
 67 70  1  0  0  0
 63 64  1  0  0  0
  2  5  1  0  0  0
 14 17  1  0  0  0
 35 36  1  0  0  0
 52 53  1  0  0  0
 55 57  1  0  0  0
 55 58  1  0  0  0
 56 59  1  0  0  0
M  END
> <minimizedAffinity>
-7.89356

> <CNNscore>
0.0822029784

> <CNNaffinity>
7.0811791420

> <CNN_VS>
0.5820940137

> <CNNaffinity_variance>
1.2656050920

$$$$
[H]N=C(N([H])[H])N([H])C([H])([H])C([H])([H])C([H])([H])[C@@]([H])(C(=O)c1nc2c([H])c([H])c([H])c([H])c2s1)N([H])C(=O)[C@@]([H])(N([H])C(=O)[C@@]1([H])N(C(=O)[C@]([H])(N([H])C(=O)OC([H])([H])c2c([H])c([H])c([H])c([H])c2[H])C([H])([H])c2c([H])c([H])c([H])c([H])c2[H])C([H])([H])C([H])([H])C1([H])[H])C([H])([H])C([H])([H])C([H])([H])N([H])C(=N[H])N([H])[H]


 70 74  0  0  0  0  0  0  0  0999 V2000
   -3.6030   22.5364  -18.6477 C   0  0  0  0  0  0  0  0  0  0  0  0
   -4.3897   22.4227  -19.8663 N   0  0  0  0  0  0  0  0  0  0  0  0
   -5.3503   23.4310  -20.1709 C   0  0  0  0  0  0  0  0  0  0  0  0
   -5.3979   24.3697  -19.2779 O   0  0  0  0  0  0  0  0  0  0  0  0
   -4.2412   21.6078  -20.4898 H   0  0  0  0  0  0  0  0  0  0  0  0
   -6.2016   23.4390  -21.3306 C   0  0  0  0  0  0  0  0  0  0  0  0
   -7.6321   23.6589  -20.8336 C   0  0  0  0  0  0  0  0  0  0  0  0
   -8.4358   22.4681  -21.2208 C   0  0  0  0  0  0  0  0  0  0  0  0
   -7.4733   21.5549  -21.8953 C   0  0  0  0  0  0  0  0  0  0  0  0
   -6.2885   22.3009  -22.1818 N   0  0  0  0  0  0  0  0  0  0  0  0
   -5.3316   21.9494  -23.1875 C   0  0  0  0  0  0  0  0  0  0  0  0
   -5.5767   20.9805  -23.9494 O   0  0  0  0  0  0  0  0  0  0  0  0
   -4.0693   22.6821  -23.3665 C   0  0  0  0  0  0  0  0  0  0  0  0
   -4.1275   23.6733  -24.4442 N   0  0  0  0  0  0  0  0  0  0  0  0
   -4.1200   25.0626  -24.1353 C   0  0  0  0  0  0  0  0  0  0  0  0
   -4.0468   25.4127  -22.9519 O   0  0  0  0  0  0  0  0  0  0  0  0
   -4.1734   23.4047  -25.4385 H   0  0  0  0  0  0  0  0  0  0  0  0
   -4.1895   26.0257  -25.1128 O   0  0  0  0  0  0  0  0  0  0  0  0
   -5.2096   25.9849  -26.0391 C   0  0  0  0  0  0  0  0  0  0  0  0
   -5.0680   25.1754  -27.2335 C   0  0  0  0  0  0  0  0  0  0  0  0
   -4.1395   25.4364  -28.2070 C   0  0  0  0  0  0  0  0  0  0  0  0
   -3.9951   24.6553  -29.3421 C   0  0  0  0  0  0  0  0  0  0  0  0
   -4.8593   23.5655  -29.4511 C   0  0  0  0  0  0  0  0  0  0  0  0
   -5.7927   23.2903  -28.4905 C   0  0  0  0  0  0  0  0  0  0  0  0
   -5.8936   24.0924  -27.3893 C   0  0  0  0  0  0  0  0  0  0  0  0
   -2.8978   21.7442  -23.6028 C   0  0  0  0  0  0  0  0  0  0  0  0
   -2.1162   21.9591  -24.7931 C   0  0  0  0  0  0  0  0  0  0  0  0
   -0.7758   22.2277  -24.7611 C   0  0  0  0  0  0  0  0  0  0  0  0
   -0.0333   22.4535  -25.9043 C   0  0  0  0  0  0  0  0  0  0  0  0
   -0.6316   22.4141  -27.1329 C   0  0  0  0  0  0  0  0  0  0  0  0
   -1.9772   22.1483  -27.2094 C   0  0  0  0  0  0  0  0  0  0  0  0
   -2.6986   21.9249  -26.0378 C   0  0  0  0  0  0  0  0  0  0  0  0
   -2.1589   22.4741  -18.8082 C   0  0  0  0  0  0  0  0  0  0  0  0
   -1.5020   23.5047  -19.0821 O   0  0  0  0  0  0  0  0  0  0  0  0
   -1.5097   21.2382  -18.6554 N   0  0  0  0  0  0  0  0  0  0  0  0
   -2.0655   20.3881  -18.4069 H   0  0  0  0  0  0  0  0  0  0  0  0
   -0.0900   21.0797  -18.8274 C   0  0  0  0  0  0  0  0  0  0  0  0
    0.6510   21.6161  -17.6755 C   0  0  0  0  0  0  0  0  0  0  0  0
    0.1107   21.6075  -16.5408 O   0  0  0  0  0  0  0  0  0  0  0  0
    2.0017   22.1524  -17.8504 C   0  0  0  0  0  0  0  0  0  0  0  0
    2.5370   23.2847  -17.4592 N   0  0  0  0  0  0  0  0  0  0  0  0
    3.7804   23.5576  -17.7308 C   0  0  0  0  0  0  0  0  0  0  0  0
    4.4805   24.7220  -17.3833 C   0  0  0  0  0  0  0  0  0  0  0  0
    5.7889   24.9208  -17.7178 C   0  0  0  0  0  0  0  0  0  0  0  0
    6.4947   23.9820  -18.4187 C   0  0  0  0  0  0  0  0  0  0  0  0
    5.8469   22.8264  -18.7789 C   0  0  0  0  0  0  0  0  0  0  0  0
    4.4972   22.6275  -18.4308 C   0  0  0  0  0  0  0  0  0  0  0  0
    3.3381   21.4007  -18.6640 S   0  0  0  0  0  0  0  0  0  0  0  0
    0.3485   21.7012  -20.1529 C   0  0  0  0  0  0  0  0  0  0  0  0
    0.3822   20.6295  -21.2093 C   0  0  0  0  0  0  0  0  0  0  0  0
    0.8792   19.3111  -20.6522 C   0  0  0  0  0  0  0  0  0  0  0  0
   -0.2319   18.3865  -20.6494 N   0  0  0  0  0  0  0  0  0  0  0  0
   -1.2284   18.7306  -20.6266 H   0  0  0  0  0  0  0  0  0  0  0  0
   -0.0538   16.9815  -20.6771 C   0  0  0  0  0  0  0  0  0  0  0  0
   -1.0524   16.1521  -20.1107 N   0  0  0  0  0  0  0  0  0  0  0  0
    0.9783   16.4505  -21.2028 N   0  0  0  0  0  0  0  0  0  0  0  0
   -1.7097   16.5632  -19.4163 H   0  0  0  0  0  0  0  0  0  0  0  0
   -1.1400   15.1618  -20.3689 H   0  0  0  0  0  0  0  0  0  0  0  0
    1.7074   17.0474  -21.6213 H   0  0  0  0  0  0  0  0  0  0  0  0
   -3.9771   21.2673  -17.8219 C   0  0  0  0  0  0  0  0  0  0  0  0
   -5.3758   21.3699  -17.3194 C   0  0  0  0  0  0  0  0  0  0  0  0
   -5.4840   22.1926  -16.0569 C   0  0  0  0  0  0  0  0  0  0  0  0
   -6.0552   23.4958  -16.3215 N   0  0  0  0  0  0  0  0  0  0  0  0
   -6.9392   23.5294  -16.8885 H   0  0  0  0  0  0  0  0  0  0  0  0
   -5.8161   25.2681  -14.5864 N   0  0  0  0  0  0  0  0  0  0  0  0
   -5.5156   24.7207  -15.8699 C   0  0  0  0  0  0  0  0  0  0  0  0
   -4.7211   25.3773  -16.6305 N   0  0  0  0  0  0  0  0  0  0  0  0
   -5.9632   26.2855  -14.4480 H   0  0  0  0  0  0  0  0  0  0  0  0
   -5.8957   24.6344  -13.7552 H   0  0  0  0  0  0  0  0  0  0  0  0
   -4.4766   25.0242  -17.5552 H   0  0  0  0  0  0  0  0  0  0  0  0
 65 66  1  0  0  0
 66 67  2  0  0  0
 66 63  1  0  0  0
 63 62  1  0  0  0
 62 61  1  0  0  0
 61 60  1  0  0  0
 60  1  1  0  0  0
  1  2  1  0  0  0
  2  3  1  0  0  0
  3  4  2  0  0  0
  3  6  1  0  0  0
  6  7  1  0  0  0
  7  8  1  0  0  0
  8  9  1  0  0  0
  9 10  1  0  0  0
 10 11  1  0  0  0
 11 12  2  0  0  0
 11 13  1  0  0  0
 13 26  1  0  0  0
 26 27  1  0  0  0
 27 28  2  0  0  0
 28 29  1  0  0  0
 29 30  2  0  0  0
 30 31  1  0  0  0
 31 32  2  0  0  0
 13 14  1  0  0  0
 14 15  1  0  0  0
 15 16  2  0  0  0
 15 18  1  0  0  0
 18 19  1  0  0  0
 19 20  1  0  0  0
 20 21  2  0  0  0
 21 22  1  0  0  0
 22 23  2  0  0  0
 23 24  1  0  0  0
 24 25  2  0  0  0
  1 33  1  0  0  0
 33 34  2  0  0  0
 33 35  1  0  0  0
 35 37  1  0  0  0
 37 49  1  0  0  0
 49 50  1  0  0  0
 50 51  1  0  0  0
 51 52  1  0  0  0
 52 54  1  0  0  0
 54 55  1  0  0  0
 54 56  2  0  0  0
 37 38  1  0  0  0
 38 39  2  0  0  0
 38 40  1  0  0  0
 40 41  2  0  0  0
 41 42  1  0  0  0
 42 43  2  0  0  0
 43 44  1  0  0  0
 44 45  2  0  0  0
 45 46  1  0  0  0
 46 47  2  0  0  0
 47 48  1  0  0  0
 10  6  1  0  0  0
 32 27  1  0  0  0
 25 20  1  0  0  0
 48 40  1  0  0  0
 47 42  1  0  0  0
 65 68  1  0  0  0
 65 69  1  0  0  0
 67 70  1  0  0  0
 63 64  1  0  0  0
  2  5  1  0  0  0
 14 17  1  0  0  0
 35 36  1  0  0  0
 52 53  1  0  0  0
 55 57  1  0  0  0
 55 58  1  0  0  0
 56 59  1  0  0  0
M  END
> <minimizedAffinity>
-8.77866

> <CNNscore>
0.0772258714

> <CNNaffinity>
6.6628112793

> <CNN_VS>
0.5145413876

> <CNNaffinity_variance>
2.0547463894

$$$$
[H]N=C(N([H])[H])N([H])C([H])([H])C([H])([H])C([H])([H])[C@@]([H])(C(=O)c1nc2c([H])c([H])c([H])c([H])c2s1)N([H])C(=O)[C@@]([H])(N([H])C(=O)[C@@]1([H])N(C(=O)[C@]([H])(N([H])C(=O)OC([H])([H])c2c([H])c([H])c([H])c([H])c2[H])C([H])([H])c2c([H])c([H])c([H])c([H])c2[H])C([H])([H])C([H])([H])C1([H])[H])C([H])([H])C([H])([H])C([H])([H])N([H])C(=N[H])N([H])[H]


 70 74  0  0  0  0  0  0  0  0999 V2000
   -5.0696   23.5198  -17.4964 C   0  0  0  0  0  0  0  0  0  0  0  0
   -5.9477   23.2496  -18.6246 N   0  0  0  0  0  0  0  0  0  0  0  0
   -6.5341   24.3426  -19.3273 C   0  0  0  0  0  0  0  0  0  0  0  0
   -6.1876   25.4960  -18.8473 O   0  0  0  0  0  0  0  0  0  0  0  0
   -6.1354   22.2665  -18.8951 H   0  0  0  0  0  0  0  0  0  0  0  0
   -7.4268   24.2212  -20.4489 C   0  0  0  0  0  0  0  0  0  0  0  0
   -8.7865   24.7597  -19.9983 C   0  0  0  0  0  0  0  0  0  0  0  0
   -9.7708   23.6482  -20.0966 C   0  0  0  0  0  0  0  0  0  0  0  0
   -8.9820   22.4732  -20.5577 C   0  0  0  0  0  0  0  0  0  0  0  0
   -7.7159   22.9490  -21.0192 N   0  0  0  0  0  0  0  0  0  0  0  0
   -6.8664   22.2424  -21.9300 C   0  0  0  0  0  0  0  0  0  0  0  0
   -7.2833   21.1768  -22.4499 O   0  0  0  0  0  0  0  0  0  0  0  0
   -5.5208   22.7176  -22.2846 C   0  0  0  0  0  0  0  0  0  0  0  0
   -5.5268   23.7105  -23.3623 N   0  0  0  0  0  0  0  0  0  0  0  0
   -4.9126   24.9791  -23.1653 C   0  0  0  0  0  0  0  0  0  0  0  0
   -4.3642   25.2176  -22.0833 O   0  0  0  0  0  0  0  0  0  0  0  0
   -5.9645   23.5280  -24.2777 H   0  0  0  0  0  0  0  0  0  0  0  0
   -4.9090   25.9453  -24.1421 O   0  0  0  0  0  0  0  0  0  0  0  0
   -5.8031   25.8610  -25.1880 C   0  0  0  0  0  0  0  0  0  0  0  0
   -5.4569   25.1021  -26.3740 C   0  0  0  0  0  0  0  0  0  0  0  0
   -4.3129   25.3239  -27.0951 C   0  0  0  0  0  0  0  0  0  0  0  0
   -3.9755   24.5901  -28.2208 C   0  0  0  0  0  0  0  0  0  0  0  0
   -4.8755   23.5921  -28.5954 C   0  0  0  0  0  0  0  0  0  0  0  0
   -6.0224   23.3574  -27.8888 C   0  0  0  0  0  0  0  0  0  0  0  0
   -6.3083   24.1097  -26.7850 C   0  0  0  0  0  0  0  0  0  0  0  0
   -4.5944   21.5720  -22.6557 C   0  0  0  0  0  0  0  0  0  0  0  0
   -3.6430   21.8138  -23.7095 C   0  0  0  0  0  0  0  0  0  0  0  0
   -3.9066   21.5404  -25.0231 C   0  0  0  0  0  0  0  0  0  0  0  0
   -2.9837   21.7547  -26.0288 C   0  0  0  0  0  0  0  0  0  0  0  0
   -1.7481   22.2593  -25.7334 C   0  0  0  0  0  0  0  0  0  0  0  0
   -1.4423   22.5470  -24.4254 C   0  0  0  0  0  0  0  0  0  0  0  0
   -2.3949   22.3195  -23.4336 C   0  0  0  0  0  0  0  0  0  0  0  0
   -3.8110   22.7916  -17.4743 C   0  0  0  0  0  0  0  0  0  0  0  0
   -3.3453   22.3544  -16.3970 O   0  0  0  0  0  0  0  0  0  0  0  0
   -3.1209   22.5882  -18.6804 N   0  0  0  0  0  0  0  0  0  0  0  0
   -3.5289   22.9400  -19.5766 H   0  0  0  0  0  0  0  0  0  0  0  0
   -1.8553   21.9069  -18.7463 C   0  0  0  0  0  0  0  0  0  0  0  0
   -0.9726   22.5154  -19.7533 C   0  0  0  0  0  0  0  0  0  0  0  0
   -1.2778   23.6326  -20.2414 O   0  0  0  0  0  0  0  0  0  0  0  0
    0.2466   21.8270  -20.1801 C   0  0  0  0  0  0  0  0  0  0  0  0
    1.3947   21.6489  -19.5702 N   0  0  0  0  0  0  0  0  0  0  0  0
    2.3573   20.9924  -20.1502 C   0  0  0  0  0  0  0  0  0  0  0  0
    3.6311   20.7301  -19.6252 C   0  0  0  0  0  0  0  0  0  0  0  0
    4.5810   20.0326  -20.3141 C   0  0  0  0  0  0  0  0  0  0  0  0
    4.3368   19.5469  -21.5690 C   0  0  0  0  0  0  0  0  0  0  0  0
    3.1017   19.7812  -22.1207 C   0  0  0  0  0  0  0  0  0  0  0  0
    2.1261   20.5013  -21.4050 C   0  0  0  0  0  0  0  0  0  0  0  0
    0.5257   21.0128  -21.6876 S   0  0  0  0  0  0  0  0  0  0  0  0
   -2.0775   20.4132  -18.9810 C   0  0  0  0  0  0  0  0  0  0  0  0
   -1.5666   19.6485  -17.7894 C   0  0  0  0  0  0  0  0  0  0  0  0
   -1.5210   18.1583  -18.0594 C   0  0  0  0  0  0  0  0  0  0  0  0
   -0.1330   17.7758  -18.1891 N   0  0  0  0  0  0  0  0  0  0  0  0
    0.4692   17.6099  -17.3396 H   0  0  0  0  0  0  0  0  0  0  0  0
    0.4949   17.6025  -19.4469 C   0  0  0  0  0  0  0  0  0  0  0  0
    1.9024   17.4528  -19.4963 N   0  0  0  0  0  0  0  0  0  0  0  0
   -0.1770   17.5734  -20.5293 N   0  0  0  0  0  0  0  0  0  0  0  0
    2.4700   17.7906  -18.6919 H   0  0  0  0  0  0  0  0  0  0  0  0
    2.3701   17.0218  -20.3028 H   0  0  0  0  0  0  0  0  0  0  0  0
   -1.2025   17.6770  -20.5011 H   0  0  0  0  0  0  0  0  0  0  0  0
   -5.8606   23.0058  -16.2544 C   0  0  0  0  0  0  0  0  0  0  0  0
   -6.3568   24.1537  -15.4448 C   0  0  0  0  0  0  0  0  0  0  0  0
   -6.7481   23.7529  -14.0417 C   0  0  0  0  0  0  0  0  0  0  0  0
   -6.9467   24.9106  -13.1962 N   0  0  0  0  0  0  0  0  0  0  0  0
   -7.9230   25.2919  -13.1212 H   0  0  0  0  0  0  0  0  0  0  0  0
   -4.6883   24.9289  -12.1435 N   0  0  0  0  0  0  0  0  0  0  0  0
   -5.9283   25.5594  -12.4631 C   0  0  0  0  0  0  0  0  0  0  0  0
   -6.1090   26.7632  -12.0641 N   0  0  0  0  0  0  0  0  0  0  0  0
   -4.2293   25.0631  -11.2231 H   0  0  0  0  0  0  0  0  0  0  0  0
   -4.2218   24.3092  -12.8486 H   0  0  0  0  0  0  0  0  0  0  0  0
   -6.9784   27.2541  -12.2706 H   0  0  0  0  0  0  0  0  0  0  0  0
 65 66  1  0  0  0
 66 67  2  0  0  0
 66 63  1  0  0  0
 63 62  1  0  0  0
 62 61  1  0  0  0
 61 60  1  0  0  0
 60  1  1  0  0  0
  1  2  1  0  0  0
  2  3  1  0  0  0
  3  4  2  0  0  0
  3  6  1  0  0  0
  6  7  1  0  0  0
  7  8  1  0  0  0
  8  9  1  0  0  0
  9 10  1  0  0  0
 10 11  1  0  0  0
 11 12  2  0  0  0
 11 13  1  0  0  0
 13 26  1  0  0  0
 26 27  1  0  0  0
 27 28  2  0  0  0
 28 29  1  0  0  0
 29 30  2  0  0  0
 30 31  1  0  0  0
 31 32  2  0  0  0
 13 14  1  0  0  0
 14 15  1  0  0  0
 15 16  2  0  0  0
 15 18  1  0  0  0
 18 19  1  0  0  0
 19 20  1  0  0  0
 20 21  2  0  0  0
 21 22  1  0  0  0
 22 23  2  0  0  0
 23 24  1  0  0  0
 24 25  2  0  0  0
  1 33  1  0  0  0
 33 34  2  0  0  0
 33 35  1  0  0  0
 35 37  1  0  0  0
 37 49  1  0  0  0
 49 50  1  0  0  0
 50 51  1  0  0  0
 51 52  1  0  0  0
 52 54  1  0  0  0
 54 55  1  0  0  0
 54 56  2  0  0  0
 37 38  1  0  0  0
 38 39  2  0  0  0
 38 40  1  0  0  0
 40 41  2  0  0  0
 41 42  1  0  0  0
 42 43  2  0  0  0
 43 44  1  0  0  0
 44 45  2  0  0  0
 45 46  1  0  0  0
 46 47  2  0  0  0
 47 48  1  0  0  0
 10  6  1  0  0  0
 32 27  1  0  0  0
 25 20  1  0  0  0
 48 40  1  0  0  0
 47 42  1  0  0  0
 65 68  1  0  0  0
 65 69  1  0  0  0
 67 70  1  0  0  0
 63 64  1  0  0  0
  2  5  1  0  0  0
 14 17  1  0  0  0
 35 36  1  0  0  0
 52 53  1  0  0  0
 55 57  1  0  0  0
 55 58  1  0  0  0
 56 59  1  0  0  0
M  END
> <minimizedAffinity>
-7.60478

> <CNNscore>
0.0713067278

> <CNNaffinity>
6.8394508362

> <CNN_VS>
0.4876988530

> <CNNaffinity_variance>
1.2639853954

$$$$
[H]c1c([H])c([H])c(C([H])([H])[C@@]([H])(C(=O)N([H])[H])N([H])C(=O)[C@@]([H])(N([H])C(=O)[C@@]([H])(N([H])C(=O)C([H])([H])N([H])C(=O)[C@@]([H])(N([H])C(=O)[C@@]([H])(N([H])[H])C([H])([H])c2c([H])n([H])c3c([H])c([H])c([H])c([H])c23)C([H])(C([H])([H])[H])C([H])([H])[H])C([H])([H])c2c([H])c([H])c([H])c([H])c2[H])C([H])([H])C([H])(C([H])([H])[H])C([H])([H])[H])c([H])c1[H]


 66 69  0  0  0  0  0  0  0  0999 V2000
   -4.6979   21.5373  -21.7327 C   0  0  0  0  0  0  0  0  0  0  0  0
   -5.4670   23.5026  -23.1550 N   0  0  0  0  0  0  0  0  0  0  0  0
   -5.2103   22.1381  -22.9592 C   0  0  0  0  0  0  0  0  0  0  0  0
   -5.4515   21.3819  -23.9303 O   0  0  0  0  0  0  0  0  0  0  0  0
   -5.2584   24.1241  -22.3119 H   0  0  0  0  0  0  0  0  0  0  0  0
   -5.9875   24.1825  -24.2870 C   0  0  0  0  0  0  0  0  0  0  0  0
   -5.0103   24.5022  -25.3606 C   0  0  0  0  0  0  0  0  0  0  0  0
   -4.1459   25.3867  -25.1606 O   0  0  0  0  0  0  0  0  0  0  0  0
   -5.0299   23.8381  -26.5973 N   0  0  0  0  0  0  0  0  0  0  0  0
   -5.7664   23.1346  -26.8119 H   0  0  0  0  0  0  0  0  0  0  0  0
   -4.0309   24.1335  -27.6125 C   0  0  0  0  0  0  0  0  0  0  0  0
   -4.7743   24.7050  -28.8185 C   0  0  0  0  0  0  0  0  0  0  0  0
   -4.1083   25.3633  -29.8705 N   0  0  0  0  0  0  0  0  0  0  0  0
   -6.0196   24.5637  -28.8346 O   0  0  0  0  0  0  0  0  0  0  0  0
   -4.4801   26.2800  -30.1591 H   0  0  0  0  0  0  0  0  0  0  0  0
   -3.2639   24.8969  -30.3203 H   0  0  0  0  0  0  0  0  0  0  0  0
   -3.2342   22.9731  -28.0607 C   0  0  0  0  0  0  0  0  0  0  0  0
   -2.0561   22.6660  -27.1805 C   0  0  0  0  0  0  0  0  0  0  0  0
   -2.2053   22.2490  -25.8793 C   0  0  0  0  0  0  0  0  0  0  0  0
   -1.1087   21.9814  -25.0602 C   0  0  0  0  0  0  0  0  0  0  0  0
    0.1583   22.1425  -25.5807 C   0  0  0  0  0  0  0  0  0  0  0  0
    0.3274   22.5633  -26.8951 C   0  0  0  0  0  0  0  0  0  0  0  0
   -0.7776   22.8149  -27.6603 C   0  0  0  0  0  0  0  0  0  0  0  0
   -6.8766   25.3289  -23.9220 C   0  0  0  0  0  0  0  0  0  0  0  0
   -7.3936   26.1065  -21.6773 C   0  0  0  0  0  0  0  0  0  0  0  0
   -7.7488   25.0292  -22.7141 C   0  0  0  0  0  0  0  0  0  0  0  0
   -9.2182   25.1811  -23.0092 C   0  0  0  0  0  0  0  0  0  0  0  0
   -3.2233   21.5064  -21.6893 N   0  0  0  0  0  0  0  0  0  0  0  0
   -2.4090   22.6021  -21.4764 C   0  0  0  0  0  0  0  0  0  0  0  0
   -2.9076   23.7972  -21.2865 O   0  0  0  0  0  0  0  0  0  0  0  0
   -2.7818   20.5521  -21.8283 H   0  0  0  0  0  0  0  0  0  0  0  0
   -0.9588   22.5899  -21.4234 C   0  0  0  0  0  0  0  0  0  0  0  0
   -0.3478   21.7999  -20.3687 N   0  0  0  0  0  0  0  0  0  0  0  0
   -0.0333   20.4457  -20.5592 C   0  0  0  0  0  0  0  0  0  0  0  0
   -0.3166   19.9915  -21.7298 O   0  0  0  0  0  0  0  0  0  0  0  0
   -0.1659   22.2560  -19.4656 H   0  0  0  0  0  0  0  0  0  0  0  0
    0.5664   19.5670  -19.5562 C   0  0  0  0  0  0  0  0  0  0  0  0
    0.2028   18.1717  -19.8057 N   0  0  0  0  0  0  0  0  0  0  0  0
   -0.8625   17.4975  -19.1475 C   0  0  0  0  0  0  0  0  0  0  0  0
   -1.5660   18.1059  -18.3056 O   0  0  0  0  0  0  0  0  0  0  0  0
    0.7640   17.6574  -20.5148 H   0  0  0  0  0  0  0  0  0  0  0  0
   -1.1666   16.0795  -19.4366 C   0  0  0  0  0  0  0  0  0  0  0  0
   -0.1518   15.4093  -20.1855 N   0  0  0  0  0  0  0  0  0  0  0  0
   -0.4363   14.6269  -20.7741 H   0  0  0  0  0  0  0  0  0  0  0  0
    0.7376   15.2823  -19.6460 H   0  0  0  0  0  0  0  0  0  0  0  0
   -1.6654   15.3857  -18.2146 C   0  0  0  0  0  0  0  0  0  0  0  0
   -2.6238   14.3043  -18.5261 C   0  0  0  0  0  0  0  0  0  0  0  0
   -2.4446   12.9403  -18.3437 C   0  0  0  0  0  0  0  0  0  0  0  0
   -3.5590   12.3164  -18.7536 N   0  0  0  0  0  0  0  0  0  0  0  0
   -4.4655   13.2157  -19.1998 C   0  0  0  0  0  0  0  0  0  0  0  0
   -5.7303   13.0261  -19.7243 C   0  0  0  0  0  0  0  0  0  0  0  0
   -6.4626   14.1246  -20.1331 C   0  0  0  0  0  0  0  0  0  0  0  0
   -5.9162   15.3860  -20.0088 C   0  0  0  0  0  0  0  0  0  0  0  0
   -4.6556   15.5424  -19.4821 C   0  0  0  0  0  0  0  0  0  0  0  0
   -3.8858   14.4552  -19.0584 C   0  0  0  0  0  0  0  0  0  0  0  0
   -3.6839   11.2820  -18.7263 H   0  0  0  0  0  0  0  0  0  0  0  0
    2.0414   19.5947  -19.3576 C   0  0  0  0  0  0  0  0  0  0  0  0
    2.2906   19.9604  -17.8641 C   0  0  0  0  0  0  0  0  0  0  0  0
    2.7663   20.7000  -20.1202 C   0  0  0  0  0  0  0  0  0  0  0  0
   -5.2904   21.7815  -20.4305 C   0  0  0  0  0  0  0  0  0  0  0  0
   -6.6475   22.2068  -20.2166 C   0  0  0  0  0  0  0  0  0  0  0  0
   -6.9767   23.2248  -19.3497 C   0  0  0  0  0  0  0  0  0  0  0  0
   -8.2911   23.6678  -19.1564 C   0  0  0  0  0  0  0  0  0  0  0  0
   -9.3248   23.0679  -19.8616 C   0  0  0  0  0  0  0  0  0  0  0  0
   -9.0096   22.0530  -20.7283 C   0  0  0  0  0  0  0  0  0  0  0  0
   -7.7093   21.6357  -20.8997 C   0  0  0  0  0  0  0  0  0  0  0  0
 25 26  1  0  0  0
 26 27  1  0  0  0
 26 24  1  0  0  0
 24  6  1  0  0  0
  6  2  1  0  0  0
  2  3  1  0  0  0
  3  4  2  0  0  0
  3  1  1  0  0  0
  1 60  1  0  0  0
 60 61  1  0  0  0
 61 62  2  0  0  0
 62 63  1  0  0  0
 63 64  2  0  0  0
 64 65  1  0  0  0
 65 66  2  0  0  0
  1 28  1  0  0  0
 28 29  1  0  0  0
 29 30  2  0  0  0
 29 32  1  0  0  0
 32 33  1  0  0  0
 33 34  1  0  0  0
 34 35  2  0  0  0
 34 37  1  0  0  0
 37 38  1  0  0  0
 38 39  1  0  0  0
 39 40  2  0  0  0
 39 42  1  0  0  0
 42 43  1  0  0  0
 42 46  1  0  0  0
 46 47  1  0  0  0
 47 48  2  0  0  0
 48 49  1  0  0  0
 49 50  1  0  0  0
 50 51  2  0  0  0
 51 52  1  0  0  0
 52 53  2  0  0  0
 53 54  1  0  0  0
 54 55  2  0  0  0
 37 57  1  0  0  0
 57 58  1  0  0  0
 57 59  1  0  0  0
  6  7  1  0  0  0
  7  8  2  0  0  0
  7  9  1  0  0  0
  9 11  1  0  0  0
 11 17  1  0  0  0
 17 18  1  0  0  0
 18 19  2  0  0  0
 19 20  1  0  0  0
 20 21  2  0  0  0
 21 22  1  0  0  0
 22 23  2  0  0  0
 11 12  1  0  0  0
 12 13  1  0  0  0
 12 14  2  0  0  0
 66 61  1  0  0  0
 55 47  1  0  0  0
 23 18  1  0  0  0
 55 50  1  0  0  0
  2  5  1  0  0  0
 28 31  1  0  0  0
 33 36  1  0  0  0
 38 41  1  0  0  0
 43 44  1  0  0  0
 43 45  1  0  0  0
 49 56  1  0  0  0
  9 10  1  0  0  0
 13 15  1  0  0  0
 13 16  1  0  0  0
M  END
> <minimizedAffinity>
-8.11301

> <CNNscore>
0.2188676447

> <CNNaffinity>
6.9562163353

> <CNN_VS>
1.5224907398

> <CNNaffinity_variance>
0.8506416082

$$$$
[H]c1c([H])c([H])c(C([H])([H])[C@@]([H])(C(=O)N([H])[H])N([H])C(=O)[C@@]([H])(N([H])C(=O)[C@@]([H])(N([H])C(=O)C([H])([H])N([H])C(=O)[C@@]([H])(N([H])C(=O)[C@@]([H])(N([H])[H])C([H])([H])c2c([H])n([H])c3c([H])c([H])c([H])c([H])c23)C([H])(C([H])([H])[H])C([H])([H])[H])C([H])([H])c2c([H])c([H])c([H])c([H])c2[H])C([H])([H])C([H])(C([H])([H])[H])C([H])([H])[H])c([H])c1[H]


 66 69  0  0  0  0  0  0  0  0999 V2000
   -3.7939   22.6474  -21.7815 C   0  0  0  0  0  0  0  0  0  0  0  0
   -3.1897   22.4389  -24.2450 N   0  0  0  0  0  0  0  0  0  0  0  0
   -3.5038   23.1908  -23.1038 C   0  0  0  0  0  0  0  0  0  0  0  0
   -3.5289   24.4364  -23.2481 O   0  0  0  0  0  0  0  0  0  0  0  0
   -3.1698   21.3819  -24.0947 H   0  0  0  0  0  0  0  0  0  0  0  0
   -2.8659   22.8638  -25.5601 C   0  0  0  0  0  0  0  0  0  0  0  0
   -4.0183   23.1750  -26.4460 C   0  0  0  0  0  0  0  0  0  0  0  0
   -5.0635   22.4899  -26.3575 O   0  0  0  0  0  0  0  0  0  0  0  0
   -3.9673   24.2192  -27.3830 N   0  0  0  0  0  0  0  0  0  0  0  0
   -3.0963   24.7734  -27.5151 H   0  0  0  0  0  0  0  0  0  0  0  0
   -5.1265   24.5361  -28.2026 C   0  0  0  0  0  0  0  0  0  0  0  0
   -4.6194   24.7634  -29.6255 C   0  0  0  0  0  0  0  0  0  0  0  0
   -3.5538   25.6379  -29.9141 N   0  0  0  0  0  0  0  0  0  0  0  0
   -5.1988   24.1320  -30.5403 O   0  0  0  0  0  0  0  0  0  0  0  0
   -3.7044   26.3278  -30.6646 H   0  0  0  0  0  0  0  0  0  0  0  0
   -2.6500   25.5531  -29.3583 H   0  0  0  0  0  0  0  0  0  0  0  0
   -5.8826   25.7322  -27.7786 C   0  0  0  0  0  0  0  0  0  0  0  0
   -6.3900   25.6636  -26.3662 C   0  0  0  0  0  0  0  0  0  0  0  0
   -7.4440   24.8578  -26.0070 C   0  0  0  0  0  0  0  0  0  0  0  0
   -7.9231   24.8098  -24.6980 C   0  0  0  0  0  0  0  0  0  0  0  0
   -7.3142   25.5974  -23.7434 C   0  0  0  0  0  0  0  0  0  0  0  0
   -6.2465   26.4182  -24.0895 C   0  0  0  0  0  0  0  0  0  0  0  0
   -5.8120   26.4330  -25.3860 C   0  0  0  0  0  0  0  0  0  0  0  0
   -1.8216   22.0113  -26.2087 C   0  0  0  0  0  0  0  0  0  0  0  0
    0.3718   21.9116  -25.1650 C   0  0  0  0  0  0  0  0  0  0  0  0
   -0.4524   22.6708  -26.2166 C   0  0  0  0  0  0  0  0  0  0  0  0
    0.2636   22.5024  -27.5311 C   0  0  0  0  0  0  0  0  0  0  0  0
   -2.6682   21.8704  -21.2281 N   0  0  0  0  0  0  0  0  0  0  0  0
   -1.5004   22.4086  -20.7225 C   0  0  0  0  0  0  0  0  0  0  0  0
   -1.3007   23.7018  -20.6936 O   0  0  0  0  0  0  0  0  0  0  0  0
   -2.7976   20.8177  -21.2244 H   0  0  0  0  0  0  0  0  0  0  0  0
   -0.3866   21.6616  -20.1682 C   0  0  0  0  0  0  0  0  0  0  0  0
   -0.4217   20.2181  -20.3265 N   0  0  0  0  0  0  0  0  0  0  0  0
    0.5700   19.3976  -19.7677 C   0  0  0  0  0  0  0  0  0  0  0  0
    1.4768   20.0298  -19.1084 O   0  0  0  0  0  0  0  0  0  0  0  0
   -1.1877   19.8099  -20.8774 H   0  0  0  0  0  0  0  0  0  0  0  0
    0.6292   17.9415  -19.8857 C   0  0  0  0  0  0  0  0  0  0  0  0
   -0.7143   17.3631  -19.8442 N   0  0  0  0  0  0  0  0  0  0  0  0
   -1.3622   16.9415  -18.6504 C   0  0  0  0  0  0  0  0  0  0  0  0
   -0.7856   17.0701  -17.5437 O   0  0  0  0  0  0  0  0  0  0  0  0
   -1.2146   17.2664  -20.7512 H   0  0  0  0  0  0  0  0  0  0  0  0
   -2.7172   16.3500  -18.6819 C   0  0  0  0  0  0  0  0  0  0  0  0
   -3.7714   17.3090  -18.5884 N   0  0  0  0  0  0  0  0  0  0  0  0
   -4.6555   17.0030  -18.1832 H   0  0  0  0  0  0  0  0  0  0  0  0
   -3.8390   17.9256  -19.4332 H   0  0  0  0  0  0  0  0  0  0  0  0
   -2.8273   15.3379  -19.7715 C   0  0  0  0  0  0  0  0  0  0  0  0
   -3.3115   14.0289  -19.2847 C   0  0  0  0  0  0  0  0  0  0  0  0
   -4.6286   13.6324  -19.1008 C   0  0  0  0  0  0  0  0  0  0  0  0
   -4.6230   12.3697  -18.6483 N   0  0  0  0  0  0  0  0  0  0  0  0
   -3.3536   11.9186  -18.5260 C   0  0  0  0  0  0  0  0  0  0  0  0
   -2.8763   10.6983  -18.0860 C   0  0  0  0  0  0  0  0  0  0  0  0
   -1.5116   10.4866  -18.0343 C   0  0  0  0  0  0  0  0  0  0  0  0
   -0.6554   11.4970  -18.4230 C   0  0  0  0  0  0  0  0  0  0  0  0
   -1.1607   12.7000  -18.8571 C   0  0  0  0  0  0  0  0  0  0  0  0
   -2.5344   12.9501  -18.9227 C   0  0  0  0  0  0  0  0  0  0  0  0
   -5.4883   11.8332  -18.4251 H   0  0  0  0  0  0  0  0  0  0  0  0
    1.3180   17.3369  -21.0587 C   0  0  0  0  0  0  0  0  0  0  0  0
    1.2965   15.7934  -20.8507 C   0  0  0  0  0  0  0  0  0  0  0  0
    2.8057   17.6614  -21.1607 C   0  0  0  0  0  0  0  0  0  0  0  0
   -4.5109   23.3945  -20.7646 C   0  0  0  0  0  0  0  0  0  0  0  0
   -5.9376   23.5733  -20.7350 C   0  0  0  0  0  0  0  0  0  0  0  0
   -6.5366   24.6482  -20.1169 C   0  0  0  0  0  0  0  0  0  0  0  0
   -7.9226   24.8486  -20.1081 C   0  0  0  0  0  0  0  0  0  0  0  0
   -8.7491   23.9349  -20.7466 C   0  0  0  0  0  0  0  0  0  0  0  0
   -8.1643   22.8604  -21.3662 C   0  0  0  0  0  0  0  0  0  0  0  0
   -6.7991   22.6858  -21.3597 C   0  0  0  0  0  0  0  0  0  0  0  0
 25 26  1  0  0  0
 26 27  1  0  0  0
 26 24  1  0  0  0
 24  6  1  0  0  0
  6  2  1  0  0  0
  2  3  1  0  0  0
  3  4  2  0  0  0
  3  1  1  0  0  0
  1 60  1  0  0  0
 60 61  1  0  0  0
 61 62  2  0  0  0
 62 63  1  0  0  0
 63 64  2  0  0  0
 64 65  1  0  0  0
 65 66  2  0  0  0
  1 28  1  0  0  0
 28 29  1  0  0  0
 29 30  2  0  0  0
 29 32  1  0  0  0
 32 33  1  0  0  0
 33 34  1  0  0  0
 34 35  2  0  0  0
 34 37  1  0  0  0
 37 38  1  0  0  0
 38 39  1  0  0  0
 39 40  2  0  0  0
 39 42  1  0  0  0
 42 43  1  0  0  0
 42 46  1  0  0  0
 46 47  1  0  0  0
 47 48  2  0  0  0
 48 49  1  0  0  0
 49 50  1  0  0  0
 50 51  2  0  0  0
 51 52  1  0  0  0
 52 53  2  0  0  0
 53 54  1  0  0  0
 54 55  2  0  0  0
 37 57  1  0  0  0
 57 58  1  0  0  0
 57 59  1  0  0  0
  6  7  1  0  0  0
  7  8  2  0  0  0
  7  9  1  0  0  0
  9 11  1  0  0  0
 11 17  1  0  0  0
 17 18  1  0  0  0
 18 19  2  0  0  0
 19 20  1  0  0  0
 20 21  2  0  0  0
 21 22  1  0  0  0
 22 23  2  0  0  0
 11 12  1  0  0  0
 12 13  1  0  0  0
 12 14  2  0  0  0
 66 61  1  0  0  0
 55 47  1  0  0  0
 23 18  1  0  0  0
 55 50  1  0  0  0
  2  5  1  0  0  0
 28 31  1  0  0  0
 33 36  1  0  0  0
 38 41  1  0  0  0
 43 44  1  0  0  0
 43 45  1  0  0  0
 49 56  1  0  0  0
  9 10  1  0  0  0
 13 15  1  0  0  0
 13 16  1  0  0  0
M  END
> <minimizedAffinity>
-7.99013

> <CNNscore>
0.2066659182

> <CNNaffinity>
6.3696393967

> <CNN_VS>
1.3163874149

> <CNNaffinity_variance>
1.4684766531

$$$$
[H]c1c([H])c([H])c(C([H])([H])[C@@]([H])(C(=O)N([H])[H])N([H])C(=O)[C@@]([H])(N([H])C(=O)[C@@]([H])(N([H])C(=O)C([H])([H])N([H])C(=O)[C@@]([H])(N([H])C(=O)[C@@]([H])(N([H])[H])C([H])([H])c2c([H])n([H])c3c([H])c([H])c([H])c([H])c23)C([H])(C([H])([H])[H])C([H])([H])[H])C([H])([H])c2c([H])c([H])c([H])c([H])c2[H])C([H])([H])C([H])(C([H])([H])[H])C([H])([H])[H])c([H])c1[H]


 66 69  0  0  0  0  0  0  0  0999 V2000
   -4.8625   21.4369  -22.0528 C   0  0  0  0  0  0  0  0  0  0  0  0
   -5.6426   23.4955  -23.3299 N   0  0  0  0  0  0  0  0  0  0  0  0
   -5.4325   22.1141  -23.2124 C   0  0  0  0  0  0  0  0  0  0  0  0
   -5.7733   21.4141  -24.1957 O   0  0  0  0  0  0  0  0  0  0  0  0
   -5.3491   24.0683  -22.4777 H   0  0  0  0  0  0  0  0  0  0  0  0
   -6.2106   24.2475  -24.3912 C   0  0  0  0  0  0  0  0  0  0  0  0
   -5.3060   24.5510  -25.5310 C   0  0  0  0  0  0  0  0  0  0  0  0
   -4.6930   25.6434  -25.5546 O   0  0  0  0  0  0  0  0  0  0  0  0
   -5.1192   23.6439  -26.5861 N   0  0  0  0  0  0  0  0  0  0  0  0
   -5.6523   22.7505  -26.6204 H   0  0  0  0  0  0  0  0  0  0  0  0
   -4.1894   23.9428  -27.6641 C   0  0  0  0  0  0  0  0  0  0  0  0
   -5.0246   24.3756  -28.8678 C   0  0  0  0  0  0  0  0  0  0  0  0
   -4.6291   25.4246  -29.7202 N   0  0  0  0  0  0  0  0  0  0  0  0
   -6.0926   23.7513  -29.0694 O   0  0  0  0  0  0  0  0  0  0  0  0
   -5.3311   26.1504  -29.9263 H   0  0  0  0  0  0  0  0  0  0  0  0
   -3.6400   25.4269  -30.1133 H   0  0  0  0  0  0  0  0  0  0  0  0
   -3.3261   22.8165  -28.0741 C   0  0  0  0  0  0  0  0  0  0  0  0
   -2.1202   22.6230  -27.1992 C   0  0  0  0  0  0  0  0  0  0  0  0
   -0.8420   22.8291  -27.6609 C   0  0  0  0  0  0  0  0  0  0  0  0
    0.2757   22.6318  -26.8504 C   0  0  0  0  0  0  0  0  0  0  0  0
    0.0821   22.2183  -25.5490 C   0  0  0  0  0  0  0  0  0  0  0  0
   -1.2041   22.0054  -25.0655 C   0  0  0  0  0  0  0  0  0  0  0  0
   -2.2698   22.2107  -25.8975 C   0  0  0  0  0  0  0  0  0  0  0  0
   -6.9955   25.4288  -23.9152 C   0  0  0  0  0  0  0  0  0  0  0  0
   -7.4857   26.1598  -21.6490 C   0  0  0  0  0  0  0  0  0  0  0  0
   -7.8574   25.1075  -22.7054 C   0  0  0  0  0  0  0  0  0  0  0  0
   -9.3287   25.2739  -22.9823 C   0  0  0  0  0  0  0  0  0  0  0  0
   -3.4294   21.7364  -21.8688 N   0  0  0  0  0  0  0  0  0  0  0  0
   -2.9111   22.9687  -21.5197 C   0  0  0  0  0  0  0  0  0  0  0  0
   -3.6866   24.0030  -21.3150 O   0  0  0  0  0  0  0  0  0  0  0  0
   -2.7692   20.9194  -22.0155 H   0  0  0  0  0  0  0  0  0  0  0  0
   -1.5068   23.2802  -21.3274 C   0  0  0  0  0  0  0  0  0  0  0  0
   -0.7442   22.3763  -20.4841 N   0  0  0  0  0  0  0  0  0  0  0  0
   -0.0980   22.8299  -19.3240 C   0  0  0  0  0  0  0  0  0  0  0  0
   -0.2561   24.0840  -19.0807 O   0  0  0  0  0  0  0  0  0  0  0  0
   -0.6741   21.3911  -20.7693 H   0  0  0  0  0  0  0  0  0  0  0  0
    0.7031   22.0027  -18.4231 C   0  0  0  0  0  0  0  0  0  0  0  0
    1.7710   22.7912  -17.8075 N   0  0  0  0  0  0  0  0  0  0  0  0
    3.1489   22.4433  -17.8614 C   0  0  0  0  0  0  0  0  0  0  0  0
    3.5128   21.4126  -18.4773 O   0  0  0  0  0  0  0  0  0  0  0  0
    1.4888   23.6593  -17.3085 H   0  0  0  0  0  0  0  0  0  0  0  0
    4.1765   23.2785  -17.2031 C   0  0  0  0  0  0  0  0  0  0  0  0
    4.8954   24.1275  -18.0987 N   0  0  0  0  0  0  0  0  0  0  0  0
    5.8462   24.3905  -17.8414 H   0  0  0  0  0  0  0  0  0  0  0  0
    4.3004   24.8869  -18.5080 H   0  0  0  0  0  0  0  0  0  0  0  0
    3.6302   23.9151  -15.9702 C   0  0  0  0  0  0  0  0  0  0  0  0
    3.7155   23.0312  -14.7886 C   0  0  0  0  0  0  0  0  0  0  0  0
    4.8645   22.5581  -14.1706 C   0  0  0  0  0  0  0  0  0  0  0  0
    4.4933   21.7907  -13.1350 N   0  0  0  0  0  0  0  0  0  0  0  0
    3.1445   21.7387  -13.0466 C   0  0  0  0  0  0  0  0  0  0  0  0
    2.3317   21.0633  -12.1557 C   0  0  0  0  0  0  0  0  0  0  0  0
    0.9594   21.1564  -12.2905 C   0  0  0  0  0  0  0  0  0  0  0  0
    0.4305   21.9213  -13.3104 C   0  0  0  0  0  0  0  0  0  0  0  0
    1.2652   22.5825  -14.1804 C   0  0  0  0  0  0  0  0  0  0  0  0
    2.6573   22.5115  -14.0751 C   0  0  0  0  0  0  0  0  0  0  0  0
    5.1680   21.3088  -12.5034 H   0  0  0  0  0  0  0  0  0  0  0  0
    0.0258   21.2671  -17.3204 C   0  0  0  0  0  0  0  0  0  0  0  0
   -0.1499   19.7951  -17.7987 C   0  0  0  0  0  0  0  0  0  0  0  0
   -1.4028   21.7213  -17.0349 C   0  0  0  0  0  0  0  0  0  0  0  0
   -5.5717   21.3025  -20.7937 C   0  0  0  0  0  0  0  0  0  0  0  0
   -6.7655   22.0253  -20.4466 C   0  0  0  0  0  0  0  0  0  0  0  0
   -8.0098   21.6698  -20.9173 C   0  0  0  0  0  0  0  0  0  0  0  0
   -9.1827   22.3474  -20.5618 C   0  0  0  0  0  0  0  0  0  0  0  0
   -9.1109   23.4292  -19.6956 C   0  0  0  0  0  0  0  0  0  0  0  0
   -7.8772   23.7927  -19.2197 C   0  0  0  0  0  0  0  0  0  0  0  0
   -6.7392   23.1104  -19.5852 C   0  0  0  0  0  0  0  0  0  0  0  0
 25 26  1  0  0  0
 26 27  1  0  0  0
 26 24  1  0  0  0
 24  6  1  0  0  0
  6  2  1  0  0  0
  2  3  1  0  0  0
  3  4  2  0  0  0
  3  1  1  0  0  0
  1 60  1  0  0  0
 60 61  1  0  0  0
 61 62  2  0  0  0
 62 63  1  0  0  0
 63 64  2  0  0  0
 64 65  1  0  0  0
 65 66  2  0  0  0
  1 28  1  0  0  0
 28 29  1  0  0  0
 29 30  2  0  0  0
 29 32  1  0  0  0
 32 33  1  0  0  0
 33 34  1  0  0  0
 34 35  2  0  0  0
 34 37  1  0  0  0
 37 38  1  0  0  0
 38 39  1  0  0  0
 39 40  2  0  0  0
 39 42  1  0  0  0
 42 43  1  0  0  0
 42 46  1  0  0  0
 46 47  1  0  0  0
 47 48  2  0  0  0
 48 49  1  0  0  0
 49 50  1  0  0  0
 50 51  2  0  0  0
 51 52  1  0  0  0
 52 53  2  0  0  0
 53 54  1  0  0  0
 54 55  2  0  0  0
 37 57  1  0  0  0
 57 58  1  0  0  0
 57 59  1  0  0  0
  6  7  1  0  0  0
  7  8  2  0  0  0
  7  9  1  0  0  0
  9 11  1  0  0  0
 11 17  1  0  0  0
 17 18  1  0  0  0
 18 19  2  0  0  0
 19 20  1  0  0  0
 20 21  2  0  0  0
 21 22  1  0  0  0
 22 23  2  0  0  0
 11 12  1  0  0  0
 12 13  1  0  0  0
 12 14  2  0  0  0
 66 61  1  0  0  0
 55 47  1  0  0  0
 23 18  1  0  0  0
 55 50  1  0  0  0
  2  5  1  0  0  0
 28 31  1  0  0  0
 33 36  1  0  0  0
 38 41  1  0  0  0
 43 44  1  0  0  0
 43 45  1  0  0  0
 49 56  1  0  0  0
  9 10  1  0  0  0
 13 15  1  0  0  0
 13 16  1  0  0  0
M  END
> <minimizedAffinity>
-8.44701

> <CNNscore>
0.1979337335

> <CNNaffinity>
6.4301285744

> <CNN_VS>
1.2727394104

> <CNNaffinity_variance>
1.3736407757

$$$$
[H]c1c([H])c([H])c(C([H])([H])[C@@]([H])(C(=O)N([H])[H])N([H])C(=O)[C@@]([H])(N([H])C(=O)[C@@]([H])(N([H])C(=O)C([H])([H])N([H])C(=O)[C@@]([H])(N([H])C(=O)[C@@]([H])(N([H])[H])C([H])([H])c2c([H])n([H])c3c([H])c([H])c([H])c([H])c23)C([H])(C([H])([H])[H])C([H])([H])[H])C([H])([H])c2c([H])c([H])c([H])c([H])c2[H])C([H])([H])C([H])(C([H])([H])[H])C([H])([H])[H])c([H])c1[H]


 66 69  0  0  0  0  0  0  0  0999 V2000
   -3.0779   22.2464  -23.5651 C   0  0  0  0  0  0  0  0  0  0  0  0
   -4.7089   24.0288  -24.3652 N   0  0  0  0  0  0  0  0  0  0  0  0
   -4.3807   22.7066  -24.0329 C   0  0  0  0  0  0  0  0  0  0  0  0
   -5.2986   21.8599  -24.1491 O   0  0  0  0  0  0  0  0  0  0  0  0
   -3.9121   24.7309  -24.2529 H   0  0  0  0  0  0  0  0  0  0  0  0
   -5.9409   24.5843  -24.7991 C   0  0  0  0  0  0  0  0  0  0  0  0
   -7.0341   24.6098  -23.7921 C   0  0  0  0  0  0  0  0  0  0  0  0
   -8.1980   24.8963  -24.1565 O   0  0  0  0  0  0  0  0  0  0  0  0
   -6.7972   24.3212  -22.4388 N   0  0  0  0  0  0  0  0  0  0  0  0
   -5.8331   24.1291  -22.0966 H   0  0  0  0  0  0  0  0  0  0  0  0
   -7.8931   24.3030  -21.4825 C   0  0  0  0  0  0  0  0  0  0  0  0
   -7.3818   24.9643  -20.2039 C   0  0  0  0  0  0  0  0  0  0  0  0
   -6.3666   24.3909  -19.4140 N   0  0  0  0  0  0  0  0  0  0  0  0
   -7.9104   26.0538  -19.8800 O   0  0  0  0  0  0  0  0  0  0  0  0
   -6.5483   24.3125  -18.4026 H   0  0  0  0  0  0  0  0  0  0  0  0
   -5.4668   24.0684  -19.8822 H   0  0  0  0  0  0  0  0  0  0  0  0
   -8.4027   22.9588  -21.1426 C   0  0  0  0  0  0  0  0  0  0  0  0
   -9.6558   22.9736  -20.3140 C   0  0  0  0  0  0  0  0  0  0  0  0
   -9.7957   22.1991  -19.1872 C   0  0  0  0  0  0  0  0  0  0  0  0
  -10.9672   22.2028  -18.4303 C   0  0  0  0  0  0  0  0  0  0  0  0
  -12.0098   23.0112  -18.8325 C   0  0  0  0  0  0  0  0  0  0  0  0
  -11.8851   23.8014  -19.9699 C   0  0  0  0  0  0  0  0  0  0  0  0
  -10.7177   23.7639  -20.6811 C   0  0  0  0  0  0  0  0  0  0  0  0
   -6.3698   24.0782  -26.1399 C   0  0  0  0  0  0  0  0  0  0  0  0
   -5.7297   23.4700  -28.4050 C   0  0  0  0  0  0  0  0  0  0  0  0
   -5.3605   24.3916  -27.2320 C   0  0  0  0  0  0  0  0  0  0  0  0
   -5.4770   25.8051  -27.7395 C   0  0  0  0  0  0  0  0  0  0  0  0
   -3.1202   21.7357  -22.1813 N   0  0  0  0  0  0  0  0  0  0  0  0
   -3.5691   22.4444  -21.0835 C   0  0  0  0  0  0  0  0  0  0  0  0
   -4.0113   23.6711  -21.1964 O   0  0  0  0  0  0  0  0  0  0  0  0
   -2.7796   20.7398  -22.0511 H   0  0  0  0  0  0  0  0  0  0  0  0
   -3.6247   21.9569  -19.7177 C   0  0  0  0  0  0  0  0  0  0  0  0
   -2.4203   21.3371  -19.1933 N   0  0  0  0  0  0  0  0  0  0  0  0
   -1.4372   22.0921  -18.5355 C   0  0  0  0  0  0  0  0  0  0  0  0
   -1.7075   23.3464  -18.4324 O   0  0  0  0  0  0  0  0  0  0  0  0
   -2.2961   20.3262  -19.3322 H   0  0  0  0  0  0  0  0  0  0  0  0
   -0.1885   21.5631  -17.9892 C   0  0  0  0  0  0  0  0  0  0  0  0
    0.7525   22.6466  -17.7036 N   0  0  0  0  0  0  0  0  0  0  0  0
    1.9031   22.9290  -18.4904 C   0  0  0  0  0  0  0  0  0  0  0  0
    2.1532   22.2387  -19.5077 O   0  0  0  0  0  0  0  0  0  0  0  0
    0.5500   23.2410  -16.8741 H   0  0  0  0  0  0  0  0  0  0  0  0
    2.8222   24.0318  -18.1357 C   0  0  0  0  0  0  0  0  0  0  0  0
    2.3459   25.3262  -18.5064 N   0  0  0  0  0  0  0  0  0  0  0  0
    3.0390   26.0489  -18.6980 H   0  0  0  0  0  0  0  0  0  0  0  0
    1.5059   25.6256  -17.9558 H   0  0  0  0  0  0  0  0  0  0  0  0
    3.3205   23.8763  -16.7388 C   0  0  0  0  0  0  0  0  0  0  0  0
    4.7965   23.8697  -16.6593 C   0  0  0  0  0  0  0  0  0  0  0  0
    5.6918   24.4351  -17.5564 C   0  0  0  0  0  0  0  0  0  0  0  0
    6.9338   24.2016  -17.1068 N   0  0  0  0  0  0  0  0  0  0  0  0
    6.8922   23.5038  -15.9487 C   0  0  0  0  0  0  0  0  0  0  0  0
    7.9179   23.0347  -15.1497 C   0  0  0  0  0  0  0  0  0  0  0  0
    7.6103   22.3189  -14.0082 C   0  0  0  0  0  0  0  0  0  0  0  0
    6.2870   22.0883  -13.6907 C   0  0  0  0  0  0  0  0  0  0  0  0
    5.2887   22.5689  -14.5052 C   0  0  0  0  0  0  0  0  0  0  0  0
    5.5618   23.2964  -15.6672 C   0  0  0  0  0  0  0  0  0  0  0  0
    7.7950   24.5197  -17.6002 H   0  0  0  0  0  0  0  0  0  0  0  0
   -0.2352   20.7066  -16.7726 C   0  0  0  0  0  0  0  0  0  0  0  0
    0.3736   21.5417  -15.6071 C   0  0  0  0  0  0  0  0  0  0  0  0
    0.6581   19.4707  -16.8289 C   0  0  0  0  0  0  0  0  0  0  0  0
   -2.1575   21.5044  -24.4069 C   0  0  0  0  0  0  0  0  0  0  0  0
   -1.5785   22.0049  -25.6244 C   0  0  0  0  0  0  0  0  0  0  0  0
   -2.3371   22.3265  -26.7279 C   0  0  0  0  0  0  0  0  0  0  0  0
   -1.7875   22.8433  -27.9077 C   0  0  0  0  0  0  0  0  0  0  0  0
   -0.4178   23.0500  -27.9901 C   0  0  0  0  0  0  0  0  0  0  0  0
    0.3483   22.7339  -26.8976 C   0  0  0  0  0  0  0  0  0  0  0  0
   -0.2164   22.2264  -25.7496 C   0  0  0  0  0  0  0  0  0  0  0  0
 25 26  1  0  0  0
 26 27  1  0  0  0
 26 24  1  0  0  0
 24  6  1  0  0  0
  6  2  1  0  0  0
  2  3  1  0  0  0
  3  4  2  0  0  0
  3  1  1  0  0  0
  1 60  1  0  0  0
 60 61  1  0  0  0
 61 62  2  0  0  0
 62 63  1  0  0  0
 63 64  2  0  0  0
 64 65  1  0  0  0
 65 66  2  0  0  0
  1 28  1  0  0  0
 28 29  1  0  0  0
 29 30  2  0  0  0
 29 32  1  0  0  0
 32 33  1  0  0  0
 33 34  1  0  0  0
 34 35  2  0  0  0
 34 37  1  0  0  0
 37 38  1  0  0  0
 38 39  1  0  0  0
 39 40  2  0  0  0
 39 42  1  0  0  0
 42 43  1  0  0  0
 42 46  1  0  0  0
 46 47  1  0  0  0
 47 48  2  0  0  0
 48 49  1  0  0  0
 49 50  1  0  0  0
 50 51  2  0  0  0
 51 52  1  0  0  0
 52 53  2  0  0  0
 53 54  1  0  0  0
 54 55  2  0  0  0
 37 57  1  0  0  0
 57 58  1  0  0  0
 57 59  1  0  0  0
  6  7  1  0  0  0
  7  8  2  0  0  0
  7  9  1  0  0  0
  9 11  1  0  0  0
 11 17  1  0  0  0
 17 18  1  0  0  0
 18 19  2  0  0  0
 19 20  1  0  0  0
 20 21  2  0  0  0
 21 22  1  0  0  0
 22 23  2  0  0  0
 11 12  1  0  0  0
 12 13  1  0  0  0
 12 14  2  0  0  0
 66 61  1  0  0  0
 55 47  1  0  0  0
 23 18  1  0  0  0
 55 50  1  0  0  0
  2  5  1  0  0  0
 28 31  1  0  0  0
 33 36  1  0  0  0
 38 41  1  0  0  0
 43 44  1  0  0  0
 43 45  1  0  0  0
 49 56  1  0  0  0
  9 10  1  0  0  0
 13 15  1  0  0  0
 13 16  1  0  0  0
M  END
> <minimizedAffinity>
-9.02412

> <CNNscore>
0.1927009076

> <CNNaffinity>
6.1239027977

> <CNN_VS>
1.1800816059

> <CNNaffinity_variance>
1.3927360773

$$$$
[H]c1c([H])c([H])c(C([H])([H])[C@@]([H])(C(=O)N([H])[H])N([H])C(=O)[C@@]([H])(N([H])C(=O)[C@@]([H])(N([H])C(=O)C([H])([H])N([H])C(=O)[C@@]([H])(N([H])C(=O)[C@@]([H])(N([H])[H])C([H])([H])c2c([H])n([H])c3c([H])c([H])c([H])c([H])c23)C([H])(C([H])([H])[H])C([H])([H])[H])C([H])([H])c2c([H])c([H])c([H])c([H])c2[H])C([H])([H])C([H])(C([H])([H])[H])C([H])([H])[H])c([H])c1[H]


 66 69  0  0  0  0  0  0  0  0999 V2000
   -4.2606   22.3529  -21.1325 C   0  0  0  0  0  0  0  0  0  0  0  0
   -3.0876   22.4014  -23.3905 N   0  0  0  0  0  0  0  0  0  0  0  0
   -3.5379   23.0150  -22.2128 C   0  0  0  0  0  0  0  0  0  0  0  0
   -3.2858   24.2376  -22.0914 O   0  0  0  0  0  0  0  0  0  0  0  0
   -3.3102   21.3598  -23.4674 H   0  0  0  0  0  0  0  0  0  0  0  0
   -2.3577   22.9407  -24.4819 C   0  0  0  0  0  0  0  0  0  0  0  0
   -3.1462   23.7244  -25.4687 C   0  0  0  0  0  0  0  0  0  0  0  0
   -2.8808   23.6199  -26.6887 O   0  0  0  0  0  0  0  0  0  0  0  0
   -4.1837   24.5819  -25.0698 N   0  0  0  0  0  0  0  0  0  0  0  0
   -4.3948   24.7283  -24.0611 H   0  0  0  0  0  0  0  0  0  0  0  0
   -4.9738   25.2987  -26.0586 C   0  0  0  0  0  0  0  0  0  0  0  0
   -5.6992   26.4231  -25.3218 C   0  0  0  0  0  0  0  0  0  0  0  0
   -6.8484   26.1926  -24.5410 N   0  0  0  0  0  0  0  0  0  0  0  0
   -5.2245   27.5770  -25.4421 O   0  0  0  0  0  0  0  0  0  0  0  0
   -7.6613   26.8022  -24.7130 H   0  0  0  0  0  0  0  0  0  0  0  0
   -6.8333   25.4140  -23.8155 H   0  0  0  0  0  0  0  0  0  0  0  0
   -5.9780   24.4799  -26.7680 C   0  0  0  0  0  0  0  0  0  0  0  0
   -5.8310   24.4951  -28.2631 C   0  0  0  0  0  0  0  0  0  0  0  0
   -5.7107   23.3393  -28.9971 C   0  0  0  0  0  0  0  0  0  0  0  0
   -5.5572   23.3584  -30.3832 C   0  0  0  0  0  0  0  0  0  0  0  0
   -5.5271   24.5779  -31.0267 C   0  0  0  0  0  0  0  0  0  0  0  0
   -5.6477   25.7570  -30.2996 C   0  0  0  0  0  0  0  0  0  0  0  0
   -5.7952   25.6888  -28.9418 C   0  0  0  0  0  0  0  0  0  0  0  0
   -1.4249   21.9518  -25.1063 C   0  0  0  0  0  0  0  0  0  0  0  0
    0.8852   21.7289  -24.3827 C   0  0  0  0  0  0  0  0  0  0  0  0
   -0.0331   22.5210  -25.3265 C   0  0  0  0  0  0  0  0  0  0  0  0
    0.4751   22.2831  -26.7244 C   0  0  0  0  0  0  0  0  0  0  0  0
   -3.3990   21.4529  -20.3419 N   0  0  0  0  0  0  0  0  0  0  0  0
   -2.4240   21.8611  -19.4521 C   0  0  0  0  0  0  0  0  0  0  0  0
   -2.1858   23.1295  -19.2341 O   0  0  0  0  0  0  0  0  0  0  0  0
   -3.5699   20.4157  -20.4833 H   0  0  0  0  0  0  0  0  0  0  0  0
   -1.5726   20.9916  -18.6613 C   0  0  0  0  0  0  0  0  0  0  0  0
   -0.5827   20.2107  -19.3825 N   0  0  0  0  0  0  0  0  0  0  0  0
    0.7818   20.5341  -19.3310 C   0  0  0  0  0  0  0  0  0  0  0  0
    1.0621   21.5500  -18.5920 O   0  0  0  0  0  0  0  0  0  0  0  0
   -0.9105   19.4190  -19.9504 H   0  0  0  0  0  0  0  0  0  0  0  0
    1.8477   19.8203  -20.0325 C   0  0  0  0  0  0  0  0  0  0  0  0
    1.3393   18.5840  -20.6275 N   0  0  0  0  0  0  0  0  0  0  0  0
    1.2240   17.3523  -19.9258 C   0  0  0  0  0  0  0  0  0  0  0  0
    1.5545   17.2845  -18.7175 O   0  0  0  0  0  0  0  0  0  0  0  0
    1.0430   18.6269  -21.6238 H   0  0  0  0  0  0  0  0  0  0  0  0
    0.7154   16.1348  -20.5935 C   0  0  0  0  0  0  0  0  0  0  0  0
    1.4430   15.7693  -21.7668 N   0  0  0  0  0  0  0  0  0  0  0  0
    0.9452   15.2523  -22.4909 H   0  0  0  0  0  0  0  0  0  0  0  0
    2.4194   15.4500  -21.5592 H   0  0  0  0  0  0  0  0  0  0  0  0
    0.4614   15.0531  -19.5989 C   0  0  0  0  0  0  0  0  0  0  0  0
   -0.9791   14.7787  -19.4129 C   0  0  0  0  0  0  0  0  0  0  0  0
   -2.0259   15.6873  -19.4789 C   0  0  0  0  0  0  0  0  0  0  0  0
   -3.1684   15.0221  -19.2524 N   0  0  0  0  0  0  0  0  0  0  0  0
   -2.9156   13.7105  -19.0390 C   0  0  0  0  0  0  0  0  0  0  0  0
   -3.7774   12.6681  -18.7539 C   0  0  0  0  0  0  0  0  0  0  0  0
   -3.2616   11.4014  -18.5555 C   0  0  0  0  0  0  0  0  0  0  0  0
   -1.8985   11.2044  -18.6466 C   0  0  0  0  0  0  0  0  0  0  0  0
   -1.0668   12.2614  -18.9327 C   0  0  0  0  0  0  0  0  0  0  0  0
   -1.5523   13.5559  -19.1392 C   0  0  0  0  0  0  0  0  0  0  0  0
   -4.1072   15.4748  -19.2431 H   0  0  0  0  0  0  0  0  0  0  0  0
    2.6114   20.5245  -21.0988 C   0  0  0  0  0  0  0  0  0  0  0  0
    3.2345   19.4259  -22.0105 C   0  0  0  0  0  0  0  0  0  0  0  0
    3.8249   21.3057  -20.6031 C   0  0  0  0  0  0  0  0  0  0  0  0
   -5.2548   23.0305  -20.3209 C   0  0  0  0  0  0  0  0  0  0  0  0
   -6.5564   22.5023  -20.0124 C   0  0  0  0  0  0  0  0  0  0  0  0
   -6.9256   22.1409  -18.7359 C   0  0  0  0  0  0  0  0  0  0  0  0
   -8.1999   21.6545  -18.4186 C   0  0  0  0  0  0  0  0  0  0  0  0
   -9.1503   21.5235  -19.4212 C   0  0  0  0  0  0  0  0  0  0  0  0
   -8.7947   21.8805  -20.6966 C   0  0  0  0  0  0  0  0  0  0  0  0
   -7.5350   22.3554  -20.9824 C   0  0  0  0  0  0  0  0  0  0  0  0
 25 26  1  0  0  0
 26 27  1  0  0  0
 26 24  1  0  0  0
 24  6  1  0  0  0
  6  2  1  0  0  0
  2  3  1  0  0  0
  3  4  2  0  0  0
  3  1  1  0  0  0
  1 60  1  0  0  0
 60 61  1  0  0  0
 61 62  2  0  0  0
 62 63  1  0  0  0
 63 64  2  0  0  0
 64 65  1  0  0  0
 65 66  2  0  0  0
  1 28  1  0  0  0
 28 29  1  0  0  0
 29 30  2  0  0  0
 29 32  1  0  0  0
 32 33  1  0  0  0
 33 34  1  0  0  0
 34 35  2  0  0  0
 34 37  1  0  0  0
 37 38  1  0  0  0
 38 39  1  0  0  0
 39 40  2  0  0  0
 39 42  1  0  0  0
 42 43  1  0  0  0
 42 46  1  0  0  0
 46 47  1  0  0  0
 47 48  2  0  0  0
 48 49  1  0  0  0
 49 50  1  0  0  0
 50 51  2  0  0  0
 51 52  1  0  0  0
 52 53  2  0  0  0
 53 54  1  0  0  0
 54 55  2  0  0  0
 37 57  1  0  0  0
 57 58  1  0  0  0
 57 59  1  0  0  0
  6  7  1  0  0  0
  7  8  2  0  0  0
  7  9  1  0  0  0
  9 11  1  0  0  0
 11 17  1  0  0  0
 17 18  1  0  0  0
 18 19  2  0  0  0
 19 20  1  0  0  0
 20 21  2  0  0  0
 21 22  1  0  0  0
 22 23  2  0  0  0
 11 12  1  0  0  0
 12 13  1  0  0  0
 12 14  2  0  0  0
 66 61  1  0  0  0
 55 47  1  0  0  0
 23 18  1  0  0  0
 55 50  1  0  0  0
  2  5  1  0  0  0
 28 31  1  0  0  0
 33 36  1  0  0  0
 38 41  1  0  0  0
 43 44  1  0  0  0
 43 45  1  0  0  0
 49 56  1  0  0  0
  9 10  1  0  0  0
 13 15  1  0  0  0
 13 16  1  0  0  0
M  END
> <minimizedAffinity>
-8.25891

> <CNNscore>
0.1879650503

> <CNNaffinity>
6.6636400223

> <CNN_VS>
1.2525314093

> <CNNaffinity_variance>
1.0422004461

$$$$
[H]c1c([H])c([H])c(C([H])([H])[C@@]([H])(C(=O)N([H])[H])N([H])C(=O)[C@@]([H])(N([H])C(=O)[C@@]([H])(N([H])C(=O)C([H])([H])N([H])C(=O)[C@@]([H])(N([H])C(=O)[C@@]([H])(N([H])[H])C([H])([H])c2c([H])n([H])c3c([H])c([H])c([H])c([H])c23)C([H])(C([H])([H])[H])C([H])([H])[H])C([H])([H])c2c([H])c([H])c([H])c([H])c2[H])C([H])([H])C([H])(C([H])([H])[H])C([H])([H])[H])c([H])c1[H]


 66 69  0  0  0  0  0  0  0  0999 V2000
   -2.6798   18.9416  -17.9089 C   0  0  0  0  0  0  0  0  0  0  0  0
   -0.8530   19.1635  -19.6670 N   0  0  0  0  0  0  0  0  0  0  0  0
   -1.4616   19.5275  -18.4573 C   0  0  0  0  0  0  0  0  0  0  0  0
   -0.8949   20.4330  -17.8001 O   0  0  0  0  0  0  0  0  0  0  0  0
   -1.3519   18.3873  -20.2048 H   0  0  0  0  0  0  0  0  0  0  0  0
    0.3366   19.6444  -20.2738 C   0  0  0  0  0  0  0  0  0  0  0  0
    0.1570   20.6617  -21.3427 C   0  0  0  0  0  0  0  0  0  0  0  0
    1.1331   20.9744  -22.0631 O   0  0  0  0  0  0  0  0  0  0  0  0
   -1.0809   21.2846  -21.5675 N   0  0  0  0  0  0  0  0  0  0  0  0
   -1.8971   21.0832  -20.9538 H   0  0  0  0  0  0  0  0  0  0  0  0
   -1.2433   22.2394  -22.6528 C   0  0  0  0  0  0  0  0  0  0  0  0
   -1.8383   23.5089  -22.0462 C   0  0  0  0  0  0  0  0  0  0  0  0
   -2.6739   24.3734  -22.7796 N   0  0  0  0  0  0  0  0  0  0  0  0
   -1.5483   23.7551  -20.8519 O   0  0  0  0  0  0  0  0  0  0  0  0
   -2.4419   25.3773  -22.7598 H   0  0  0  0  0  0  0  0  0  0  0  0
   -3.4986   23.9653  -23.3145 H   0  0  0  0  0  0  0  0  0  0  0  0
   -2.1209   21.7906  -23.7530 C   0  0  0  0  0  0  0  0  0  0  0  0
   -1.5955   22.1145  -25.1227 C   0  0  0  0  0  0  0  0  0  0  0  0
   -2.4299   22.3208  -26.1953 C   0  0  0  0  0  0  0  0  0  0  0  0
   -1.9376   22.6045  -27.4690 C   0  0  0  0  0  0  0  0  0  0  0  0
   -0.5719   22.6784  -27.6468 C   0  0  0  0  0  0  0  0  0  0  0  0
    0.2867   22.4728  -26.5726 C   0  0  0  0  0  0  0  0  0  0  0  0
   -0.2420   22.1961  -25.3421 C   0  0  0  0  0  0  0  0  0  0  0  0
    1.2895   18.5504  -20.6387 C   0  0  0  0  0  0  0  0  0  0  0  0
    1.3444   16.2226  -21.3376 C   0  0  0  0  0  0  0  0  0  0  0  0
    0.7602   17.1718  -20.2797 C   0  0  0  0  0  0  0  0  0  0  0  0
    1.2603   16.6897  -18.9431 C   0  0  0  0  0  0  0  0  0  0  0  0
   -3.8766   19.2715  -18.7064 N   0  0  0  0  0  0  0  0  0  0  0  0
   -4.9509   20.0172  -18.2605 C   0  0  0  0  0  0  0  0  0  0  0  0
   -4.9851   20.5088  -17.0480 O   0  0  0  0  0  0  0  0  0  0  0  0
   -3.8809   18.8994  -19.6996 H   0  0  0  0  0  0  0  0  0  0  0  0
   -6.1322   20.3575  -19.0318 C   0  0  0  0  0  0  0  0  0  0  0  0
   -6.3197   21.7601  -19.3595 N   0  0  0  0  0  0  0  0  0  0  0  0
   -7.1508   22.1583  -20.4177 C   0  0  0  0  0  0  0  0  0  0  0  0
   -7.7248   21.1885  -21.0396 O   0  0  0  0  0  0  0  0  0  0  0  0
   -5.8107   22.4594  -18.8039 H   0  0  0  0  0  0  0  0  0  0  0  0
   -7.3894   23.5398  -20.8327 C   0  0  0  0  0  0  0  0  0  0  0  0
   -7.7032   23.6053  -22.2604 N   0  0  0  0  0  0  0  0  0  0  0  0
   -6.7223   23.6633  -23.2885 C   0  0  0  0  0  0  0  0  0  0  0  0
   -5.5027   23.6447  -22.9949 O   0  0  0  0  0  0  0  0  0  0  0  0
   -8.7099   23.6027  -22.5228 H   0  0  0  0  0  0  0  0  0  0  0  0
   -7.1096   23.7436  -24.7134 C   0  0  0  0  0  0  0  0  0  0  0  0
   -7.6624   25.0041  -25.0945 N   0  0  0  0  0  0  0  0  0  0  0  0
   -8.3196   25.0169  -25.8739 H   0  0  0  0  0  0  0  0  0  0  0  0
   -6.9612   25.7825  -25.0683 H   0  0  0  0  0  0  0  0  0  0  0  0
   -6.0328   23.1933  -25.5860 C   0  0  0  0  0  0  0  0  0  0  0  0
   -5.3767   24.2347  -26.4045 C   0  0  0  0  0  0  0  0  0  0  0  0
   -4.7192   25.3709  -25.9546 C   0  0  0  0  0  0  0  0  0  0  0  0
   -4.2699   26.0424  -27.0253 N   0  0  0  0  0  0  0  0  0  0  0  0
   -4.6062   25.3936  -28.1636 C   0  0  0  0  0  0  0  0  0  0  0  0
   -4.3688   25.7233  -29.4847 C   0  0  0  0  0  0  0  0  0  0  0  0
   -4.8405   24.8917  -30.4827 C   0  0  0  0  0  0  0  0  0  0  0  0
   -5.5375   23.7510  -30.1393 C   0  0  0  0  0  0  0  0  0  0  0  0
   -5.7569   23.4494  -28.8157 C   0  0  0  0  0  0  0  0  0  0  0  0
   -5.2952   24.2665  -27.7797 C   0  0  0  0  0  0  0  0  0  0  0  0
   -3.7416   26.9388  -26.9638 H   0  0  0  0  0  0  0  0  0  0  0  0
   -8.4310   24.3379  -20.1297 C   0  0  0  0  0  0  0  0  0  0  0  0
   -9.7801   24.0644  -20.8588 C   0  0  0  0  0  0  0  0  0  0  0  0
   -8.2628   25.8500  -20.2483 C   0  0  0  0  0  0  0  0  0  0  0  0
   -2.7277   17.5999  -17.3577 C   0  0  0  0  0  0  0  0  0  0  0  0
   -3.2189   16.4448  -18.0594 C   0  0  0  0  0  0  0  0  0  0  0  0
   -4.4245   15.8518  -17.7573 C   0  0  0  0  0  0  0  0  0  0  0  0
   -4.9270   14.7457  -18.4539 C   0  0  0  0  0  0  0  0  0  0  0  0
   -4.1932   14.2069  -19.5012 C   0  0  0  0  0  0  0  0  0  0  0  0
   -2.9910   14.7890  -19.8119 C   0  0  0  0  0  0  0  0  0  0  0  0
   -2.5190   15.8753  -19.1111 C   0  0  0  0  0  0  0  0  0  0  0  0
 25 26  1  0  0  0
 26 27  1  0  0  0
 26 24  1  0  0  0
 24  6  1  0  0  0
  6  2  1  0  0  0
  2  3  1  0  0  0
  3  4  2  0  0  0
  3  1  1  0  0  0
  1 60  1  0  0  0
 60 61  1  0  0  0
 61 62  2  0  0  0
 62 63  1  0  0  0
 63 64  2  0  0  0
 64 65  1  0  0  0
 65 66  2  0  0  0
  1 28  1  0  0  0
 28 29  1  0  0  0
 29 30  2  0  0  0
 29 32  1  0  0  0
 32 33  1  0  0  0
 33 34  1  0  0  0
 34 35  2  0  0  0
 34 37  1  0  0  0
 37 38  1  0  0  0
 38 39  1  0  0  0
 39 40  2  0  0  0
 39 42  1  0  0  0
 42 43  1  0  0  0
 42 46  1  0  0  0
 46 47  1  0  0  0
 47 48  2  0  0  0
 48 49  1  0  0  0
 49 50  1  0  0  0
 50 51  2  0  0  0
 51 52  1  0  0  0
 52 53  2  0  0  0
 53 54  1  0  0  0
 54 55  2  0  0  0
 37 57  1  0  0  0
 57 58  1  0  0  0
 57 59  1  0  0  0
  6  7  1  0  0  0
  7  8  2  0  0  0
  7  9  1  0  0  0
  9 11  1  0  0  0
 11 17  1  0  0  0
 17 18  1  0  0  0
 18 19  2  0  0  0
 19 20  1  0  0  0
 20 21  2  0  0  0
 21 22  1  0  0  0
 22 23  2  0  0  0
 11 12  1  0  0  0
 12 13  1  0  0  0
 12 14  2  0  0  0
 66 61  1  0  0  0
 55 47  1  0  0  0
 23 18  1  0  0  0
 55 50  1  0  0  0
  2  5  1  0  0  0
 28 31  1  0  0  0
 33 36  1  0  0  0
 38 41  1  0  0  0
 43 44  1  0  0  0
 43 45  1  0  0  0
 49 56  1  0  0  0
  9 10  1  0  0  0
 13 15  1  0  0  0
 13 16  1  0  0  0
M  END
> <minimizedAffinity>
-8.95978

> <CNNscore>
0.1871614754

> <CNNaffinity>
6.8712425232

> <CNN_VS>
1.2860318422

> <CNNaffinity_variance>
1.5173690319

$$$$
[H]c1c([H])c([H])c(C([H])([H])[C@@]([H])(C(=O)N([H])[H])N([H])C(=O)[C@@]([H])(N([H])C(=O)[C@@]([H])(N([H])C(=O)C([H])([H])N([H])C(=O)[C@@]([H])(N([H])C(=O)[C@@]([H])(N([H])[H])C([H])([H])c2c([H])n([H])c3c([H])c([H])c([H])c([H])c23)C([H])(C([H])([H])[H])C([H])([H])[H])C([H])([H])c2c([H])c([H])c([H])c([H])c2[H])C([H])([H])C([H])(C([H])([H])[H])C([H])([H])[H])c([H])c1[H]


 66 69  0  0  0  0  0  0  0  0999 V2000
   -4.8197   21.5203  -22.0327 C   0  0  0  0  0  0  0  0  0  0  0  0
   -5.4795   23.6216  -23.3081 N   0  0  0  0  0  0  0  0  0  0  0  0
   -5.3864   22.2288  -23.1750 C   0  0  0  0  0  0  0  0  0  0  0  0
   -5.8378   21.5478  -24.1267 O   0  0  0  0  0  0  0  0  0  0  0  0
   -5.0931   24.1782  -22.4827 H   0  0  0  0  0  0  0  0  0  0  0  0
   -6.0326   24.4059  -24.3539 C   0  0  0  0  0  0  0  0  0  0  0  0
   -5.1028   24.7727  -25.4542 C   0  0  0  0  0  0  0  0  0  0  0  0
   -4.3009   25.7211  -25.2900 O   0  0  0  0  0  0  0  0  0  0  0  0
   -5.0988   24.0832  -26.6771 N   0  0  0  0  0  0  0  0  0  0  0  0
   -5.7866   23.3241  -26.8622 H   0  0  0  0  0  0  0  0  0  0  0  0
   -4.1443   24.4286  -27.7190 C   0  0  0  0  0  0  0  0  0  0  0  0
   -4.9327   25.0964  -28.8442 C   0  0  0  0  0  0  0  0  0  0  0  0
   -4.3147   25.5712  -30.0173 N   0  0  0  0  0  0  0  0  0  0  0  0
   -6.1703   25.2077  -28.6792 O   0  0  0  0  0  0  0  0  0  0  0  0
   -4.5402   26.5336  -30.3087 H   0  0  0  0  0  0  0  0  0  0  0  0
   -3.6526   24.9297  -30.5492 H   0  0  0  0  0  0  0  0  0  0  0  0
   -3.3974   23.2866  -28.2848 C   0  0  0  0  0  0  0  0  0  0  0  0
   -2.1498   22.9374  -27.5242 C   0  0  0  0  0  0  0  0  0  0  0  0
   -0.9006   23.0222  -28.0914 C   0  0  0  0  0  0  0  0  0  0  0  0
    0.2539   22.6807  -27.3873 C   0  0  0  0  0  0  0  0  0  0  0  0
    0.1277   22.2468  -26.0842 C   0  0  0  0  0  0  0  0  0  0  0  0
   -1.1284   22.1553  -25.4948 C   0  0  0  0  0  0  0  0  0  0  0  0
   -2.2322   22.4999  -26.2248 C   0  0  0  0  0  0  0  0  0  0  0  0
   -6.8536   25.5517  -23.8531 C   0  0  0  0  0  0  0  0  0  0  0  0
   -7.5367   26.2166  -21.6166 C   0  0  0  0  0  0  0  0  0  0  0  0
   -7.7677   25.1567  -22.7051 C   0  0  0  0  0  0  0  0  0  0  0  0
   -9.2261   25.2281  -23.0755 C   0  0  0  0  0  0  0  0  0  0  0  0
   -3.3519   21.6499  -21.9562 N   0  0  0  0  0  0  0  0  0  0  0  0
   -2.6694   22.8091  -21.6404 C   0  0  0  0  0  0  0  0  0  0  0  0
   -3.3023   23.9228  -21.3716 O   0  0  0  0  0  0  0  0  0  0  0  0
   -2.8037   20.7645  -22.1573 H   0  0  0  0  0  0  0  0  0  0  0  0
   -1.2281   22.9538  -21.5534 C   0  0  0  0  0  0  0  0  0  0  0  0
   -0.5542   22.1933  -20.5154 N   0  0  0  0  0  0  0  0  0  0  0  0
   -0.2091   22.7793  -19.2880 C   0  0  0  0  0  0  0  0  0  0  0  0
   -0.5522   24.0144  -19.1709 O   0  0  0  0  0  0  0  0  0  0  0  0
   -0.3185   21.2118  -20.7099 H   0  0  0  0  0  0  0  0  0  0  0  0
    0.4820   22.1024  -18.1917 C   0  0  0  0  0  0  0  0  0  0  0  0
    1.5895   22.9192  -17.6943 N   0  0  0  0  0  0  0  0  0  0  0  0
    2.9620   22.5933  -17.8749 C   0  0  0  0  0  0  0  0  0  0  0  0
    3.2839   21.5581  -18.5063 O   0  0  0  0  0  0  0  0  0  0  0  0
    1.3407   23.7913  -17.1844 H   0  0  0  0  0  0  0  0  0  0  0  0
    4.0325   23.4569  -17.3318 C   0  0  0  0  0  0  0  0  0  0  0  0
    3.5952   24.3461  -16.3033 N   0  0  0  0  0  0  0  0  0  0  0  0
    4.1056   25.2206  -16.1847 H   0  0  0  0  0  0  0  0  0  0  0  0
    3.3197   23.8486  -15.4230 H   0  0  0  0  0  0  0  0  0  0  0  0
    5.2624   22.6616  -17.0513 C   0  0  0  0  0  0  0  0  0  0  0  0
    6.3856   23.0179  -17.9437 C   0  0  0  0  0  0  0  0  0  0  0  0
    6.9938   24.2579  -18.0797 C   0  0  0  0  0  0  0  0  0  0  0  0
    7.9699   24.1439  -18.9926 N   0  0  0  0  0  0  0  0  0  0  0  0
    8.0284   22.8774  -19.4643 C   0  0  0  0  0  0  0  0  0  0  0  0
    8.8576   22.3148  -20.4164 C   0  0  0  0  0  0  0  0  0  0  0  0
    8.7024   20.9808  -20.7425 C   0  0  0  0  0  0  0  0  0  0  0  0
    7.7242   20.2396  -20.1110 C   0  0  0  0  0  0  0  0  0  0  0  0
    6.9154   20.8276  -19.1670 C   0  0  0  0  0  0  0  0  0  0  0  0
    7.0429   22.1735  -18.8118 C   0  0  0  0  0  0  0  0  0  0  0  0
    8.5819   24.9355  -19.2844 H   0  0  0  0  0  0  0  0  0  0  0  0
   -0.2984   21.6703  -17.0000 C   0  0  0  0  0  0  0  0  0  0  0  0
    0.3499   20.3497  -16.4883 C   0  0  0  0  0  0  0  0  0  0  0  0
   -1.7406   21.2677  -17.2947 C   0  0  0  0  0  0  0  0  0  0  0  0
   -5.4487   21.5074  -20.7249 C   0  0  0  0  0  0  0  0  0  0  0  0
   -6.7137   22.1198  -20.4199 C   0  0  0  0  0  0  0  0  0  0  0  0
   -7.8995   21.6817  -20.9661 C   0  0  0  0  0  0  0  0  0  0  0  0
   -9.1403   22.2504  -20.6530 C   0  0  0  0  0  0  0  0  0  0  0  0
   -9.2010   23.3043  -19.7523 C   0  0  0  0  0  0  0  0  0  0  0  0
   -8.0268   23.7494  -19.2013 C   0  0  0  0  0  0  0  0  0  0  0  0
   -6.8198   23.1735  -19.5263 C   0  0  0  0  0  0  0  0  0  0  0  0
 25 26  1  0  0  0
 26 27  1  0  0  0
 26 24  1  0  0  0
 24  6  1  0  0  0
  6  2  1  0  0  0
  2  3  1  0  0  0
  3  4  2  0  0  0
  3  1  1  0  0  0
  1 60  1  0  0  0
 60 61  1  0  0  0
 61 62  2  0  0  0
 62 63  1  0  0  0
 63 64  2  0  0  0
 64 65  1  0  0  0
 65 66  2  0  0  0
  1 28  1  0  0  0
 28 29  1  0  0  0
 29 30  2  0  0  0
 29 32  1  0  0  0
 32 33  1  0  0  0
 33 34  1  0  0  0
 34 35  2  0  0  0
 34 37  1  0  0  0
 37 38  1  0  0  0
 38 39  1  0  0  0
 39 40  2  0  0  0
 39 42  1  0  0  0
 42 43  1  0  0  0
 42 46  1  0  0  0
 46 47  1  0  0  0
 47 48  2  0  0  0
 48 49  1  0  0  0
 49 50  1  0  0  0
 50 51  2  0  0  0
 51 52  1  0  0  0
 52 53  2  0  0  0
 53 54  1  0  0  0
 54 55  2  0  0  0
 37 57  1  0  0  0
 57 58  1  0  0  0
 57 59  1  0  0  0
  6  7  1  0  0  0
  7  8  2  0  0  0
  7  9  1  0  0  0
  9 11  1  0  0  0
 11 17  1  0  0  0
 17 18  1  0  0  0
 18 19  2  0  0  0
 19 20  1  0  0  0
 20 21  2  0  0  0
 21 22  1  0  0  0
 22 23  2  0  0  0
 11 12  1  0  0  0
 12 13  1  0  0  0
 12 14  2  0  0  0
 66 61  1  0  0  0
 55 47  1  0  0  0
 23 18  1  0  0  0
 55 50  1  0  0  0
  2  5  1  0  0  0
 28 31  1  0  0  0
 33 36  1  0  0  0
 38 41  1  0  0  0
 43 44  1  0  0  0
 43 45  1  0  0  0
 49 56  1  0  0  0
  9 10  1  0  0  0
 13 15  1  0  0  0
 13 16  1  0  0  0
M  END
> <minimizedAffinity>
-8.74479

> <CNNscore>
0.1789705604

> <CNNaffinity>
6.6796989441

> <CNN_VS>
1.1954694986

> <CNNaffinity_variance>
0.9074538350

$$$$
[H]c1c([H])c([H])c(C([H])([H])[C@@]([H])(C(=O)N([H])[H])N([H])C(=O)[C@@]([H])(N([H])C(=O)[C@@]([H])(N([H])C(=O)C([H])([H])N([H])C(=O)[C@@]([H])(N([H])C(=O)[C@@]([H])(N([H])[H])C([H])([H])c2c([H])n([H])c3c([H])c([H])c([H])c([H])c23)C([H])(C([H])([H])[H])C([H])([H])[H])C([H])([H])c2c([H])c([H])c([H])c([H])c2[H])C([H])([H])C([H])(C([H])([H])[H])C([H])([H])[H])c([H])c1[H]


 66 69  0  0  0  0  0  0  0  0999 V2000
   -4.6758   21.4137  -21.9470 C   0  0  0  0  0  0  0  0  0  0  0  0
   -5.4105   23.5309  -23.1533 N   0  0  0  0  0  0  0  0  0  0  0  0
   -5.2398   22.1411  -23.0787 C   0  0  0  0  0  0  0  0  0  0  0  0
   -5.6133   21.4806  -24.0774 O   0  0  0  0  0  0  0  0  0  0  0  0
   -5.0897   24.0696  -22.2888 H   0  0  0  0  0  0  0  0  0  0  0  0
   -5.9691   24.3301  -24.1847 C   0  0  0  0  0  0  0  0  0  0  0  0
   -5.0731   24.6324  -25.3317 C   0  0  0  0  0  0  0  0  0  0  0  0
   -4.3252   25.6361  -25.2788 O   0  0  0  0  0  0  0  0  0  0  0  0
   -5.0421   23.8212  -26.4771 N   0  0  0  0  0  0  0  0  0  0  0  0
   -5.6871   23.0098  -26.5720 H   0  0  0  0  0  0  0  0  0  0  0  0
   -4.1196   24.1096  -27.5642 C   0  0  0  0  0  0  0  0  0  0  0  0
   -4.9556   24.6197  -28.7365 C   0  0  0  0  0  0  0  0  0  0  0  0
   -4.4268   25.4762  -29.7217 N   0  0  0  0  0  0  0  0  0  0  0  0
   -6.1494   24.2411  -28.7874 O   0  0  0  0  0  0  0  0  0  0  0  0
   -4.9692   26.3233  -29.9458 H   0  0  0  0  0  0  0  0  0  0  0  0
   -3.5059   25.2199  -30.1897 H   0  0  0  0  0  0  0  0  0  0  0  0
   -3.3197   22.9570  -28.0264 C   0  0  0  0  0  0  0  0  0  0  0  0
   -2.0913   22.6975  -27.2013 C   0  0  0  0  0  0  0  0  0  0  0  0
   -0.8238   22.8757  -27.7022 C   0  0  0  0  0  0  0  0  0  0  0  0
    0.3143   22.6173  -26.9385 C   0  0  0  0  0  0  0  0  0  0  0  0
    0.1522   22.1708  -25.6437 C   0  0  0  0  0  0  0  0  0  0  0  0
   -1.1228   21.9853  -25.1209 C   0  0  0  0  0  0  0  0  0  0  0  0
   -2.2093   22.2506  -25.9078 C   0  0  0  0  0  0  0  0  0  0  0  0
   -6.7042   25.5247  -23.6647 C   0  0  0  0  0  0  0  0  0  0  0  0
   -7.5318   26.2680  -21.5029 C   0  0  0  0  0  0  0  0  0  0  0  0
   -7.6915   25.1692  -22.5653 C   0  0  0  0  0  0  0  0  0  0  0  0
   -9.1226   25.2243  -23.0325 C   0  0  0  0  0  0  0  0  0  0  0  0
   -3.2086   21.5458  -21.8622 N   0  0  0  0  0  0  0  0  0  0  0  0
   -2.5329   22.6764  -21.4448 C   0  0  0  0  0  0  0  0  0  0  0  0
   -3.1723   23.7572  -21.0756 O   0  0  0  0  0  0  0  0  0  0  0  0
   -2.6553   20.6857  -22.1432 H   0  0  0  0  0  0  0  0  0  0  0  0
   -1.0923   22.8224  -21.3482 C   0  0  0  0  0  0  0  0  0  0  0  0
   -0.2960   21.6276  -21.5678 N   0  0  0  0  0  0  0  0  0  0  0  0
    0.1036   20.8096  -20.5000 C   0  0  0  0  0  0  0  0  0  0  0  0
   -0.3058   21.2022  -19.3445 O   0  0  0  0  0  0  0  0  0  0  0  0
   -0.0151   21.4032  -22.5308 H   0  0  0  0  0  0  0  0  0  0  0  0
    0.9163   19.6000  -20.6186 C   0  0  0  0  0  0  0  0  0  0  0  0
    2.2403   19.8053  -20.0303 N   0  0  0  0  0  0  0  0  0  0  0  0
    3.2377   20.6498  -20.5913 C   0  0  0  0  0  0  0  0  0  0  0  0
    3.0012   21.2860  -21.6464 O   0  0  0  0  0  0  0  0  0  0  0  0
    2.4466   19.2998  -19.1448 H   0  0  0  0  0  0  0  0  0  0  0  0
    4.5625   20.8002  -19.9518 C   0  0  0  0  0  0  0  0  0  0  0  0
    5.6483   20.3214  -20.7465 N   0  0  0  0  0  0  0  0  0  0  0  0
    6.4821   19.9928  -20.2605 H   0  0  0  0  0  0  0  0  0  0  0  0
    5.8115   20.8987  -21.6058 H   0  0  0  0  0  0  0  0  0  0  0  0
    4.7137   22.1615  -19.3620 C   0  0  0  0  0  0  0  0  0  0  0  0
    5.1857   22.1251  -17.9618 C   0  0  0  0  0  0  0  0  0  0  0  0
    6.4362   21.7352  -17.5034 C   0  0  0  0  0  0  0  0  0  0  0  0
    6.4450   21.8552  -16.1674 N   0  0  0  0  0  0  0  0  0  0  0  0
    5.2489   22.3083  -15.7272 C   0  0  0  0  0  0  0  0  0  0  0  0
    4.8061   22.5620  -14.4426 C   0  0  0  0  0  0  0  0  0  0  0  0
    3.5121   23.0078  -14.2509 C   0  0  0  0  0  0  0  0  0  0  0  0
    2.6906   23.1902  -15.3449 C   0  0  0  0  0  0  0  0  0  0  0  0
    3.1604   22.9301  -16.6108 C   0  0  0  0  0  0  0  0  0  0  0  0
    4.4627   22.4781  -16.8431 C   0  0  0  0  0  0  0  0  0  0  0  0
    7.2687   21.6219  -15.5729 H   0  0  0  0  0  0  0  0  0  0  0  0
    0.3964   18.3204  -20.0635 C   0  0  0  0  0  0  0  0  0  0  0  0
    1.1595   18.0617  -18.7304 C   0  0  0  0  0  0  0  0  0  0  0  0
    0.7159   17.0858  -20.9016 C   0  0  0  0  0  0  0  0  0  0  0  0
   -5.3100   21.3757  -20.6421 C   0  0  0  0  0  0  0  0  0  0  0  0
   -6.5675   21.9978  -20.3258 C   0  0  0  0  0  0  0  0  0  0  0  0
   -6.6673   23.0751  -19.4739 C   0  0  0  0  0  0  0  0  0  0  0  0
   -7.8821   23.7080  -19.1826 C   0  0  0  0  0  0  0  0  0  0  0  0
   -9.0514   23.2453  -19.7694 C   0  0  0  0  0  0  0  0  0  0  0  0
   -8.9649   22.1732  -20.6201 C   0  0  0  0  0  0  0  0  0  0  0  0
   -7.7583   21.5683  -20.8893 C   0  0  0  0  0  0  0  0  0  0  0  0
 25 26  1  0  0  0
 26 27  1  0  0  0
 26 24  1  0  0  0
 24  6  1  0  0  0
  6  2  1  0  0  0
  2  3  1  0  0  0
  3  4  2  0  0  0
  3  1  1  0  0  0
  1 60  1  0  0  0
 60 61  1  0  0  0
 61 62  2  0  0  0
 62 63  1  0  0  0
 63 64  2  0  0  0
 64 65  1  0  0  0
 65 66  2  0  0  0
  1 28  1  0  0  0
 28 29  1  0  0  0
 29 30  2  0  0  0
 29 32  1  0  0  0
 32 33  1  0  0  0
 33 34  1  0  0  0
 34 35  2  0  0  0
 34 37  1  0  0  0
 37 38  1  0  0  0
 38 39  1  0  0  0
 39 40  2  0  0  0
 39 42  1  0  0  0
 42 43  1  0  0  0
 42 46  1  0  0  0
 46 47  1  0  0  0
 47 48  2  0  0  0
 48 49  1  0  0  0
 49 50  1  0  0  0
 50 51  2  0  0  0
 51 52  1  0  0  0
 52 53  2  0  0  0
 53 54  1  0  0  0
 54 55  2  0  0  0
 37 57  1  0  0  0
 57 58  1  0  0  0
 57 59  1  0  0  0
  6  7  1  0  0  0
  7  8  2  0  0  0
  7  9  1  0  0  0
  9 11  1  0  0  0
 11 17  1  0  0  0
 17 18  1  0  0  0
 18 19  2  0  0  0
 19 20  1  0  0  0
 20 21  2  0  0  0
 21 22  1  0  0  0
 22 23  2  0  0  0
 11 12  1  0  0  0
 12 13  1  0  0  0
 12 14  2  0  0  0
 66 61  1  0  0  0
 55 47  1  0  0  0
 23 18  1  0  0  0
 55 50  1  0  0  0
  2  5  1  0  0  0
 28 31  1  0  0  0
 33 36  1  0  0  0
 38 41  1  0  0  0
 43 44  1  0  0  0
 43 45  1  0  0  0
 49 56  1  0  0  0
  9 10  1  0  0  0
 13 15  1  0  0  0
 13 16  1  0  0  0
M  END
> <minimizedAffinity>
-8.35398

> <CNNscore>
0.1787620485

> <CNNaffinity>
7.0307350159

> <CNN_VS>
1.2568285465

> <CNNaffinity_variance>
0.6047445536

$$$$
[H]c1c([H])c([H])c(C([H])([H])[C@@]([H])(C(=O)N([H])[H])N([H])C(=O)[C@@]([H])(N([H])C(=O)[C@@]([H])(N([H])C(=O)C([H])([H])N([H])C(=O)[C@@]([H])(N([H])C(=O)[C@@]([H])(N([H])[H])C([H])([H])c2c([H])n([H])c3c([H])c([H])c([H])c([H])c23)C([H])(C([H])([H])[H])C([H])([H])[H])C([H])([H])c2c([H])c([H])c([H])c([H])c2[H])C([H])([H])C([H])(C([H])([H])[H])C([H])([H])[H])c([H])c1[H]


 66 69  0  0  0  0  0  0  0  0999 V2000
   -1.1546   21.1702  -22.2335 C   0  0  0  0  0  0  0  0  0  0  0  0
    1.2026   20.3804  -21.6887 N   0  0  0  0  0  0  0  0  0  0  0  0
   -0.1751   20.4419  -21.4348 C   0  0  0  0  0  0  0  0  0  0  0  0
   -0.5850   19.8070  -20.4338 O   0  0  0  0  0  0  0  0  0  0  0  0
    1.5253   20.9247  -22.5489 H   0  0  0  0  0  0  0  0  0  0  0  0
    2.2299   19.6850  -20.9989 C   0  0  0  0  0  0  0  0  0  0  0  0
    3.5081   20.4224  -20.8194 C   0  0  0  0  0  0  0  0  0  0  0  0
    3.7092   21.4712  -21.4746 O   0  0  0  0  0  0  0  0  0  0  0  0
    4.5001   19.9739  -19.9331 N   0  0  0  0  0  0  0  0  0  0  0  0
    4.3839   19.0800  -19.4126 H   0  0  0  0  0  0  0  0  0  0  0  0
    5.7205   20.7410  -19.7376 C   0  0  0  0  0  0  0  0  0  0  0  0
    6.8713   19.8966  -20.2819 C   0  0  0  0  0  0  0  0  0  0  0  0
    7.9128   20.4504  -21.0514 N   0  0  0  0  0  0  0  0  0  0  0  0
    6.8513   18.6724  -20.0134 O   0  0  0  0  0  0  0  0  0  0  0  0
    8.1441   19.9762  -21.9366 H   0  0  0  0  0  0  0  0  0  0  0  0
    8.4132   21.3197  -20.6953 H   0  0  0  0  0  0  0  0  0  0  0  0
    6.0198   21.0909  -18.3341 C   0  0  0  0  0  0  0  0  0  0  0  0
    5.6246   22.4905  -17.9572 C   0  0  0  0  0  0  0  0  0  0  0  0
    4.4259   22.7716  -17.3461 C   0  0  0  0  0  0  0  0  0  0  0  0
    4.0553   24.0743  -17.0133 C   0  0  0  0  0  0  0  0  0  0  0  0
    4.9243   25.1035  -17.3099 C   0  0  0  0  0  0  0  0  0  0  0  0
    6.1411   24.8369  -17.9277 C   0  0  0  0  0  0  0  0  0  0  0  0
    6.4611   23.5437  -18.2363 C   0  0  0  0  0  0  0  0  0  0  0  0
    2.4086   18.2798  -21.4799 C   0  0  0  0  0  0  0  0  0  0  0  0
    0.8528   16.5019  -20.9061 C   0  0  0  0  0  0  0  0  0  0  0  0
    2.0974   17.2513  -20.4052 C   0  0  0  0  0  0  0  0  0  0  0  0
    3.1887   16.2240  -20.2537 C   0  0  0  0  0  0  0  0  0  0  0  0
   -2.4268   21.3817  -21.5164 N   0  0  0  0  0  0  0  0  0  0  0  0
   -2.7034   22.4471  -20.6813 C   0  0  0  0  0  0  0  0  0  0  0  0
   -1.8210   23.3877  -20.4586 O   0  0  0  0  0  0  0  0  0  0  0  0
   -3.1719   20.6450  -21.6805 H   0  0  0  0  0  0  0  0  0  0  0  0
   -3.9498   22.6754  -19.9738 C   0  0  0  0  0  0  0  0  0  0  0  0
   -5.1007   23.0494  -20.7772 N   0  0  0  0  0  0  0  0  0  0  0  0
   -6.0466   23.9755  -20.3117 C   0  0  0  0  0  0  0  0  0  0  0  0
   -5.7929   24.4573  -19.1454 O   0  0  0  0  0  0  0  0  0  0  0  0
   -5.2159   22.6023  -21.6957 H   0  0  0  0  0  0  0  0  0  0  0  0
   -7.2418   24.4020  -21.0379 C   0  0  0  0  0  0  0  0  0  0  0  0
   -7.2440   23.8592  -22.3967 N   0  0  0  0  0  0  0  0  0  0  0  0
   -7.2824   24.6585  -23.5725 C   0  0  0  0  0  0  0  0  0  0  0  0
   -7.3017   25.9096  -23.4811 O   0  0  0  0  0  0  0  0  0  0  0  0
   -7.2093   22.8238  -22.4913 H   0  0  0  0  0  0  0  0  0  0  0  0
   -7.2979   24.0433  -24.9171 C   0  0  0  0  0  0  0  0  0  0  0  0
   -8.0670   24.7677  -25.8780 N   0  0  0  0  0  0  0  0  0  0  0  0
   -8.4783   24.2422  -26.6488 H   0  0  0  0  0  0  0  0  0  0  0  0
   -7.6452   25.6950  -26.1239 H   0  0  0  0  0  0  0  0  0  0  0  0
   -5.9234   23.6367  -25.3285 C   0  0  0  0  0  0  0  0  0  0  0  0
   -5.3175   24.5774  -26.2942 C   0  0  0  0  0  0  0  0  0  0  0  0
   -4.6977   25.7878  -26.0169 C   0  0  0  0  0  0  0  0  0  0  0  0
   -4.2876   26.3202  -27.1777 N   0  0  0  0  0  0  0  0  0  0  0  0
   -4.6135   25.5084  -28.2096 C   0  0  0  0  0  0  0  0  0  0  0  0
   -4.4053   25.6604  -29.5676 C   0  0  0  0  0  0  0  0  0  0  0  0
   -4.8578   24.6824  -30.4329 C   0  0  0  0  0  0  0  0  0  0  0  0
   -5.5069   23.5760  -29.9232 C   0  0  0  0  0  0  0  0  0  0  0  0
   -5.6980   23.4529  -28.5670 C   0  0  0  0  0  0  0  0  0  0  0  0
   -5.2545   24.4215  -27.6619 C   0  0  0  0  0  0  0  0  0  0  0  0
   -3.7928   27.2347  -27.2498 H   0  0  0  0  0  0  0  0  0  0  0  0
   -8.5827   24.1118  -20.4603 C   0  0  0  0  0  0  0  0  0  0  0  0
   -8.8712   22.6033  -20.7203 C   0  0  0  0  0  0  0  0  0  0  0  0
   -9.7423   24.8205  -21.1544 C   0  0  0  0  0  0  0  0  0  0  0  0
   -0.7986   22.2918  -23.0830 C   0  0  0  0  0  0  0  0  0  0  0  0
   -0.9433   22.3121  -24.5137 C   0  0  0  0  0  0  0  0  0  0  0  0
   -2.1711   22.3851  -25.1330 C   0  0  0  0  0  0  0  0  0  0  0  0
   -2.3225   22.4364  -26.5243 C   0  0  0  0  0  0  0  0  0  0  0  0
   -1.1966   22.4149  -27.3352 C   0  0  0  0  0  0  0  0  0  0  0  0
    0.0319   22.3427  -26.7302 C   0  0  0  0  0  0  0  0  0  0  0  0
    0.1536   22.2927  -25.3602 C   0  0  0  0  0  0  0  0  0  0  0  0
 25 26  1  0  0  0
 26 27  1  0  0  0
 26 24  1  0  0  0
 24  6  1  0  0  0
  6  2  1  0  0  0
  2  3  1  0  0  0
  3  4  2  0  0  0
  3  1  1  0  0  0
  1 60  1  0  0  0
 60 61  1  0  0  0
 61 62  2  0  0  0
 62 63  1  0  0  0
 63 64  2  0  0  0
 64 65  1  0  0  0
 65 66  2  0  0  0
  1 28  1  0  0  0
 28 29  1  0  0  0
 29 30  2  0  0  0
 29 32  1  0  0  0
 32 33  1  0  0  0
 33 34  1  0  0  0
 34 35  2  0  0  0
 34 37  1  0  0  0
 37 38  1  0  0  0
 38 39  1  0  0  0
 39 40  2  0  0  0
 39 42  1  0  0  0
 42 43  1  0  0  0
 42 46  1  0  0  0
 46 47  1  0  0  0
 47 48  2  0  0  0
 48 49  1  0  0  0
 49 50  1  0  0  0
 50 51  2  0  0  0
 51 52  1  0  0  0
 52 53  2  0  0  0
 53 54  1  0  0  0
 54 55  2  0  0  0
 37 57  1  0  0  0
 57 58  1  0  0  0
 57 59  1  0  0  0
  6  7  1  0  0  0
  7  8  2  0  0  0
  7  9  1  0  0  0
  9 11  1  0  0  0
 11 17  1  0  0  0
 17 18  1  0  0  0
 18 19  2  0  0  0
 19 20  1  0  0  0
 20 21  2  0  0  0
 21 22  1  0  0  0
 22 23  2  0  0  0
 11 12  1  0  0  0
 12 13  1  0  0  0
 12 14  2  0  0  0
 66 61  1  0  0  0
 55 47  1  0  0  0
 23 18  1  0  0  0
 55 50  1  0  0  0
  2  5  1  0  0  0
 28 31  1  0  0  0
 33 36  1  0  0  0
 38 41  1  0  0  0
 43 44  1  0  0  0
 43 45  1  0  0  0
 49 56  1  0  0  0
  9 10  1  0  0  0
 13 15  1  0  0  0
 13 16  1  0  0  0
M  END
> <minimizedAffinity>
-9.18373

> <CNNscore>
0.1756536961

> <CNNaffinity>
6.9740114212

> <CNN_VS>
1.2250108719

> <CNNaffinity_variance>
0.8838135600

$$$$
[H]c1nc([H])n(-c2c([H])c([H])c([H])c(C3=Nc4c([H])c(C([H])([H])[H])c(C(F)(F)F)c([H])c4N([H])C(=O)C3([H])[H])c2[H])c1[H]


 29 32  0  0  0  0  0  0  0  0999 V2000
   -0.4862   20.6731  -20.8159 C   0  0  0  0  0  0  0  0  0  0  0  0
   -0.1806   21.1509  -22.2107 C   0  0  0  0  0  0  0  0  0  0  0  0
   -1.1740   21.6000  -23.0448 C   0  0  0  0  0  0  0  0  0  0  0  0
   -0.8899   22.0340  -24.3167 C   0  0  0  0  0  0  0  0  0  0  0  0
   -2.0426   22.4602  -25.0252 N   0  0  0  0  0  0  0  0  0  0  0  0
   -2.2659   22.5053  -26.3250 C   0  0  0  0  0  0  0  0  0  0  0  0
   -1.3381   22.1100  -27.3932 C   0  0  0  0  0  0  0  0  0  0  0  0
    0.0567   22.6531  -27.1933 C   0  0  0  0  0  0  0  0  0  0  0  0
    0.5578   23.3513  -28.1121 O   0  0  0  0  0  0  0  0  0  0  0  0
    0.8502   22.4319  -26.0373 N   0  0  0  0  0  0  0  0  0  0  0  0
    0.4466   22.0052  -24.7396 C   0  0  0  0  0  0  0  0  0  0  0  0
    1.4496   21.5615  -23.9231 C   0  0  0  0  0  0  0  0  0  0  0  0
    1.1297   21.1350  -22.6580 C   0  0  0  0  0  0  0  0  0  0  0  0
    1.8904   22.5992  -26.1212 H   0  0  0  0  0  0  0  0  0  0  0  0
   -3.6034   23.0118  -26.6764 C   0  0  0  0  0  0  0  0  0  0  0  0
   -4.6479   22.8853  -25.7754 C   0  0  0  0  0  0  0  0  0  0  0  0
   -5.8912   23.3495  -26.1142 C   0  0  0  0  0  0  0  0  0  0  0  0
   -6.1150   23.9398  -27.3386 C   0  0  0  0  0  0  0  0  0  0  0  0
   -5.1022   24.0789  -28.2505 C   0  0  0  0  0  0  0  0  0  0  0  0
   -3.8362   23.5976  -27.8860 C   0  0  0  0  0  0  0  0  0  0  0  0
   -5.3235   24.6867  -29.5163 N   0  0  0  0  0  0  0  0  0  0  0  0
   -5.1944   25.9933  -29.8106 C   0  0  0  0  0  0  0  0  0  0  0  0
   -5.4965   26.1837  -31.1409 C   0  0  0  0  0  0  0  0  0  0  0  0
   -5.8109   24.9701  -31.6486 N   0  0  0  0  0  0  0  0  0  0  0  0
   -5.7002   24.0592  -30.6380 C   0  0  0  0  0  0  0  0  0  0  0  0
    2.2100   20.6581  -21.7761 C   0  0  0  0  0  0  0  0  0  0  0  0
    2.0540   19.3038  -21.4482 F   0  0  0  0  0  0  0  0  0  0  0  0
    3.4007   20.7139  -22.4730 F   0  0  0  0  0  0  0  0  0  0  0  0
    2.3910   21.4360  -20.6498 F   0  0  0  0  0  0  0  0  0  0  0  0
  1  2  1  0  0  0
  2  3  2  0  0  0
  3  4  1  0  0  0
  4  5  1  0  0  0
  5  6  2  0  0  0
  6  7  1  0  0  0
  7  8  1  0  0  0
  8  9  2  0  0  0
  8 10  1  0  0  0
 10 11  1  0  0  0
 11 12  1  0  0  0
 12 13  2  0  0  0
 13 26  1  0  0  0
 26 27  1  0  0  0
 26 28  1  0  0  0
 26 29  1  0  0  0
  6 15  1  0  0  0
 15 16  2  0  0  0
 16 17  1  0  0  0
 17 18  2  0  0  0
 18 19  1  0  0  0
 19 20  2  0  0  0
 19 21  1  0  0  0
 21 22  1  0  0  0
 22 23  2  0  0  0
 23 24  1  0  0  0
 24 25  2  0  0  0
 13  2  1  0  0  0
 20 15  1  0  0  0
 25 21  1  0  0  0
 11  4  2  0  0  0
 10 14  1  0  0  0
M  END
> <minimizedAffinity>
-10.31862

> <CNNscore>
0.9623571634

> <CNNaffinity>
7.2741560936

> <CNN_VS>
7.0003361702

> <CNNaffinity_variance>
0.0691877753

$$$$
[H]c1nc([H])n(-c2c([H])c([H])c([H])c(C3=Nc4c([H])c(C([H])([H])[H])c(C(F)(F)F)c([H])c4N([H])C(=O)C3([H])[H])c2[H])c1[H]


 29 32  0  0  0  0  0  0  0  0999 V2000
   -0.3140   20.6507  -20.8545 C   0  0  0  0  0  0  0  0  0  0  0  0
   -0.0532   21.1384  -22.2550 C   0  0  0  0  0  0  0  0  0  0  0  0
   -1.0672   21.6268  -23.0409 C   0  0  0  0  0  0  0  0  0  0  0  0
   -0.8240   22.0696  -24.3182 C   0  0  0  0  0  0  0  0  0  0  0  0
   -1.9925   22.5381  -24.9722 N   0  0  0  0  0  0  0  0  0  0  0  0
   -2.2685   22.6070  -26.2607 C   0  0  0  0  0  0  0  0  0  0  0  0
   -1.3981   22.1999  -27.3718 C   0  0  0  0  0  0  0  0  0  0  0  0
    0.0191   22.7003  -27.2244 C   0  0  0  0  0  0  0  0  0  0  0  0
    0.5014   23.3962  -28.1548 O   0  0  0  0  0  0  0  0  0  0  0  0
    0.8534   22.4409  -26.1056 N   0  0  0  0  0  0  0  0  0  0  0  0
    0.4922   22.0084  -24.7974 C   0  0  0  0  0  0  0  0  0  0  0  0
    1.5152   21.5254  -24.0294 C   0  0  0  0  0  0  0  0  0  0  0  0
    1.2362   21.0911  -22.7573 C   0  0  0  0  0  0  0  0  0  0  0  0
    1.8937   22.5796  -26.2312 H   0  0  0  0  0  0  0  0  0  0  0  0
   -3.6042   23.1561  -26.5492 C   0  0  0  0  0  0  0  0  0  0  0  0
   -4.1018   23.1177  -27.8413 C   0  0  0  0  0  0  0  0  0  0  0  0
   -5.3406   23.6400  -28.1031 C   0  0  0  0  0  0  0  0  0  0  0  0
   -6.0966   24.2024  -27.0981 C   0  0  0  0  0  0  0  0  0  0  0  0
   -5.6315   24.2552  -25.8106 C   0  0  0  0  0  0  0  0  0  0  0  0
   -4.3609   23.7155  -25.5618 C   0  0  0  0  0  0  0  0  0  0  0  0
   -6.4042   24.8334  -24.7670 N   0  0  0  0  0  0  0  0  0  0  0  0
   -7.0808   24.1714  -23.8107 C   0  0  0  0  0  0  0  0  0  0  0  0
   -7.7018   25.0855  -22.9886 C   0  0  0  0  0  0  0  0  0  0  0  0
   -7.3901   26.3134  -23.4624 N   0  0  0  0  0  0  0  0  0  0  0  0
   -6.5917   26.1427  -24.5562 C   0  0  0  0  0  0  0  0  0  0  0  0
    2.3381   20.5718  -21.9276 C   0  0  0  0  0  0  0  0  0  0  0  0
    2.1416   19.2265  -21.5849 F   0  0  0  0  0  0  0  0  0  0  0  0
    3.4938   20.5745  -22.6833 F   0  0  0  0  0  0  0  0  0  0  0  0
    2.6079   21.3451  -20.8161 F   0  0  0  0  0  0  0  0  0  0  0  0
  1  2  1  0  0  0
  2  3  2  0  0  0
  3  4  1  0  0  0
  4  5  1  0  0  0
  5  6  2  0  0  0
  6  7  1  0  0  0
  7  8  1  0  0  0
  8  9  2  0  0  0
  8 10  1  0  0  0
 10 11  1  0  0  0
 11 12  1  0  0  0
 12 13  2  0  0  0
 13 26  1  0  0  0
 26 27  1  0  0  0
 26 28  1  0  0  0
 26 29  1  0  0  0
  6 15  1  0  0  0
 15 16  2  0  0  0
 16 17  1  0  0  0
 17 18  2  0  0  0
 18 19  1  0  0  0
 19 20  2  0  0  0
 19 21  1  0  0  0
 21 22  1  0  0  0
 22 23  2  0  0  0
 23 24  1  0  0  0
 24 25  2  0  0  0
 13  2  1  0  0  0
 20 15  1  0  0  0
 25 21  1  0  0  0
 11  4  2  0  0  0
 10 14  1  0  0  0
M  END
> <minimizedAffinity>
-9.98353

> <CNNscore>
0.8309770226

> <CNNaffinity>
6.9522156715

> <CNN_VS>
5.7771315575

> <CNNaffinity_variance>
0.0590362437

$$$$
[H]c1nc([H])n(-c2c([H])c([H])c([H])c(C3=Nc4c([H])c(C([H])([H])[H])c(C(F)(F)F)c([H])c4N([H])C(=O)C3([H])[H])c2[H])c1[H]


 29 32  0  0  0  0  0  0  0  0999 V2000
   -6.4643   23.8605  -26.6970 C   0  0  0  0  0  0  0  0  0  0  0  0
   -5.0147   23.5625  -26.9748 C   0  0  0  0  0  0  0  0  0  0  0  0
   -4.1860   23.0749  -25.9952 C   0  0  0  0  0  0  0  0  0  0  0  0
   -2.8641   22.8055  -26.2537 C   0  0  0  0  0  0  0  0  0  0  0  0
   -2.1700   22.3081  -25.1209 N   0  0  0  0  0  0  0  0  0  0  0  0
   -0.8844   22.3615  -24.8281 C   0  0  0  0  0  0  0  0  0  0  0  0
    0.1793   22.9723  -25.6364 C   0  0  0  0  0  0  0  0  0  0  0  0
    0.1023   22.5926  -27.0960 C   0  0  0  0  0  0  0  0  0  0  0  0
    1.1109   22.0556  -27.6223 O   0  0  0  0  0  0  0  0  0  0  0  0
   -1.0320   22.7989  -27.9240 N   0  0  0  0  0  0  0  0  0  0  0  0
   -2.3844   23.0434  -27.5495 C   0  0  0  0  0  0  0  0  0  0  0  0
   -3.1946   23.5287  -28.5383 C   0  0  0  0  0  0  0  0  0  0  0  0
   -4.5106   23.7868  -28.2448 C   0  0  0  0  0  0  0  0  0  0  0  0
   -0.8826   22.7729  -28.9701 H   0  0  0  0  0  0  0  0  0  0  0  0
   -0.5454   21.7270  -23.5430 C   0  0  0  0  0  0  0  0  0  0  0  0
   -1.5457   21.4468  -22.6267 C   0  0  0  0  0  0  0  0  0  0  0  0
   -1.2206   20.8662  -21.4295 C   0  0  0  0  0  0  0  0  0  0  0  0
    0.0874   20.5581  -21.1262 C   0  0  0  0  0  0  0  0  0  0  0  0
    1.0983   20.8233  -22.0119 C   0  0  0  0  0  0  0  0  0  0  0  0
    0.7463   21.4181  -23.2324 C   0  0  0  0  0  0  0  0  0  0  0  0
    2.4508   20.5089  -21.7078 N   0  0  0  0  0  0  0  0  0  0  0  0
    3.2053   19.5639  -22.2979 C   0  0  0  0  0  0  0  0  0  0  0  0
    4.4574   19.5689  -21.7242 C   0  0  0  0  0  0  0  0  0  0  0  0
    4.4497   20.5335  -20.7760 N   0  0  0  0  0  0  0  0  0  0  0  0
    3.2092   21.1029  -20.7774 C   0  0  0  0  0  0  0  0  0  0  0  0
   -5.3857   24.3082  -29.3100 C   0  0  0  0  0  0  0  0  0  0  0  0
   -6.0891   25.4476  -28.8940 F   0  0  0  0  0  0  0  0  0  0  0  0
   -4.5930   24.7481  -30.3515 F   0  0  0  0  0  0  0  0  0  0  0  0
   -6.2303   23.3583  -29.8490 F   0  0  0  0  0  0  0  0  0  0  0  0
  1  2  1  0  0  0
  2  3  2  0  0  0
  3  4  1  0  0  0
  4  5  1  0  0  0
  5  6  2  0  0  0
  6  7  1  0  0  0
  7  8  1  0  0  0
  8  9  2  0  0  0
  8 10  1  0  0  0
 10 11  1  0  0  0
 11 12  1  0  0  0
 12 13  2  0  0  0
 13 26  1  0  0  0
 26 27  1  0  0  0
 26 28  1  0  0  0
 26 29  1  0  0  0
  6 15  1  0  0  0
 15 16  2  0  0  0
 16 17  1  0  0  0
 17 18  2  0  0  0
 18 19  1  0  0  0
 19 20  2  0  0  0
 19 21  1  0  0  0
 21 22  1  0  0  0
 22 23  2  0  0  0
 23 24  1  0  0  0
 24 25  2  0  0  0
 13  2  1  0  0  0
 20 15  1  0  0  0
 25 21  1  0  0  0
 11  4  2  0  0  0
 10 14  1  0  0  0
M  END
> <minimizedAffinity>
-9.06605

> <CNNscore>
0.8117618561

> <CNNaffinity>
6.9068465233

> <CNN_VS>
5.6067147255

> <CNNaffinity_variance>
0.1092174277

$$$$
[H]c1nc([H])n(-c2c([H])c([H])c([H])c(C3=Nc4c([H])c(C([H])([H])[H])c(C(F)(F)F)c([H])c4N([H])C(=O)C3([H])[H])c2[H])c1[H]


 29 32  0  0  0  0  0  0  0  0999 V2000
   -6.3913   23.7515  -26.5052 C   0  0  0  0  0  0  0  0  0  0  0  0
   -4.9454   23.4641  -26.8116 C   0  0  0  0  0  0  0  0  0  0  0  0
   -4.0682   23.0875  -25.8253 C   0  0  0  0  0  0  0  0  0  0  0  0
   -2.7499   22.8272  -26.1100 C   0  0  0  0  0  0  0  0  0  0  0  0
   -2.0012   22.4516  -24.9651 N   0  0  0  0  0  0  0  0  0  0  0  0
   -0.7077   22.5620  -24.7288 C   0  0  0  0  0  0  0  0  0  0  0  0
    0.3086   23.1218  -25.6298 C   0  0  0  0  0  0  0  0  0  0  0  0
    0.1882   22.6091  -27.0451 C   0  0  0  0  0  0  0  0  0  0  0  0
    1.1910   22.0505  -27.5600 O   0  0  0  0  0  0  0  0  0  0  0  0
   -0.9810   22.7122  -27.8434 N   0  0  0  0  0  0  0  0  0  0  0  0
   -2.3248   22.9575  -27.4397 C   0  0  0  0  0  0  0  0  0  0  0  0
   -3.1838   23.3314  -28.4357 C   0  0  0  0  0  0  0  0  0  0  0  0
   -4.4946   23.5838  -28.1154 C   0  0  0  0  0  0  0  0  0  0  0  0
   -0.8696   22.5947  -28.8879 H   0  0  0  0  0  0  0  0  0  0  0  0
   -0.3045   22.0552  -23.4061 C   0  0  0  0  0  0  0  0  0  0  0  0
    0.8557   21.3095  -23.2771 C   0  0  0  0  0  0  0  0  0  0  0  0
    1.2181   20.8331  -22.0451 C   0  0  0  0  0  0  0  0  0  0  0  0
    0.4436   21.0862  -20.9344 C   0  0  0  0  0  0  0  0  0  0  0  0
   -0.7091   21.8203  -21.0303 C   0  0  0  0  0  0  0  0  0  0  0  0
   -1.0640   22.2996  -22.2998 C   0  0  0  0  0  0  0  0  0  0  0  0
   -1.5146   22.0867  -19.8899 N   0  0  0  0  0  0  0  0  0  0  0  0
   -2.6845   21.4981  -19.5808 C   0  0  0  0  0  0  0  0  0  0  0  0
   -3.1531   22.0283  -18.3992 C   0  0  0  0  0  0  0  0  0  0  0  0
   -2.2474   22.9485  -17.9965 N   0  0  0  0  0  0  0  0  0  0  0  0
   -1.2453   22.9735  -18.9230 C   0  0  0  0  0  0  0  0  0  0  0  0
   -5.4222   23.9852  -29.1881 C   0  0  0  0  0  0  0  0  0  0  0  0
   -6.0527   25.2043  -28.9013 F   0  0  0  0  0  0  0  0  0  0  0  0
   -4.6885   24.2319  -30.3316 F   0  0  0  0  0  0  0  0  0  0  0  0
   -6.3366   23.0073  -29.5258 F   0  0  0  0  0  0  0  0  0  0  0  0
  1  2  1  0  0  0
  2  3  2  0  0  0
  3  4  1  0  0  0
  4  5  1  0  0  0
  5  6  2  0  0  0
  6  7  1  0  0  0
  7  8  1  0  0  0
  8  9  2  0  0  0
  8 10  1  0  0  0
 10 11  1  0  0  0
 11 12  1  0  0  0
 12 13  2  0  0  0
 13 26  1  0  0  0
 26 27  1  0  0  0
 26 28  1  0  0  0
 26 29  1  0  0  0
  6 15  1  0  0  0
 15 16  2  0  0  0
 16 17  1  0  0  0
 17 18  2  0  0  0
 18 19  1  0  0  0
 19 20  2  0  0  0
 19 21  1  0  0  0
 21 22  1  0  0  0
 22 23  2  0  0  0
 23 24  1  0  0  0
 24 25  2  0  0  0
 13  2  1  0  0  0
 20 15  1  0  0  0
 25 21  1  0  0  0
 11  4  2  0  0  0
 10 14  1  0  0  0
M  END
> <minimizedAffinity>
-8.65204

> <CNNscore>
0.6433089972

> <CNNaffinity>
6.8430991173

> <CNN_VS>
4.4022274017

> <CNNaffinity_variance>
0.2084020823

$$$$
[H]c1nc([H])n(-c2c([H])c([H])c([H])c(C3=Nc4c([H])c(C([H])([H])[H])c(C(F)(F)F)c([H])c4N([H])C(=O)C3([H])[H])c2[H])c1[H]


 29 32  0  0  0  0  0  0  0  0999 V2000
   -6.2806   23.2060  -24.5741 C   0  0  0  0  0  0  0  0  0  0  0  0
   -4.9765   23.0572  -25.3121 C   0  0  0  0  0  0  0  0  0  0  0  0
   -3.8423   22.6186  -24.6753 C   0  0  0  0  0  0  0  0  0  0  0  0
   -2.6550   22.4854  -25.3530 C   0  0  0  0  0  0  0  0  0  0  0  0
   -1.5982   22.0191  -24.5294 N   0  0  0  0  0  0  0  0  0  0  0  0
   -0.2951   22.1852  -24.6534 C   0  0  0  0  0  0  0  0  0  0  0  0
    0.4027   22.9214  -25.7161 C   0  0  0  0  0  0  0  0  0  0  0  0
   -0.1054   22.5848  -27.0977 C   0  0  0  0  0  0  0  0  0  0  0  0
    0.7220   22.1644  -27.9470 O   0  0  0  0  0  0  0  0  0  0  0  0
   -1.4573   22.7094  -27.5122 N   0  0  0  0  0  0  0  0  0  0  0  0
   -2.6345   22.8111  -26.7166 C   0  0  0  0  0  0  0  0  0  0  0  0
   -3.7539   23.2494  -27.3679 C   0  0  0  0  0  0  0  0  0  0  0  0
   -4.9236   23.3708  -26.6597 C   0  0  0  0  0  0  0  0  0  0  0  0
   -1.6480   22.7327  -28.5515 H   0  0  0  0  0  0  0  0  0  0  0  0
    0.4858   21.5435  -23.5823 C   0  0  0  0  0  0  0  0  0  0  0  0
    1.8546   21.3863  -23.7256 C   0  0  0  0  0  0  0  0  0  0  0  0
    2.5719   20.7790  -22.7293 C   0  0  0  0  0  0  0  0  0  0  0  0
    1.9494   20.3232  -21.5881 C   0  0  0  0  0  0  0  0  0  0  0  0
    0.5974   20.4641  -21.4177 C   0  0  0  0  0  0  0  0  0  0  0  0
   -0.1205   21.0882  -22.4485 C   0  0  0  0  0  0  0  0  0  0  0  0
   -0.0538   19.9970  -20.2437 N   0  0  0  0  0  0  0  0  0  0  0  0
   -0.9671   20.6647  -19.5152 C   0  0  0  0  0  0  0  0  0  0  0  0
   -1.3584   19.8752  -18.4567 C   0  0  0  0  0  0  0  0  0  0  0  0
   -0.6670   18.7169  -18.5556 N   0  0  0  0  0  0  0  0  0  0  0  0
    0.1312   18.8062  -19.6592 C   0  0  0  0  0  0  0  0  0  0  0  0
   -6.1316   23.8415  -27.3608 C   0  0  0  0  0  0  0  0  0  0  0  0
   -6.3438   25.2138  -27.1671 F   0  0  0  0  0  0  0  0  0  0  0  0
   -5.9288   23.7079  -28.7201 F   0  0  0  0  0  0  0  0  0  0  0  0
   -7.2637   23.1063  -27.0705 F   0  0  0  0  0  0  0  0  0  0  0  0
  1  2  1  0  0  0
  2  3  2  0  0  0
  3  4  1  0  0  0
  4  5  1  0  0  0
  5  6  2  0  0  0
  6  7  1  0  0  0
  7  8  1  0  0  0
  8  9  2  0  0  0
  8 10  1  0  0  0
 10 11  1  0  0  0
 11 12  1  0  0  0
 12 13  2  0  0  0
 13 26  1  0  0  0
 26 27  1  0  0  0
 26 28  1  0  0  0
 26 29  1  0  0  0
  6 15  1  0  0  0
 15 16  2  0  0  0
 16 17  1  0  0  0
 17 18  2  0  0  0
 18 19  1  0  0  0
 19 20  2  0  0  0
 19 21  1  0  0  0
 21 22  1  0  0  0
 22 23  2  0  0  0
 23 24  1  0  0  0
 24 25  2  0  0  0
 13  2  1  0  0  0
 20 15  1  0  0  0
 25 21  1  0  0  0
 11  4  2  0  0  0
 10 14  1  0  0  0
M  END
> <minimizedAffinity>
-8.90196

> <CNNscore>
0.5929327607

> <CNNaffinity>
6.7379913330

> <CNN_VS>
3.9951758385

> <CNNaffinity_variance>
0.2414896041

$$$$
[H]c1nc([H])n(-c2c([H])c([H])c([H])c(C3=Nc4c([H])c(C([H])([H])[H])c(C(F)(F)F)c([H])c4N([H])C(=O)C3([H])[H])c2[H])c1[H]


 29 32  0  0  0  0  0  0  0  0999 V2000
   -6.4145   23.5463  -24.7161 C   0  0  0  0  0  0  0  0  0  0  0  0
   -5.0224   23.3108  -25.2395 C   0  0  0  0  0  0  0  0  0  0  0  0
   -4.0458   22.7604  -24.4473 C   0  0  0  0  0  0  0  0  0  0  0  0
   -2.7772   22.5484  -24.9295 C   0  0  0  0  0  0  0  0  0  0  0  0
   -1.9097   21.9714  -23.9668 N   0  0  0  0  0  0  0  0  0  0  0  0
   -0.5949   22.0315  -23.8717 C   0  0  0  0  0  0  0  0  0  0  0  0
    0.3231   22.7377  -24.7754 C   0  0  0  0  0  0  0  0  0  0  0  0
    0.0243   22.4855  -26.2340 C   0  0  0  0  0  0  0  0  0  0  0  0
    0.9449   22.0225  -26.9558 O   0  0  0  0  0  0  0  0  0  0  0  0
   -1.2273   22.7347  -26.8556 N   0  0  0  0  0  0  0  0  0  0  0  0
   -2.5077   22.9111  -26.2568 C   0  0  0  0  0  0  0  0  0  0  0  0
   -3.4674   23.4604  -27.0610 C   0  0  0  0  0  0  0  0  0  0  0  0
   -4.7246   23.6583  -26.5464 C   0  0  0  0  0  0  0  0  0  0  0  0
   -1.2422   22.8044  -27.9101 H   0  0  0  0  0  0  0  0  0  0  0  0
   -0.0529   21.2956  -22.7169 C   0  0  0  0  0  0  0  0  0  0  0  0
   -0.8805   20.9729  -21.6540 C   0  0  0  0  0  0  0  0  0  0  0  0
   -0.3660   20.2975  -20.5792 C   0  0  0  0  0  0  0  0  0  0  0  0
    0.9628   19.9360  -20.5425 C   0  0  0  0  0  0  0  0  0  0  0  0
    1.8059   20.2413  -21.5783 C   0  0  0  0  0  0  0  0  0  0  0  0
    1.2612   20.9332  -22.6701 C   0  0  0  0  0  0  0  0  0  0  0  0
    3.1783   19.8724  -21.5495 N   0  0  0  0  0  0  0  0  0  0  0  0
    4.0772   20.2052  -20.6051 C   0  0  0  0  0  0  0  0  0  0  0  0
    5.2965   19.6565  -20.9356 C   0  0  0  0  0  0  0  0  0  0  0  0
    5.1219   18.9850  -22.0966 N   0  0  0  0  0  0  0  0  0  0  0  0
    3.8145   19.1266  -22.4621 C   0  0  0  0  0  0  0  0  0  0  0  0
   -5.7607   24.2487  -27.4125 C   0  0  0  0  0  0  0  0  0  0  0  0
   -6.1791   25.5018  -26.9429 F   0  0  0  0  0  0  0  0  0  0  0  0
   -5.2023   24.5076  -28.6486 F   0  0  0  0  0  0  0  0  0  0  0  0
   -6.8322   23.4101  -27.6467 F   0  0  0  0  0  0  0  0  0  0  0  0
  1  2  1  0  0  0
  2  3  2  0  0  0
  3  4  1  0  0  0
  4  5  1  0  0  0
  5  6  2  0  0  0
  6  7  1  0  0  0
  7  8  1  0  0  0
  8  9  2  0  0  0
  8 10  1  0  0  0
 10 11  1  0  0  0
 11 12  1  0  0  0
 12 13  2  0  0  0
 13 26  1  0  0  0
 26 27  1  0  0  0
 26 28  1  0  0  0
 26 29  1  0  0  0
  6 15  1  0  0  0
 15 16  2  0  0  0
 16 17  1  0  0  0
 17 18  2  0  0  0
 18 19  1  0  0  0
 19 20  2  0  0  0
 19 21  1  0  0  0
 21 22  1  0  0  0
 22 23  2  0  0  0
 23 24  1  0  0  0
 24 25  2  0  0  0
 13  2  1  0  0  0
 20 15  1  0  0  0
 25 21  1  0  0  0
 11  4  2  0  0  0
 10 14  1  0  0  0
M  END
> <minimizedAffinity>
-8.01181

> <CNNscore>
0.5026790500

> <CNNaffinity>
6.4736886024

> <CNN_VS>
3.2541875839

> <CNNaffinity_variance>
0.2296735942

$$$$
[H]c1nc([H])n(-c2c([H])c([H])c([H])c(C3=Nc4c([H])c(C([H])([H])[H])c(C(F)(F)F)c([H])c4N([H])C(=O)C3([H])[H])c2[H])c1[H]


 29 32  0  0  0  0  0  0  0  0999 V2000
   -6.6893   23.6914  -26.3404 C   0  0  0  0  0  0  0  0  0  0  0  0
   -5.2262   23.3390  -26.3906 C   0  0  0  0  0  0  0  0  0  0  0  0
   -4.5554   22.9155  -25.2704 C   0  0  0  0  0  0  0  0  0  0  0  0
   -3.2205   22.5961  -25.3214 C   0  0  0  0  0  0  0  0  0  0  0  0
   -2.7041   22.1786  -24.0678 N   0  0  0  0  0  0  0  0  0  0  0  0
   -1.4693   22.2271  -23.6051 C   0  0  0  0  0  0  0  0  0  0  0  0
   -0.2855   22.7450  -24.3039 C   0  0  0  0  0  0  0  0  0  0  0  0
   -0.1758   22.2478  -25.7256 C   0  0  0  0  0  0  0  0  0  0  0  0
    0.8764   21.6466  -26.0634 O   0  0  0  0  0  0  0  0  0  0  0  0
   -1.1793   22.4104  -26.7163 N   0  0  0  0  0  0  0  0  0  0  0  0
   -2.5611   22.7153  -26.5530 C   0  0  0  0  0  0  0  0  0  0  0  0
   -3.2124   23.1353  -27.6795 C   0  0  0  0  0  0  0  0  0  0  0  0
   -4.5467   23.4463  -27.5922 C   0  0  0  0  0  0  0  0  0  0  0  0
   -0.8899   22.2947  -27.7264 H   0  0  0  0  0  0  0  0  0  0  0  0
   -1.3299   21.6934  -22.2395 C   0  0  0  0  0  0  0  0  0  0  0  0
   -2.0749   22.2379  -21.2064 C   0  0  0  0  0  0  0  0  0  0  0  0
   -1.9315   21.7428  -19.9374 C   0  0  0  0  0  0  0  0  0  0  0  0
   -1.0565   20.7114  -19.6765 C   0  0  0  0  0  0  0  0  0  0  0  0
   -0.3061   20.1525  -20.6773 C   0  0  0  0  0  0  0  0  0  0  0  0
   -0.4662   20.6727  -21.9700 C   0  0  0  0  0  0  0  0  0  0  0  0
    0.5994   19.0880  -20.4178 N   0  0  0  0  0  0  0  0  0  0  0  0
    0.3103   17.7738  -20.4147 C   0  0  0  0  0  0  0  0  0  0  0  0
    1.4540   17.0653  -20.1200 C   0  0  0  0  0  0  0  0  0  0  0  0
    2.4421   17.9722  -19.9446 N   0  0  0  0  0  0  0  0  0  0  0  0
    1.9017   19.2118  -20.1308 C   0  0  0  0  0  0  0  0  0  0  0  0
   -5.2506   23.8974  -28.8060 C   0  0  0  0  0  0  0  0  0  0  0  0
   -5.9075   25.1193  -28.6023 F   0  0  0  0  0  0  0  0  0  0  0  0
   -4.3118   24.1642  -29.7828 F   0  0  0  0  0  0  0  0  0  0  0  0
   -6.0980   22.9479  -29.3413 F   0  0  0  0  0  0  0  0  0  0  0  0
  1  2  1  0  0  0
  2  3  2  0  0  0
  3  4  1  0  0  0
  4  5  1  0  0  0
  5  6  2  0  0  0
  6  7  1  0  0  0
  7  8  1  0  0  0
  8  9  2  0  0  0
  8 10  1  0  0  0
 10 11  1  0  0  0
 11 12  1  0  0  0
 12 13  2  0  0  0
 13 26  1  0  0  0
 26 27  1  0  0  0
 26 28  1  0  0  0
 26 29  1  0  0  0
  6 15  1  0  0  0
 15 16  2  0  0  0
 16 17  1  0  0  0
 17 18  2  0  0  0
 18 19  1  0  0  0
 19 20  2  0  0  0
 19 21  1  0  0  0
 21 22  1  0  0  0
 22 23  2  0  0  0
 23 24  1  0  0  0
 24 25  2  0  0  0
 13  2  1  0  0  0
 20 15  1  0  0  0
 25 21  1  0  0  0
 11  4  2  0  0  0
 10 14  1  0  0  0
M  END
> <minimizedAffinity>
-8.20055

> <CNNscore>
0.3933308125

> <CNNaffinity>
6.4249696732

> <CNN_VS>
2.5271384716

> <CNNaffinity_variance>
0.4741589427

$$$$
[H]c1nc([H])n(-c2c([H])c([H])c([H])c(C3=Nc4c([H])c(C([H])([H])[H])c(C(F)(F)F)c([H])c4N([H])C(=O)C3([H])[H])c2[H])c1[H]


 29 32  0  0  0  0  0  0  0  0999 V2000
  -10.6377   26.0721  -22.8433 C   0  0  0  0  0  0  0  0  0  0  0  0
   -9.4707   25.1444  -22.6316 C   0  0  0  0  0  0  0  0  0  0  0  0
   -8.5557   24.9100  -23.6276 C   0  0  0  0  0  0  0  0  0  0  0  0
   -7.4934   24.0620  -23.4296 C   0  0  0  0  0  0  0  0  0  0  0  0
   -6.6576   23.9481  -24.5701 N   0  0  0  0  0  0  0  0  0  0  0  0
   -5.8609   22.9626  -24.9378 C   0  0  0  0  0  0  0  0  0  0  0  0
   -5.6385   21.6965  -24.2266 C   0  0  0  0  0  0  0  0  0  0  0  0
   -5.4086   21.8847  -22.7460 C   0  0  0  0  0  0  0  0  0  0  0  0
   -4.3482   21.4261  -22.2482 O   0  0  0  0  0  0  0  0  0  0  0  0
   -6.3076   22.5448  -21.8679 N   0  0  0  0  0  0  0  0  0  0  0  0
   -7.3702   23.4413  -22.1785 C   0  0  0  0  0  0  0  0  0  0  0  0
   -8.2714   23.6624  -21.1743 C   0  0  0  0  0  0  0  0  0  0  0  0
   -9.3212   24.5160  -21.4069 C   0  0  0  0  0  0  0  0  0  0  0  0
   -6.1971   22.3653  -20.8322 H   0  0  0  0  0  0  0  0  0  0  0  0
   -5.1507   23.2187  -26.2023 C   0  0  0  0  0  0  0  0  0  0  0  0
   -5.8497   23.6822  -27.3047 C   0  0  0  0  0  0  0  0  0  0  0  0
   -5.1834   23.9079  -28.4800 C   0  0  0  0  0  0  0  0  0  0  0  0
   -3.8285   23.6797  -28.5787 C   0  0  0  0  0  0  0  0  0  0  0  0
   -3.1102   23.2214  -27.5059 C   0  0  0  0  0  0  0  0  0  0  0  0
   -3.8094   22.9959  -26.3111 C   0  0  0  0  0  0  0  0  0  0  0  0
   -1.7119   22.9831  -27.5982 N   0  0  0  0  0  0  0  0  0  0  0  0
   -0.9465   22.3478  -26.6920 C   0  0  0  0  0  0  0  0  0  0  0  0
    0.3536   22.3205  -27.1458 C   0  0  0  0  0  0  0  0  0  0  0  0
    0.3638   22.9501  -28.3428 N   0  0  0  0  0  0  0  0  0  0  0  0
   -0.9133   23.3521  -28.6081 C   0  0  0  0  0  0  0  0  0  0  0  0
  -10.2925   24.7568  -20.3248 C   0  0  0  0  0  0  0  0  0  0  0  0
  -11.5599   24.2470  -20.6407 F   0  0  0  0  0  0  0  0  0  0  0  0
   -9.8953   24.0411  -19.2128 F   0  0  0  0  0  0  0  0  0  0  0  0
  -10.3611   26.0763  -19.9241 F   0  0  0  0  0  0  0  0  0  0  0  0
  1  2  1  0  0  0
  2  3  2  0  0  0
  3  4  1  0  0  0
  4  5  1  0  0  0
  5  6  2  0  0  0
  6  7  1  0  0  0
  7  8  1  0  0  0
  8  9  2  0  0  0
  8 10  1  0  0  0
 10 11  1  0  0  0
 11 12  1  0  0  0
 12 13  2  0  0  0
 13 26  1  0  0  0
 26 27  1  0  0  0
 26 28  1  0  0  0
 26 29  1  0  0  0
  6 15  1  0  0  0
 15 16  2  0  0  0
 16 17  1  0  0  0
 17 18  2  0  0  0
 18 19  1  0  0  0
 19 20  2  0  0  0
 19 21  1  0  0  0
 21 22  1  0  0  0
 22 23  2  0  0  0
 23 24  1  0  0  0
 24 25  2  0  0  0
 13  2  1  0  0  0
 20 15  1  0  0  0
 25 21  1  0  0  0
 11  4  2  0  0  0
 10 14  1  0  0  0
M  END
> <minimizedAffinity>
-9.02133

> <CNNscore>
0.2295768559

> <CNNaffinity>
6.2016363144

> <CNN_VS>
1.4237521887

> <CNNaffinity_variance>
0.1088374704

$$$$
[H]c1nc([H])n(-c2c([H])c([H])c([H])c(C3=Nc4c([H])c(C([H])([H])[H])c(C(F)(F)F)c([H])c4N([H])C(=O)C3([H])[H])c2[H])c1[H]


 29 32  0  0  0  0  0  0  0  0999 V2000
   -3.3003   22.8938  -28.9646 C   0  0  0  0  0  0  0  0  0  0  0  0
   -3.3787   23.0815  -27.4726 C   0  0  0  0  0  0  0  0  0  0  0  0
   -2.3653   22.6633  -26.6466 C   0  0  0  0  0  0  0  0  0  0  0  0
   -2.4421   22.8362  -25.2861 C   0  0  0  0  0  0  0  0  0  0  0  0
   -1.3018   22.3431  -24.6014 N   0  0  0  0  0  0  0  0  0  0  0  0
   -1.1820   21.9185  -23.3578 C   0  0  0  0  0  0  0  0  0  0  0  0
   -2.2421   21.8517  -22.3430 C   0  0  0  0  0  0  0  0  0  0  0  0
   -3.0706   23.1123  -22.2723 C   0  0  0  0  0  0  0  0  0  0  0  0
   -3.1530   23.7057  -21.1660 O   0  0  0  0  0  0  0  0  0  0  0  0
   -3.7689   23.6808  -23.3696 N   0  0  0  0  0  0  0  0  0  0  0  0
   -3.5878   23.4533  -24.7640 C   0  0  0  0  0  0  0  0  0  0  0  0
   -4.6073   23.8766  -25.5709 C   0  0  0  0  0  0  0  0  0  0  0  0
   -4.4972   23.6878  -26.9262 C   0  0  0  0  0  0  0  0  0  0  0  0
   -4.5368   24.3737  -23.1521 H   0  0  0  0  0  0  0  0  0  0  0  0
    0.1803   21.4771  -23.0139 C   0  0  0  0  0  0  0  0  0  0  0  0
    1.1933   21.5687  -23.9542 C   0  0  0  0  0  0  0  0  0  0  0  0
    2.4552   21.1462  -23.6297 C   0  0  0  0  0  0  0  0  0  0  0  0
    2.7285   20.6320  -22.3813 C   0  0  0  0  0  0  0  0  0  0  0  0
    1.7477   20.5287  -21.4305 C   0  0  0  0  0  0  0  0  0  0  0  0
    0.4618   20.9661  -21.7810 C   0  0  0  0  0  0  0  0  0  0  0  0
    2.0201   19.9996  -20.1397 N   0  0  0  0  0  0  0  0  0  0  0  0
    3.0344   19.1798  -19.8082 C   0  0  0  0  0  0  0  0  0  0  0  0
    2.9549   18.8917  -18.4637 C   0  0  0  0  0  0  0  0  0  0  0  0
    1.8752   19.5509  -17.9852 N   0  0  0  0  0  0  0  0  0  0  0  0
    1.3103   20.2279  -19.0271 C   0  0  0  0  0  0  0  0  0  0  0  0
   -5.5945   24.1451  -27.7974 C   0  0  0  0  0  0  0  0  0  0  0  0
   -6.1853   23.0801  -28.4921 F   0  0  0  0  0  0  0  0  0  0  0  0
   -6.6054   24.6465  -27.0014 F   0  0  0  0  0  0  0  0  0  0  0  0
   -5.2361   25.1709  -28.6492 F   0  0  0  0  0  0  0  0  0  0  0  0
  1  2  1  0  0  0
  2  3  2  0  0  0
  3  4  1  0  0  0
  4  5  1  0  0  0
  5  6  2  0  0  0
  6  7  1  0  0  0
  7  8  1  0  0  0
  8  9  2  0  0  0
  8 10  1  0  0  0
 10 11  1  0  0  0
 11 12  1  0  0  0
 12 13  2  0  0  0
 13 26  1  0  0  0
 26 27  1  0  0  0
 26 28  1  0  0  0
 26 29  1  0  0  0
  6 15  1  0  0  0
 15 16  2  0  0  0
 16 17  1  0  0  0
 17 18  2  0  0  0
 18 19  1  0  0  0
 19 20  2  0  0  0
 19 21  1  0  0  0
 21 22  1  0  0  0
 22 23  2  0  0  0
 23 24  1  0  0  0
 24 25  2  0  0  0
 13  2  1  0  0  0
 20 15  1  0  0  0
 25 21  1  0  0  0
 11  4  2  0  0  0
 10 14  1  0  0  0
M  END
> <minimizedAffinity>
-8.34353

> <CNNscore>
0.2222183049

> <CNNaffinity>
6.2600445747

> <CNN_VS>
1.3910964727

> <CNNaffinity_variance>
0.3899525702

$$$$
[H]c1c([H])c(C([H])([H])N([H])C(=O)c2nc(-c3c([H])c([H])c(OC([H])([H])[H])c4nc(C(F)(F)F)c([H])c([H])c34)oc2C([H])([H])N([H])[H])c([H])c([H])c1F


 37 40  0  0  0  0  0  0  0  0999 V2000
    0.2616   21.6523  -24.1387 C   0  0  0  0  0  0  0  0  0  0  0  0
    1.5729   21.5571  -23.9877 N   0  0  0  0  0  0  0  0  0  0  0  0
    1.8963   21.1089  -22.7927 C   0  0  0  0  0  0  0  0  0  0  0  0
    0.6793   20.9006  -22.1245 C   0  0  0  0  0  0  0  0  0  0  0  0
   -0.2328   21.2437  -22.9813 O   0  0  0  0  0  0  0  0  0  0  0  0
   -2.3429   22.8006  -27.2831 C   0  0  0  0  0  0  0  0  0  0  0  0
   -0.9817   22.8091  -27.4714 C   0  0  0  0  0  0  0  0  0  0  0  0
   -0.1185   22.4540  -26.4591 C   0  0  0  0  0  0  0  0  0  0  0  0
   -0.5971   22.0813  -25.2293 C   0  0  0  0  0  0  0  0  0  0  0  0
   -1.9765   22.0781  -25.0389 C   0  0  0  0  0  0  0  0  0  0  0  0
   -2.4723   21.7510  -23.7750 C   0  0  0  0  0  0  0  0  0  0  0  0
   -3.8688   21.7821  -23.5788 C   0  0  0  0  0  0  0  0  0  0  0  0
   -4.6668   22.1268  -24.6114 C   0  0  0  0  0  0  0  0  0  0  0  0
   -4.2003   22.4491  -25.8279 N   0  0  0  0  0  0  0  0  0  0  0  0
   -2.8816   22.4224  -26.0111 C   0  0  0  0  0  0  0  0  0  0  0  0
   -6.1567   22.1347  -24.3808 C   0  0  0  0  0  0  0  0  0  0  0  0
   -6.5120   22.8145  -23.2583 F   0  0  0  0  0  0  0  0  0  0  0  0
   -6.5705   20.8179  -24.2575 F   0  0  0  0  0  0  0  0  0  0  0  0
   -6.7802   22.7155  -25.4542 F   0  0  0  0  0  0  0  0  0  0  0  0
   -3.9783   23.5745  -29.0782 C   0  0  0  0  0  0  0  0  0  0  0  0
   -3.1927   23.1175  -28.1965 O   0  0  0  0  0  0  0  0  0  0  0  0
    3.1577   20.7093  -22.1397 C   0  0  0  0  0  0  0  0  0  0  0  0
    3.6586   21.4874  -21.2963 O   0  0  0  0  0  0  0  0  0  0  0  0
    3.7739   19.4853  -22.4407 N   0  0  0  0  0  0  0  0  0  0  0  0
    3.3008   18.8762  -23.1955 H   0  0  0  0  0  0  0  0  0  0  0  0
    4.9620   18.8862  -21.8931 C   0  0  0  0  0  0  0  0  0  0  0  0
    4.4927   17.8016  -20.9659 C   0  0  0  0  0  0  0  0  0  0  0  0
    3.3367   17.0821  -21.2921 C   0  0  0  0  0  0  0  0  0  0  0  0
    2.8568   16.1187  -20.4366 C   0  0  0  0  0  0  0  0  0  0  0  0
    3.4465   15.8064  -19.2689 C   0  0  0  0  0  0  0  0  0  0  0  0
    2.9367   14.8654  -18.4076 F   0  0  0  0  0  0  0  0  0  0  0  0
    4.6097   16.4984  -18.9152 C   0  0  0  0  0  0  0  0  0  0  0  0
    5.0778   17.4836  -19.8035 C   0  0  0  0  0  0  0  0  0  0  0  0
    0.3690   20.4053  -20.7779 C   0  0  0  0  0  0  0  0  0  0  0  0
   -0.0913   18.9697  -20.8523 N   0  0  0  0  0  0  0  0  0  0  0  0
    0.1334   18.7055  -21.8453 H   0  0  0  0  0  0  0  0  0  0  0  0
    0.4992   18.4166  -20.1851 H   0  0  0  0  0  0  0  0  0  0  0  0
 20 21  1  0  0  0
 21  6  1  0  0  0
  6  7  2  0  0  0
  7  8  1  0  0  0
  8  9  2  0  0  0
  9  1  1  0  0  0
  1  2  2  0  0  0
  2  3  1  0  0  0
  3 22  1  0  0  0
 22 23  2  0  0  0
 22 24  1  0  0  0
 24 26  1  0  0  0
 26 27  1  0  0  0
 27 28  2  0  0  0
 28 29  1  0  0  0
 29 30  2  0  0  0
 30 31  1  0  0  0
 30 32  1  0  0  0
 32 33  2  0  0  0
  3  4  2  0  0  0
  4 34  1  0  0  0
 34 35  1  0  0  0
  4  5  1  0  0  0
  9 10  1  0  0  0
 10 11  2  0  0  0
 11 12  1  0  0  0
 12 13  2  0  0  0
 13 14  1  0  0  0
 14 15  2  0  0  0
 13 16  1  0  0  0
 16 17  1  0  0  0
 16 18  1  0  0  0
 16 19  1  0  0  0
 15  6  1  0  0  0
  5  1  1  0  0  0
 15 10  1  0  0  0
 33 27  1  0  0  0
 24 25  1  0  0  0
 35 36  1  0  0  0
 35 37  1  0  0  0
M  END
> <minimizedAffinity>
-8.40752

> <CNNscore>
0.4707083404

> <CNNaffinity>
6.5914297104

> <CNN_VS>
3.1026408672

> <CNNaffinity_variance>
0.0598798171

$$$$
[H]c1c([H])c(C([H])([H])N([H])C(=O)c2nc(-c3c([H])c([H])c(OC([H])([H])[H])c4nc(C(F)(F)F)c([H])c([H])c34)oc2C([H])([H])N([H])[H])c([H])c([H])c1F


 37 40  0  0  0  0  0  0  0  0999 V2000
    0.3659   21.6379  -24.0695 C   0  0  0  0  0  0  0  0  0  0  0  0
    1.6742   21.4942  -23.9320 N   0  0  0  0  0  0  0  0  0  0  0  0
    1.9988   21.1111  -22.7149 C   0  0  0  0  0  0  0  0  0  0  0  0
    0.7859   21.0016  -22.0165 C   0  0  0  0  0  0  0  0  0  0  0  0
   -0.1253   21.3283  -22.8804 O   0  0  0  0  0  0  0  0  0  0  0  0
   -2.2368   22.6864  -27.2501 C   0  0  0  0  0  0  0  0  0  0  0  0
   -0.8751   22.7031  -27.4335 C   0  0  0  0  0  0  0  0  0  0  0  0
   -0.0126   22.3804  -26.4098 C   0  0  0  0  0  0  0  0  0  0  0  0
   -0.4925   22.0327  -25.1732 C   0  0  0  0  0  0  0  0  0  0  0  0
   -1.8726   22.0211  -24.9879 C   0  0  0  0  0  0  0  0  0  0  0  0
   -2.3703   21.7195  -23.7184 C   0  0  0  0  0  0  0  0  0  0  0  0
   -3.7678   21.7422  -23.5281 C   0  0  0  0  0  0  0  0  0  0  0  0
   -4.5649   22.0546  -24.5717 C   0  0  0  0  0  0  0  0  0  0  0  0
   -4.0966   22.3522  -25.7938 N   0  0  0  0  0  0  0  0  0  0  0  0
   -2.7770   22.3336  -25.9714 C   0  0  0  0  0  0  0  0  0  0  0  0
   -6.0556   22.0541  -24.3468 C   0  0  0  0  0  0  0  0  0  0  0  0
   -6.4218   22.7579  -23.2427 F   0  0  0  0  0  0  0  0  0  0  0  0
   -6.4575   20.7368  -24.1928 F   0  0  0  0  0  0  0  0  0  0  0  0
   -6.6804   22.6024  -25.4365 F   0  0  0  0  0  0  0  0  0  0  0  0
   -3.8620   23.3986  -29.0797 C   0  0  0  0  0  0  0  0  0  0  0  0
   -3.0860   22.9734  -28.1740 O   0  0  0  0  0  0  0  0  0  0  0  0
    3.2530   20.6990  -22.0557 C   0  0  0  0  0  0  0  0  0  0  0  0
    3.9064   19.7595  -22.5638 O   0  0  0  0  0  0  0  0  0  0  0  0
    3.7126   21.3494  -20.9007 N   0  0  0  0  0  0  0  0  0  0  0  0
    3.0864   22.1332  -20.5031 H   0  0  0  0  0  0  0  0  0  0  0  0
    4.9153   21.1445  -20.1379 C   0  0  0  0  0  0  0  0  0  0  0  0
    4.9557   22.2472  -19.1188 C   0  0  0  0  0  0  0  0  0  0  0  0
    3.7941   22.5483  -18.3972 C   0  0  0  0  0  0  0  0  0  0  0  0
    3.7893   23.5855  -17.4949 C   0  0  0  0  0  0  0  0  0  0  0  0
    4.8644   24.3543  -17.2461 C   0  0  0  0  0  0  0  0  0  0  0  0
    4.8356   25.4095  -16.3667 F   0  0  0  0  0  0  0  0  0  0  0  0
    6.0458   24.0758  -17.9416 C   0  0  0  0  0  0  0  0  0  0  0  0
    6.0243   23.0139  -18.8641 C   0  0  0  0  0  0  0  0  0  0  0  0
    0.4783   20.6097  -20.6356 C   0  0  0  0  0  0  0  0  0  0  0  0
    0.6057   21.8046  -19.7223 N   0  0  0  0  0  0  0  0  0  0  0  0
    0.6973   22.6047  -20.3989 H   0  0  0  0  0  0  0  0  0  0  0  0
   -0.2903   21.8836  -19.1831 H   0  0  0  0  0  0  0  0  0  0  0  0
 20 21  1  0  0  0
 21  6  1  0  0  0
  6  7  2  0  0  0
  7  8  1  0  0  0
  8  9  2  0  0  0
  9  1  1  0  0  0
  1  2  2  0  0  0
  2  3  1  0  0  0
  3 22  1  0  0  0
 22 23  2  0  0  0
 22 24  1  0  0  0
 24 26  1  0  0  0
 26 27  1  0  0  0
 27 28  2  0  0  0
 28 29  1  0  0  0
 29 30  2  0  0  0
 30 31  1  0  0  0
 30 32  1  0  0  0
 32 33  2  0  0  0
  3  4  2  0  0  0
  4 34  1  0  0  0
 34 35  1  0  0  0
  4  5  1  0  0  0
  9 10  1  0  0  0
 10 11  2  0  0  0
 11 12  1  0  0  0
 12 13  2  0  0  0
 13 14  1  0  0  0
 14 15  2  0  0  0
 13 16  1  0  0  0
 16 17  1  0  0  0
 16 18  1  0  0  0
 16 19  1  0  0  0
 15  6  1  0  0  0
  5  1  1  0  0  0
 15 10  1  0  0  0
 33 27  1  0  0  0
 24 25  1  0  0  0
 35 36  1  0  0  0
 35 37  1  0  0  0
M  END
> <minimizedAffinity>
-9.17206

> <CNNscore>
0.4259763956

> <CNNaffinity>
6.4316778183

> <CNN_VS>
2.7397429943

> <CNNaffinity_variance>
0.0158450529

$$$$
[H]c1c([H])c(C([H])([H])N([H])C(=O)c2nc(-c3c([H])c([H])c(OC([H])([H])[H])c4nc(C(F)(F)F)c([H])c([H])c34)oc2C([H])([H])N([H])[H])c([H])c([H])c1F


 37 40  0  0  0  0  0  0  0  0999 V2000
   -0.0856   21.6895  -23.9660 C   0  0  0  0  0  0  0  0  0  0  0  0
   -0.4270   21.2617  -22.7612 N   0  0  0  0  0  0  0  0  0  0  0  0
    0.6247   20.9132  -22.0497 C   0  0  0  0  0  0  0  0  0  0  0  0
    1.7346   21.1408  -22.8787 C   0  0  0  0  0  0  0  0  0  0  0  0
    1.2342   21.5953  -23.9862 O   0  0  0  0  0  0  0  0  0  0  0  0
   -2.3930   23.0296  -27.2628 C   0  0  0  0  0  0  0  0  0  0  0  0
   -1.0566   22.7504  -27.4189 C   0  0  0  0  0  0  0  0  0  0  0  0
   -0.2866   22.3284  -26.3583 C   0  0  0  0  0  0  0  0  0  0  0  0
   -0.8360   22.1755  -25.1112 C   0  0  0  0  0  0  0  0  0  0  0  0
   -2.1893   22.4636  -24.9539 C   0  0  0  0  0  0  0  0  0  0  0  0
   -2.7467   22.3618  -23.6776 C   0  0  0  0  0  0  0  0  0  0  0  0
   -4.1099   22.6873  -23.5181 C   0  0  0  0  0  0  0  0  0  0  0  0
   -4.8179   23.0844  -24.5965 C   0  0  0  0  0  0  0  0  0  0  0  0
   -4.2904   23.1918  -25.8260 N   0  0  0  0  0  0  0  0  0  0  0  0
   -3.0027   22.8872  -25.9747 C   0  0  0  0  0  0  0  0  0  0  0  0
   -6.2774   23.4091  -24.4029 C   0  0  0  0  0  0  0  0  0  0  0  0
   -6.8600   22.6564  -23.4321 F   0  0  0  0  0  0  0  0  0  0  0  0
   -6.9247   23.1703  -25.6047 F   0  0  0  0  0  0  0  0  0  0  0  0
   -6.4084   24.7304  -24.0632 F   0  0  0  0  0  0  0  0  0  0  0  0
   -3.8959   23.9484  -29.1048 C   0  0  0  0  0  0  0  0  0  0  0  0
   -3.1579   23.4211  -28.2213 O   0  0  0  0  0  0  0  0  0  0  0  0
    0.8398   20.4925  -20.6518 C   0  0  0  0  0  0  0  0  0  0  0  0
    1.1788   19.3063  -20.4375 O   0  0  0  0  0  0  0  0  0  0  0  0
    0.6856   21.3970  -19.5905 N   0  0  0  0  0  0  0  0  0  0  0  0
    0.3670   22.3958  -19.8462 H   0  0  0  0  0  0  0  0  0  0  0  0
    0.8911   21.2129  -18.1784 C   0  0  0  0  0  0  0  0  0  0  0  0
    1.8761   22.2666  -17.7595 C   0  0  0  0  0  0  0  0  0  0  0  0
    2.6504   22.0552  -16.6121 C   0  0  0  0  0  0  0  0  0  0  0  0
    3.5231   23.0247  -16.1779 C   0  0  0  0  0  0  0  0  0  0  0  0
    3.6930   24.2018  -16.8059 C   0  0  0  0  0  0  0  0  0  0  0  0
    4.5436   25.1756  -16.3413 F   0  0  0  0  0  0  0  0  0  0  0  0
    2.9430   24.4435  -17.9618 C   0  0  0  0  0  0  0  0  0  0  0  0
    2.0523   23.4393  -18.3828 C   0  0  0  0  0  0  0  0  0  0  0  0
    3.1756   20.9605  -22.6641 C   0  0  0  0  0  0  0  0  0  0  0  0
    3.5303   19.4967  -22.7629 N   0  0  0  0  0  0  0  0  0  0  0  0
    2.6483   19.0699  -23.1455 H   0  0  0  0  0  0  0  0  0  0  0  0
    4.3095   19.4097  -23.4592 H   0  0  0  0  0  0  0  0  0  0  0  0
 20 21  1  0  0  0
 21  6  1  0  0  0
  6  7  2  0  0  0
  7  8  1  0  0  0
  8  9  2  0  0  0
  9  1  1  0  0  0
  1  2  2  0  0  0
  2  3  1  0  0  0
  3 22  1  0  0  0
 22 23  2  0  0  0
 22 24  1  0  0  0
 24 26  1  0  0  0
 26 27  1  0  0  0
 27 28  2  0  0  0
 28 29  1  0  0  0
 29 30  2  0  0  0
 30 31  1  0  0  0
 30 32  1  0  0  0
 32 33  2  0  0  0
  3  4  2  0  0  0
  4 34  1  0  0  0
 34 35  1  0  0  0
  4  5  1  0  0  0
  9 10  1  0  0  0
 10 11  2  0  0  0
 11 12  1  0  0  0
 12 13  2  0  0  0
 13 14  1  0  0  0
 14 15  2  0  0  0
 13 16  1  0  0  0
 16 17  1  0  0  0
 16 18  1  0  0  0
 16 19  1  0  0  0
 15  6  1  0  0  0
  5  1  1  0  0  0
 15 10  1  0  0  0
 33 27  1  0  0  0
 24 25  1  0  0  0
 35 36  1  0  0  0
 35 37  1  0  0  0
M  END
> <minimizedAffinity>
-8.65433

> <CNNscore>
0.3627395630

> <CNNaffinity>
6.5890564919

> <CNN_VS>
2.3901114464

> <CNNaffinity_variance>
0.1025607586

$$$$
[H]c1c([H])c(C([H])([H])N([H])C(=O)c2nc(-c3c([H])c([H])c(OC([H])([H])[H])c4nc(C(F)(F)F)c([H])c([H])c34)oc2C([H])([H])N([H])[H])c([H])c([H])c1F


 37 40  0  0  0  0  0  0  0  0999 V2000
   -0.8982   22.0012  -24.6655 C   0  0  0  0  0  0  0  0  0  0  0  0
    0.4117   21.8792  -24.5226 N   0  0  0  0  0  0  0  0  0  0  0  0
    0.7339   21.4361  -23.3253 C   0  0  0  0  0  0  0  0  0  0  0  0
   -0.4825   21.2609  -22.6467 C   0  0  0  0  0  0  0  0  0  0  0  0
   -1.3930   21.6150  -23.5006 O   0  0  0  0  0  0  0  0  0  0  0  0
   -3.5181   23.2379  -27.7632 C   0  0  0  0  0  0  0  0  0  0  0  0
   -2.3306   22.6160  -28.0657 C   0  0  0  0  0  0  0  0  0  0  0  0
   -1.4595   22.2200  -27.0756 C   0  0  0  0  0  0  0  0  0  0  0  0
   -1.7552   22.4378  -25.7544 C   0  0  0  0  0  0  0  0  0  0  0  0
   -2.9567   23.0725  -25.4501 C   0  0  0  0  0  0  0  0  0  0  0  0
   -3.2434   23.3462  -24.1111 C   0  0  0  0  0  0  0  0  0  0  0  0
   -4.4462   24.0195  -23.8115 C   0  0  0  0  0  0  0  0  0  0  0  0
   -5.2670   24.3733  -24.8230 C   0  0  0  0  0  0  0  0  0  0  0  0
   -4.9979   24.1209  -26.1134 N   0  0  0  0  0  0  0  0  0  0  0  0
   -3.8607   23.4880  -26.3952 C   0  0  0  0  0  0  0  0  0  0  0  0
   -6.5548   25.0756  -24.4749 C   0  0  0  0  0  0  0  0  0  0  0  0
   -6.3864   26.0546  -23.5467 F   0  0  0  0  0  0  0  0  0  0  0  0
   -7.4294   24.1258  -23.9713 F   0  0  0  0  0  0  0  0  0  0  0  0
   -7.0864   25.6383  -25.6058 F   0  0  0  0  0  0  0  0  0  0  0  0
   -5.1810   23.8650  -29.5901 C   0  0  0  0  0  0  0  0  0  0  0  0
   -4.3694   23.6224  -28.6490 O   0  0  0  0  0  0  0  0  0  0  0  0
    1.9911   21.0159  -22.6770 C   0  0  0  0  0  0  0  0  0  0  0  0
    3.0664   21.4866  -23.1127 O   0  0  0  0  0  0  0  0  0  0  0  0
    1.9853   20.1262  -21.5922 N   0  0  0  0  0  0  0  0  0  0  0  0
    1.0252   19.7403  -21.2859 H   0  0  0  0  0  0  0  0  0  0  0  0
    3.0749   19.6312  -20.7935 C   0  0  0  0  0  0  0  0  0  0  0  0
    3.5031   18.3387  -21.4275 C   0  0  0  0  0  0  0  0  0  0  0  0
    2.6059   17.2640  -21.4521 C   0  0  0  0  0  0  0  0  0  0  0  0
    2.9895   16.0542  -21.9808 C   0  0  0  0  0  0  0  0  0  0  0  0
    4.2096   15.8270  -22.4989 C   0  0  0  0  0  0  0  0  0  0  0  0
    4.5908   14.6030  -22.9928 F   0  0  0  0  0  0  0  0  0  0  0  0
    5.1290   16.8814  -22.5003 C   0  0  0  0  0  0  0  0  0  0  0  0
    4.7156   18.1075  -21.9483 C   0  0  0  0  0  0  0  0  0  0  0  0
   -0.7938   20.7858  -21.2930 C   0  0  0  0  0  0  0  0  0  0  0  0
   -2.1780   21.2381  -20.8958 N   0  0  0  0  0  0  0  0  0  0  0  0
   -2.5708   21.6038  -21.8004 H   0  0  0  0  0  0  0  0  0  0  0  0
   -2.7080   20.3882  -20.5852 H   0  0  0  0  0  0  0  0  0  0  0  0
 20 21  1  0  0  0
 21  6  1  0  0  0
  6  7  2  0  0  0
  7  8  1  0  0  0
  8  9  2  0  0  0
  9  1  1  0  0  0
  1  2  2  0  0  0
  2  3  1  0  0  0
  3 22  1  0  0  0
 22 23  2  0  0  0
 22 24  1  0  0  0
 24 26  1  0  0  0
 26 27  1  0  0  0
 27 28  2  0  0  0
 28 29  1  0  0  0
 29 30  2  0  0  0
 30 31  1  0  0  0
 30 32  1  0  0  0
 32 33  2  0  0  0
  3  4  2  0  0  0
  4 34  1  0  0  0
 34 35  1  0  0  0
  4  5  1  0  0  0
  9 10  1  0  0  0
 10 11  2  0  0  0
 11 12  1  0  0  0
 12 13  2  0  0  0
 13 14  1  0  0  0
 14 15  2  0  0  0
 13 16  1  0  0  0
 16 17  1  0  0  0
 16 18  1  0  0  0
 16 19  1  0  0  0
 15  6  1  0  0  0
  5  1  1  0  0  0
 15 10  1  0  0  0
 33 27  1  0  0  0
 24 25  1  0  0  0
 35 36  1  0  0  0
 35 37  1  0  0  0
M  END
> <minimizedAffinity>
-8.42230

> <CNNscore>
0.3417186737

> <CNNaffinity>
6.6224379539

> <CNN_VS>
2.2630107403

> <CNNaffinity_variance>
0.1921461523

$$$$
[H]c1c([H])c(C([H])([H])N([H])C(=O)c2nc(-c3c([H])c([H])c(OC([H])([H])[H])c4nc(C(F)(F)F)c([H])c([H])c34)oc2C([H])([H])N([H])[H])c([H])c([H])c1F


 37 40  0  0  0  0  0  0  0  0999 V2000
    0.1968   21.6185  -23.8682 C   0  0  0  0  0  0  0  0  0  0  0  0
   -0.0569   21.3925  -22.5893 N   0  0  0  0  0  0  0  0  0  0  0  0
    1.0233   21.0207  -21.9346 C   0  0  0  0  0  0  0  0  0  0  0  0
    2.0567   21.0100  -22.8848 C   0  0  0  0  0  0  0  0  0  0  0  0
    1.4907   21.3715  -23.9950 O   0  0  0  0  0  0  0  0  0  0  0  0
   -2.2784   22.7295  -27.1283 C   0  0  0  0  0  0  0  0  0  0  0  0
   -0.9106   22.7446  -27.2589 C   0  0  0  0  0  0  0  0  0  0  0  0
   -0.0891   22.4017  -26.2084 C   0  0  0  0  0  0  0  0  0  0  0  0
   -0.6172   22.0348  -24.9972 C   0  0  0  0  0  0  0  0  0  0  0  0
   -2.0035   22.0248  -24.8654 C   0  0  0  0  0  0  0  0  0  0  0  0
   -2.5506   21.7037  -23.6213 C   0  0  0  0  0  0  0  0  0  0  0  0
   -3.9543   21.7279  -23.4846 C   0  0  0  0  0  0  0  0  0  0  0  0
   -4.7097   22.0607  -24.5525 C   0  0  0  0  0  0  0  0  0  0  0  0
   -4.1939   22.3773  -25.7505 N   0  0  0  0  0  0  0  0  0  0  0  0
   -2.8685   22.3570  -25.8775 C   0  0  0  0  0  0  0  0  0  0  0  0
   -6.2080   22.0616  -24.3852 C   0  0  0  0  0  0  0  0  0  0  0  0
   -6.7245   20.8103  -24.2593 F   0  0  0  0  0  0  0  0  0  0  0  0
   -6.7564   22.6623  -25.5072 F   0  0  0  0  0  0  0  0  0  0  0  0
   -6.5407   22.7816  -23.2676 F   0  0  0  0  0  0  0  0  0  0  0  0
   -3.8208   23.4741  -29.0157 C   0  0  0  0  0  0  0  0  0  0  0  0
   -3.0906   23.0350  -28.0791 O   0  0  0  0  0  0  0  0  0  0  0  0
    1.3413   20.7628  -20.5170 C   0  0  0  0  0  0  0  0  0  0  0  0
    1.8078   19.6420  -20.2107 O   0  0  0  0  0  0  0  0  0  0  0  0
    1.1429   21.7485  -19.5385 N   0  0  0  0  0  0  0  0  0  0  0  0
    0.7138   22.6818  -19.8694 H   0  0  0  0  0  0  0  0  0  0  0  0
    1.4279   21.7255  -18.1283 C   0  0  0  0  0  0  0  0  0  0  0  0
    0.0971   21.6592  -17.4350 C   0  0  0  0  0  0  0  0  0  0  0  0
   -1.0384   22.1428  -18.0965 C   0  0  0  0  0  0  0  0  0  0  0  0
   -2.2600   22.1405  -17.4658 C   0  0  0  0  0  0  0  0  0  0  0  0
   -2.4454   21.6844  -16.2143 C   0  0  0  0  0  0  0  0  0  0  0  0
   -3.6656   21.7200  -15.5838 F   0  0  0  0  0  0  0  0  0  0  0  0
   -1.3347   21.1843  -15.5265 C   0  0  0  0  0  0  0  0  0  0  0  0
   -0.0944   21.2028  -16.1901 C   0  0  0  0  0  0  0  0  0  0  0  0
    3.4866   20.6948  -22.7791 C   0  0  0  0  0  0  0  0  0  0  0  0
    3.6780   19.1999  -22.6954 N   0  0  0  0  0  0  0  0  0  0  0  0
    2.7214   18.8303  -22.9294 H   0  0  0  0  0  0  0  0  0  0  0  0
    4.3654   18.9301  -23.4400 H   0  0  0  0  0  0  0  0  0  0  0  0
 20 21  1  0  0  0
 21  6  1  0  0  0
  6  7  2  0  0  0
  7  8  1  0  0  0
  8  9  2  0  0  0
  9  1  1  0  0  0
  1  2  2  0  0  0
  2  3  1  0  0  0
  3 22  1  0  0  0
 22 23  2  0  0  0
 22 24  1  0  0  0
 24 26  1  0  0  0
 26 27  1  0  0  0
 27 28  2  0  0  0
 28 29  1  0  0  0
 29 30  2  0  0  0
 30 31  1  0  0  0
 30 32  1  0  0  0
 32 33  2  0  0  0
  3  4  2  0  0  0
  4 34  1  0  0  0
 34 35  1  0  0  0
  4  5  1  0  0  0
  9 10  1  0  0  0
 10 11  2  0  0  0
 11 12  1  0  0  0
 12 13  2  0  0  0
 13 14  1  0  0  0
 14 15  2  0  0  0
 13 16  1  0  0  0
 16 17  1  0  0  0
 16 18  1  0  0  0
 16 19  1  0  0  0
 15  6  1  0  0  0
  5  1  1  0  0  0
 15 10  1  0  0  0
 33 27  1  0  0  0
 24 25  1  0  0  0
 35 36  1  0  0  0
 35 37  1  0  0  0
M  END
> <minimizedAffinity>
-8.18213

> <CNNscore>
0.3337388933

> <CNNaffinity>
6.4639725685

> <CNN_VS>
2.1572790146

> <CNNaffinity_variance>
0.0235987231

$$$$
[H]c1c([H])c(C([H])([H])N([H])C(=O)c2nc(-c3c([H])c([H])c(OC([H])([H])[H])c4nc(C(F)(F)F)c([H])c([H])c34)oc2C([H])([H])N([H])[H])c([H])c([H])c1F


 37 40  0  0  0  0  0  0  0  0999 V2000
    0.2506   21.4108  -23.2599 C   0  0  0  0  0  0  0  0  0  0  0  0
   -0.1297   21.1363  -22.0225 N   0  0  0  0  0  0  0  0  0  0  0  0
    0.8844   20.7616  -21.2709 C   0  0  0  0  0  0  0  0  0  0  0  0
    2.0108   20.8021  -22.1077 C   0  0  0  0  0  0  0  0  0  0  0  0
    1.5556   21.1915  -23.2587 O   0  0  0  0  0  0  0  0  0  0  0  0
   -1.9003   22.5943  -26.7185 C   0  0  0  0  0  0  0  0  0  0  0  0
   -0.5263   22.5758  -26.7283 C   0  0  0  0  0  0  0  0  0  0  0  0
    0.1910   22.2089  -25.6117 C   0  0  0  0  0  0  0  0  0  0  0  0
   -0.4505   21.8512  -24.4537 C   0  0  0  0  0  0  0  0  0  0  0  0
   -1.8428   21.8753  -24.4442 C   0  0  0  0  0  0  0  0  0  0  0  0
   -2.5050   21.5636  -23.2549 C   0  0  0  0  0  0  0  0  0  0  0  0
   -3.9143   21.6224  -23.2418 C   0  0  0  0  0  0  0  0  0  0  0  0
   -4.5644   21.9775  -24.3702 C   0  0  0  0  0  0  0  0  0  0  0  0
   -3.9376   22.2852  -25.5164 N   0  0  0  0  0  0  0  0  0  0  0  0
   -2.6070   22.2324  -25.5265 C   0  0  0  0  0  0  0  0  0  0  0  0
   -6.0711   22.0151  -24.3351 C   0  0  0  0  0  0  0  0  0  0  0  0
   -6.6282   20.7754  -24.3016 F   0  0  0  0  0  0  0  0  0  0  0  0
   -6.5024   22.6698  -25.4779 F   0  0  0  0  0  0  0  0  0  0  0  0
   -6.4834   22.7051  -23.2251 F   0  0  0  0  0  0  0  0  0  0  0  0
   -3.2960   23.3936  -28.6956 C   0  0  0  0  0  0  0  0  0  0  0  0
   -2.6178   22.9233  -27.7353 O   0  0  0  0  0  0  0  0  0  0  0  0
    1.0588   20.4607  -19.8369 C   0  0  0  0  0  0  0  0  0  0  0  0
    1.4403   19.3120  -19.5165 O   0  0  0  0  0  0  0  0  0  0  0  0
    0.8203   21.4362  -18.8571 N   0  0  0  0  0  0  0  0  0  0  0  0
    0.4691   22.3961  -19.2031 H   0  0  0  0  0  0  0  0  0  0  0  0
    0.9741   21.3716  -17.4280 C   0  0  0  0  0  0  0  0  0  0  0  0
    1.9862   22.4220  -17.0696 C   0  0  0  0  0  0  0  0  0  0  0  0
    2.4354   23.2998  -18.0638 C   0  0  0  0  0  0  0  0  0  0  0  0
    3.3984   24.2376  -17.7752 C   0  0  0  0  0  0  0  0  0  0  0  0
    3.9540   24.3769  -16.5583 C   0  0  0  0  0  0  0  0  0  0  0  0
    4.9402   25.2958  -16.2927 F   0  0  0  0  0  0  0  0  0  0  0  0
    3.5220   23.5232  -15.5378 C   0  0  0  0  0  0  0  0  0  0  0  0
    2.5405   22.5679  -15.8588 C   0  0  0  0  0  0  0  0  0  0  0  0
    3.4285   20.5091  -21.8634 C   0  0  0  0  0  0  0  0  0  0  0  0
    4.0471   21.6146  -21.0427 N   0  0  0  0  0  0  0  0  0  0  0  0
    3.2097   22.1729  -20.7372 H   0  0  0  0  0  0  0  0  0  0  0  0
    4.5099   21.1681  -20.2143 H   0  0  0  0  0  0  0  0  0  0  0  0
 20 21  1  0  0  0
 21  6  1  0  0  0
  6  7  2  0  0  0
  7  8  1  0  0  0
  8  9  2  0  0  0
  9  1  1  0  0  0
  1  2  2  0  0  0
  2  3  1  0  0  0
  3 22  1  0  0  0
 22 23  2  0  0  0
 22 24  1  0  0  0
 24 26  1  0  0  0
 26 27  1  0  0  0
 27 28  2  0  0  0
 28 29  1  0  0  0
 29 30  2  0  0  0
 30 31  1  0  0  0
 30 32  1  0  0  0
 32 33  2  0  0  0
  3  4  2  0  0  0
  4 34  1  0  0  0
 34 35  1  0  0  0
  4  5  1  0  0  0
  9 10  1  0  0  0
 10 11  2  0  0  0
 11 12  1  0  0  0
 12 13  2  0  0  0
 13 14  1  0  0  0
 14 15  2  0  0  0
 13 16  1  0  0  0
 16 17  1  0  0  0
 16 18  1  0  0  0
 16 19  1  0  0  0
 15  6  1  0  0  0
  5  1  1  0  0  0
 15 10  1  0  0  0
 33 27  1  0  0  0
 24 25  1  0  0  0
 35 36  1  0  0  0
 35 37  1  0  0  0
M  END
> <minimizedAffinity>
-9.13572

> <CNNscore>
0.3217124641

> <CNNaffinity>
6.2938508987

> <CNN_VS>
2.0248103142

> <CNNaffinity_variance>
0.0329181775

$$$$
[H]c1c([H])c(C([H])([H])N([H])C(=O)c2nc(-c3c([H])c([H])c(OC([H])([H])[H])c4nc(C(F)(F)F)c([H])c([H])c34)oc2C([H])([H])N([H])[H])c([H])c([H])c1F


 37 40  0  0  0  0  0  0  0  0999 V2000
   -4.6853   22.6945  -23.4629 C   0  0  0  0  0  0  0  0  0  0  0  0
   -5.3032   21.6984  -22.8487 N   0  0  0  0  0  0  0  0  0  0  0  0
   -6.1726   22.1350  -21.9615 C   0  0  0  0  0  0  0  0  0  0  0  0
   -6.0997   23.5359  -22.0180 C   0  0  0  0  0  0  0  0  0  0  0  0
   -5.2035   23.7855  -22.9224 O   0  0  0  0  0  0  0  0  0  0  0  0
   -1.8033   22.8420  -26.5711 C   0  0  0  0  0  0  0  0  0  0  0  0
   -1.4390   22.4516  -25.3050 C   0  0  0  0  0  0  0  0  0  0  0  0
   -2.3560   22.4110  -24.2786 C   0  0  0  0  0  0  0  0  0  0  0  0
   -3.6641   22.7619  -24.4940 C   0  0  0  0  0  0  0  0  0  0  0  0
   -4.0302   23.1619  -25.7765 C   0  0  0  0  0  0  0  0  0  0  0  0
   -5.3474   23.5715  -25.9945 C   0  0  0  0  0  0  0  0  0  0  0  0
   -5.7041   24.0077  -27.2876 C   0  0  0  0  0  0  0  0  0  0  0  0
   -4.7652   24.0151  -28.2574 C   0  0  0  0  0  0  0  0  0  0  0  0
   -3.4953   23.6298  -28.0570 N   0  0  0  0  0  0  0  0  0  0  0  0
   -3.1590   23.2212  -26.8351 C   0  0  0  0  0  0  0  0  0  0  0  0
   -5.1764   24.4685  -29.6352 C   0  0  0  0  0  0  0  0  0  0  0  0
   -6.1940   25.3697  -29.6110 F   0  0  0  0  0  0  0  0  0  0  0  0
   -5.5856   23.3488  -30.3420 F   0  0  0  0  0  0  0  0  0  0  0  0
   -4.1033   25.0440  -30.2641 F   0  0  0  0  0  0  0  0  0  0  0  0
   -0.0724   22.9332  -28.4397 C   0  0  0  0  0  0  0  0  0  0  0  0
   -0.9879   22.8919  -27.5660 O   0  0  0  0  0  0  0  0  0  0  0  0
   -7.1885   21.4974  -21.1019 C   0  0  0  0  0  0  0  0  0  0  0  0
   -8.3067   21.2379  -21.6019 O   0  0  0  0  0  0  0  0  0  0  0  0
   -6.9083   21.1748  -19.7656 N   0  0  0  0  0  0  0  0  0  0  0  0
   -5.9335   21.4503  -19.3937 H   0  0  0  0  0  0  0  0  0  0  0  0
   -7.7240   20.5153  -18.7806 C   0  0  0  0  0  0  0  0  0  0  0  0
   -7.0871   19.1763  -18.5407 C   0  0  0  0  0  0  0  0  0  0  0  0
   -7.9040   18.0795  -18.2404 C   0  0  0  0  0  0  0  0  0  0  0  0
   -7.3441   16.8540  -17.9668 C   0  0  0  0  0  0  0  0  0  0  0  0
   -6.0182   16.6286  -17.9733 C   0  0  0  0  0  0  0  0  0  0  0  0
   -5.4709   15.4070  -17.6642 F   0  0  0  0  0  0  0  0  0  0  0  0
   -5.1717   17.6996  -18.2791 C   0  0  0  0  0  0  0  0  0  0  0  0
   -5.7676   18.9449  -18.5493 C   0  0  0  0  0  0  0  0  0  0  0  0
   -6.8190   24.5881  -21.2896 C   0  0  0  0  0  0  0  0  0  0  0  0
   -5.8364   25.5846  -20.7241 N   0  0  0  0  0  0  0  0  0  0  0  0
   -4.9348   25.3124  -21.1925 H   0  0  0  0  0  0  0  0  0  0  0  0
   -6.1391   26.5373  -21.0412 H   0  0  0  0  0  0  0  0  0  0  0  0
 20 21  1  0  0  0
 21  6  1  0  0  0
  6  7  2  0  0  0
  7  8  1  0  0  0
  8  9  2  0  0  0
  9  1  1  0  0  0
  1  2  2  0  0  0
  2  3  1  0  0  0
  3 22  1  0  0  0
 22 23  2  0  0  0
 22 24  1  0  0  0
 24 26  1  0  0  0
 26 27  1  0  0  0
 27 28  2  0  0  0
 28 29  1  0  0  0
 29 30  2  0  0  0
 30 31  1  0  0  0
 30 32  1  0  0  0
 32 33  2  0  0  0
  3  4  2  0  0  0
  4 34  1  0  0  0
 34 35  1  0  0  0
  4  5  1  0  0  0
  9 10  1  0  0  0
 10 11  2  0  0  0
 11 12  1  0  0  0
 12 13  2  0  0  0
 13 14  1  0  0  0
 14 15  2  0  0  0
 13 16  1  0  0  0
 16 17  1  0  0  0
 16 18  1  0  0  0
 16 19  1  0  0  0
 15  6  1  0  0  0
  5  1  1  0  0  0
 15 10  1  0  0  0
 33 27  1  0  0  0
 24 25  1  0  0  0
 35 36  1  0  0  0
 35 37  1  0  0  0
M  END
> <minimizedAffinity>
-8.34908

> <CNNscore>
0.2617199719

> <CNNaffinity>
6.3401212692

> <CNN_VS>
1.6593363285

> <CNNaffinity_variance>
0.0556260645

$$$$
[H]c1c([H])c(C([H])([H])N([H])C(=O)c2nc(-c3c([H])c([H])c(OC([H])([H])[H])c4nc(C(F)(F)F)c([H])c([H])c34)oc2C([H])([H])N([H])[H])c([H])c([H])c1F


 37 40  0  0  0  0  0  0  0  0999 V2000
   -1.4559   22.0751  -22.4163 C   0  0  0  0  0  0  0  0  0  0  0  0
   -1.5073   21.0499  -21.5810 N   0  0  0  0  0  0  0  0  0  0  0  0
   -0.3396   20.4522  -21.4679 C   0  0  0  0  0  0  0  0  0  0  0  0
    0.5323   21.1630  -22.3078 C   0  0  0  0  0  0  0  0  0  0  0  0
   -0.1989   22.0995  -22.8292 O   0  0  0  0  0  0  0  0  0  0  0  0
   -4.2303   24.9155  -23.9073 C   0  0  0  0  0  0  0  0  0  0  0  0
   -3.9621   24.8479  -22.5612 C   0  0  0  0  0  0  0  0  0  0  0  0
   -3.0760   23.9234  -22.0552 C   0  0  0  0  0  0  0  0  0  0  0  0
   -2.4348   23.0405  -22.8857 C   0  0  0  0  0  0  0  0  0  0  0  0
   -2.7116   23.1073  -24.2488 C   0  0  0  0  0  0  0  0  0  0  0  0
   -2.1042   22.1788  -25.0968 C   0  0  0  0  0  0  0  0  0  0  0  0
   -2.4144   22.2298  -26.4719 C   0  0  0  0  0  0  0  0  0  0  0  0
   -3.2818   23.1655  -26.9123 C   0  0  0  0  0  0  0  0  0  0  0  0
   -3.8759   24.0582  -26.1051 N   0  0  0  0  0  0  0  0  0  0  0  0
   -3.5847   24.0070  -24.8067 C   0  0  0  0  0  0  0  0  0  0  0  0
   -3.5825   23.2107  -28.3890 C   0  0  0  0  0  0  0  0  0  0  0  0
   -4.7911   22.6695  -28.6970 F   0  0  0  0  0  0  0  0  0  0  0  0
   -2.5914   22.4957  -29.0423 F   0  0  0  0  0  0  0  0  0  0  0  0
   -3.5697   24.5127  -28.8164 F   0  0  0  0  0  0  0  0  0  0  0  0
   -5.8821   26.6373  -24.8034 C   0  0  0  0  0  0  0  0  0  0  0  0
   -5.0446   25.7633  -24.4320 O   0  0  0  0  0  0  0  0  0  0  0  0
    0.1952   19.3699  -20.6194 C   0  0  0  0  0  0  0  0  0  0  0  0
    0.9099   19.6848  -19.6408 O   0  0  0  0  0  0  0  0  0  0  0  0
   -0.0993   18.0248  -20.8887 N   0  0  0  0  0  0  0  0  0  0  0  0
   -0.6998   17.8248  -21.7627 H   0  0  0  0  0  0  0  0  0  0  0  0
    0.2713   16.8333  -20.1722 C   0  0  0  0  0  0  0  0  0  0  0  0
    1.6035   16.4125  -20.7239 C   0  0  0  0  0  0  0  0  0  0  0  0
    2.7066   16.3519  -19.8636 C   0  0  0  0  0  0  0  0  0  0  0  0
    3.9477   16.0187  -20.3522 C   0  0  0  0  0  0  0  0  0  0  0  0
    4.1809   15.7320  -21.6453 C   0  0  0  0  0  0  0  0  0  0  0  0
    5.4330   15.4342  -22.1260 F   0  0  0  0  0  0  0  0  0  0  0  0
    3.0998   15.7729  -22.5321 C   0  0  0  0  0  0  0  0  0  0  0  0
    1.8412   16.1224  -22.0100 C   0  0  0  0  0  0  0  0  0  0  0  0
    1.9598   20.9987  -22.6087 C   0  0  0  0  0  0  0  0  0  0  0  0
    2.2245   21.3543  -24.0515 N   0  0  0  0  0  0  0  0  0  0  0  0
    1.3181   21.7957  -24.3515 H   0  0  0  0  0  0  0  0  0  0  0  0
    2.9968   22.0636  -24.0625 H   0  0  0  0  0  0  0  0  0  0  0  0
 20 21  1  0  0  0
 21  6  1  0  0  0
  6  7  2  0  0  0
  7  8  1  0  0  0
  8  9  2  0  0  0
  9  1  1  0  0  0
  1  2  2  0  0  0
  2  3  1  0  0  0
  3 22  1  0  0  0
 22 23  2  0  0  0
 22 24  1  0  0  0
 24 26  1  0  0  0
 26 27  1  0  0  0
 27 28  2  0  0  0
 28 29  1  0  0  0
 29 30  2  0  0  0
 30 31  1  0  0  0
 30 32  1  0  0  0
 32 33  2  0  0  0
  3  4  2  0  0  0
  4 34  1  0  0  0
 34 35  1  0  0  0
  4  5  1  0  0  0
  9 10  1  0  0  0
 10 11  2  0  0  0
 11 12  1  0  0  0
 12 13  2  0  0  0
 13 14  1  0  0  0
 14 15  2  0  0  0
 13 16  1  0  0  0
 16 17  1  0  0  0
 16 18  1  0  0  0
 16 19  1  0  0  0
 15  6  1  0  0  0
  5  1  1  0  0  0
 15 10  1  0  0  0
 33 27  1  0  0  0
 24 25  1  0  0  0
 35 36  1  0  0  0
 35 37  1  0  0  0
M  END
> <minimizedAffinity>
-8.11190

> <CNNscore>
0.2368036807

> <CNNaffinity>
6.0041837692

> <CNN_VS>
1.4218127728

> <CNNaffinity_variance>
0.2491626441

$$$$
[H]c1c([H])c(C([H])([H])N([H])C(=O)c2nc(-c3c([H])c([H])c(OC([H])([H])[H])c4nc(C(F)(F)F)c([H])c([H])c34)oc2C([H])([H])N([H])[H])c([H])c([H])c1F


 37 40  0  0  0  0  0  0  0  0999 V2000
   -5.0129   22.9758  -23.8975 C   0  0  0  0  0  0  0  0  0  0  0  0
   -5.4564   22.0783  -23.0320 N   0  0  0  0  0  0  0  0  0  0  0  0
   -6.4744   22.5346  -22.3327 C   0  0  0  0  0  0  0  0  0  0  0  0
   -6.6972   23.8407  -22.7968 C   0  0  0  0  0  0  0  0  0  0  0  0
   -5.7979   24.0251  -23.7137 O   0  0  0  0  0  0  0  0  0  0  0  0
   -1.9836   22.9565  -26.8660 C   0  0  0  0  0  0  0  0  0  0  0  0
   -1.7058   22.5341  -25.5883 C   0  0  0  0  0  0  0  0  0  0  0  0
   -2.6710   22.5462  -24.6064 C   0  0  0  0  0  0  0  0  0  0  0  0
   -3.9418   22.9835  -24.8790 C   0  0  0  0  0  0  0  0  0  0  0  0
   -4.2201   23.4159  -26.1731 C   0  0  0  0  0  0  0  0  0  0  0  0
   -5.4960   23.9123  -26.4482 C   0  0  0  0  0  0  0  0  0  0  0  0
   -5.7620   24.3802  -27.7521 C   0  0  0  0  0  0  0  0  0  0  0  0
   -4.7799   24.3330  -28.6768 C   0  0  0  0  0  0  0  0  0  0  0  0
   -3.5486   23.8640  -28.4212 N   0  0  0  0  0  0  0  0  0  0  0  0
   -3.2978   23.4255  -27.1891 C   0  0  0  0  0  0  0  0  0  0  0  0
   -5.0951   24.8222  -30.0675 C   0  0  0  0  0  0  0  0  0  0  0  0
   -4.0382   25.4374  -30.6615 F   0  0  0  0  0  0  0  0  0  0  0  0
   -6.1420   25.7248  -29.9689 F   0  0  0  0  0  0  0  0  0  0  0  0
   -5.4730   23.7612  -30.8484 F   0  0  0  0  0  0  0  0  0  0  0  0
   -0.1643   22.9442  -28.6509 C   0  0  0  0  0  0  0  0  0  0  0  0
   -1.1206   22.9600  -27.8211 O   0  0  0  0  0  0  0  0  0  0  0  0
   -7.4034   21.9487  -21.3473 C   0  0  0  0  0  0  0  0  0  0  0  0
   -8.2767   21.1520  -21.7598 O   0  0  0  0  0  0  0  0  0  0  0  0
   -7.3044   22.2604  -19.9829 N   0  0  0  0  0  0  0  0  0  0  0  0
   -6.5451   22.9737  -19.7017 H   0  0  0  0  0  0  0  0  0  0  0  0
   -8.0638   21.7713  -18.8629 C   0  0  0  0  0  0  0  0  0  0  0  0
   -7.5022   22.4539  -17.6485 C   0  0  0  0  0  0  0  0  0  0  0  0
   -6.5527   23.4690  -17.8178 C   0  0  0  0  0  0  0  0  0  0  0  0
   -5.9853   24.0756  -16.7223 C   0  0  0  0  0  0  0  0  0  0  0  0
   -6.2952   23.7516  -15.4543 C   0  0  0  0  0  0  0  0  0  0  0  0
   -5.6950   24.3422  -14.3687 F   0  0  0  0  0  0  0  0  0  0  0  0
   -7.2477   22.7482  -15.2471 C   0  0  0  0  0  0  0  0  0  0  0  0
   -7.8096   22.1381  -16.3834 C   0  0  0  0  0  0  0  0  0  0  0  0
   -7.6863   24.8605  -22.4268 C   0  0  0  0  0  0  0  0  0  0  0  0
   -7.0729   26.2351  -22.5386 N   0  0  0  0  0  0  0  0  0  0  0  0
   -6.1651   26.0441  -23.0343 H   0  0  0  0  0  0  0  0  0  0  0  0
   -7.7052   26.8117  -23.1447 H   0  0  0  0  0  0  0  0  0  0  0  0
 20 21  1  0  0  0
 21  6  1  0  0  0
  6  7  2  0  0  0
  7  8  1  0  0  0
  8  9  2  0  0  0
  9  1  1  0  0  0
  1  2  2  0  0  0
  2  3  1  0  0  0
  3 22  1  0  0  0
 22 23  2  0  0  0
 22 24  1  0  0  0
 24 26  1  0  0  0
 26 27  1  0  0  0
 27 28  2  0  0  0
 28 29  1  0  0  0
 29 30  2  0  0  0
 30 31  1  0  0  0
 30 32  1  0  0  0
 32 33  2  0  0  0
  3  4  2  0  0  0
  4 34  1  0  0  0
 34 35  1  0  0  0
  4  5  1  0  0  0
  9 10  1  0  0  0
 10 11  2  0  0  0
 11 12  1  0  0  0
 12 13  2  0  0  0
 13 14  1  0  0  0
 14 15  2  0  0  0
 13 16  1  0  0  0
 16 17  1  0  0  0
 16 18  1  0  0  0
 16 19  1  0  0  0
 15  6  1  0  0  0
  5  1  1  0  0  0
 15 10  1  0  0  0
 33 27  1  0  0  0
 24 25  1  0  0  0
 35 36  1  0  0  0
 35 37  1  0  0  0
M  END
> <minimizedAffinity>
-8.53489

> <CNNscore>
0.2310971022

> <CNNaffinity>
6.2524280548

> <CNN_VS>
1.4449180365

> <CNNaffinity_variance>
0.1807856560

$$$$
[H]/C(=C1/C(=O)N([H])c2c([H])c([H])c(N([H])S(=O)(=O)c3c([H])c([H])c(N4C([H])([H])C([H])([H])N(C([H])([H])[H])C([H])([H])C4([H])[H])c([H])c3[H])c([H])c21)c1c([H])c([H])c([H])c([H])c1[H]


 36 40  0  0  0  0  0  0  0  0999 V2000
   -4.1307   23.1624  -28.7658 N   0  0  0  0  0  0  0  0  0  0  0  0
   -4.5137   22.3353  -29.2648 H   0  0  0  0  0  0  0  0  0  0  0  0
   -2.8533   23.0501  -28.1612 C   0  0  0  0  0  0  0  0  0  0  0  0
   -1.7315   23.2386  -28.9408 C   0  0  0  0  0  0  0  0  0  0  0  0
   -0.4658   23.1399  -28.3948 C   0  0  0  0  0  0  0  0  0  0  0  0
   -0.3282   22.8484  -27.0487 C   0  0  0  0  0  0  0  0  0  0  0  0
    0.8510   22.6983  -26.2741 N   0  0  0  0  0  0  0  0  0  0  0  0
    0.4710   22.3944  -24.9129 C   0  0  0  0  0  0  0  0  0  0  0  0
    1.2994   22.2021  -23.9887 O   0  0  0  0  0  0  0  0  0  0  0  0
   -0.9712   22.3639  -24.8753 C   0  0  0  0  0  0  0  0  0  0  0  0
   -1.7660   22.1559  -23.8602 C   0  0  0  0  0  0  0  0  0  0  0  0
   -1.4260   22.6518  -26.2304 C   0  0  0  0  0  0  0  0  0  0  0  0
   -2.6744   22.7615  -26.8259 C   0  0  0  0  0  0  0  0  0  0  0  0
    1.8423   22.7813  -26.5797 H   0  0  0  0  0  0  0  0  0  0  0  0
   -1.2966   21.9150  -22.5234 C   0  0  0  0  0  0  0  0  0  0  0  0
   -0.8409   20.6904  -22.1039 C   0  0  0  0  0  0  0  0  0  0  0  0
   -0.4118   20.4770  -20.8138 C   0  0  0  0  0  0  0  0  0  0  0  0
   -0.4289   21.5014  -19.9000 C   0  0  0  0  0  0  0  0  0  0  0  0
   -0.8856   22.7325  -20.3192 C   0  0  0  0  0  0  0  0  0  0  0  0
   -1.3125   22.9469  -21.5998 C   0  0  0  0  0  0  0  0  0  0  0  0
   -5.0730   24.5972  -28.7132 S   0  0  0  0  0  0  0  0  0  0  0  0
   -4.2166   25.7936  -29.0932 O   0  0  0  0  0  0  0  0  0  0  0  0
   -6.1833   24.5624  -29.7288 O   0  0  0  0  0  0  0  0  0  0  0  0
   -6.7545   24.9906  -24.5200 C   0  0  0  0  0  0  0  0  0  0  0  0
   -6.8387   23.8165  -25.2130 C   0  0  0  0  0  0  0  0  0  0  0  0
   -6.3210   23.6906  -26.5074 C   0  0  0  0  0  0  0  0  0  0  0  0
   -5.7107   24.7598  -27.1127 C   0  0  0  0  0  0  0  0  0  0  0  0
   -5.6239   25.9396  -26.4218 C   0  0  0  0  0  0  0  0  0  0  0  0
   -6.1390   26.0680  -25.1312 C   0  0  0  0  0  0  0  0  0  0  0  0
   -8.9410   26.8720  -20.6310 C   0  0  0  0  0  0  0  0  0  0  0  0
   -8.3643   25.5657  -20.7041 N   0  0  0  0  0  0  0  0  0  0  0  0
   -6.9501   25.5955  -20.8050 C   0  0  0  0  0  0  0  0  0  0  0  0
   -6.3857   25.1080  -22.0981 C   0  0  0  0  0  0  0  0  0  0  0  0
   -7.2883   25.0897  -23.2001 N   0  0  0  0  0  0  0  0  0  0  0  0
   -8.7157   25.1642  -23.0310 C   0  0  0  0  0  0  0  0  0  0  0  0
   -9.0264   24.6997  -21.6201 C   0  0  0  0  0  0  0  0  0  0  0  0
 30 31  1  0  0  0
 31 32  1  0  0  0
 32 33  1  0  0  0
 33 34  1  0  0  0
 34 35  1  0  0  0
 35 36  1  0  0  0
 34 24  1  0  0  0
 24 25  2  0  0  0
 25 26  1  0  0  0
 26 27  2  0  0  0
 27 28  1  0  0  0
 28 29  2  0  0  0
 27 21  1  0  0  0
 21 22  2  0  0  0
 21 23  2  0  0  0
 21  1  1  0  0  0
  1  3  1  0  0  0
  3  4  2  0  0  0
  4  5  1  0  0  0
  5  6  2  0  0  0
  6  7  1  0  0  0
  7  8  1  0  0  0
  8  9  2  0  0  0
  8 10  1  0  0  0
 10 11  2  0  0  0
 11 15  1  0  0  0
 15 16  2  0  0  0
 16 17  1  0  0  0
 17 18  2  0  0  0
 18 19  1  0  0  0
 19 20  2  0  0  0
 10 12  1  0  0  0
 12 13  2  0  0  0
 36 31  1  0  0  0
 29 24  1  0  0  0
 13  3  1  0  0  0
 12  6  1  0  0  0
 20 15  1  0  0  0
  1  2  1  0  0  0
  7 14  1  0  0  0
M  END
> <minimizedAffinity>
-10.38385

> <CNNscore>
0.6170042157

> <CNNaffinity>
7.2865424156

> <CNN_VS>
4.4958271980

> <CNNaffinity_variance>
0.2423048913

$$$$
[H]/C(=C1/C(=O)N([H])c2c([H])c([H])c(N([H])S(=O)(=O)c3c([H])c([H])c(N4C([H])([H])C([H])([H])N(C([H])([H])[H])C([H])([H])C4([H])[H])c([H])c3[H])c([H])c21)c1c([H])c([H])c([H])c([H])c1[H]


 36 40  0  0  0  0  0  0  0  0999 V2000
   -1.9021   21.4069  -22.1203 N   0  0  0  0  0  0  0  0  0  0  0  0
   -1.9521   20.4097  -21.8325 H   0  0  0  0  0  0  0  0  0  0  0  0
   -1.4270   21.7073  -23.4218 C   0  0  0  0  0  0  0  0  0  0  0  0
   -0.0900   21.5160  -23.7006 C   0  0  0  0  0  0  0  0  0  0  0  0
    0.4179   21.7942  -24.9553 C   0  0  0  0  0  0  0  0  0  0  0  0
   -0.4298   22.2704  -25.9404 C   0  0  0  0  0  0  0  0  0  0  0  0
   -0.1432   22.6220  -27.2848 N   0  0  0  0  0  0  0  0  0  0  0  0
   -1.3661   23.0675  -27.9139 C   0  0  0  0  0  0  0  0  0  0  0  0
   -1.4312   23.4501  -29.1084 O   0  0  0  0  0  0  0  0  0  0  0  0
   -2.4079   22.9780  -26.9195 C   0  0  0  0  0  0  0  0  0  0  0  0
   -3.6807   23.2478  -27.0313 C   0  0  0  0  0  0  0  0  0  0  0  0
   -1.7770   22.4769  -25.7042 C   0  0  0  0  0  0  0  0  0  0  0  0
   -2.2381   22.1827  -24.4290 C   0  0  0  0  0  0  0  0  0  0  0  0
    0.7692   22.5856  -27.7839 H   0  0  0  0  0  0  0  0  0  0  0  0
   -4.2898   23.7014  -28.2514 C   0  0  0  0  0  0  0  0  0  0  0  0
   -4.8685   22.8476  -29.1567 C   0  0  0  0  0  0  0  0  0  0  0  0
   -5.4313   23.3017  -30.3276 C   0  0  0  0  0  0  0  0  0  0  0  0
   -5.4280   24.6423  -30.6231 C   0  0  0  0  0  0  0  0  0  0  0  0
   -4.8479   25.5018  -29.7151 C   0  0  0  0  0  0  0  0  0  0  0  0
   -4.2881   25.0534  -28.5517 C   0  0  0  0  0  0  0  0  0  0  0  0
   -2.3981   22.6098  -20.9995 S   0  0  0  0  0  0  0  0  0  0  0  0
   -1.9223   23.9768  -21.4623 O   0  0  0  0  0  0  0  0  0  0  0  0
   -3.8982   22.7114  -20.9311 O   0  0  0  0  0  0  0  0  0  0  0  0
   -0.7039   21.5468  -16.9295 C   0  0  0  0  0  0  0  0  0  0  0  0
   -2.0258   21.8494  -17.0928 C   0  0  0  0  0  0  0  0  0  0  0  0
   -2.5530   22.1780  -18.3472 C   0  0  0  0  0  0  0  0  0  0  0  0
   -1.7397   22.2026  -19.4518 C   0  0  0  0  0  0  0  0  0  0  0  0
   -0.4131   21.9000  -19.2931 C   0  0  0  0  0  0  0  0  0  0  0  0
    0.1153   21.5719  -18.0437 C   0  0  0  0  0  0  0  0  0  0  0  0
    0.7904   22.0793  -12.3547 C   0  0  0  0  0  0  0  0  0  0  0  0
    0.8005   20.8533  -13.0903 N   0  0  0  0  0  0  0  0  0  0  0  0
    1.7446   20.8566  -14.1485 C   0  0  0  0  0  0  0  0  0  0  0  0
    1.1696   20.8159  -15.5254 C   0  0  0  0  0  0  0  0  0  0  0  0
   -0.1940   21.2122  -15.6392 N   0  0  0  0  0  0  0  0  0  0  0  0
   -1.0749   21.2842  -14.5032 C   0  0  0  0  0  0  0  0  0  0  0  0
   -0.4989   20.3799  -13.4292 C   0  0  0  0  0  0  0  0  0  0  0  0
 30 31  1  0  0  0
 31 32  1  0  0  0
 32 33  1  0  0  0
 33 34  1  0  0  0
 34 35  1  0  0  0
 35 36  1  0  0  0
 34 24  1  0  0  0
 24 25  2  0  0  0
 25 26  1  0  0  0
 26 27  2  0  0  0
 27 28  1  0  0  0
 28 29  2  0  0  0
 27 21  1  0  0  0
 21 22  2  0  0  0
 21 23  2  0  0  0
 21  1  1  0  0  0
  1  3  1  0  0  0
  3  4  2  0  0  0
  4  5  1  0  0  0
  5  6  2  0  0  0
  6  7  1  0  0  0
  7  8  1  0  0  0
  8  9  2  0  0  0
  8 10  1  0  0  0
 10 11  2  0  0  0
 11 15  1  0  0  0
 15 16  2  0  0  0
 16 17  1  0  0  0
 17 18  2  0  0  0
 18 19  1  0  0  0
 19 20  2  0  0  0
 10 12  1  0  0  0
 12 13  2  0  0  0
 36 31  1  0  0  0
 29 24  1  0  0  0
 13  3  1  0  0  0
 12  6  1  0  0  0
 20 15  1  0  0  0
  1  2  1  0  0  0
  7 14  1  0  0  0
M  END
> <minimizedAffinity>
-9.44449

> <CNNscore>
0.4557007849

> <CNNaffinity>
6.5753087997

> <CNN_VS>
2.9963734150

> <CNNaffinity_variance>
0.1704811752

$$$$
[H]/C(=C1/C(=O)N([H])c2c([H])c([H])c(N([H])S(=O)(=O)c3c([H])c([H])c(N4C([H])([H])C([H])([H])N(C([H])([H])[H])C([H])([H])C4([H])[H])c([H])c3[H])c([H])c21)c1c([H])c([H])c([H])c([H])c1[H]


 36 40  0  0  0  0  0  0  0  0999 V2000
   -2.3229   21.5612  -22.1404 N   0  0  0  0  0  0  0  0  0  0  0  0
   -2.7866   20.6474  -21.9680 H   0  0  0  0  0  0  0  0  0  0  0  0
   -1.7901   21.8114  -23.4301 C   0  0  0  0  0  0  0  0  0  0  0  0
   -0.4565   21.5457  -23.6599 C   0  0  0  0  0  0  0  0  0  0  0  0
    0.1064   21.7730  -24.9014 C   0  0  0  0  0  0  0  0  0  0  0  0
   -0.6823   22.2732  -25.9230 C   0  0  0  0  0  0  0  0  0  0  0  0
   -0.3336   22.5834  -27.2629 N   0  0  0  0  0  0  0  0  0  0  0  0
   -1.5100   23.0794  -27.9408 C   0  0  0  0  0  0  0  0  0  0  0  0
   -1.5156   23.4416  -29.1434 O   0  0  0  0  0  0  0  0  0  0  0  0
   -2.5872   23.0632  -26.9809 C   0  0  0  0  0  0  0  0  0  0  0  0
   -3.8398   23.3963  -27.1405 C   0  0  0  0  0  0  0  0  0  0  0  0
   -2.0239   22.5537  -25.7362 C   0  0  0  0  0  0  0  0  0  0  0  0
   -2.5416   22.3086  -24.4725 C   0  0  0  0  0  0  0  0  0  0  0  0
    0.5917   22.4901  -27.7300 H   0  0  0  0  0  0  0  0  0  0  0  0
   -4.3838   23.8571  -28.3884 C   0  0  0  0  0  0  0  0  0  0  0  0
   -4.3453   25.1729  -28.7765 C   0  0  0  0  0  0  0  0  0  0  0  0
   -4.8877   25.5957  -29.9686 C   0  0  0  0  0  0  0  0  0  0  0  0
   -5.4899   24.6962  -30.8130 C   0  0  0  0  0  0  0  0  0  0  0  0
   -5.5292   23.3739  -30.4256 C   0  0  0  0  0  0  0  0  0  0  0  0
   -4.9915   22.9516  -29.2421 C   0  0  0  0  0  0  0  0  0  0  0  0
   -2.2389   22.6940  -20.8525 S   0  0  0  0  0  0  0  0  0  0  0  0
   -1.8254   24.0554  -21.3861 O   0  0  0  0  0  0  0  0  0  0  0  0
   -3.5877   22.9064  -20.2192 O   0  0  0  0  0  0  0  0  0  0  0  0
    0.7321   21.1037  -17.8178 C   0  0  0  0  0  0  0  0  0  0  0  0
    0.0417   20.2641  -18.6449 C   0  0  0  0  0  0  0  0  0  0  0  0
   -0.8762   20.7506  -19.5830 C   0  0  0  0  0  0  0  0  0  0  0  0
   -1.1026   22.0994  -19.6905 C   0  0  0  0  0  0  0  0  0  0  0  0
   -0.4126   22.9456  -18.8631 C   0  0  0  0  0  0  0  0  0  0  0  0
    0.5032   22.4634  -17.9269 C   0  0  0  0  0  0  0  0  0  0  0  0
    4.9614   19.8464  -15.8233 C   0  0  0  0  0  0  0  0  0  0  0  0
    3.6736   19.6094  -15.2490 N   0  0  0  0  0  0  0  0  0  0  0  0
    2.9188   18.6508  -15.9718 C   0  0  0  0  0  0  0  0  0  0  0  0
    1.6979   19.1729  -16.6538 C   0  0  0  0  0  0  0  0  0  0  0  0
    1.6645   20.5802  -16.8725 N   0  0  0  0  0  0  0  0  0  0  0  0
    2.5327   21.4914  -16.1742 C   0  0  0  0  0  0  0  0  0  0  0  0
    2.9770   20.8006  -14.8980 C   0  0  0  0  0  0  0  0  0  0  0  0
 30 31  1  0  0  0
 31 32  1  0  0  0
 32 33  1  0  0  0
 33 34  1  0  0  0
 34 35  1  0  0  0
 35 36  1  0  0  0
 34 24  1  0  0  0
 24 25  2  0  0  0
 25 26  1  0  0  0
 26 27  2  0  0  0
 27 28  1  0  0  0
 28 29  2  0  0  0
 27 21  1  0  0  0
 21 22  2  0  0  0
 21 23  2  0  0  0
 21  1  1  0  0  0
  1  3  1  0  0  0
  3  4  2  0  0  0
  4  5  1  0  0  0
  5  6  2  0  0  0
  6  7  1  0  0  0
  7  8  1  0  0  0
  8  9  2  0  0  0
  8 10  1  0  0  0
 10 11  2  0  0  0
 11 15  1  0  0  0
 15 16  2  0  0  0
 16 17  1  0  0  0
 17 18  2  0  0  0
 18 19  1  0  0  0
 19 20  2  0  0  0
 10 12  1  0  0  0
 12 13  2  0  0  0
 36 31  1  0  0  0
 29 24  1  0  0  0
 13  3  1  0  0  0
 12  6  1  0  0  0
 20 15  1  0  0  0
  1  2  1  0  0  0
  7 14  1  0  0  0
M  END
> <minimizedAffinity>
-9.50612

> <CNNscore>
0.4285790026

> <CNNaffinity>
6.5615549088

> <CNN_VS>
2.8121447563

> <CNNaffinity_variance>
0.2238255441

$$$$
[H]/C(=C1/C(=O)N([H])c2c([H])c([H])c(N([H])S(=O)(=O)c3c([H])c([H])c(N4C([H])([H])C([H])([H])N(C([H])([H])[H])C([H])([H])C4([H])[H])c([H])c3[H])c([H])c21)c1c([H])c([H])c([H])c([H])c1[H]


 36 40  0  0  0  0  0  0  0  0999 V2000
   -4.2298   22.9402  -27.8220 N   0  0  0  0  0  0  0  0  0  0  0  0
   -4.6653   22.1367  -28.3165 H   0  0  0  0  0  0  0  0  0  0  0  0
   -2.9014   22.7973  -27.3480 C   0  0  0  0  0  0  0  0  0  0  0  0
   -1.8578   23.0178  -28.2222 C   0  0  0  0  0  0  0  0  0  0  0  0
   -0.5465   22.8912  -27.8048 C   0  0  0  0  0  0  0  0  0  0  0  0
   -0.2830   22.5388  -26.4924 C   0  0  0  0  0  0  0  0  0  0  0  0
    0.9637   22.3507  -25.8416 N   0  0  0  0  0  0  0  0  0  0  0  0
    0.7132   21.9868  -24.4653 C   0  0  0  0  0  0  0  0  0  0  0  0
    1.6248   21.7507  -23.6341 O   0  0  0  0  0  0  0  0  0  0  0  0
   -0.7189   21.9585  -24.2913 C   0  0  0  0  0  0  0  0  0  0  0  0
   -1.4147   21.7070  -23.2151 C   0  0  0  0  0  0  0  0  0  0  0  0
   -1.2990   22.3084  -25.5825 C   0  0  0  0  0  0  0  0  0  0  0  0
   -2.5978   22.4482  -26.0502 C   0  0  0  0  0  0  0  0  0  0  0  0
    1.9218   22.4448  -26.2367 H   0  0  0  0  0  0  0  0  0  0  0  0
   -0.8215   21.4046  -21.9414 C   0  0  0  0  0  0  0  0  0  0  0  0
   -0.4198   20.1407  -21.5886 C   0  0  0  0  0  0  0  0  0  0  0  0
    0.1306   19.8699  -20.3566 C   0  0  0  0  0  0  0  0  0  0  0  0
    0.2943   20.8745  -19.4354 C   0  0  0  0  0  0  0  0  0  0  0  0
   -0.1079   22.1449  -19.7878 C   0  0  0  0  0  0  0  0  0  0  0  0
   -0.6549   22.4164  -21.0105 C   0  0  0  0  0  0  0  0  0  0  0  0
   -5.1514   24.3750  -27.6187 S   0  0  0  0  0  0  0  0  0  0  0  0
   -4.3022   25.5886  -27.9577 O   0  0  0  0  0  0  0  0  0  0  0  0
   -6.3133   24.4213  -28.5744 O   0  0  0  0  0  0  0  0  0  0  0  0
   -6.6072   24.4818  -23.3251 C   0  0  0  0  0  0  0  0  0  0  0  0
   -6.7043   23.3484  -24.0812 C   0  0  0  0  0  0  0  0  0  0  0  0
   -6.2562   23.3109  -25.4068 C   0  0  0  0  0  0  0  0  0  0  0  0
   -5.7032   24.4283  -25.9794 C   0  0  0  0  0  0  0  0  0  0  0  0
   -5.6037   25.5675  -25.2251 C   0  0  0  0  0  0  0  0  0  0  0  0
   -6.0495   25.6078  -23.9033 C   0  0  0  0  0  0  0  0  0  0  0  0
   -6.6512   23.7992  -18.5317 C   0  0  0  0  0  0  0  0  0  0  0  0
   -7.7259   24.3483  -19.2985 N   0  0  0  0  0  0  0  0  0  0  0  0
   -8.3316   23.3942  -20.1551 C   0  0  0  0  0  0  0  0  0  0  0  0
   -8.1496   23.6335  -21.6173 C   0  0  0  0  0  0  0  0  0  0  0  0
   -7.0694   24.4906  -21.9749 N   0  0  0  0  0  0  0  0  0  0  0  0
   -6.4307   25.3653  -21.0270 C   0  0  0  0  0  0  0  0  0  0  0  0
   -7.4170   25.6023  -19.8981 C   0  0  0  0  0  0  0  0  0  0  0  0
 30 31  1  0  0  0
 31 32  1  0  0  0
 32 33  1  0  0  0
 33 34  1  0  0  0
 34 35  1  0  0  0
 35 36  1  0  0  0
 34 24  1  0  0  0
 24 25  2  0  0  0
 25 26  1  0  0  0
 26 27  2  0  0  0
 27 28  1  0  0  0
 28 29  2  0  0  0
 27 21  1  0  0  0
 21 22  2  0  0  0
 21 23  2  0  0  0
 21  1  1  0  0  0
  1  3  1  0  0  0
  3  4  2  0  0  0
  4  5  1  0  0  0
  5  6  2  0  0  0
  6  7  1  0  0  0
  7  8  1  0  0  0
  8  9  2  0  0  0
  8 10  1  0  0  0
 10 11  2  0  0  0
 11 15  1  0  0  0
 15 16  2  0  0  0
 16 17  1  0  0  0
 17 18  2  0  0  0
 18 19  1  0  0  0
 19 20  2  0  0  0
 10 12  1  0  0  0
 12 13  2  0  0  0
 36 31  1  0  0  0
 29 24  1  0  0  0
 13  3  1  0  0  0
 12  6  1  0  0  0
 20 15  1  0  0  0
  1  2  1  0  0  0
  7 14  1  0  0  0
M  END
> <minimizedAffinity>
-9.99647

> <CNNscore>
0.4152568579

> <CNNaffinity>
6.9013199806

> <CNN_VS>
2.8658204079

> <CNNaffinity_variance>
0.1083150730

$$$$
[H]/C(=C1/C(=O)N([H])c2c([H])c([H])c(N([H])S(=O)(=O)c3c([H])c([H])c(N4C([H])([H])C([H])([H])N(C([H])([H])[H])C([H])([H])C4([H])[H])c([H])c3[H])c([H])c21)c1c([H])c([H])c([H])c([H])c1[H]


 36 40  0  0  0  0  0  0  0  0999 V2000
   -1.5397   21.3284  -22.2568 N   0  0  0  0  0  0  0  0  0  0  0  0
   -1.6313   20.3218  -22.0155 H   0  0  0  0  0  0  0  0  0  0  0  0
   -1.1320   21.6696  -23.5711 C   0  0  0  0  0  0  0  0  0  0  0  0
    0.1964   21.5250  -23.9122 C   0  0  0  0  0  0  0  0  0  0  0  0
    0.6396   21.8441  -25.1816 C   0  0  0  0  0  0  0  0  0  0  0  0
   -0.2648   22.3140  -26.1181 C   0  0  0  0  0  0  0  0  0  0  0  0
   -0.0488   22.7015  -27.4658 N   0  0  0  0  0  0  0  0  0  0  0  0
   -1.3110   23.1221  -28.0310 C   0  0  0  0  0  0  0  0  0  0  0  0
   -1.4405   23.5267  -29.2130 O   0  0  0  0  0  0  0  0  0  0  0  0
   -2.3045   22.9805  -26.9941 C   0  0  0  0  0  0  0  0  0  0  0  0
   -3.5885   23.2133  -27.0442 C   0  0  0  0  0  0  0  0  0  0  0  0
   -1.6057   22.4743  -25.8187 C   0  0  0  0  0  0  0  0  0  0  0  0
   -2.0008   22.1403  -24.5313 C   0  0  0  0  0  0  0  0  0  0  0  0
    0.8412   22.7032  -28.0051 H   0  0  0  0  0  0  0  0  0  0  0  0
   -4.2644   23.6728  -28.2264 C   0  0  0  0  0  0  0  0  0  0  0  0
   -4.7983   22.8183  -29.1581 C   0  0  0  0  0  0  0  0  0  0  0  0
   -5.4268   23.2796  -30.2923 C   0  0  0  0  0  0  0  0  0  0  0  0
   -5.5373   24.6285  -30.5226 C   0  0  0  0  0  0  0  0  0  0  0  0
   -5.0024   25.4887  -29.5878 C   0  0  0  0  0  0  0  0  0  0  0  0
   -4.3776   25.0331  -28.4608 C   0  0  0  0  0  0  0  0  0  0  0  0
   -1.8890   22.4967  -21.0476 S   0  0  0  0  0  0  0  0  0  0  0  0
   -0.8341   22.4429  -19.9552 O   0  0  0  0  0  0  0  0  0  0  0  0
   -1.8211   23.8953  -21.5996 O   0  0  0  0  0  0  0  0  0  0  0  0
   -6.0346   21.6161  -19.4338 C   0  0  0  0  0  0  0  0  0  0  0  0
   -5.7986   21.7089  -20.7760 C   0  0  0  0  0  0  0  0  0  0  0  0
   -4.5207   21.9804  -21.2785 C   0  0  0  0  0  0  0  0  0  0  0  0
   -3.4663   22.1611  -20.4196 C   0  0  0  0  0  0  0  0  0  0  0  0
   -3.6979   22.0692  -19.0725 C   0  0  0  0  0  0  0  0  0  0  0  0
   -4.9709   21.7985  -18.5687 C   0  0  0  0  0  0  0  0  0  0  0  0
   -9.9455   21.7197  -16.5809 C   0  0  0  0  0  0  0  0  0  0  0  0
   -9.8101   20.9373  -17.7700 N   0  0  0  0  0  0  0  0  0  0  0  0
   -8.8615   19.8920  -17.6334 C   0  0  0  0  0  0  0  0  0  0  0  0
   -7.6318   20.0242  -18.4693 C   0  0  0  0  0  0  0  0  0  0  0  0
   -7.3473   21.3350  -18.9494 N   0  0  0  0  0  0  0  0  0  0  0  0
   -8.3341   22.3826  -18.9667 C   0  0  0  0  0  0  0  0  0  0  0  0
   -9.6976   21.7164  -18.9565 C   0  0  0  0  0  0  0  0  0  0  0  0
 30 31  1  0  0  0
 31 32  1  0  0  0
 32 33  1  0  0  0
 33 34  1  0  0  0
 34 35  1  0  0  0
 35 36  1  0  0  0
 34 24  1  0  0  0
 24 25  2  0  0  0
 25 26  1  0  0  0
 26 27  2  0  0  0
 27 28  1  0  0  0
 28 29  2  0  0  0
 27 21  1  0  0  0
 21 22  2  0  0  0
 21 23  2  0  0  0
 21  1  1  0  0  0
  1  3  1  0  0  0
  3  4  2  0  0  0
  4  5  1  0  0  0
  5  6  2  0  0  0
  6  7  1  0  0  0
  7  8  1  0  0  0
  8  9  2  0  0  0
  8 10  1  0  0  0
 10 11  2  0  0  0
 11 15  1  0  0  0
 15 16  2  0  0  0
 16 17  1  0  0  0
 17 18  2  0  0  0
 18 19  1  0  0  0
 19 20  2  0  0  0
 10 12  1  0  0  0
 12 13  2  0  0  0
 36 31  1  0  0  0
 29 24  1  0  0  0
 13  3  1  0  0  0
 12  6  1  0  0  0
 20 15  1  0  0  0
  1  2  1  0  0  0
  7 14  1  0  0  0
M  END
> <minimizedAffinity>
-10.00214

> <CNNscore>
0.3772410452

> <CNNaffinity>
6.6055550575

> <CNN_VS>
2.4918863773

> <CNNaffinity_variance>
0.1200686917

$$$$
[H]/C(=C1/C(=O)N([H])c2c([H])c([H])c(N([H])S(=O)(=O)c3c([H])c([H])c(N4C([H])([H])C([H])([H])N(C([H])([H])[H])C([H])([H])C4([H])[H])c([H])c3[H])c([H])c21)c1c([H])c([H])c([H])c([H])c1[H]


 36 40  0  0  0  0  0  0  0  0999 V2000
   -2.4996   21.5610  -22.0837 N   0  0  0  0  0  0  0  0  0  0  0  0
   -3.3257   20.9342  -22.0181 H   0  0  0  0  0  0  0  0  0  0  0  0
   -1.9449   21.8095  -23.3645 C   0  0  0  0  0  0  0  0  0  0  0  0
   -0.6093   21.5367  -23.5734 C   0  0  0  0  0  0  0  0  0  0  0  0
   -0.0255   21.7620  -24.8055 C   0  0  0  0  0  0  0  0  0  0  0  0
   -0.7950   22.2677  -25.8389 C   0  0  0  0  0  0  0  0  0  0  0  0
   -0.4232   22.5773  -27.1727 N   0  0  0  0  0  0  0  0  0  0  0  0
   -1.5859   23.0805  -27.8688 C   0  0  0  0  0  0  0  0  0  0  0  0
   -1.5704   23.4440  -29.0709 O   0  0  0  0  0  0  0  0  0  0  0  0
   -2.6784   23.0694  -26.9262 C   0  0  0  0  0  0  0  0  0  0  0  0
   -3.9264   23.4096  -27.1054 C   0  0  0  0  0  0  0  0  0  0  0  0
   -2.1378   22.5555  -25.6733 C   0  0  0  0  0  0  0  0  0  0  0  0
   -2.6769   22.3119  -24.4182 C   0  0  0  0  0  0  0  0  0  0  0  0
    0.5088   22.4793  -27.6252 H   0  0  0  0  0  0  0  0  0  0  0  0
   -4.4479   23.8747  -28.3612 C   0  0  0  0  0  0  0  0  0  0  0  0
   -4.4360   25.1970  -28.7282 C   0  0  0  0  0  0  0  0  0  0  0  0
   -4.9563   25.6233  -29.9289 C   0  0  0  0  0  0  0  0  0  0  0  0
   -5.5086   24.7208  -30.8036 C   0  0  0  0  0  0  0  0  0  0  0  0
   -5.5211   23.3920  -30.4374 C   0  0  0  0  0  0  0  0  0  0  0  0
   -5.0052   22.9662  -29.2456 C   0  0  0  0  0  0  0  0  0  0  0  0
   -1.8727   22.2454  -20.6388 S   0  0  0  0  0  0  0  0  0  0  0  0
   -0.6027   21.5182  -20.2296 O   0  0  0  0  0  0  0  0  0  0  0  0
   -1.4634   23.6793  -20.8429 O   0  0  0  0  0  0  0  0  0  0  0  0
   -5.0469   21.9429  -17.4141 C   0  0  0  0  0  0  0  0  0  0  0  0
   -3.8489   22.5551  -17.1779 C   0  0  0  0  0  0  0  0  0  0  0  0
   -2.8664   22.6508  -18.1703 C   0  0  0  0  0  0  0  0  0  0  0  0
   -3.0918   22.1236  -19.4166 C   0  0  0  0  0  0  0  0  0  0  0  0
   -4.2918   21.5085  -19.6584 C   0  0  0  0  0  0  0  0  0  0  0  0
   -5.2732   21.4117  -18.6710 C   0  0  0  0  0  0  0  0  0  0  0  0
   -9.3870   21.9272  -15.2675 C   0  0  0  0  0  0  0  0  0  0  0  0
   -8.1322   21.7889  -14.5962 N   0  0  0  0  0  0  0  0  0  0  0  0
   -7.3608   22.9786  -14.6251 C   0  0  0  0  0  0  0  0  0  0  0  0
   -6.1001   22.9101  -15.4215 C   0  0  0  0  0  0  0  0  0  0  0  0
   -6.0319   21.8626  -16.3845 N   0  0  0  0  0  0  0  0  0  0  0  0
   -6.9161   20.7273  -16.3551 C   0  0  0  0  0  0  0  0  0  0  0  0
   -7.4323   20.5958  -14.9340 C   0  0  0  0  0  0  0  0  0  0  0  0
 30 31  1  0  0  0
 31 32  1  0  0  0
 32 33  1  0  0  0
 33 34  1  0  0  0
 34 35  1  0  0  0
 35 36  1  0  0  0
 34 24  1  0  0  0
 24 25  2  0  0  0
 25 26  1  0  0  0
 26 27  2  0  0  0
 27 28  1  0  0  0
 28 29  2  0  0  0
 27 21  1  0  0  0
 21 22  2  0  0  0
 21 23  2  0  0  0
 21  1  1  0  0  0
  1  3  1  0  0  0
  3  4  2  0  0  0
  4  5  1  0  0  0
  5  6  2  0  0  0
  6  7  1  0  0  0
  7  8  1  0  0  0
  8  9  2  0  0  0
  8 10  1  0  0  0
 10 11  2  0  0  0
 11 15  1  0  0  0
 15 16  2  0  0  0
 16 17  1  0  0  0
 17 18  2  0  0  0
 18 19  1  0  0  0
 19 20  2  0  0  0
 10 12  1  0  0  0
 12 13  2  0  0  0
 36 31  1  0  0  0
 29 24  1  0  0  0
 13  3  1  0  0  0
 12  6  1  0  0  0
 20 15  1  0  0  0
  1  2  1  0  0  0
  7 14  1  0  0  0
M  END
> <minimizedAffinity>
-9.56669

> <CNNscore>
0.3479891419

> <CNNaffinity>
6.4953169823

> <CNN_VS>
2.2602996826

> <CNNaffinity_variance>
0.3440847695

$$$$
[H]/C(=C1/C(=O)N([H])c2c([H])c([H])c(N([H])S(=O)(=O)c3c([H])c([H])c(N4C([H])([H])C([H])([H])N(C([H])([H])[H])C([H])([H])C4([H])[H])c([H])c3[H])c([H])c21)c1c([H])c([H])c([H])c([H])c1[H]


 36 40  0  0  0  0  0  0  0  0999 V2000
   -2.3185   21.2161  -22.2443 N   0  0  0  0  0  0  0  0  0  0  0  0
   -2.6500   20.2389  -22.1220 H   0  0  0  0  0  0  0  0  0  0  0  0
   -1.7883   21.5930  -23.5040 C   0  0  0  0  0  0  0  0  0  0  0  0
   -0.4318   21.4665  -23.7175 C   0  0  0  0  0  0  0  0  0  0  0  0
    0.1296   21.8204  -24.9297 C   0  0  0  0  0  0  0  0  0  0  0  0
   -0.6840   22.3070  -25.9382 C   0  0  0  0  0  0  0  0  0  0  0  0
   -0.3418   22.7295  -27.2487 N   0  0  0  0  0  0  0  0  0  0  0  0
   -1.5471   23.1549  -27.9237 C   0  0  0  0  0  0  0  0  0  0  0  0
   -1.5651   23.5880  -29.1026 O   0  0  0  0  0  0  0  0  0  0  0  0
   -2.6353   22.9804  -26.9923 C   0  0  0  0  0  0  0  0  0  0  0  0
   -3.9105   23.2051  -27.1615 C   0  0  0  0  0  0  0  0  0  0  0  0
   -2.0491   22.4501  -25.7669 C   0  0  0  0  0  0  0  0  0  0  0  0
   -2.5642   22.0812  -24.5325 C   0  0  0  0  0  0  0  0  0  0  0  0
    0.5964   22.7510  -27.6985 H   0  0  0  0  0  0  0  0  0  0  0  0
   -4.4727   23.6891  -28.3924 C   0  0  0  0  0  0  0  0  0  0  0  0
   -5.0066   22.8574  -29.3446 C   0  0  0  0  0  0  0  0  0  0  0  0
   -5.5246   23.3407  -30.5245 C   0  0  0  0  0  0  0  0  0  0  0  0
   -5.5203   24.6892  -30.7816 C   0  0  0  0  0  0  0  0  0  0  0  0
   -4.9852   25.5266  -29.8264 C   0  0  0  0  0  0  0  0  0  0  0  0
   -4.4700   25.0491  -28.6540 C   0  0  0  0  0  0  0  0  0  0  0  0
   -2.4389   22.2954  -20.9139 S   0  0  0  0  0  0  0  0  0  0  0  0
   -2.8988   23.6615  -21.3951 O   0  0  0  0  0  0  0  0  0  0  0  0
   -3.4878   21.8436  -19.9335 O   0  0  0  0  0  0  0  0  0  0  0  0
    1.6376   22.4952  -18.9373 C   0  0  0  0  0  0  0  0  0  0  0  0
    1.2847   21.4443  -19.7353 C   0  0  0  0  0  0  0  0  0  0  0  0
    0.0276   21.3786  -20.3474 C   0  0  0  0  0  0  0  0  0  0  0  0
   -0.8865   22.3831  -20.1542 C   0  0  0  0  0  0  0  0  0  0  0  0
   -0.5373   23.4392  -19.3546 C   0  0  0  0  0  0  0  0  0  0  0  0
    0.7153   23.5075  -18.7431 C   0  0  0  0  0  0  0  0  0  0  0  0
    5.6887   24.2993  -16.9933 C   0  0  0  0  0  0  0  0  0  0  0  0
    5.4148   22.9101  -17.1924 N   0  0  0  0  0  0  0  0  0  0  0  0
    5.3877   22.5475  -18.5631 C   0  0  0  0  0  0  0  0  0  0  0  0
    4.0573   22.1248  -19.0918 C   0  0  0  0  0  0  0  0  0  0  0  0
    2.9276   22.5377  -18.3282 N   0  0  0  0  0  0  0  0  0  0  0  0
    3.0395   22.9922  -16.9672 C   0  0  0  0  0  0  0  0  0  0  0  0
    4.3307   22.4238  -16.4077 C   0  0  0  0  0  0  0  0  0  0  0  0
 30 31  1  0  0  0
 31 32  1  0  0  0
 32 33  1  0  0  0
 33 34  1  0  0  0
 34 35  1  0  0  0
 35 36  1  0  0  0
 34 24  1  0  0  0
 24 25  2  0  0  0
 25 26  1  0  0  0
 26 27  2  0  0  0
 27 28  1  0  0  0
 28 29  2  0  0  0
 27 21  1  0  0  0
 21 22  2  0  0  0
 21 23  2  0  0  0
 21  1  1  0  0  0
  1  3  1  0  0  0
  3  4  2  0  0  0
  4  5  1  0  0  0
  5  6  2  0  0  0
  6  7  1  0  0  0
  7  8  1  0  0  0
  8  9  2  0  0  0
  8 10  1  0  0  0
 10 11  2  0  0  0
 11 15  1  0  0  0
 15 16  2  0  0  0
 16 17  1  0  0  0
 17 18  2  0  0  0
 18 19  1  0  0  0
 19 20  2  0  0  0
 10 12  1  0  0  0
 12 13  2  0  0  0
 36 31  1  0  0  0
 29 24  1  0  0  0
 13  3  1  0  0  0
 12  6  1  0  0  0
 20 15  1  0  0  0
  1  2  1  0  0  0
  7 14  1  0  0  0
M  END
> <minimizedAffinity>
-10.41062

> <CNNscore>
0.3343297541

> <CNNaffinity>
6.5546760559

> <CNN_VS>
2.1914231777

> <CNNaffinity_variance>
0.0920568556

$$$$
[H]/C(=C1/C(=O)N([H])c2c([H])c([H])c(N([H])S(=O)(=O)c3c([H])c([H])c(N4C([H])([H])C([H])([H])N(C([H])([H])[H])C([H])([H])C4([H])[H])c([H])c3[H])c([H])c21)c1c([H])c([H])c([H])c([H])c1[H]


 36 40  0  0  0  0  0  0  0  0999 V2000
   -2.1012   21.1073  -22.8151 N   0  0  0  0  0  0  0  0  0  0  0  0
   -2.0425   20.0782  -22.6839 H   0  0  0  0  0  0  0  0  0  0  0  0
   -3.3115   21.6532  -23.3122 C   0  0  0  0  0  0  0  0  0  0  0  0
   -4.4097   21.6995  -22.4793 C   0  0  0  0  0  0  0  0  0  0  0  0
   -5.6101   22.2236  -22.9199 C   0  0  0  0  0  0  0  0  0  0  0  0
   -5.7058   22.7067  -24.2135 C   0  0  0  0  0  0  0  0  0  0  0  0
   -6.8169   23.2830  -24.8815 N   0  0  0  0  0  0  0  0  0  0  0  0
   -6.4153   23.6302  -26.2260 C   0  0  0  0  0  0  0  0  0  0  0  0
   -7.1866   24.1576  -27.0653 O   0  0  0  0  0  0  0  0  0  0  0  0
   -5.0293   23.2523  -26.3622 C   0  0  0  0  0  0  0  0  0  0  0  0
   -4.2320   23.3945  -27.3866 C   0  0  0  0  0  0  0  0  0  0  0  0
   -4.6296   22.6797  -25.0821 C   0  0  0  0  0  0  0  0  0  0  0  0
   -3.4471   22.1439  -24.5925 C   0  0  0  0  0  0  0  0  0  0  0  0
   -7.7769   23.4509  -24.5166 H   0  0  0  0  0  0  0  0  0  0  0  0
   -4.6355   24.0000  -28.6260 C   0  0  0  0  0  0  0  0  0  0  0  0
   -4.4715   25.3367  -28.8894 C   0  0  0  0  0  0  0  0  0  0  0  0
   -4.8807   25.8996  -30.0768 C   0  0  0  0  0  0  0  0  0  0  0  0
   -5.4724   25.1242  -31.0429 C   0  0  0  0  0  0  0  0  0  0  0  0
   -5.6376   23.7811  -30.7808 C   0  0  0  0  0  0  0  0  0  0  0  0
   -5.2322   23.2199  -29.6024 C   0  0  0  0  0  0  0  0  0  0  0  0
   -0.7307   22.0638  -22.4202 S   0  0  0  0  0  0  0  0  0  0  0  0
    0.0400   22.4112  -23.6829 O   0  0  0  0  0  0  0  0  0  0  0  0
   -1.1365   23.3850  -21.8241 O   0  0  0  0  0  0  0  0  0  0  0  0
    1.8109   19.7181  -19.4870 C   0  0  0  0  0  0  0  0  0  0  0  0
    0.7122   20.4174  -19.0755 C   0  0  0  0  0  0  0  0  0  0  0  0
   -0.0752   21.1427  -19.9773 C   0  0  0  0  0  0  0  0  0  0  0  0
    0.2470   21.1650  -21.3107 C   0  0  0  0  0  0  0  0  0  0  0  0
    1.3482   20.4651  -21.7284 C   0  0  0  0  0  0  0  0  0  0  0  0
    2.1350   19.7410  -20.8315 C   0  0  0  0  0  0  0  0  0  0  0  0
    5.6377   17.5299  -17.4838 C   0  0  0  0  0  0  0  0  0  0  0  0
    4.3210   17.5661  -16.9274 N   0  0  0  0  0  0  0  0  0  0  0  0
    3.3867   16.8100  -17.6800 C   0  0  0  0  0  0  0  0  0  0  0  0
    2.3180   17.5992  -18.3607 C   0  0  0  0  0  0  0  0  0  0  0  0
    2.5939   18.9845  -18.5459 N   0  0  0  0  0  0  0  0  0  0  0  0
    3.6289   19.6702  -17.8179 C   0  0  0  0  0  0  0  0  0  0  0  0
    3.8945   18.8724  -16.5545 C   0  0  0  0  0  0  0  0  0  0  0  0
 30 31  1  0  0  0
 31 32  1  0  0  0
 32 33  1  0  0  0
 33 34  1  0  0  0
 34 35  1  0  0  0
 35 36  1  0  0  0
 34 24  1  0  0  0
 24 25  2  0  0  0
 25 26  1  0  0  0
 26 27  2  0  0  0
 27 28  1  0  0  0
 28 29  2  0  0  0
 27 21  1  0  0  0
 21 22  2  0  0  0
 21 23  2  0  0  0
 21  1  1  0  0  0
  1  3  1  0  0  0
  3  4  2  0  0  0
  4  5  1  0  0  0
  5  6  2  0  0  0
  6  7  1  0  0  0
  7  8  1  0  0  0
  8  9  2  0  0  0
  8 10  1  0  0  0
 10 11  2  0  0  0
 11 15  1  0  0  0
 15 16  2  0  0  0
 16 17  1  0  0  0
 17 18  2  0  0  0
 18 19  1  0  0  0
 19 20  2  0  0  0
 10 12  1  0  0  0
 12 13  2  0  0  0
 36 31  1  0  0  0
 29 24  1  0  0  0
 13  3  1  0  0  0
 12  6  1  0  0  0
 20 15  1  0  0  0
  1  2  1  0  0  0
  7 14  1  0  0  0
M  END
> <minimizedAffinity>
-8.45309

> <CNNscore>
0.2850560546

> <CNNaffinity>
6.3935484886

> <CNN_VS>
1.8225196600

> <CNNaffinity_variance>
0.1613756120

$$$$
[H]/C(=C1/C(=O)N([H])c2c([H])c([H])c(N([H])S(=O)(=O)c3c([H])c([H])c(N4C([H])([H])C([H])([H])N(C([H])([H])[H])C([H])([H])C4([H])[H])c([H])c3[H])c([H])c21)c1c([H])c([H])c([H])c([H])c1[H]


 36 40  0  0  0  0  0  0  0  0999 V2000
   -5.0215   22.6393  -20.7573 N   0  0  0  0  0  0  0  0  0  0  0  0
   -4.3074   21.9561  -21.0781 H   0  0  0  0  0  0  0  0  0  0  0  0
   -5.8439   23.2590  -21.7318 C   0  0  0  0  0  0  0  0  0  0  0  0
   -7.0563   23.7857  -21.3388 C   0  0  0  0  0  0  0  0  0  0  0  0
   -7.8906   24.3999  -22.2534 C   0  0  0  0  0  0  0  0  0  0  0  0
   -7.4998   24.4847  -23.5785 C   0  0  0  0  0  0  0  0  0  0  0  0
   -8.1776   25.0605  -24.6840 N   0  0  0  0  0  0  0  0  0  0  0  0
   -7.3565   24.8969  -25.8624 C   0  0  0  0  0  0  0  0  0  0  0  0
   -7.6919   25.3034  -27.0025 O   0  0  0  0  0  0  0  0  0  0  0  0
   -6.1585   24.2073  -25.4482 C   0  0  0  0  0  0  0  0  0  0  0  0
   -5.1173   23.8635  -26.1575 C   0  0  0  0  0  0  0  0  0  0  0  0
   -6.2927   23.9700  -24.0158 C   0  0  0  0  0  0  0  0  0  0  0  0
   -5.4910   23.3634  -23.0595 C   0  0  0  0  0  0  0  0  0  0  0  0
   -9.1055   25.5314  -24.7017 H   0  0  0  0  0  0  0  0  0  0  0  0
   -4.9874   24.1444  -27.5610 C   0  0  0  0  0  0  0  0  0  0  0  0
   -4.4178   25.2975  -28.0396 C   0  0  0  0  0  0  0  0  0  0  0  0
   -4.3188   25.5544  -29.3881 C   0  0  0  0  0  0  0  0  0  0  0  0
   -4.7950   24.6478  -30.3024 C   0  0  0  0  0  0  0  0  0  0  0  0
   -5.3670   23.4885  -29.8240 C   0  0  0  0  0  0  0  0  0  0  0  0
   -5.4667   23.2312  -28.4854 C   0  0  0  0  0  0  0  0  0  0  0  0
   -5.1495   22.9630  -19.0756 S   0  0  0  0  0  0  0  0  0  0  0  0
   -3.7921   22.8007  -18.4121 O   0  0  0  0  0  0  0  0  0  0  0  0
   -5.5504   24.3911  -18.8204 O   0  0  0  0  0  0  0  0  0  0  0  0
   -8.2242   20.1244  -17.3281 C   0  0  0  0  0  0  0  0  0  0  0  0
   -8.5578   21.3978  -17.6927 C   0  0  0  0  0  0  0  0  0  0  0  0
   -7.6121   22.2772  -18.2326 C   0  0  0  0  0  0  0  0  0  0  0  0
   -6.3136   21.8705  -18.4078 C   0  0  0  0  0  0  0  0  0  0  0  0
   -5.9741   20.5943  -18.0435 C   0  0  0  0  0  0  0  0  0  0  0  0
   -6.9149   19.7152  -17.5051 C   0  0  0  0  0  0  0  0  0  0  0  0
  -11.4862   16.5558  -17.0647 C   0  0  0  0  0  0  0  0  0  0  0  0
  -11.1547   17.4530  -16.0019 N   0  0  0  0  0  0  0  0  0  0  0  0
  -11.5786   18.7825  -16.2543 C   0  0  0  0  0  0  0  0  0  0  0  0
  -10.4864   19.7821  -16.4443 C   0  0  0  0  0  0  0  0  0  0  0  0
   -9.2098   19.2479  -16.7830 N   0  0  0  0  0  0  0  0  0  0  0  0
   -8.8779   17.8604  -16.5930 C   0  0  0  0  0  0  0  0  0  0  0  0
   -9.8172   17.3141  -15.5336 C   0  0  0  0  0  0  0  0  0  0  0  0
 30 31  1  0  0  0
 31 32  1  0  0  0
 32 33  1  0  0  0
 33 34  1  0  0  0
 34 35  1  0  0  0
 35 36  1  0  0  0
 34 24  1  0  0  0
 24 25  2  0  0  0
 25 26  1  0  0  0
 26 27  2  0  0  0
 27 28  1  0  0  0
 28 29  2  0  0  0
 27 21  1  0  0  0
 21 22  2  0  0  0
 21 23  2  0  0  0
 21  1  1  0  0  0
  1  3  1  0  0  0
  3  4  2  0  0  0
  4  5  1  0  0  0
  5  6  2  0  0  0
  6  7  1  0  0  0
  7  8  1  0  0  0
  8  9  2  0  0  0
  8 10  1  0  0  0
 10 11  2  0  0  0
 11 15  1  0  0  0
 15 16  2  0  0  0
 16 17  1  0  0  0
 17 18  2  0  0  0
 18 19  1  0  0  0
 19 20  2  0  0  0
 10 12  1  0  0  0
 12 13  2  0  0  0
 36 31  1  0  0  0
 29 24  1  0  0  0
 13  3  1  0  0  0
 12  6  1  0  0  0
 20 15  1  0  0  0
  1  2  1  0  0  0
  7 14  1  0  0  0
M  END
> <minimizedAffinity>
-8.03034

> <CNNscore>
0.2313162982

> <CNNaffinity>
6.0845217705

> <CNN_VS>
1.4074490070

> <CNNaffinity_variance>
0.1325418800

$$$$
[H]c1c([H])c(S(=O)(=O)N([H])c2c([H])c(C(F)(F)F)c([H])c(C(F)(F)F)c2[H])c([H])c([H])c1OC([H])([H])[H]


 27 28  0  0  0  0  0  0  0  0999 V2000
   -2.9469   23.4661  -27.8497 C   0  0  0  0  0  0  0  0  0  0  0  0
   -3.3600   24.1773  -26.7169 C   0  0  0  0  0  0  0  0  0  0  0  0
   -4.2405   25.1728  -26.6828 C   0  0  0  0  0  0  0  0  0  0  0  0
   -4.7925   25.5571  -27.9351 C   0  0  0  0  0  0  0  0  0  0  0  0
   -4.4587   24.9076  -29.1509 C   0  0  0  0  0  0  0  0  0  0  0  0
   -3.5319   23.8704  -28.9517 C   0  0  0  0  0  0  0  0  0  0  0  0
   -5.0181   25.2751  -30.4556 C   0  0  0  0  0  0  0  0  0  0  0  0
   -4.0987   25.8273  -31.3324 F   0  0  0  0  0  0  0  0  0  0  0  0
   -5.6467   24.2201  -31.1155 F   0  0  0  0  0  0  0  0  0  0  0  0
   -5.9666   26.2766  -30.2417 F   0  0  0  0  0  0  0  0  0  0  0  0
   -4.7097   25.7794  -25.4155 C   0  0  0  0  0  0  0  0  0  0  0  0
   -6.0553   25.8003  -25.2675 F   0  0  0  0  0  0  0  0  0  0  0  0
   -4.1235   25.0785  -24.3663 F   0  0  0  0  0  0  0  0  0  0  0  0
   -4.1812   27.0981  -25.3093 F   0  0  0  0  0  0  0  0  0  0  0  0
   -1.9234   22.5161  -27.7242 N   0  0  0  0  0  0  0  0  0  0  0  0
   -2.2271   21.5323  -28.2446 H   0  0  0  0  0  0  0  0  0  0  0  0
   -0.4286   22.3941  -27.0189 S   0  0  0  0  0  0  0  0  0  0  0  0
    0.4739   21.3661  -27.7466 O   0  0  0  0  0  0  0  0  0  0  0  0
    0.2780   23.7567  -27.0722 O   0  0  0  0  0  0  0  0  0  0  0  0
   -0.6884   21.5194  -22.4908 C   0  0  0  0  0  0  0  0  0  0  0  0
    0.3575   21.6594  -23.2891 C   0  0  0  0  0  0  0  0  0  0  0  0
    0.6176   21.8573  -24.6228 C   0  0  0  0  0  0  0  0  0  0  0  0
   -0.5490   21.9350  -25.3385 C   0  0  0  0  0  0  0  0  0  0  0  0
   -1.8131   21.7945  -24.6346 C   0  0  0  0  0  0  0  0  0  0  0  0
   -1.8918   21.5964  -23.2636 C   0  0  0  0  0  0  0  0  0  0  0  0
   -0.3381   22.2641  -20.1973 C   0  0  0  0  0  0  0  0  0  0  0  0
   -0.4375   21.3676  -21.2169 O   0  0  0  0  0  0  0  0  0  0  0  0
 26 27  1  0  0  0
 27 20  1  0  0  0
 20 21  2  0  0  0
 21 22  1  0  0  0
 22 23  2  0  0  0
 23 24  1  0  0  0
 24 25  2  0  0  0
 23 17  1  0  0  0
 17 18  2  0  0  0
 17 19  2  0  0  0
 17 15  1  0  0  0
 15  1  1  0  0  0
  1  2  2  0  0  0
  2  3  1  0  0  0
  3  4  2  0  0  0
  4  5  1  0  0  0
  5  6  2  0  0  0
  5  7  1  0  0  0
  7  8  1  0  0  0
  7  9  1  0  0  0
  7 10  1  0  0  0
  3 11  1  0  0  0
 11 12  1  0  0  0
 11 13  1  0  0  0
 11 14  1  0  0  0
 25 20  1  0  0  0
  6  1  1  0  0  0
 15 16  1  0  0  0
M  END
> <minimizedAffinity>
-8.06672

> <CNNscore>
0.4348058403

> <CNNaffinity>
6.0256338120

> <CNN_VS>
2.6199808121

> <CNNaffinity_variance>
0.3134117126

$$$$
[H]c1c([H])c(S(=O)(=O)N([H])c2c([H])c(C(F)(F)F)c([H])c(C(F)(F)F)c2[H])c([H])c([H])c1OC([H])([H])[H]


 27 28  0  0  0  0  0  0  0  0999 V2000
   -5.0978   23.5094  -25.7412 C   0  0  0  0  0  0  0  0  0  0  0  0
   -5.0409   24.7951  -25.1905 C   0  0  0  0  0  0  0  0  0  0  0  0
   -4.7270   25.9183  -25.8288 C   0  0  0  0  0  0  0  0  0  0  0  0
   -4.3961   25.7794  -27.2042 C   0  0  0  0  0  0  0  0  0  0  0  0
   -4.4251   24.5310  -27.8767 C   0  0  0  0  0  0  0  0  0  0  0  0
   -4.8072   23.4849  -27.0199 C   0  0  0  0  0  0  0  0  0  0  0  0
   -4.0983   24.3579  -29.2956 C   0  0  0  0  0  0  0  0  0  0  0  0
   -5.1237   23.8148  -30.0523 F   0  0  0  0  0  0  0  0  0  0  0  0
   -3.6876   25.5318  -29.9256 F   0  0  0  0  0  0  0  0  0  0  0  0
   -3.0541   23.4353  -29.3792 F   0  0  0  0  0  0  0  0  0  0  0  0
   -4.8187   27.2513  -25.1894 C   0  0  0  0  0  0  0  0  0  0  0  0
   -3.6809   27.6616  -24.5813 F   0  0  0  0  0  0  0  0  0  0  0  0
   -5.1958   28.1665  -26.1672 F   0  0  0  0  0  0  0  0  0  0  0  0
   -5.8999   27.2470  -24.2619 F   0  0  0  0  0  0  0  0  0  0  0  0
   -5.3389   22.4153  -24.8983 N   0  0  0  0  0  0  0  0  0  0  0  0
   -6.4712   22.2034  -24.8345 H   0  0  0  0  0  0  0  0  0  0  0  0
   -4.4708   21.3696  -23.9496 S   0  0  0  0  0  0  0  0  0  0  0  0
   -4.8828   21.4610  -22.4586 O   0  0  0  0  0  0  0  0  0  0  0  0
   -4.7177   19.9270  -24.4152 O   0  0  0  0  0  0  0  0  0  0  0  0
    0.1154   21.8121  -24.2758 C   0  0  0  0  0  0  0  0  0  0  0  0
   -0.6608   21.5661  -23.2328 C   0  0  0  0  0  0  0  0  0  0  0  0
   -1.9995   21.4607  -22.9457 C   0  0  0  0  0  0  0  0  0  0  0  0
   -2.7550   21.6698  -24.0703 C   0  0  0  0  0  0  0  0  0  0  0  0
   -2.0792   21.9657  -25.3229 C   0  0  0  0  0  0  0  0  0  0  0  0
   -0.6979   22.0344  -25.4336 C   0  0  0  0  0  0  0  0  0  0  0  0
    2.1653   21.1070  -23.1629 C   0  0  0  0  0  0  0  0  0  0  0  0
    1.4054   21.7855  -24.0659 O   0  0  0  0  0  0  0  0  0  0  0  0
 26 27  1  0  0  0
 27 20  1  0  0  0
 20 21  2  0  0  0
 21 22  1  0  0  0
 22 23  2  0  0  0
 23 24  1  0  0  0
 24 25  2  0  0  0
 23 17  1  0  0  0
 17 18  2  0  0  0
 17 19  2  0  0  0
 17 15  1  0  0  0
 15  1  1  0  0  0
  1  2  2  0  0  0
  2  3  1  0  0  0
  3  4  2  0  0  0
  4  5  1  0  0  0
  5  6  2  0  0  0
  5  7  1  0  0  0
  7  8  1  0  0  0
  7  9  1  0  0  0
  7 10  1  0  0  0
  3 11  1  0  0  0
 11 12  1  0  0  0
 11 13  1  0  0  0
 11 14  1  0  0  0
 25 20  1  0  0  0
  6  1  1  0  0  0
 15 16  1  0  0  0
M  END
> <minimizedAffinity>
-7.98160

> <CNNscore>
0.3871473968

> <CNNaffinity>
5.8665399551

> <CNN_VS>
2.2712156773

> <CNNaffinity_variance>
0.1951813698

$$$$
[H]c1c([H])c(S(=O)(=O)N([H])c2c([H])c(C(F)(F)F)c([H])c(C(F)(F)F)c2[H])c([H])c([H])c1OC([H])([H])[H]


 27 28  0  0  0  0  0  0  0  0999 V2000
   -3.3559   23.0141  -27.4220 C   0  0  0  0  0  0  0  0  0  0  0  0
   -1.9596   22.9292  -27.3702 C   0  0  0  0  0  0  0  0  0  0  0  0
   -1.2325   22.4088  -26.3863 C   0  0  0  0  0  0  0  0  0  0  0  0
   -1.9609   21.9133  -25.2707 C   0  0  0  0  0  0  0  0  0  0  0  0
   -3.3776   21.9363  -25.2097 C   0  0  0  0  0  0  0  0  0  0  0  0
   -3.9411   22.5047  -26.3646 C   0  0  0  0  0  0  0  0  0  0  0  0
   -4.1565   21.4246  -24.0776 C   0  0  0  0  0  0  0  0  0  0  0  0
   -4.9212   20.3078  -24.3730 F   0  0  0  0  0  0  0  0  0  0  0  0
   -3.3861   21.1214  -22.9559 F   0  0  0  0  0  0  0  0  0  0  0  0
   -5.0751   22.4115  -23.7161 F   0  0  0  0  0  0  0  0  0  0  0  0
    0.2371   22.2481  -26.4797 C   0  0  0  0  0  0  0  0  0  0  0  0
    0.7834   21.4980  -25.4940 F   0  0  0  0  0  0  0  0  0  0  0  0
    0.5254   21.6905  -27.7214 F   0  0  0  0  0  0  0  0  0  0  0  0
    0.8431   23.5369  -26.5125 F   0  0  0  0  0  0  0  0  0  0  0  0
   -3.9597   23.6959  -28.4880 N   0  0  0  0  0  0  0  0  0  0  0  0
   -3.5371   23.3184  -29.4928 H   0  0  0  0  0  0  0  0  0  0  0  0
   -5.0739   24.9023  -28.7124 S   0  0  0  0  0  0  0  0  0  0  0  0
   -4.4815   26.1004  -29.4963 O   0  0  0  0  0  0  0  0  0  0  0  0
   -6.2642   24.3598  -29.5172 O   0  0  0  0  0  0  0  0  0  0  0  0
   -6.5633   26.1792  -24.5307 C   0  0  0  0  0  0  0  0  0  0  0  0
   -7.0248   25.2728  -25.3770 C   0  0  0  0  0  0  0  0  0  0  0  0
   -6.7565   24.8124  -26.6425 C   0  0  0  0  0  0  0  0  0  0  0  0
   -5.6977   25.4889  -27.1907 C   0  0  0  0  0  0  0  0  0  0  0  0
   -5.0576   26.5367  -26.4125 C   0  0  0  0  0  0  0  0  0  0  0  0
   -5.4647   26.8757  -25.1302 C   0  0  0  0  0  0  0  0  0  0  0  0
   -8.2237   25.5853  -22.8490 C   0  0  0  0  0  0  0  0  0  0  0  0
   -7.1520   26.2470  -23.3655 O   0  0  0  0  0  0  0  0  0  0  0  0
 26 27  1  0  0  0
 27 20  1  0  0  0
 20 21  2  0  0  0
 21 22  1  0  0  0
 22 23  2  0  0  0
 23 24  1  0  0  0
 24 25  2  0  0  0
 23 17  1  0  0  0
 17 18  2  0  0  0
 17 19  2  0  0  0
 17 15  1  0  0  0
 15  1  1  0  0  0
  1  2  2  0  0  0
  2  3  1  0  0  0
  3  4  2  0  0  0
  4  5  1  0  0  0
  5  6  2  0  0  0
  5  7  1  0  0  0
  7  8  1  0  0  0
  7  9  1  0  0  0
  7 10  1  0  0  0
  3 11  1  0  0  0
 11 12  1  0  0  0
 11 13  1  0  0  0
 11 14  1  0  0  0
 25 20  1  0  0  0
  6  1  1  0  0  0
 15 16  1  0  0  0
M  END
> <minimizedAffinity>
-9.26461

> <CNNscore>
0.3843526840

> <CNNaffinity>
6.2532167435

> <CNN_VS>
2.4034407139

> <CNNaffinity_variance>
0.2447146624

$$$$
[H]c1c([H])c(S(=O)(=O)N([H])c2c([H])c(C(F)(F)F)c([H])c(C(F)(F)F)c2[H])c([H])c([H])c1OC([H])([H])[H]


 27 28  0  0  0  0  0  0  0  0999 V2000
   -3.2863   22.2425  -25.7051 C   0  0  0  0  0  0  0  0  0  0  0  0
   -4.1831   22.6687  -26.6919 C   0  0  0  0  0  0  0  0  0  0  0  0
   -3.8752   23.0936  -27.9135 C   0  0  0  0  0  0  0  0  0  0  0  0
   -2.4891   23.1350  -28.2258 C   0  0  0  0  0  0  0  0  0  0  0  0
   -1.4856   22.7217  -27.3127 C   0  0  0  0  0  0  0  0  0  0  0  0
   -2.0348   22.2867  -26.0946 C   0  0  0  0  0  0  0  0  0  0  0  0
   -0.0497   22.7441  -27.6093 C   0  0  0  0  0  0  0  0  0  0  0  0
    0.5388   21.4911  -27.6615 F   0  0  0  0  0  0  0  0  0  0  0  0
    0.2700   23.4081  -28.7927 F   0  0  0  0  0  0  0  0  0  0  0  0
    0.5886   23.4043  -26.5580 F   0  0  0  0  0  0  0  0  0  0  0  0
   -4.9041   23.4030  -28.9332 C   0  0  0  0  0  0  0  0  0  0  0  0
   -4.7460   24.6004  -29.5448 F   0  0  0  0  0  0  0  0  0  0  0  0
   -4.8904   22.3789  -29.8749 F   0  0  0  0  0  0  0  0  0  0  0  0
   -6.1925   23.3231  -28.3307 F   0  0  0  0  0  0  0  0  0  0  0  0
   -3.7737   21.9303  -24.4281 N   0  0  0  0  0  0  0  0  0  0  0  0
   -4.4971   21.0335  -24.4860 H   0  0  0  0  0  0  0  0  0  0  0  0
   -3.6333   22.4985  -22.8775 S   0  0  0  0  0  0  0  0  0  0  0  0
   -2.5196   21.7642  -22.0892 O   0  0  0  0  0  0  0  0  0  0  0  0
   -3.2776   23.9923  -22.9074 O   0  0  0  0  0  0  0  0  0  0  0  0
   -7.5661   21.7212  -20.5829 C   0  0  0  0  0  0  0  0  0  0  0  0
   -7.3073   21.7395  -21.8804 C   0  0  0  0  0  0  0  0  0  0  0  0
   -6.2504   21.9994  -22.7176 C   0  0  0  0  0  0  0  0  0  0  0  0
   -5.1334   22.3376  -21.9984 C   0  0  0  0  0  0  0  0  0  0  0  0
   -5.2213   22.3824  -20.5481 C   0  0  0  0  0  0  0  0  0  0  0  0
   -6.3867   22.0853  -19.8563 C   0  0  0  0  0  0  0  0  0  0  0  0
   -9.6508   21.9061  -19.3350 C   0  0  0  0  0  0  0  0  0  0  0  0
   -8.7758   21.3726  -20.2310 O   0  0  0  0  0  0  0  0  0  0  0  0
 26 27  1  0  0  0
 27 20  1  0  0  0
 20 21  2  0  0  0
 21 22  1  0  0  0
 22 23  2  0  0  0
 23 24  1  0  0  0
 24 25  2  0  0  0
 23 17  1  0  0  0
 17 18  2  0  0  0
 17 19  2  0  0  0
 17 15  1  0  0  0
 15  1  1  0  0  0
  1  2  2  0  0  0
  2  3  1  0  0  0
  3  4  2  0  0  0
  4  5  1  0  0  0
  5  6  2  0  0  0
  5  7  1  0  0  0
  7  8  1  0  0  0
  7  9  1  0  0  0
  7 10  1  0  0  0
  3 11  1  0  0  0
 11 12  1  0  0  0
 11 13  1  0  0  0
 11 14  1  0  0  0
 25 20  1  0  0  0
  6  1  1  0  0  0
 15 16  1  0  0  0
M  END
> <minimizedAffinity>
-8.15375

> <CNNscore>
0.3181741238

> <CNNaffinity>
5.7848672867

> <CNN_VS>
1.8405951262

> <CNNaffinity_variance>
0.4778450429

$$$$
[H]c1c([H])c(S(=O)(=O)N([H])c2c([H])c(C(F)(F)F)c([H])c(C(F)(F)F)c2[H])c([H])c([H])c1OC([H])([H])[H]


 27 28  0  0  0  0  0  0  0  0999 V2000
   -3.2719   23.1561  -27.4840 C   0  0  0  0  0  0  0  0  0  0  0  0
   -3.8977   22.5863  -26.3690 C   0  0  0  0  0  0  0  0  0  0  0  0
   -3.3029   21.9512  -25.3638 C   0  0  0  0  0  0  0  0  0  0  0  0
   -1.8899   21.8268  -25.4569 C   0  0  0  0  0  0  0  0  0  0  0  0
   -1.1427   22.3689  -26.5335 C   0  0  0  0  0  0  0  0  0  0  0  0
   -1.9677   23.0184  -27.4672 C   0  0  0  0  0  0  0  0  0  0  0  0
    0.3152   22.2648  -26.6523 C   0  0  0  0  0  0  0  0  0  0  0  0
    0.9009   21.4151  -25.7281 F   0  0  0  0  0  0  0  0  0  0  0  0
    0.7499   21.8730  -27.9176 F   0  0  0  0  0  0  0  0  0  0  0  0
    0.8522   23.5246  -26.3824 F   0  0  0  0  0  0  0  0  0  0  0  0
   -4.0390   21.4937  -24.1625 C   0  0  0  0  0  0  0  0  0  0  0  0
   -4.7955   20.3876  -24.3552 F   0  0  0  0  0  0  0  0  0  0  0  0
   -3.1075   21.2669  -23.1542 F   0  0  0  0  0  0  0  0  0  0  0  0
   -4.8442   22.5638  -23.6768 F   0  0  0  0  0  0  0  0  0  0  0  0
   -4.0616   23.6935  -28.5102 N   0  0  0  0  0  0  0  0  0  0  0  0
   -3.8694   23.1292  -29.4980 H   0  0  0  0  0  0  0  0  0  0  0  0
   -5.1586   24.9191  -28.7144 S   0  0  0  0  0  0  0  0  0  0  0  0
   -4.5542   26.1146  -29.4930 O   0  0  0  0  0  0  0  0  0  0  0  0
   -6.3642   24.4024  -29.5133 O   0  0  0  0  0  0  0  0  0  0  0  0
   -6.5874   26.1849  -24.5082 C   0  0  0  0  0  0  0  0  0  0  0  0
   -7.0637   25.2838  -25.3519 C   0  0  0  0  0  0  0  0  0  0  0  0
   -6.8140   24.8276  -26.6228 C   0  0  0  0  0  0  0  0  0  0  0  0
   -5.7598   25.5020  -27.1822 C   0  0  0  0  0  0  0  0  0  0  0  0
   -5.1053   26.5441  -26.4084 C   0  0  0  0  0  0  0  0  0  0  0  0
   -5.4940   26.8795  -25.1194 C   0  0  0  0  0  0  0  0  0  0  0  0
   -8.2023   25.5623  -22.7931 C   0  0  0  0  0  0  0  0  0  0  0  0
   -7.1603   26.2504  -23.3351 O   0  0  0  0  0  0  0  0  0  0  0  0
 26 27  1  0  0  0
 27 20  1  0  0  0
 20 21  2  0  0  0
 21 22  1  0  0  0
 22 23  2  0  0  0
 23 24  1  0  0  0
 24 25  2  0  0  0
 23 17  1  0  0  0
 17 18  2  0  0  0
 17 19  2  0  0  0
 17 15  1  0  0  0
 15  1  1  0  0  0
  1  2  2  0  0  0
  2  3  1  0  0  0
  3  4  2  0  0  0
  4  5  1  0  0  0
  5  6  2  0  0  0
  5  7  1  0  0  0
  7  8  1  0  0  0
  7  9  1  0  0  0
  7 10  1  0  0  0
  3 11  1  0  0  0
 11 12  1  0  0  0
 11 13  1  0  0  0
 11 14  1  0  0  0
 25 20  1  0  0  0
  6  1  1  0  0  0
 15 16  1  0  0  0
M  END
> <minimizedAffinity>
-9.20060

> <CNNscore>
0.3173166513

> <CNNaffinity>
6.2277169228

> <CNN_VS>
1.9761582613

> <CNNaffinity_variance>
0.2498153448

$$$$
[H]c1c([H])c(S(=O)(=O)N([H])c2c([H])c(C(F)(F)F)c([H])c(C(F)(F)F)c2[H])c([H])c([H])c1OC([H])([H])[H]


 27 28  0  0  0  0  0  0  0  0999 V2000
   -3.4507   22.8108  -25.7510 C   0  0  0  0  0  0  0  0  0  0  0  0
   -2.0905   22.7516  -26.0767 C   0  0  0  0  0  0  0  0  0  0  0  0
   -1.5633   22.8131  -27.2956 C   0  0  0  0  0  0  0  0  0  0  0  0
   -2.4894   22.9275  -28.3679 C   0  0  0  0  0  0  0  0  0  0  0  0
   -3.8908   23.0047  -28.1646 C   0  0  0  0  0  0  0  0  0  0  0  0
   -4.2248   22.9471  -26.8009 C   0  0  0  0  0  0  0  0  0  0  0  0
   -4.8694   23.1324  -29.2491 C   0  0  0  0  0  0  0  0  0  0  0  0
   -4.7393   24.2906  -29.9978 F   0  0  0  0  0  0  0  0  0  0  0  0
   -4.8699   22.0567  -30.1360 F   0  0  0  0  0  0  0  0  0  0  0  0
   -6.1360   23.2131  -28.6680 F   0  0  0  0  0  0  0  0  0  0  0  0
   -0.1018   22.8709  -27.5304 C   0  0  0  0  0  0  0  0  0  0  0  0
    0.5973   23.5090  -26.5625 F   0  0  0  0  0  0  0  0  0  0  0  0
    0.3578   21.5653  -27.6715 F   0  0  0  0  0  0  0  0  0  0  0  0
    0.1405   23.4784  -28.7960 F   0  0  0  0  0  0  0  0  0  0  0  0
   -3.8430   22.6191  -24.4187 N   0  0  0  0  0  0  0  0  0  0  0  0
   -4.5893   21.7424  -24.3454 H   0  0  0  0  0  0  0  0  0  0  0  0
   -3.5680   23.3084  -22.9367 S   0  0  0  0  0  0  0  0  0  0  0  0
   -3.2176   24.8133  -23.0531 O   0  0  0  0  0  0  0  0  0  0  0  0
   -4.8310   23.1881  -22.0712 O   0  0  0  0  0  0  0  0  0  0  0  0
    0.0797   21.3207  -20.9171 C   0  0  0  0  0  0  0  0  0  0  0  0
   -0.6123   20.9764  -21.9910 C   0  0  0  0  0  0  0  0  0  0  0  0
   -1.7216   21.3981  -22.6819 C   0  0  0  0  0  0  0  0  0  0  0  0
   -2.2742   22.5018  -22.0856 C   0  0  0  0  0  0  0  0  0  0  0  0
   -1.6573   23.0289  -20.8795 C   0  0  0  0  0  0  0  0  0  0  0  0
   -0.5226   22.4695  -20.3097 C   0  0  0  0  0  0  0  0  0  0  0  0
    2.0384   19.9704  -21.4441 C   0  0  0  0  0  0  0  0  0  0  0  0
    1.1349   20.5993  -20.6433 O   0  0  0  0  0  0  0  0  0  0  0  0
 26 27  1  0  0  0
 27 20  1  0  0  0
 20 21  2  0  0  0
 21 22  1  0  0  0
 22 23  2  0  0  0
 23 24  1  0  0  0
 24 25  2  0  0  0
 23 17  1  0  0  0
 17 18  2  0  0  0
 17 19  2  0  0  0
 17 15  1  0  0  0
 15  1  1  0  0  0
  1  2  2  0  0  0
  2  3  1  0  0  0
  3  4  2  0  0  0
  4  5  1  0  0  0
  5  6  2  0  0  0
  5  7  1  0  0  0
  7  8  1  0  0  0
  7  9  1  0  0  0
  7 10  1  0  0  0
  3 11  1  0  0  0
 11 12  1  0  0  0
 11 13  1  0  0  0
 11 14  1  0  0  0
 25 20  1  0  0  0
  6  1  1  0  0  0
 15 16  1  0  0  0
M  END
> <minimizedAffinity>
-8.38628

> <CNNscore>
0.2948861718

> <CNNaffinity>
5.6441578865

> <CNN_VS>
1.6643841267

> <CNNaffinity_variance>
0.3946196437

$$$$
[H]c1c([H])c(S(=O)(=O)N([H])c2c([H])c(C(F)(F)F)c([H])c(C(F)(F)F)c2[H])c([H])c([H])c1OC([H])([H])[H]


 27 28  0  0  0  0  0  0  0  0999 V2000
   -3.3649   22.8923  -25.7191 C   0  0  0  0  0  0  0  0  0  0  0  0
   -2.0115   22.7266  -26.0363 C   0  0  0  0  0  0  0  0  0  0  0  0
   -1.4774   22.7175  -27.2538 C   0  0  0  0  0  0  0  0  0  0  0  0
   -2.3895   22.8698  -28.3334 C   0  0  0  0  0  0  0  0  0  0  0  0
   -3.7824   23.0532  -28.1391 C   0  0  0  0  0  0  0  0  0  0  0  0
   -4.1238   23.0562  -26.7761 C   0  0  0  0  0  0  0  0  0  0  0  0
   -4.7458   23.2222  -29.2316 C   0  0  0  0  0  0  0  0  0  0  0  0
   -4.5489   24.3642  -29.9907 F   0  0  0  0  0  0  0  0  0  0  0  0
   -4.7984   22.1392  -30.1079 F   0  0  0  0  0  0  0  0  0  0  0  0
   -6.0099   23.3766  -28.6600 F   0  0  0  0  0  0  0  0  0  0  0  0
   -0.0149   22.6636  -27.4827 C   0  0  0  0  0  0  0  0  0  0  0  0
    0.3483   22.6295  -28.7865 F   0  0  0  0  0  0  0  0  0  0  0  0
    0.5542   23.7677  -26.8559 F   0  0  0  0  0  0  0  0  0  0  0  0
    0.5212   21.5392  -26.7916 F   0  0  0  0  0  0  0  0  0  0  0  0
   -3.7742   22.7650  -24.3843 N   0  0  0  0  0  0  0  0  0  0  0  0
   -3.0192   23.2859  -23.6846 H   0  0  0  0  0  0  0  0  0  0  0  0
   -5.0055   22.0569  -23.5301 S   0  0  0  0  0  0  0  0  0  0  0  0
   -5.4454   20.7093  -24.1558 O   0  0  0  0  0  0  0  0  0  0  0  0
   -4.5396   21.7755  -22.0939 O   0  0  0  0  0  0  0  0  0  0  0  0
   -8.4909   25.0556  -23.0877 C   0  0  0  0  0  0  0  0  0  0  0  0
   -8.0033   24.1609  -22.2436 C   0  0  0  0  0  0  0  0  0  0  0  0
   -7.0439   23.1787  -22.2224 C   0  0  0  0  0  0  0  0  0  0  0  0
   -6.3997   23.1034  -23.4301 C   0  0  0  0  0  0  0  0  0  0  0  0
   -6.8032   24.0051  -24.4965 C   0  0  0  0  0  0  0  0  0  0  0  0
   -7.8070   24.9503  -24.3418 C   0  0  0  0  0  0  0  0  0  0  0  0
  -10.7929   25.7232  -22.6493 C   0  0  0  0  0  0  0  0  0  0  0  0
   -9.4364   25.8358  -22.6338 O   0  0  0  0  0  0  0  0  0  0  0  0
 26 27  1  0  0  0
 27 20  1  0  0  0
 20 21  2  0  0  0
 21 22  1  0  0  0
 22 23  2  0  0  0
 23 24  1  0  0  0
 24 25  2  0  0  0
 23 17  1  0  0  0
 17 18  2  0  0  0
 17 19  2  0  0  0
 17 15  1  0  0  0
 15  1  1  0  0  0
  1  2  2  0  0  0
  2  3  1  0  0  0
  3  4  2  0  0  0
  4  5  1  0  0  0
  5  6  2  0  0  0
  5  7  1  0  0  0
  7  8  1  0  0  0
  7  9  1  0  0  0
  7 10  1  0  0  0
  3 11  1  0  0  0
 11 12  1  0  0  0
 11 13  1  0  0  0
 11 14  1  0  0  0
 25 20  1  0  0  0
  6  1  1  0  0  0
 15 16  1  0  0  0
M  END
> <minimizedAffinity>
-8.78119

> <CNNscore>
0.2904686928

> <CNNaffinity>
5.6925196648

> <CNN_VS>
1.6534987688

> <CNNaffinity_variance>
0.4830648005

$$$$
[H]c1c([H])c(S(=O)(=O)N([H])c2c([H])c(C(F)(F)F)c([H])c(C(F)(F)F)c2[H])c([H])c([H])c1OC([H])([H])[H]


 27 28  0  0  0  0  0  0  0  0999 V2000
   -3.4286   22.6917  -25.8181 C   0  0  0  0  0  0  0  0  0  0  0  0
   -4.2831   22.9280  -26.9015 C   0  0  0  0  0  0  0  0  0  0  0  0
   -3.9254   23.1087  -28.1691 C   0  0  0  0  0  0  0  0  0  0  0  0
   -2.5285   23.0787  -28.4308 C   0  0  0  0  0  0  0  0  0  0  0  0
   -1.5646   22.8401  -27.4182 C   0  0  0  0  0  0  0  0  0  0  0  0
   -2.1634   22.6507  -26.1612 C   0  0  0  0  0  0  0  0  0  0  0  0
   -0.1189   22.7941  -27.6589 C   0  0  0  0  0  0  0  0  0  0  0  0
    0.2453   23.0276  -28.9749 F   0  0  0  0  0  0  0  0  0  0  0  0
    0.6128   23.6704  -26.8587 F   0  0  0  0  0  0  0  0  0  0  0  0
    0.3140   21.4957  -27.3846 F   0  0  0  0  0  0  0  0  0  0  0  0
   -4.9125   23.2251  -29.2675 C   0  0  0  0  0  0  0  0  0  0  0  0
   -4.7699   24.3309  -30.0354 F   0  0  0  0  0  0  0  0  0  0  0  0
   -4.8116   22.0808  -30.0525 F   0  0  0  0  0  0  0  0  0  0  0  0
   -6.2257   23.1720  -28.7179 F   0  0  0  0  0  0  0  0  0  0  0  0
   -3.9658   22.6336  -24.5244 N   0  0  0  0  0  0  0  0  0  0  0  0
   -4.8577   21.9024  -24.4958 H   0  0  0  0  0  0  0  0  0  0  0  0
   -3.7077   23.3351  -23.0451 S   0  0  0  0  0  0  0  0  0  0  0  0
   -3.3826   24.8451  -23.1681 O   0  0  0  0  0  0  0  0  0  0  0  0
   -4.9715   23.1978  -22.1833 O   0  0  0  0  0  0  0  0  0  0  0  0
   -0.0354   21.4074  -21.0121 C   0  0  0  0  0  0  0  0  0  0  0  0
   -0.7474   21.0255  -22.0599 C   0  0  0  0  0  0  0  0  0  0  0  0
   -1.8663   21.4261  -22.7477 C   0  0  0  0  0  0  0  0  0  0  0  0
   -2.4034   22.5551  -22.1855 C   0  0  0  0  0  0  0  0  0  0  0  0
   -1.7633   23.1252  -21.0114 C   0  0  0  0  0  0  0  0  0  0  0  0
   -0.6217   22.5822  -20.4397 C   0  0  0  0  0  0  0  0  0  0  0  0
    2.2186   20.5494  -21.3596 C   0  0  0  0  0  0  0  0  0  0  0  0
    1.0209   20.6914  -20.7284 O   0  0  0  0  0  0  0  0  0  0  0  0
 26 27  1  0  0  0
 27 20  1  0  0  0
 20 21  2  0  0  0
 21 22  1  0  0  0
 22 23  2  0  0  0
 23 24  1  0  0  0
 24 25  2  0  0  0
 23 17  1  0  0  0
 17 18  2  0  0  0
 17 19  2  0  0  0
 17 15  1  0  0  0
 15  1  1  0  0  0
  1  2  2  0  0  0
  2  3  1  0  0  0
  3  4  2  0  0  0
  4  5  1  0  0  0
  5  6  2  0  0  0
  5  7  1  0  0  0
  7  8  1  0  0  0
  7  9  1  0  0  0
  7 10  1  0  0  0
  3 11  1  0  0  0
 11 12  1  0  0  0
 11 13  1  0  0  0
 11 14  1  0  0  0
 25 20  1  0  0  0
  6  1  1  0  0  0
 15 16  1  0  0  0
M  END
> <minimizedAffinity>
-8.41013

> <CNNscore>
0.2685806751

> <CNNaffinity>
5.6464481354

> <CNN_VS>
1.5165268183

> <CNNaffinity_variance>
0.3796882927

$$$$
[H]c1c([H])c(S(=O)(=O)N([H])c2c([H])c(C(F)(F)F)c([H])c(C(F)(F)F)c2[H])c([H])c([H])c1OC([H])([H])[H]


 27 28  0  0  0  0  0  0  0  0999 V2000
   -3.4753   23.0245  -25.8349 C   0  0  0  0  0  0  0  0  0  0  0  0
   -4.3201   23.1374  -26.9454 C   0  0  0  0  0  0  0  0  0  0  0  0
   -3.9548   23.1330  -28.2237 C   0  0  0  0  0  0  0  0  0  0  0  0
   -2.5591   23.0250  -28.4706 C   0  0  0  0  0  0  0  0  0  0  0  0
   -1.6049   22.8968  -27.4293 C   0  0  0  0  0  0  0  0  0  0  0  0
   -2.2114   22.8986  -26.1618 C   0  0  0  0  0  0  0  0  0  0  0  0
   -0.1608   22.7743  -27.6529 C   0  0  0  0  0  0  0  0  0  0  0  0
    0.2377   23.0462  -28.9515 F   0  0  0  0  0  0  0  0  0  0  0  0
    0.6093   23.5663  -26.8026 F   0  0  0  0  0  0  0  0  0  0  0  0
    0.1888   21.4407  -27.4348 F   0  0  0  0  0  0  0  0  0  0  0  0
   -4.9360   23.1292  -29.3335 C   0  0  0  0  0  0  0  0  0  0  0  0
   -4.8632   24.2060  -30.1508 F   0  0  0  0  0  0  0  0  0  0  0  0
   -4.7467   21.9601  -30.0638 F   0  0  0  0  0  0  0  0  0  0  0  0
   -6.2479   23.0087  -28.7918 F   0  0  0  0  0  0  0  0  0  0  0  0
   -4.0163   23.1594  -24.5486 N   0  0  0  0  0  0  0  0  0  0  0  0
   -3.7447   24.1906  -24.1083 H   0  0  0  0  0  0  0  0  0  0  0  0
   -4.8990   22.2546  -23.4766 S   0  0  0  0  0  0  0  0  0  0  0  0
   -5.8074   21.2260  -24.1962 O   0  0  0  0  0  0  0  0  0  0  0  0
   -3.9481   21.4751  -22.5563 O   0  0  0  0  0  0  0  0  0  0  0  0
   -7.7220   24.6267  -20.6945 C   0  0  0  0  0  0  0  0  0  0  0  0
   -7.8882   24.1910  -21.9328 C   0  0  0  0  0  0  0  0  0  0  0  0
   -7.1653   23.5428  -22.9037 C   0  0  0  0  0  0  0  0  0  0  0  0
   -5.8990   23.2620  -22.4598 C   0  0  0  0  0  0  0  0  0  0  0  0
   -5.5203   23.6728  -21.1178 C   0  0  0  0  0  0  0  0  0  0  0  0
   -6.3906   24.3282  -20.2588 C   0  0  0  0  0  0  0  0  0  0  0  0
  -10.0684   24.8442  -20.0748 C   0  0  0  0  0  0  0  0  0  0  0  0
   -8.7544   25.1954  -20.1294 O   0  0  0  0  0  0  0  0  0  0  0  0
 26 27  1  0  0  0
 27 20  1  0  0  0
 20 21  2  0  0  0
 21 22  1  0  0  0
 22 23  2  0  0  0
 23 24  1  0  0  0
 24 25  2  0  0  0
 23 17  1  0  0  0
 17 18  2  0  0  0
 17 19  2  0  0  0
 17 15  1  0  0  0
 15  1  1  0  0  0
  1  2  2  0  0  0
  2  3  1  0  0  0
  3  4  2  0  0  0
  4  5  1  0  0  0
  5  6  2  0  0  0
  5  7  1  0  0  0
  7  8  1  0  0  0
  7  9  1  0  0  0
  7 10  1  0  0  0
  3 11  1  0  0  0
 11 12  1  0  0  0
 11 13  1  0  0  0
 11 14  1  0  0  0
 25 20  1  0  0  0
  6  1  1  0  0  0
 15 16  1  0  0  0
M  END
> <minimizedAffinity>
-8.40453

> <CNNscore>
0.2660469115

> <CNNaffinity>
5.5460777283

> <CNN_VS>
1.4755167961

> <CNNaffinity_variance>
0.4532032013

$$$$
[H]OC(=O)c1c([H])c([H])c(-c2c([H])c3c([H])c(Oc4c([H])nc(S(=O)(=O)C([H])([H])[H])c([H])c4[H])c(C4([H])N(C([H])([H])[H])C(=O)C([H])([H])C4([H])[H])c([H])c3n2[H])c([H])c1[H]


 38 42  0  0  0  0  0  0  0  0999 V2000
   -3.5247   23.1255  -27.5510 C   0  0  0  0  0  0  0  0  0  0  0  0
   -4.6517   23.1492  -26.7794 C   0  0  0  0  0  0  0  0  0  0  0  0
   -4.6597   22.6577  -25.5083 C   0  0  0  0  0  0  0  0  0  0  0  0
   -5.6542   22.5846  -24.5817 N   0  0  0  0  0  0  0  0  0  0  0  0
   -5.1851   22.0143  -23.4585 C   0  0  0  0  0  0  0  0  0  0  0  0
   -3.8608   21.7231  -23.6896 C   0  0  0  0  0  0  0  0  0  0  0  0
   -3.5149   22.1176  -24.9632 C   0  0  0  0  0  0  0  0  0  0  0  0
   -2.3831   22.0966  -25.7400 C   0  0  0  0  0  0  0  0  0  0  0  0
   -2.3647   22.6044  -27.0551 C   0  0  0  0  0  0  0  0  0  0  0  0
   -6.6094   22.9197  -24.7380 H   0  0  0  0  0  0  0  0  0  0  0  0
   -5.6606   22.4642  -30.0474 C   0  0  0  0  0  0  0  0  0  0  0  0
   -4.9678   23.5621  -29.4208 N   0  0  0  0  0  0  0  0  0  0  0  0
   -3.5585   23.5796  -28.9785 C   0  0  0  0  0  0  0  0  0  0  0  0
   -3.1896   24.9975  -29.1650 C   0  0  0  0  0  0  0  0  0  0  0  0
   -4.4165   25.8085  -29.1503 C   0  0  0  0  0  0  0  0  0  0  0  0
   -5.5253   24.8314  -29.1156 C   0  0  0  0  0  0  0  0  0  0  0  0
   -6.7252   25.1016  -28.8610 O   0  0  0  0  0  0  0  0  0  0  0  0
   -5.9638   21.7692  -22.2383 C   0  0  0  0  0  0  0  0  0  0  0  0
   -7.3342   21.7446  -22.2682 C   0  0  0  0  0  0  0  0  0  0  0  0
   -8.0630   21.5128  -21.1319 C   0  0  0  0  0  0  0  0  0  0  0  0
   -7.4374   21.2951  -19.9127 C   0  0  0  0  0  0  0  0  0  0  0  0
   -6.0600   21.3242  -19.9051 C   0  0  0  0  0  0  0  0  0  0  0  0
   -5.3092   21.5555  -21.0358 C   0  0  0  0  0  0  0  0  0  0  0  0
   -8.2076   21.0452  -18.6924 C   0  0  0  0  0  0  0  0  0  0  0  0
   -8.7159   22.1119  -17.9947 O   0  0  0  0  0  0  0  0  0  0  0  0
   -8.3780   19.8622  -18.3241 O   0  0  0  0  0  0  0  0  0  0  0  0
   -9.6795   22.1283  -17.7405 H   0  0  0  0  0  0  0  0  0  0  0  0
   -1.1500   22.5167  -27.7118 O   0  0  0  0  0  0  0  0  0  0  0  0
   -0.3067   23.5514  -28.0252 C   0  0  0  0  0  0  0  0  0  0  0  0
   -0.3301   24.1131  -29.3016 C   0  0  0  0  0  0  0  0  0  0  0  0
    0.4951   25.1534  -29.6697 C   0  0  0  0  0  0  0  0  0  0  0  0
    1.3792   25.6624  -28.7465 C   0  0  0  0  0  0  0  0  0  0  0  0
    1.4050   25.1260  -27.5197 N   0  0  0  0  0  0  0  0  0  0  0  0
    0.6022   24.1098  -27.1520 C   0  0  0  0  0  0  0  0  0  0  0  0
    2.4251   26.9838  -29.2206 S   0  0  0  0  0  0  0  0  0  0  0  0
    3.5149   26.4767  -30.5215 C   0  0  0  0  0  0  0  0  0  0  0  0
    1.6593   28.1971  -29.6271 O   0  0  0  0  0  0  0  0  0  0  0  0
    3.3078   27.3706  -28.0455 O   0  0  0  0  0  0  0  0  0  0  0  0
 11 12  1  0  0  0
 12 13  1  0  0  0
 13 14  1  0  0  0
 14 15  1  0  0  0
 15 16  1  0  0  0
 16 17  2  0  0  0
 13  1  1  0  0  0
  1  2  2  0  0  0
  2  3  1  0  0  0
  3  4  1  0  0  0
  4  5  1  0  0  0
  5  6  2  0  0  0
  6  7  1  0  0  0
  7  8  1  0  0  0
  8  9  2  0  0  0
  9 28  1  0  0  0
 28 29  1  0  0  0
 29 30  2  0  0  0
 30 31  1  0  0  0
 31 32  2  0  0  0
 32 33  1  0  0  0
 33 34  2  0  0  0
 32 35  1  0  0  0
 35 36  1  0  0  0
 35 37  2  0  0  0
 35 38  2  0  0  0
  5 18  1  0  0  0
 18 19  2  0  0  0
 19 20  1  0  0  0
 20 21  2  0  0  0
 21 22  1  0  0  0
 22 23  2  0  0  0
 21 24  1  0  0  0
 24 25  1  0  0  0
 24 26  2  0  0  0
 16 12  1  0  0  0
  9  1  1  0  0  0
 34 29  1  0  0  0
 23 18  1  0  0  0
  7  3  2  0  0  0
  4 10  1  0  0  0
 25 27  1  0  0  0
M  END
> <minimizedAffinity>
9.69591

> <CNNscore>
0.5766809583

> <CNNaffinity>
6.9912781715

> <CNN_VS>
4.0317368507

> <CNNaffinity_variance>
0.4028897882

$$$$
[H]OC(=O)c1c([H])c([H])c(-c2c([H])c3c([H])c(Oc4c([H])nc(S(=O)(=O)C([H])([H])[H])c([H])c4[H])c(C4([H])N(C([H])([H])[H])C(=O)C([H])([H])C4([H])[H])c([H])c3n2[H])c([H])c1[H]


 38 42  0  0  0  0  0  0  0  0999 V2000
   -1.9816   17.3682  -17.0329 C   0  0  0  0  0  0  0  0  0  0  0  0
   -0.6685   17.7451  -17.0349 C   0  0  0  0  0  0  0  0  0  0  0  0
   -0.2997   19.0556  -17.0973 C   0  0  0  0  0  0  0  0  0  0  0  0
    0.9288   19.6415  -17.1100 N   0  0  0  0  0  0  0  0  0  0  0  0
    0.7927   20.9769  -17.1797 C   0  0  0  0  0  0  0  0  0  0  0  0
   -0.5585   21.2326  -17.2115 C   0  0  0  0  0  0  0  0  0  0  0  0
   -1.2561   20.0460  -17.1607 C   0  0  0  0  0  0  0  0  0  0  0  0
   -2.5750   19.6648  -17.1566 C   0  0  0  0  0  0  0  0  0  0  0  0
   -2.9661   18.3119  -17.0903 C   0  0  0  0  0  0  0  0  0  0  0  0
    1.8117   19.1234  -17.0715 H   0  0  0  0  0  0  0  0  0  0  0  0
   -3.2275   15.4472  -19.4800 C   0  0  0  0  0  0  0  0  0  0  0  0
   -2.2158   15.4454  -18.4532 N   0  0  0  0  0  0  0  0  0  0  0  0
   -2.3679   15.9209  -17.0629 C   0  0  0  0  0  0  0  0  0  0  0  0
   -1.4406   15.0379  -16.3270 C   0  0  0  0  0  0  0  0  0  0  0  0
   -0.4364   14.5207  -17.2691 C   0  0  0  0  0  0  0  0  0  0  0  0
   -0.8821   14.9822  -18.6009 C   0  0  0  0  0  0  0  0  0  0  0  0
   -0.1897   14.9574  -19.6485 O   0  0  0  0  0  0  0  0  0  0  0  0
    1.8957   21.9453  -17.2101 C   0  0  0  0  0  0  0  0  0  0  0  0
    2.5655   22.2164  -18.3751 C   0  0  0  0  0  0  0  0  0  0  0  0
    3.5926   23.1220  -18.4068 C   0  0  0  0  0  0  0  0  0  0  0  0
    3.9890   23.7947  -17.2599 C   0  0  0  0  0  0  0  0  0  0  0  0
    3.3028   23.5072  -16.1004 C   0  0  0  0  0  0  0  0  0  0  0  0
    2.2678   22.6008  -16.0473 C   0  0  0  0  0  0  0  0  0  0  0  0
    5.0852   24.7655  -17.2837 C   0  0  0  0  0  0  0  0  0  0  0  0
    5.8475   24.8825  -18.4187 O   0  0  0  0  0  0  0  0  0  0  0  0
    5.2920   25.4598  -16.2642 O   0  0  0  0  0  0  0  0  0  0  0  0
    6.0010   25.7790  -18.8264 H   0  0  0  0  0  0  0  0  0  0  0  0
   -4.3309   18.0844  -17.0913 O   0  0  0  0  0  0  0  0  0  0  0  0
   -5.3146   18.9786  -17.4269 C   0  0  0  0  0  0  0  0  0  0  0  0
   -6.1278   19.5306  -16.4372 C   0  0  0  0  0  0  0  0  0  0  0  0
   -7.1306   20.4327  -16.7187 C   0  0  0  0  0  0  0  0  0  0  0  0
   -7.3432   20.8076  -18.0254 C   0  0  0  0  0  0  0  0  0  0  0  0
   -6.5647   20.2800  -18.9788 N   0  0  0  0  0  0  0  0  0  0  0  0
   -5.5830   19.3983  -18.7123 C   0  0  0  0  0  0  0  0  0  0  0  0
   -8.6191   21.9538  -18.3763 S   0  0  0  0  0  0  0  0  0  0  0  0
   -9.9318   21.8016  -17.1971 C   0  0  0  0  0  0  0  0  0  0  0  0
   -8.1231   23.3594  -18.4238 O   0  0  0  0  0  0  0  0  0  0  0  0
   -9.2208   21.6335  -19.7345 O   0  0  0  0  0  0  0  0  0  0  0  0
 11 12  1  0  0  0
 12 13  1  0  0  0
 13 14  1  0  0  0
 14 15  1  0  0  0
 15 16  1  0  0  0
 16 17  2  0  0  0
 13  1  1  0  0  0
  1  2  2  0  0  0
  2  3  1  0  0  0
  3  4  1  0  0  0
  4  5  1  0  0  0
  5  6  2  0  0  0
  6  7  1  0  0  0
  7  8  1  0  0  0
  8  9  2  0  0  0
  9 28  1  0  0  0
 28 29  1  0  0  0
 29 30  2  0  0  0
 30 31  1  0  0  0
 31 32  2  0  0  0
 32 33  1  0  0  0
 33 34  2  0  0  0
 32 35  1  0  0  0
 35 36  1  0  0  0
 35 37  2  0  0  0
 35 38  2  0  0  0
  5 18  1  0  0  0
 18 19  2  0  0  0
 19 20  1  0  0  0
 20 21  2  0  0  0
 21 22  1  0  0  0
 22 23  2  0  0  0
 21 24  1  0  0  0
 24 25  1  0  0  0
 24 26  2  0  0  0
 16 12  1  0  0  0
  9  1  1  0  0  0
 34 29  1  0  0  0
 23 18  1  0  0  0
  7  3  2  0  0  0
  4 10  1  0  0  0
 25 27  1  0  0  0
M  END
> <minimizedAffinity>
-5.13393

> <CNNscore>
0.5438089371

> <CNNaffinity>
5.7931675911

> <CNN_VS>
3.1503763199

> <CNNaffinity_variance>
0.6723057032

$$$$
[H]OC(=O)c1c([H])c([H])c(-c2c([H])c3c([H])c(Oc4c([H])nc(S(=O)(=O)C([H])([H])[H])c([H])c4[H])c(C4([H])N(C([H])([H])[H])C(=O)C([H])([H])C4([H])[H])c([H])c3n2[H])c([H])c1[H]


 38 42  0  0  0  0  0  0  0  0999 V2000
   -2.4393   17.6722  -17.4459 C   0  0  0  0  0  0  0  0  0  0  0  0
   -1.1440   17.9798  -17.1401 C   0  0  0  0  0  0  0  0  0  0  0  0
   -0.6159   19.2063  -17.4122 C   0  0  0  0  0  0  0  0  0  0  0  0
    0.6276   19.7153  -17.1942 N   0  0  0  0  0  0  0  0  0  0  0  0
    0.6806   20.9844  -17.6338 C   0  0  0  0  0  0  0  0  0  0  0  0
   -0.5644   21.2766  -18.1405 C   0  0  0  0  0  0  0  0  0  0  0  0
   -1.3868   20.1794  -18.0107 C   0  0  0  0  0  0  0  0  0  0  0  0
   -2.6889   19.8683  -18.3154 C   0  0  0  0  0  0  0  0  0  0  0  0
   -3.2444   18.6031  -18.0359 C   0  0  0  0  0  0  0  0  0  0  0  0
    1.3933   19.1921  -16.7590 H   0  0  0  0  0  0  0  0  0  0  0  0
   -3.3142   15.2616  -19.6034 C   0  0  0  0  0  0  0  0  0  0  0  0
   -2.5683   15.4660  -18.3870 N   0  0  0  0  0  0  0  0  0  0  0  0
   -2.9746   16.2895  -17.2298 C   0  0  0  0  0  0  0  0  0  0  0  0
   -2.3470   15.5737  -16.1007 C   0  0  0  0  0  0  0  0  0  0  0  0
   -1.2230   14.7769  -16.6153 C   0  0  0  0  0  0  0  0  0  0  0  0
   -1.2989   14.9062  -18.0860 C   0  0  0  0  0  0  0  0  0  0  0  0
   -0.3952   14.5750  -18.8929 O   0  0  0  0  0  0  0  0  0  0  0  0
    1.8563   21.8611  -17.5661 C   0  0  0  0  0  0  0  0  0  0  0  0
    2.2637   22.4053  -16.3756 C   0  0  0  0  0  0  0  0  0  0  0  0
    3.3622   23.2207  -16.3091 C   0  0  0  0  0  0  0  0  0  0  0  0
    4.0988   23.5227  -17.4455 C   0  0  0  0  0  0  0  0  0  0  0  0
    3.6721   22.9656  -18.6310 C   0  0  0  0  0  0  0  0  0  0  0  0
    2.5709   22.1438  -18.7192 C   0  0  0  0  0  0  0  0  0  0  0  0
    5.2754   24.3925  -17.3846 C   0  0  0  0  0  0  0  0  0  0  0  0
    5.3672   25.3204  -16.3777 O   0  0  0  0  0  0  0  0  0  0  0  0
    6.1627   24.2609  -18.2562 O   0  0  0  0  0  0  0  0  0  0  0  0
    6.1916   25.3713  -15.8199 H   0  0  0  0  0  0  0  0  0  0  0  0
   -4.5700   18.4402  -18.3978 O   0  0  0  0  0  0  0  0  0  0  0  0
   -5.6719   18.8656  -17.7016 C   0  0  0  0  0  0  0  0  0  0  0  0
   -6.5031   17.9402  -17.0707 C   0  0  0  0  0  0  0  0  0  0  0  0
   -7.6226   18.3128  -16.3588 C   0  0  0  0  0  0  0  0  0  0  0  0
   -7.9383   19.6485  -16.2630 C   0  0  0  0  0  0  0  0  0  0  0  0
   -7.1429   20.5405  -16.8674 N   0  0  0  0  0  0  0  0  0  0  0  0
   -6.0476   20.1849  -17.5646 C   0  0  0  0  0  0  0  0  0  0  0  0
   -9.3621   20.1152  -15.3575 S   0  0  0  0  0  0  0  0  0  0  0  0
  -10.6529   20.6331  -16.4542 C   0  0  0  0  0  0  0  0  0  0  0  0
   -9.8471   19.0270  -14.4606 O   0  0  0  0  0  0  0  0  0  0  0  0
   -9.0304   21.3149  -14.4856 O   0  0  0  0  0  0  0  0  0  0  0  0
 11 12  1  0  0  0
 12 13  1  0  0  0
 13 14  1  0  0  0
 14 15  1  0  0  0
 15 16  1  0  0  0
 16 17  2  0  0  0
 13  1  1  0  0  0
  1  2  2  0  0  0
  2  3  1  0  0  0
  3  4  1  0  0  0
  4  5  1  0  0  0
  5  6  2  0  0  0
  6  7  1  0  0  0
  7  8  1  0  0  0
  8  9  2  0  0  0
  9 28  1  0  0  0
 28 29  1  0  0  0
 29 30  2  0  0  0
 30 31  1  0  0  0
 31 32  2  0  0  0
 32 33  1  0  0  0
 33 34  2  0  0  0
 32 35  1  0  0  0
 35 36  1  0  0  0
 35 37  2  0  0  0
 35 38  2  0  0  0
  5 18  1  0  0  0
 18 19  2  0  0  0
 19 20  1  0  0  0
 20 21  2  0  0  0
 21 22  1  0  0  0
 22 23  2  0  0  0
 21 24  1  0  0  0
 24 25  1  0  0  0
 24 26  2  0  0  0
 16 12  1  0  0  0
  9  1  1  0  0  0
 34 29  1  0  0  0
 23 18  1  0  0  0
  7  3  2  0  0  0
  4 10  1  0  0  0
 25 27  1  0  0  0
M  END
> <minimizedAffinity>
-4.50330

> <CNNscore>
0.5401373506

> <CNNaffinity>
5.7615504265

> <CNN_VS>
3.1120285988

> <CNNaffinity_variance>
0.8337238431

$$$$
[H]OC(=O)c1c([H])c([H])c(-c2c([H])c3c([H])c(Oc4c([H])nc(S(=O)(=O)C([H])([H])[H])c([H])c4[H])c(C4([H])N(C([H])([H])[H])C(=O)C([H])([H])C4([H])[H])c([H])c3n2[H])c([H])c1[H]


 38 42  0  0  0  0  0  0  0  0999 V2000
   -4.4861   17.8396  -16.6038 C   0  0  0  0  0  0  0  0  0  0  0  0
   -3.9081   17.3139  -17.7244 C   0  0  0  0  0  0  0  0  0  0  0  0
   -2.5945   17.5256  -18.0191 C   0  0  0  0  0  0  0  0  0  0  0  0
   -1.8306   17.1022  -19.0632 N   0  0  0  0  0  0  0  0  0  0  0  0
   -0.5767   17.5662  -18.9238 C   0  0  0  0  0  0  0  0  0  0  0  0
   -0.5567   18.2998  -17.7604 C   0  0  0  0  0  0  0  0  0  0  0  0
   -1.8066   18.2856  -17.1819 C   0  0  0  0  0  0  0  0  0  0  0  0
   -2.3893   18.8113  -16.0554 C   0  0  0  0  0  0  0  0  0  0  0  0
   -3.7467   18.5961  -15.7413 C   0  0  0  0  0  0  0  0  0  0  0  0
   -2.1791   16.5184  -19.8293 H   0  0  0  0  0  0  0  0  0  0  0  0
   -7.1711   18.6808  -18.4243 C   0  0  0  0  0  0  0  0  0  0  0  0
   -6.6309   17.5877  -17.6554 N   0  0  0  0  0  0  0  0  0  0  0  0
   -5.9533   17.6792  -16.3459 C   0  0  0  0  0  0  0  0  0  0  0  0
   -6.3139   16.3927  -15.7165 C   0  0  0  0  0  0  0  0  0  0  0  0
   -6.6599   15.4319  -16.7750 C   0  0  0  0  0  0  0  0  0  0  0  0
   -6.6552   16.2179  -18.0270 C   0  0  0  0  0  0  0  0  0  0  0  0
   -6.6702   15.7375  -19.1874 O   0  0  0  0  0  0  0  0  0  0  0  0
    0.5327   17.3149  -19.8519 C   0  0  0  0  0  0  0  0  0  0  0  0
    1.3143   18.3426  -20.3128 C   0  0  0  0  0  0  0  0  0  0  0  0
    2.3521   18.1105  -21.1761 C   0  0  0  0  0  0  0  0  0  0  0  0
    2.6462   16.8267  -21.6125 C   0  0  0  0  0  0  0  0  0  0  0  0
    1.8484   15.8089  -21.1372 C   0  0  0  0  0  0  0  0  0  0  0  0
    0.8008   16.0211  -20.2693 C   0  0  0  0  0  0  0  0  0  0  0  0
    3.7543   16.5680  -22.5343 C   0  0  0  0  0  0  0  0  0  0  0  0
    4.3963   15.3564  -22.4817 O   0  0  0  0  0  0  0  0  0  0  0  0
    4.0811   17.4639  -23.3436 O   0  0  0  0  0  0  0  0  0  0  0  0
    4.5254   14.8236  -23.3142 H   0  0  0  0  0  0  0  0  0  0  0  0
   -4.1895   19.1871  -14.5711 O   0  0  0  0  0  0  0  0  0  0  0  0
   -4.7513   20.4306  -14.4379 C   0  0  0  0  0  0  0  0  0  0  0  0
   -4.7683   21.3118  -15.5189 C   0  0  0  0  0  0  0  0  0  0  0  0
   -5.3192   22.5724  -15.4400 C   0  0  0  0  0  0  0  0  0  0  0  0
   -5.8759   22.9839  -14.2510 C   0  0  0  0  0  0  0  0  0  0  0  0
   -5.8616   22.1410  -13.2104 N   0  0  0  0  0  0  0  0  0  0  0  0
   -5.3256   20.9080  -13.2792 C   0  0  0  0  0  0  0  0  0  0  0  0
   -6.5738   24.5867  -14.1572 S   0  0  0  0  0  0  0  0  0  0  0  0
   -5.9822   25.4383  -12.7213 C   0  0  0  0  0  0  0  0  0  0  0  0
   -6.3128   25.3929  -15.3843 O   0  0  0  0  0  0  0  0  0  0  0  0
   -8.0805   24.4686  -13.9977 O   0  0  0  0  0  0  0  0  0  0  0  0
 11 12  1  0  0  0
 12 13  1  0  0  0
 13 14  1  0  0  0
 14 15  1  0  0  0
 15 16  1  0  0  0
 16 17  2  0  0  0
 13  1  1  0  0  0
  1  2  2  0  0  0
  2  3  1  0  0  0
  3  4  1  0  0  0
  4  5  1  0  0  0
  5  6  2  0  0  0
  6  7  1  0  0  0
  7  8  1  0  0  0
  8  9  2  0  0  0
  9 28  1  0  0  0
 28 29  1  0  0  0
 29 30  2  0  0  0
 30 31  1  0  0  0
 31 32  2  0  0  0
 32 33  1  0  0  0
 33 34  2  0  0  0
 32 35  1  0  0  0
 35 36  1  0  0  0
 35 37  2  0  0  0
 35 38  2  0  0  0
  5 18  1  0  0  0
 18 19  2  0  0  0
 19 20  1  0  0  0
 20 21  2  0  0  0
 21 22  1  0  0  0
 22 23  2  0  0  0
 21 24  1  0  0  0
 24 25  1  0  0  0
 24 26  2  0  0  0
 16 12  1  0  0  0
  9  1  1  0  0  0
 34 29  1  0  0  0
 23 18  1  0  0  0
  7  3  2  0  0  0
  4 10  1  0  0  0
 25 27  1  0  0  0
M  END
> <minimizedAffinity>
-4.63697

> <CNNscore>
0.5375163555

> <CNNaffinity>
5.6746063232

> <CNN_VS>
3.0501937866

> <CNNaffinity_variance>
0.8771895170

$$$$
[H]OC(=O)c1c([H])c([H])c(-c2c([H])c3c([H])c(Oc4c([H])nc(S(=O)(=O)C([H])([H])[H])c([H])c4[H])c(C4([H])N(C([H])([H])[H])C(=O)C([H])([H])C4([H])[H])c([H])c3n2[H])c([H])c1[H]


 38 42  0  0  0  0  0  0  0  0999 V2000
   -6.9049   21.8092  -15.5662 C   0  0  0  0  0  0  0  0  0  0  0  0
   -7.0753   22.8297  -16.4582 C   0  0  0  0  0  0  0  0  0  0  0  0
   -7.0244   22.6205  -17.8040 C   0  0  0  0  0  0  0  0  0  0  0  0
   -7.1660   23.4792  -18.8506 N   0  0  0  0  0  0  0  0  0  0  0  0
   -7.0363   22.8075  -20.0077 C   0  0  0  0  0  0  0  0  0  0  0  0
   -6.8073   21.4926  -19.6748 C   0  0  0  0  0  0  0  0  0  0  0  0
   -6.7967   21.3566  -18.3042 C   0  0  0  0  0  0  0  0  0  0  0  0
   -6.6276   20.3324  -17.4057 C   0  0  0  0  0  0  0  0  0  0  0  0
   -6.6805   20.5388  -16.0121 C   0  0  0  0  0  0  0  0  0  0  0  0
   -7.3442   24.4828  -18.7490 H   0  0  0  0  0  0  0  0  0  0  0  0
   -4.8555   23.6870  -13.6940 C   0  0  0  0  0  0  0  0  0  0  0  0
   -6.2550   23.4027  -13.8906 N   0  0  0  0  0  0  0  0  0  0  0  0
   -6.8661   22.0730  -14.0918 C   0  0  0  0  0  0  0  0  0  0  0  0
   -8.1986   22.2450  -13.4787 C   0  0  0  0  0  0  0  0  0  0  0  0
   -8.5275   23.6785  -13.4627 C   0  0  0  0  0  0  0  0  0  0  0  0
   -7.3011   24.3615  -13.9263 C   0  0  0  0  0  0  0  0  0  0  0  0
   -7.2279   25.5647  -14.2792 O   0  0  0  0  0  0  0  0  0  0  0  0
   -7.1308   23.3958  -21.3495 C   0  0  0  0  0  0  0  0  0  0  0  0
   -6.4634   22.8427  -22.4116 C   0  0  0  0  0  0  0  0  0  0  0  0
   -6.5527   23.3876  -23.6651 C   0  0  0  0  0  0  0  0  0  0  0  0
   -7.3221   24.5179  -23.9007 C   0  0  0  0  0  0  0  0  0  0  0  0
   -7.9841   25.0575  -22.8197 C   0  0  0  0  0  0  0  0  0  0  0  0
   -7.9076   24.5253  -21.5522 C   0  0  0  0  0  0  0  0  0  0  0  0
   -7.4249   25.1073  -25.2374 C   0  0  0  0  0  0  0  0  0  0  0  0
   -8.4090   24.6669  -26.0863 O   0  0  0  0  0  0  0  0  0  0  0  0
   -6.6086   25.9971  -25.5635 O   0  0  0  0  0  0  0  0  0  0  0  0
   -9.0108   25.3225  -26.5352 H   0  0  0  0  0  0  0  0  0  0  0  0
   -6.4951   19.4097  -15.2340 O   0  0  0  0  0  0  0  0  0  0  0  0
   -7.4416   18.4760  -14.8990 C   0  0  0  0  0  0  0  0  0  0  0  0
   -7.0538   17.2009  -14.4876 C   0  0  0  0  0  0  0  0  0  0  0  0
   -7.9625   16.2251  -14.1401 C   0  0  0  0  0  0  0  0  0  0  0  0
   -9.3066   16.5137  -14.1992 C   0  0  0  0  0  0  0  0  0  0  0  0
   -9.6832   17.7367  -14.5938 N   0  0  0  0  0  0  0  0  0  0  0  0
   -8.8021   18.6956  -14.9348 C   0  0  0  0  0  0  0  0  0  0  0  0
  -10.4559   15.2694  -13.7568 S   0  0  0  0  0  0  0  0  0  0  0  0
   -9.8809   13.6785  -14.2815 C   0  0  0  0  0  0  0  0  0  0  0  0
  -10.7487   15.2602  -12.2945 O   0  0  0  0  0  0  0  0  0  0  0  0
  -11.7664   15.5157  -14.4856 O   0  0  0  0  0  0  0  0  0  0  0  0
 11 12  1  0  0  0
 12 13  1  0  0  0
 13 14  1  0  0  0
 14 15  1  0  0  0
 15 16  1  0  0  0
 16 17  2  0  0  0
 13  1  1  0  0  0
  1  2  2  0  0  0
  2  3  1  0  0  0
  3  4  1  0  0  0
  4  5  1  0  0  0
  5  6  2  0  0  0
  6  7  1  0  0  0
  7  8  1  0  0  0
  8  9  2  0  0  0
  9 28  1  0  0  0
 28 29  1  0  0  0
 29 30  2  0  0  0
 30 31  1  0  0  0
 31 32  2  0  0  0
 32 33  1  0  0  0
 33 34  2  0  0  0
 32 35  1  0  0  0
 35 36  1  0  0  0
 35 37  2  0  0  0
 35 38  2  0  0  0
  5 18  1  0  0  0
 18 19  2  0  0  0
 19 20  1  0  0  0
 20 21  2  0  0  0
 21 22  1  0  0  0
 22 23  2  0  0  0
 21 24  1  0  0  0
 24 25  1  0  0  0
 24 26  2  0  0  0
 16 12  1  0  0  0
  9  1  1  0  0  0
 34 29  1  0  0  0
 23 18  1  0  0  0
  7  3  2  0  0  0
  4 10  1  0  0  0
 25 27  1  0  0  0
M  END
> <minimizedAffinity>
-5.18124

> <CNNscore>
0.5025187135

> <CNNaffinity>
6.0776228905

> <CNN_VS>
3.0541193485

> <CNNaffinity_variance>
0.5476151705

$$$$
[H]OC(=O)c1c([H])c([H])c(-c2c([H])c3c([H])c(Oc4c([H])nc(S(=O)(=O)C([H])([H])[H])c([H])c4[H])c(C4([H])N(C([H])([H])[H])C(=O)C([H])([H])C4([H])[H])c([H])c3n2[H])c([H])c1[H]


 38 42  0  0  0  0  0  0  0  0999 V2000
   -3.0296   18.9564  -17.6946 C   0  0  0  0  0  0  0  0  0  0  0  0
   -4.2406   19.2984  -18.2262 C   0  0  0  0  0  0  0  0  0  0  0  0
   -4.4243   20.4733  -18.8919 C   0  0  0  0  0  0  0  0  0  0  0  0
   -5.5269   21.0016  -19.4904 N   0  0  0  0  0  0  0  0  0  0  0  0
   -5.2227   22.1968  -20.0250 C   0  0  0  0  0  0  0  0  0  0  0  0
   -3.8932   22.4215  -19.7531 C   0  0  0  0  0  0  0  0  0  0  0  0
   -3.3781   21.3569  -19.0471 C   0  0  0  0  0  0  0  0  0  0  0  0
   -2.1616   21.0101  -18.5135 C   0  0  0  0  0  0  0  0  0  0  0  0
   -1.9615   19.7962  -17.8250 C   0  0  0  0  0  0  0  0  0  0  0  0
   -6.4412   20.5405  -19.5174 H   0  0  0  0  0  0  0  0  0  0  0  0
   -5.1119   17.3904  -15.5868 C   0  0  0  0  0  0  0  0  0  0  0  0
   -4.2136   17.1277  -16.6831 N   0  0  0  0  0  0  0  0  0  0  0  0
   -2.8697   17.7078  -16.8820 C   0  0  0  0  0  0  0  0  0  0  0  0
   -2.1608   16.6208  -17.5871 C   0  0  0  0  0  0  0  0  0  0  0  0
   -3.1558   15.7567  -18.2404 C   0  0  0  0  0  0  0  0  0  0  0  0
   -4.4669   16.2567  -17.7751 C   0  0  0  0  0  0  0  0  0  0  0  0
   -5.5795   15.9516  -18.2715 O   0  0  0  0  0  0  0  0  0  0  0  0
   -6.1543   23.0654  -20.7551 C   0  0  0  0  0  0  0  0  0  0  0  0
   -6.5119   22.7877  -22.0491 C   0  0  0  0  0  0  0  0  0  0  0  0
   -7.3835   23.5945  -22.7314 C   0  0  0  0  0  0  0  0  0  0  0  0
   -7.9331   24.7200  -22.1345 C   0  0  0  0  0  0  0  0  0  0  0  0
   -7.5603   24.9806  -20.8341 C   0  0  0  0  0  0  0  0  0  0  0  0
   -6.6860   24.1825  -20.1310 C   0  0  0  0  0  0  0  0  0  0  0  0
   -8.8667   25.5882  -22.8551 C   0  0  0  0  0  0  0  0  0  0  0  0
   -9.1772   25.2962  -24.1595 O   0  0  0  0  0  0  0  0  0  0  0  0
   -9.3531   26.5723  -22.2556 O   0  0  0  0  0  0  0  0  0  0  0  0
  -10.1305   25.2415  -24.4451 H   0  0  0  0  0  0  0  0  0  0  0  0
   -0.6801   19.5852  -17.3473 O   0  0  0  0  0  0  0  0  0  0  0  0
    0.3454   20.4944  -17.3112 C   0  0  0  0  0  0  0  0  0  0  0  0
    1.3737   20.4292  -18.2513 C   0  0  0  0  0  0  0  0  0  0  0  0
    2.4278   21.3166  -18.2607 C   0  0  0  0  0  0  0  0  0  0  0  0
    2.4736   22.3081  -17.3079 C   0  0  0  0  0  0  0  0  0  0  0  0
    1.4884   22.3743  -16.4033 N   0  0  0  0  0  0  0  0  0  0  0  0
    0.4552   21.5116  -16.3872 C   0  0  0  0  0  0  0  0  0  0  0  0
    3.8157   23.4321  -17.3251 S   0  0  0  0  0  0  0  0  0  0  0  0
    4.6886   23.3801  -15.7849 C   0  0  0  0  0  0  0  0  0  0  0  0
    4.7500   23.1845  -18.4608 O   0  0  0  0  0  0  0  0  0  0  0  0
    3.2821   24.8476  -17.4702 O   0  0  0  0  0  0  0  0  0  0  0  0
 11 12  1  0  0  0
 12 13  1  0  0  0
 13 14  1  0  0  0
 14 15  1  0  0  0
 15 16  1  0  0  0
 16 17  2  0  0  0
 13  1  1  0  0  0
  1  2  2  0  0  0
  2  3  1  0  0  0
  3  4  1  0  0  0
  4  5  1  0  0  0
  5  6  2  0  0  0
  6  7  1  0  0  0
  7  8  1  0  0  0
  8  9  2  0  0  0
  9 28  1  0  0  0
 28 29  1  0  0  0
 29 30  2  0  0  0
 30 31  1  0  0  0
 31 32  2  0  0  0
 32 33  1  0  0  0
 33 34  2  0  0  0
 32 35  1  0  0  0
 35 36  1  0  0  0
 35 37  2  0  0  0
 35 38  2  0  0  0
  5 18  1  0  0  0
 18 19  2  0  0  0
 19 20  1  0  0  0
 20 21  2  0  0  0
 21 22  1  0  0  0
 22 23  2  0  0  0
 21 24  1  0  0  0
 24 25  1  0  0  0
 24 26  2  0  0  0
 16 12  1  0  0  0
  9  1  1  0  0  0
 34 29  1  0  0  0
 23 18  1  0  0  0
  7  3  2  0  0  0
  4 10  1  0  0  0
 25 27  1  0  0  0
M  END
> <minimizedAffinity>
-5.61414

> <CNNscore>
0.2917919755

> <CNNaffinity>
5.7851805687

> <CNN_VS>
1.6880692244

> <CNNaffinity_variance>
0.9824041128

$$$$
[H]OC(=O)c1c([H])c([H])c(-c2c([H])c3c([H])c(Oc4c([H])nc(S(=O)(=O)C([H])([H])[H])c([H])c4[H])c(C4([H])N(C([H])([H])[H])C(=O)C([H])([H])C4([H])[H])c([H])c3n2[H])c([H])c1[H]


 38 42  0  0  0  0  0  0  0  0999 V2000
   -6.9680   21.7227  -17.2677 C   0  0  0  0  0  0  0  0  0  0  0  0
   -6.3670   22.4781  -18.2343 C   0  0  0  0  0  0  0  0  0  0  0  0
   -6.7674   22.4259  -19.5359 C   0  0  0  0  0  0  0  0  0  0  0  0
   -6.3160   23.0825  -20.6396 N   0  0  0  0  0  0  0  0  0  0  0  0
   -7.0281   22.7030  -21.7146 C   0  0  0  0  0  0  0  0  0  0  0  0
   -7.9501   21.7840  -21.2704 C   0  0  0  0  0  0  0  0  0  0  0  0
   -7.8027   21.5984  -19.9136 C   0  0  0  0  0  0  0  0  0  0  0  0
   -8.4063   20.8416  -18.9399 C   0  0  0  0  0  0  0  0  0  0  0  0
   -8.0004   20.8904  -17.5907 C   0  0  0  0  0  0  0  0  0  0  0  0
   -5.5476   23.7598  -20.6298 H   0  0  0  0  0  0  0  0  0  0  0  0
   -4.1920   23.0209  -15.9113 C   0  0  0  0  0  0  0  0  0  0  0  0
   -5.6127   22.9220  -15.6883 N   0  0  0  0  0  0  0  0  0  0  0  0
   -6.4519   21.7186  -15.8610 C   0  0  0  0  0  0  0  0  0  0  0  0
   -7.4986   21.9176  -14.8383 C   0  0  0  0  0  0  0  0  0  0  0  0
   -7.5844   23.3524  -14.5261 C   0  0  0  0  0  0  0  0  0  0  0  0
   -6.4624   23.9754  -15.2600 C   0  0  0  0  0  0  0  0  0  0  0  0
   -6.3145   25.2076  -15.4529 O   0  0  0  0  0  0  0  0  0  0  0  0
   -6.8342   23.1983  -23.0831 C   0  0  0  0  0  0  0  0  0  0  0  0
   -7.5570   24.2619  -23.5581 C   0  0  0  0  0  0  0  0  0  0  0  0
   -7.3756   24.7281  -24.8332 C   0  0  0  0  0  0  0  0  0  0  0  0
   -6.4537   24.1384  -25.6862 C   0  0  0  0  0  0  0  0  0  0  0  0
   -5.7383   23.0712  -25.1887 C   0  0  0  0  0  0  0  0  0  0  0  0
   -5.9055   22.5875  -23.9106 C   0  0  0  0  0  0  0  0  0  0  0  0
   -6.2516   24.6301  -27.0507 C   0  0  0  0  0  0  0  0  0  0  0  0
   -5.8311   25.9229  -27.2380 O   0  0  0  0  0  0  0  0  0  0  0  0
   -6.4697   23.8524  -28.0056 O   0  0  0  0  0  0  0  0  0  0  0  0
   -5.0456   26.1124  -27.8216 H   0  0  0  0  0  0  0  0  0  0  0  0
   -8.7060   20.0732  -16.7252 O   0  0  0  0  0  0  0  0  0  0  0  0
   -8.5407   18.7238  -16.5480 C   0  0  0  0  0  0  0  0  0  0  0  0
   -9.6508   17.8800  -16.5122 C   0  0  0  0  0  0  0  0  0  0  0  0
   -9.5419   16.5177  -16.3365 C   0  0  0  0  0  0  0  0  0  0  0  0
   -8.2918   15.9618  -16.1900 C   0  0  0  0  0  0  0  0  0  0  0  0
   -7.2233   16.7683  -16.2236 N   0  0  0  0  0  0  0  0  0  0  0  0
   -7.3209   18.0999  -16.3950 C   0  0  0  0  0  0  0  0  0  0  0  0
   -8.1604   14.2304  -15.9667 S   0  0  0  0  0  0  0  0  0  0  0  0
   -6.5808   13.6513  -16.5206 C   0  0  0  0  0  0  0  0  0  0  0  0
   -8.3982   13.8199  -14.5529 O   0  0  0  0  0  0  0  0  0  0  0  0
   -9.2007   13.5337  -16.8279 O   0  0  0  0  0  0  0  0  0  0  0  0
 11 12  1  0  0  0
 12 13  1  0  0  0
 13 14  1  0  0  0
 14 15  1  0  0  0
 15 16  1  0  0  0
 16 17  2  0  0  0
 13  1  1  0  0  0
  1  2  2  0  0  0
  2  3  1  0  0  0
  3  4  1  0  0  0
  4  5  1  0  0  0
  5  6  2  0  0  0
  6  7  1  0  0  0
  7  8  1  0  0  0
  8  9  2  0  0  0
  9 28  1  0  0  0
 28 29  1  0  0  0
 29 30  2  0  0  0
 30 31  1  0  0  0
 31 32  2  0  0  0
 32 33  1  0  0  0
 33 34  2  0  0  0
 32 35  1  0  0  0
 35 36  1  0  0  0
 35 37  2  0  0  0
 35 38  2  0  0  0
  5 18  1  0  0  0
 18 19  2  0  0  0
 19 20  1  0  0  0
 20 21  2  0  0  0
 21 22  1  0  0  0
 22 23  2  0  0  0
 21 24  1  0  0  0
 24 25  1  0  0  0
 24 26  2  0  0  0
 16 12  1  0  0  0
  9  1  1  0  0  0
 34 29  1  0  0  0
 23 18  1  0  0  0
  7  3  2  0  0  0
  4 10  1  0  0  0
 25 27  1  0  0  0
M  END
> <minimizedAffinity>
-6.15579

> <CNNscore>
0.2507758439

> <CNNaffinity>
6.0044355392

> <CNN_VS>
1.5057673454

> <CNNaffinity_variance>
0.2752892375

$$$$
[H]OC(=O)c1c([H])c([H])c(-c2c([H])c3c([H])c(Oc4c([H])nc(S(=O)(=O)C([H])([H])[H])c([H])c4[H])c(C4([H])N(C([H])([H])[H])C(=O)C([H])([H])C4([H])[H])c([H])c3n2[H])c([H])c1[H]


 38 42  0  0  0  0  0  0  0  0999 V2000
    0.8395   21.0893  -21.5349 C   0  0  0  0  0  0  0  0  0  0  0  0
   -0.3872   21.4223  -22.0353 C   0  0  0  0  0  0  0  0  0  0  0  0
   -0.5579   21.7654  -23.3432 C   0  0  0  0  0  0  0  0  0  0  0  0
   -1.6723   22.1241  -24.0377 N   0  0  0  0  0  0  0  0  0  0  0  0
   -1.3469   22.3738  -25.3177 C   0  0  0  0  0  0  0  0  0  0  0  0
    0.0084   22.1653  -25.4261 C   0  0  0  0  0  0  0  0  0  0  0  0
    0.5179   21.7849  -24.2043 C   0  0  0  0  0  0  0  0  0  0  0  0
    1.7494   21.4481  -23.6994 C   0  0  0  0  0  0  0  0  0  0  0  0
    1.9354   21.0899  -22.3486 C   0  0  0  0  0  0  0  0  0  0  0  0
   -2.6085   22.1878  -23.6268 H   0  0  0  0  0  0  0  0  0  0  0  0
    2.7666   22.5541  -19.2172 C   0  0  0  0  0  0  0  0  0  0  0  0
    1.4226   22.0757  -19.4239 N   0  0  0  0  0  0  0  0  0  0  0  0
    1.0261   20.8102  -20.0747 C   0  0  0  0  0  0  0  0  0  0  0  0
   -0.2240   20.4716  -19.3649 C   0  0  0  0  0  0  0  0  0  0  0  0
   -0.7874   21.7031  -18.7911 C   0  0  0  0  0  0  0  0  0  0  0  0
    0.2328   22.7449  -19.0346 C   0  0  0  0  0  0  0  0  0  0  0  0
    0.0528   23.9818  -18.9122 O   0  0  0  0  0  0  0  0  0  0  0  0
   -2.2843   22.7839  -26.3706 C   0  0  0  0  0  0  0  0  0  0  0  0
   -3.4667   23.4047  -26.0608 C   0  0  0  0  0  0  0  0  0  0  0  0
   -4.3414   23.7914  -27.0413 C   0  0  0  0  0  0  0  0  0  0  0  0
   -4.0590   23.5670  -28.3811 C   0  0  0  0  0  0  0  0  0  0  0  0
   -2.8658   22.9418  -28.6702 C   0  0  0  0  0  0  0  0  0  0  0  0
   -1.9732   22.5454  -27.6997 C   0  0  0  0  0  0  0  0  0  0  0  0
   -4.9871   23.9777  -29.4368 C   0  0  0  0  0  0  0  0  0  0  0  0
   -4.5803   24.9123  -30.3556 O   0  0  0  0  0  0  0  0  0  0  0  0
   -6.1256   23.4609  -29.4671 O   0  0  0  0  0  0  0  0  0  0  0  0
   -4.6814   24.7305  -31.3303 H   0  0  0  0  0  0  0  0  0  0  0  0
    3.2332   20.7727  -21.9884 O   0  0  0  0  0  0  0  0  0  0  0  0
    3.6859   19.5671  -21.5180 C   0  0  0  0  0  0  0  0  0  0  0  0
    4.6109   19.5240  -20.4748 C   0  0  0  0  0  0  0  0  0  0  0  0
    5.0989   18.3408  -19.9644 C   0  0  0  0  0  0  0  0  0  0  0  0
    4.6606   17.1518  -20.5004 C   0  0  0  0  0  0  0  0  0  0  0  0
    3.7726   17.1886  -21.5022 N   0  0  0  0  0  0  0  0  0  0  0  0
    3.2908   18.3400  -22.0065 C   0  0  0  0  0  0  0  0  0  0  0  0
    5.2849   15.6522  -19.8476 S   0  0  0  0  0  0  0  0  0  0  0  0
    6.0631   14.6975  -21.1204 C   0  0  0  0  0  0  0  0  0  0  0  0
    6.2281   15.8747  -18.7142 O   0  0  0  0  0  0  0  0  0  0  0  0
    4.1299   14.8138  -19.3255 O   0  0  0  0  0  0  0  0  0  0  0  0
 11 12  1  0  0  0
 12 13  1  0  0  0
 13 14  1  0  0  0
 14 15  1  0  0  0
 15 16  1  0  0  0
 16 17  2  0  0  0
 13  1  1  0  0  0
  1  2  2  0  0  0
  2  3  1  0  0  0
  3  4  1  0  0  0
  4  5  1  0  0  0
  5  6  2  0  0  0
  6  7  1  0  0  0
  7  8  1  0  0  0
  8  9  2  0  0  0
  9 28  1  0  0  0
 28 29  1  0  0  0
 29 30  2  0  0  0
 30 31  1  0  0  0
 31 32  2  0  0  0
 32 33  1  0  0  0
 33 34  2  0  0  0
 32 35  1  0  0  0
 35 36  1  0  0  0
 35 37  2  0  0  0
 35 38  2  0  0  0
  5 18  1  0  0  0
 18 19  2  0  0  0
 19 20  1  0  0  0
 20 21  2  0  0  0
 21 22  1  0  0  0
 22 23  2  0  0  0
 21 24  1  0  0  0
 24 25  1  0  0  0
 24 26  2  0  0  0
 16 12  1  0  0  0
  9  1  1  0  0  0
 34 29  1  0  0  0
 23 18  1  0  0  0
  7  3  2  0  0  0
  4 10  1  0  0  0
 25 27  1  0  0  0
M  END
> <minimizedAffinity>
-8.57516

> <CNNscore>
0.1887648702

> <CNNaffinity>
6.0787935257

> <CNN_VS>
1.1474627256

> <CNNaffinity_variance>
0.1890137792

$$$$
[H]OC(=O)c1c([H])c([H])c(-c2c([H])c3c([H])c(Oc4c([H])nc(S(=O)(=O)C([H])([H])[H])c([H])c4[H])c(C4([H])N(C([H])([H])[H])C(=O)C([H])([H])C4([H])[H])c([H])c3n2[H])c([H])c1[H]


 38 42  0  0  0  0  0  0  0  0999 V2000
   -6.6998   22.7605  -18.1117 C   0  0  0  0  0  0  0  0  0  0  0  0
   -5.9371   23.1292  -19.1833 C   0  0  0  0  0  0  0  0  0  0  0  0
   -6.4658   23.2391  -20.4346 C   0  0  0  0  0  0  0  0  0  0  0  0
   -5.8962   23.5865  -21.6211 N   0  0  0  0  0  0  0  0  0  0  0  0
   -6.8231   23.5561  -22.5941 C   0  0  0  0  0  0  0  0  0  0  0  0
   -8.0046   23.1793  -21.9991 C   0  0  0  0  0  0  0  0  0  0  0  0
   -7.8013   22.9773  -20.6519 C   0  0  0  0  0  0  0  0  0  0  0  0
   -8.5662   22.6087  -19.5729 C   0  0  0  0  0  0  0  0  0  0  0  0
   -8.0286   22.4943  -18.2747 C   0  0  0  0  0  0  0  0  0  0  0  0
   -4.9077   23.8306  -21.7330 H   0  0  0  0  0  0  0  0  0  0  0  0
   -3.5001   22.6234  -17.1246 C   0  0  0  0  0  0  0  0  0  0  0  0
   -4.7641   23.2155  -16.7644 N   0  0  0  0  0  0  0  0  0  0  0  0
   -6.0826   22.5495  -16.7628 C   0  0  0  0  0  0  0  0  0  0  0  0
   -6.7846   23.2478  -15.6669 C   0  0  0  0  0  0  0  0  0  0  0  0
   -6.1512   24.5595  -15.4632 C   0  0  0  0  0  0  0  0  0  0  0  0
   -4.9644   24.5567  -16.3446 C   0  0  0  0  0  0  0  0  0  0  0  0
   -4.2812   25.5660  -16.6477 O   0  0  0  0  0  0  0  0  0  0  0  0
   -6.5852   23.8739  -24.0076 C   0  0  0  0  0  0  0  0  0  0  0  0
   -5.4057   23.5350  -24.6187 C   0  0  0  0  0  0  0  0  0  0  0  0
   -5.1826   23.8273  -25.9381 C   0  0  0  0  0  0  0  0  0  0  0  0
   -6.1437   24.4766  -26.6995 C   0  0  0  0  0  0  0  0  0  0  0  0
   -7.3213   24.8081  -26.0658 C   0  0  0  0  0  0  0  0  0  0  0  0
   -7.5652   24.5233  -24.7410 C   0  0  0  0  0  0  0  0  0  0  0  0
   -5.9152   24.7925  -28.1111 C   0  0  0  0  0  0  0  0  0  0  0  0
   -5.2014   23.9117  -28.8842 O   0  0  0  0  0  0  0  0  0  0  0  0
   -6.3802   25.8597  -28.5684 O   0  0  0  0  0  0  0  0  0  0  0  0
   -5.5706   23.6007  -29.7563 H   0  0  0  0  0  0  0  0  0  0  0  0
   -8.9236   22.1171  -17.2892 O   0  0  0  0  0  0  0  0  0  0  0  0
   -9.2732   20.8381  -16.9401 C   0  0  0  0  0  0  0  0  0  0  0  0
   -8.5106   19.7572  -17.3824 C   0  0  0  0  0  0  0  0  0  0  0  0
   -8.8169   18.4525  -17.0618 C   0  0  0  0  0  0  0  0  0  0  0  0
   -9.9169   18.1995  -16.2749 C   0  0  0  0  0  0  0  0  0  0  0  0
  -10.6518   19.2344  -15.8481 N   0  0  0  0  0  0  0  0  0  0  0  0
  -10.3595   20.5118  -16.1566 C   0  0  0  0  0  0  0  0  0  0  0  0
  -10.3007   16.5397  -15.8716 S   0  0  0  0  0  0  0  0  0  0  0  0
   -9.6411   16.1187  -14.2826 C   0  0  0  0  0  0  0  0  0  0  0  0
  -11.7665   16.2688  -15.9146 O   0  0  0  0  0  0  0  0  0  0  0  0
   -9.6332   15.6132  -16.8743 O   0  0  0  0  0  0  0  0  0  0  0  0
 11 12  1  0  0  0
 12 13  1  0  0  0
 13 14  1  0  0  0
 14 15  1  0  0  0
 15 16  1  0  0  0
 16 17  2  0  0  0
 13  1  1  0  0  0
  1  2  2  0  0  0
  2  3  1  0  0  0
  3  4  1  0  0  0
  4  5  1  0  0  0
  5  6  2  0  0  0
  6  7  1  0  0  0
  7  8  1  0  0  0
  8  9  2  0  0  0
  9 28  1  0  0  0
 28 29  1  0  0  0
 29 30  2  0  0  0
 30 31  1  0  0  0
 31 32  2  0  0  0
 32 33  1  0  0  0
 33 34  2  0  0  0
 32 35  1  0  0  0
 35 36  1  0  0  0
 35 37  2  0  0  0
 35 38  2  0  0  0
  5 18  1  0  0  0
 18 19  2  0  0  0
 19 20  1  0  0  0
 20 21  2  0  0  0
 21 22  1  0  0  0
 22 23  2  0  0  0
 21 24  1  0  0  0
 24 25  1  0  0  0
 24 26  2  0  0  0
 16 12  1  0  0  0
  9  1  1  0  0  0
 34 29  1  0  0  0
 23 18  1  0  0  0
  7  3  2  0  0  0
  4 10  1  0  0  0
 25 27  1  0  0  0
M  END
> <minimizedAffinity>
-6.62590

> <CNNscore>
0.1768904179

> <CNNaffinity>
5.7799997330

> <CNN_VS>
1.0224266052

> <CNNaffinity_variance>
0.4205266833

$$$$
[H]N=C(c1c([H])c([H])c([H])c(C([H])([H])[C@@]([H])(C(=O)N2C([H])([H])C([H])([H])C([H])([H])[C@@]2([H])C(=O)N([H])[C@]([H])(C([H])=O)C([H])([H])C([H])([H])C([H])([H])N([H])C(=N[H])N([H])[H])N([H])C(=O)OC(C([H])([H])[H])(C([H])([H])[H])C([H])([H])[H])c1[H])N([H])[H]


 48 49  0  0  0  0  0  0  0  0999 V2000
   -4.1473   24.1307  -24.7194 C   0  0  0  0  0  0  0  0  0  0  0  0
   -3.5924   25.3036  -24.7618 O   0  0  0  0  0  0  0  0  0  0  0  0
   -4.2405   23.4734  -23.4724 N   0  0  0  0  0  0  0  0  0  0  0  0
   -4.7867   22.1798  -23.1718 C   0  0  0  0  0  0  0  0  0  0  0  0
   -5.7160   22.5216  -21.9924 C   0  0  0  0  0  0  0  0  0  0  0  0
   -4.8760   23.4874  -21.2028 C   0  0  0  0  0  0  0  0  0  0  0  0
   -3.8412   24.0141  -22.1989 C   0  0  0  0  0  0  0  0  0  0  0  0
   -2.5214   23.6112  -21.7105 C   0  0  0  0  0  0  0  0  0  0  0  0
   -1.4857   23.9637  -22.3009 O   0  0  0  0  0  0  0  0  0  0  0  0
   -2.3900   22.8068  -20.5504 N   0  0  0  0  0  0  0  0  0  0  0  0
   -3.2671   22.5158  -20.0592 H   0  0  0  0  0  0  0  0  0  0  0  0
   -1.0859   22.3918  -20.0450 C   0  0  0  0  0  0  0  0  0  0  0  0
   -1.0376   20.9305  -19.8127 C   0  0  0  0  0  0  0  0  0  0  0  0
   -0.4087   20.1768  -20.5312 O   0  0  0  0  0  0  0  0  0  0  0  0
   -0.7656   23.1938  -18.8308 C   0  0  0  0  0  0  0  0  0  0  0  0
    0.1588   22.4980  -17.8723 C   0  0  0  0  0  0  0  0  0  0  0  0
    1.5671   22.6506  -18.4139 C   0  0  0  0  0  0  0  0  0  0  0  0
    2.4703   23.2218  -17.4672 N   0  0  0  0  0  0  0  0  0  0  0  0
    2.7294   22.7490  -16.5766 H   0  0  0  0  0  0  0  0  0  0  0  0
    3.0434   24.4837  -17.7416 C   0  0  0  0  0  0  0  0  0  0  0  0
    4.2943   24.8274  -17.1721 N   0  0  0  0  0  0  0  0  0  0  0  0
    2.4260   25.3038  -18.5029 N   0  0  0  0  0  0  0  0  0  0  0  0
    4.6798   24.3303  -16.3260 H   0  0  0  0  0  0  0  0  0  0  0  0
    4.9162   25.5889  -17.5474 H   0  0  0  0  0  0  0  0  0  0  0  0
    1.5106   25.0302  -18.9091 H   0  0  0  0  0  0  0  0  0  0  0  0
   -4.6215   23.6461  -26.0156 C   0  0  0  0  0  0  0  0  0  0  0  0
   -5.6562   25.1426  -27.7749 C   0  0  0  0  0  0  0  0  0  0  0  0
   -6.7913   24.6808  -27.4984 O   0  0  0  0  0  0  0  0  0  0  0  0
   -4.5151   24.6670  -27.0702 N   0  0  0  0  0  0  0  0  0  0  0  0
   -3.5591   25.0150  -27.2653 H   0  0  0  0  0  0  0  0  0  0  0  0
   -5.5679   26.1027  -28.7620 O   0  0  0  0  0  0  0  0  0  0  0  0
   -5.7034   26.7984  -31.0613 C   0  0  0  0  0  0  0  0  0  0  0  0
   -5.0989   25.8102  -30.0511 C   0  0  0  0  0  0  0  0  0  0  0  0
   -5.6193   24.4263  -30.3970 C   0  0  0  0  0  0  0  0  0  0  0  0
   -3.6107   25.7976  -30.1827 C   0  0  0  0  0  0  0  0  0  0  0  0
   -3.9658   22.3801  -26.4820 C   0  0  0  0  0  0  0  0  0  0  0  0
   -2.4981   22.4322  -26.5660 C   0  0  0  0  0  0  0  0  0  0  0  0
   -1.8762   22.8253  -27.7182 C   0  0  0  0  0  0  0  0  0  0  0  0
   -0.4972   22.8388  -27.7247 C   0  0  0  0  0  0  0  0  0  0  0  0
    0.2622   22.4707  -26.6108 C   0  0  0  0  0  0  0  0  0  0  0  0
   -0.3599   22.0740  -25.4468 C   0  0  0  0  0  0  0  0  0  0  0  0
   -1.7529   22.0683  -25.4646 C   0  0  0  0  0  0  0  0  0  0  0  0
    0.3894   21.6851  -24.2699 C   0  0  0  0  0  0  0  0  0  0  0  0
    1.8024   21.7186  -24.3135 N   0  0  0  0  0  0  0  0  0  0  0  0
   -0.2110   21.3190  -23.2091 N   0  0  0  0  0  0  0  0  0  0  0  0
    2.3448   22.0720  -23.5024 H   0  0  0  0  0  0  0  0  0  0  0  0
    2.3129   21.3960  -25.1472 H   0  0  0  0  0  0  0  0  0  0  0  0
   -1.2131   21.2439  -23.0230 H   0  0  0  0  0  0  0  0  0  0  0  0
 32 33  1  0  0  0
 33 34  1  0  0  0
 33 35  1  0  0  0
 33 31  1  0  0  0
 31 27  1  0  0  0
 27 28  2  0  0  0
 27 29  1  0  0  0
 29 26  1  0  0  0
 26 36  1  0  0  0
 36 37  1  0  0  0
 37 38  2  0  0  0
 38 39  1  0  0  0
 39 40  2  0  0  0
 40 41  1  0  0  0
 41 42  2  0  0  0
 41 43  1  0  0  0
 43 44  1  0  0  0
 43 45  2  0  0  0
 26  1  1  0  0  0
  1  2  2  0  0  0
  1  3  1  0  0  0
  3  4  1  0  0  0
  4  5  1  0  0  0
  5  6  1  0  0  0
  6  7  1  0  0  0
  7  8  1  0  0  0
  8  9  2  0  0  0
  8 10  1  0  0  0
 10 12  1  0  0  0
 12 15  1  0  0  0
 15 16  1  0  0  0
 16 17  1  0  0  0
 17 18  1  0  0  0
 18 20  1  0  0  0
 20 21  1  0  0  0
 20 22  2  0  0  0
 12 13  1  0  0  0
 13 14  2  0  0  0
 42 37  1  0  0  0
  7  3  1  0  0  0
 29 30  1  0  0  0
 44 46  1  0  0  0
 44 47  1  0  0  0
 45 48  1  0  0  0
 10 11  1  0  0  0
 18 19  1  0  0  0
 21 23  1  0  0  0
 21 24  1  0  0  0
 22 25  1  0  0  0
M  END
> <minimizedAffinity>
-9.07117

> <CNNscore>
0.2247831374

> <CNNaffinity>
6.6374869347

> <CNN_VS>
1.4919950962

> <CNNaffinity_variance>
0.0984619632

$$$$
[H]N=C(c1c([H])c([H])c([H])c(C([H])([H])[C@@]([H])(C(=O)N2C([H])([H])C([H])([H])C([H])([H])[C@@]2([H])C(=O)N([H])[C@]([H])(C([H])=O)C([H])([H])C([H])([H])C([H])([H])N([H])C(=N[H])N([H])[H])N([H])C(=O)OC(C([H])([H])[H])(C([H])([H])[H])C([H])([H])[H])c1[H])N([H])[H]


 48 49  0  0  0  0  0  0  0  0999 V2000
   -5.3832   24.5229  -24.4247 C   0  0  0  0  0  0  0  0  0  0  0  0
   -4.2919   25.2215  -24.3435 O   0  0  0  0  0  0  0  0  0  0  0  0
   -6.2582   24.5076  -23.3158 N   0  0  0  0  0  0  0  0  0  0  0  0
   -7.5010   23.8063  -23.1555 C   0  0  0  0  0  0  0  0  0  0  0  0
   -8.4158   24.9417  -22.6599 C   0  0  0  0  0  0  0  0  0  0  0  0
   -7.5178   25.6679  -21.6965 C   0  0  0  0  0  0  0  0  0  0  0  0
   -6.0987   25.2650  -22.1015 C   0  0  0  0  0  0  0  0  0  0  0  0
   -5.5077   24.5521  -20.9677 C   0  0  0  0  0  0  0  0  0  0  0  0
   -4.3210   24.1825  -20.9928 O   0  0  0  0  0  0  0  0  0  0  0  0
   -6.2746   24.2638  -19.8106 N   0  0  0  0  0  0  0  0  0  0  0  0
   -7.2721   24.5798  -19.7979 H   0  0  0  0  0  0  0  0  0  0  0  0
   -5.7081   23.5539  -18.6688 C   0  0  0  0  0  0  0  0  0  0  0  0
   -5.8858   22.0903  -18.8015 C   0  0  0  0  0  0  0  0  0  0  0  0
   -5.0945   21.3896  -19.4037 O   0  0  0  0  0  0  0  0  0  0  0  0
   -6.2984   24.1097  -17.4188 C   0  0  0  0  0  0  0  0  0  0  0  0
   -5.2917   24.3531  -16.3303 C   0  0  0  0  0  0  0  0  0  0  0  0
   -5.9569   23.9989  -15.0142 C   0  0  0  0  0  0  0  0  0  0  0  0
   -5.3601   24.6520  -13.8937 N   0  0  0  0  0  0  0  0  0  0  0  0
   -4.4364   24.3732  -13.5029 H   0  0  0  0  0  0  0  0  0  0  0  0
   -6.0450   25.7253  -13.2810 C   0  0  0  0  0  0  0  0  0  0  0  0
   -7.4255   25.6030  -12.9871 N   0  0  0  0  0  0  0  0  0  0  0  0
   -5.4103   26.7977  -12.9976 N   0  0  0  0  0  0  0  0  0  0  0  0
   -8.0380   24.8884  -13.4623 H   0  0  0  0  0  0  0  0  0  0  0  0
   -7.9278   26.2054  -12.2854 H   0  0  0  0  0  0  0  0  0  0  0  0
   -4.3989   26.8646  -13.2221 H   0  0  0  0  0  0  0  0  0  0  0  0
   -5.5592   23.8351  -25.7037 C   0  0  0  0  0  0  0  0  0  0  0  0
   -5.8646   25.4024  -27.6672 C   0  0  0  0  0  0  0  0  0  0  0  0
   -7.0990   25.4470  -27.4381 O   0  0  0  0  0  0  0  0  0  0  0  0
   -5.0255   24.6089  -26.8360 N   0  0  0  0  0  0  0  0  0  0  0  0
   -4.0031   24.5381  -26.9876 H   0  0  0  0  0  0  0  0  0  0  0  0
   -5.3736   26.1351  -28.7283 O   0  0  0  0  0  0  0  0  0  0  0  0
   -3.4888   25.5153  -30.0894 C   0  0  0  0  0  0  0  0  0  0  0  0
   -5.0191   25.5408  -29.9483 C   0  0  0  0  0  0  0  0  0  0  0  0
   -5.5648   26.4410  -31.0426 C   0  0  0  0  0  0  0  0  0  0  0  0
   -5.5700   24.1672  -30.1533 C   0  0  0  0  0  0  0  0  0  0  0  0
   -4.9965   22.4451  -25.7428 C   0  0  0  0  0  0  0  0  0  0  0  0
   -3.5570   22.3468  -25.4567 C   0  0  0  0  0  0  0  0  0  0  0  0
   -3.1124   22.0094  -24.2088 C   0  0  0  0  0  0  0  0  0  0  0  0
   -1.7486   21.9476  -24.0138 C   0  0  0  0  0  0  0  0  0  0  0  0
   -0.8317   22.2138  -25.0344 C   0  0  0  0  0  0  0  0  0  0  0  0
   -1.2747   22.5540  -26.2942 C   0  0  0  0  0  0  0  0  0  0  0  0
   -2.6560   22.6102  -26.4666 C   0  0  0  0  0  0  0  0  0  0  0  0
   -0.3585   22.8372  -27.3796 C   0  0  0  0  0  0  0  0  0  0  0  0
   -0.8807   23.1212  -28.6626 N   0  0  0  0  0  0  0  0  0  0  0  0
    0.8994   22.8328  -27.1858 N   0  0  0  0  0  0  0  0  0  0  0  0
   -0.4663   23.8747  -29.2435 H   0  0  0  0  0  0  0  0  0  0  0  0
   -1.6775   22.5886  -29.0383 H   0  0  0  0  0  0  0  0  0  0  0  0
    1.4238   22.6497  -26.3279 H   0  0  0  0  0  0  0  0  0  0  0  0
 32 33  1  0  0  0
 33 34  1  0  0  0
 33 35  1  0  0  0
 33 31  1  0  0  0
 31 27  1  0  0  0
 27 28  2  0  0  0
 27 29  1  0  0  0
 29 26  1  0  0  0
 26 36  1  0  0  0
 36 37  1  0  0  0
 37 38  2  0  0  0
 38 39  1  0  0  0
 39 40  2  0  0  0
 40 41  1  0  0  0
 41 42  2  0  0  0
 41 43  1  0  0  0
 43 44  1  0  0  0
 43 45  2  0  0  0
 26  1  1  0  0  0
  1  2  2  0  0  0
  1  3  1  0  0  0
  3  4  1  0  0  0
  4  5  1  0  0  0
  5  6  1  0  0  0
  6  7  1  0  0  0
  7  8  1  0  0  0
  8  9  2  0  0  0
  8 10  1  0  0  0
 10 12  1  0  0  0
 12 15  1  0  0  0
 15 16  1  0  0  0
 16 17  1  0  0  0
 17 18  1  0  0  0
 18 20  1  0  0  0
 20 21  1  0  0  0
 20 22  2  0  0  0
 12 13  1  0  0  0
 13 14  2  0  0  0
 42 37  1  0  0  0
  7  3  1  0  0  0
 29 30  1  0  0  0
 44 46  1  0  0  0
 44 47  1  0  0  0
 45 48  1  0  0  0
 10 11  1  0  0  0
 18 19  1  0  0  0
 21 23  1  0  0  0
 21 24  1  0  0  0
 22 25  1  0  0  0
M  END
> <minimizedAffinity>
-8.61272

> <CNNscore>
0.1599014699

> <CNNaffinity>
6.4254279137

> <CNN_VS>
1.0274354219

> <CNNaffinity_variance>
0.0123016713

$$$$
[H]N=C(c1c([H])c([H])c([H])c(C([H])([H])[C@@]([H])(C(=O)N2C([H])([H])C([H])([H])C([H])([H])[C@@]2([H])C(=O)N([H])[C@]([H])(C([H])=O)C([H])([H])C([H])([H])C([H])([H])N([H])C(=N[H])N([H])[H])N([H])C(=O)OC(C([H])([H])[H])(C([H])([H])[H])C([H])([H])[H])c1[H])N([H])[H]


 48 49  0  0  0  0  0  0  0  0999 V2000
   -5.3255   24.4949  -24.4762 C   0  0  0  0  0  0  0  0  0  0  0  0
   -4.2904   25.2768  -24.4241 O   0  0  0  0  0  0  0  0  0  0  0  0
   -6.1301   24.3633  -23.3226 N   0  0  0  0  0  0  0  0  0  0  0  0
   -7.3016   23.5565  -23.1255 C   0  0  0  0  0  0  0  0  0  0  0  0
   -8.2732   24.5922  -22.5300 C   0  0  0  0  0  0  0  0  0  0  0  0
   -7.3811   25.3504  -21.5860 C   0  0  0  0  0  0  0  0  0  0  0  0
   -5.9606   25.0818  -22.0862 C   0  0  0  0  0  0  0  0  0  0  0  0
   -5.2492   24.3749  -21.0198 C   0  0  0  0  0  0  0  0  0  0  0  0
   -5.5467   24.5520  -19.8258 O   0  0  0  0  0  0  0  0  0  0  0  0
   -4.2007   23.4696  -21.3215 N   0  0  0  0  0  0  0  0  0  0  0  0
   -3.9580   23.3258  -22.3293 H   0  0  0  0  0  0  0  0  0  0  0  0
   -3.4766   22.7543  -20.2763 C   0  0  0  0  0  0  0  0  0  0  0  0
   -2.0183   22.7584  -20.5310 C   0  0  0  0  0  0  0  0  0  0  0  0
   -1.4314   23.7410  -20.9433 O   0  0  0  0  0  0  0  0  0  0  0  0
   -4.0500   21.3851  -20.1479 C   0  0  0  0  0  0  0  0  0  0  0  0
   -4.2846   20.9581  -18.7266 C   0  0  0  0  0  0  0  0  0  0  0  0
   -4.1732   22.1975  -17.8597 C   0  0  0  0  0  0  0  0  0  0  0  0
   -5.4239   22.6039  -17.3038 N   0  0  0  0  0  0  0  0  0  0  0  0
   -6.3168   22.1042  -17.4954 H   0  0  0  0  0  0  0  0  0  0  0  0
   -5.4622   23.7326  -16.4548 C   0  0  0  0  0  0  0  0  0  0  0  0
   -4.7231   23.7295  -15.2461 N   0  0  0  0  0  0  0  0  0  0  0  0
   -6.1647   24.7471  -16.7871 N   0  0  0  0  0  0  0  0  0  0  0  0
   -4.3901   22.8362  -14.7957 H   0  0  0  0  0  0  0  0  0  0  0  0
   -4.4581   24.6031  -14.7226 H   0  0  0  0  0  0  0  0  0  0  0  0
   -6.6980   24.7270  -17.6776 H   0  0  0  0  0  0  0  0  0  0  0  0
   -5.5208   23.8467  -25.7730 C   0  0  0  0  0  0  0  0  0  0  0  0
   -5.8561   25.4529  -27.7000 C   0  0  0  0  0  0  0  0  0  0  0  0
   -7.0904   25.4723  -27.4675 O   0  0  0  0  0  0  0  0  0  0  0  0
   -5.0023   24.6545  -26.8886 N   0  0  0  0  0  0  0  0  0  0  0  0
   -3.9793   24.6037  -27.0439 H   0  0  0  0  0  0  0  0  0  0  0  0
   -5.3794   26.2172  -28.7453 O   0  0  0  0  0  0  0  0  0  0  0  0
   -5.5367   26.4715  -31.1326 C   0  0  0  0  0  0  0  0  0  0  0  0
   -4.9721   25.6508  -29.9621 C   0  0  0  0  0  0  0  0  0  0  0  0
   -5.5988   24.2693  -30.0274 C   0  0  0  0  0  0  0  0  0  0  0  0
   -3.4933   25.5022  -30.1139 C   0  0  0  0  0  0  0  0  0  0  0  0
   -4.9606   22.4581  -25.8629 C   0  0  0  0  0  0  0  0  0  0  0  0
   -3.5241   22.3448  -25.5674 C   0  0  0  0  0  0  0  0  0  0  0  0
   -3.0915   21.9948  -24.3187 C   0  0  0  0  0  0  0  0  0  0  0  0
   -1.7297   21.9193  -24.1146 C   0  0  0  0  0  0  0  0  0  0  0  0
   -0.8032   22.1842  -25.1268 C   0  0  0  0  0  0  0  0  0  0  0  0
   -1.2342   22.5371  -26.3874 C   0  0  0  0  0  0  0  0  0  0  0  0
   -2.6137   22.6069  -26.5690 C   0  0  0  0  0  0  0  0  0  0  0  0
   -0.3078   22.8194  -27.4643 C   0  0  0  0  0  0  0  0  0  0  0  0
   -0.8153   23.2559  -28.7099 N   0  0  0  0  0  0  0  0  0  0  0  0
    0.9460   22.6792  -27.2962 N   0  0  0  0  0  0  0  0  0  0  0  0
   -0.3368   24.0115  -29.2364 H   0  0  0  0  0  0  0  0  0  0  0  0
   -1.6642   22.8343  -29.1114 H   0  0  0  0  0  0  0  0  0  0  0  0
    1.4603   22.3773  -26.4662 H   0  0  0  0  0  0  0  0  0  0  0  0
 32 33  1  0  0  0
 33 34  1  0  0  0
 33 35  1  0  0  0
 33 31  1  0  0  0
 31 27  1  0  0  0
 27 28  2  0  0  0
 27 29  1  0  0  0
 29 26  1  0  0  0
 26 36  1  0  0  0
 36 37  1  0  0  0
 37 38  2  0  0  0
 38 39  1  0  0  0
 39 40  2  0  0  0
 40 41  1  0  0  0
 41 42  2  0  0  0
 41 43  1  0  0  0
 43 44  1  0  0  0
 43 45  2  0  0  0
 26  1  1  0  0  0
  1  2  2  0  0  0
  1  3  1  0  0  0
  3  4  1  0  0  0
  4  5  1  0  0  0
  5  6  1  0  0  0
  6  7  1  0  0  0
  7  8  1  0  0  0
  8  9  2  0  0  0
  8 10  1  0  0  0
 10 12  1  0  0  0
 12 15  1  0  0  0
 15 16  1  0  0  0
 16 17  1  0  0  0
 17 18  1  0  0  0
 18 20  1  0  0  0
 20 21  1  0  0  0
 20 22  2  0  0  0
 12 13  1  0  0  0
 13 14  2  0  0  0
 42 37  1  0  0  0
  7  3  1  0  0  0
 29 30  1  0  0  0
 44 46  1  0  0  0
 44 47  1  0  0  0
 45 48  1  0  0  0
 10 11  1  0  0  0
 18 19  1  0  0  0
 21 23  1  0  0  0
 21 24  1  0  0  0
 22 25  1  0  0  0
M  END
> <minimizedAffinity>
-8.53844

> <CNNscore>
0.1378095001

> <CNNaffinity>
6.8212571144

> <CNN_VS>
0.9400340319

> <CNNaffinity_variance>
0.1065871567

$$$$
[H]N=C(c1c([H])c([H])c([H])c(C([H])([H])[C@@]([H])(C(=O)N2C([H])([H])C([H])([H])C([H])([H])[C@@]2([H])C(=O)N([H])[C@]([H])(C([H])=O)C([H])([H])C([H])([H])C([H])([H])N([H])C(=N[H])N([H])[H])N([H])C(=O)OC(C([H])([H])[H])(C([H])([H])[H])C([H])([H])[H])c1[H])N([H])[H]


 48 49  0  0  0  0  0  0  0  0999 V2000
   -3.4165   23.0406  -22.3236 C   0  0  0  0  0  0  0  0  0  0  0  0
   -2.7971   24.0372  -21.7680 O   0  0  0  0  0  0  0  0  0  0  0  0
   -4.8238   22.9773  -22.2171 N   0  0  0  0  0  0  0  0  0  0  0  0
   -5.7239   21.9793  -22.7227 C   0  0  0  0  0  0  0  0  0  0  0  0
   -6.7647   22.8598  -23.4388 C   0  0  0  0  0  0  0  0  0  0  0  0
   -6.9351   23.9947  -22.4667 C   0  0  0  0  0  0  0  0  0  0  0  0
   -5.6715   23.9674  -21.6049 C   0  0  0  0  0  0  0  0  0  0  0  0
   -6.0888   23.6990  -20.2276 C   0  0  0  0  0  0  0  0  0  0  0  0
   -5.4273   24.1237  -19.2645 O   0  0  0  0  0  0  0  0  0  0  0  0
   -7.2592   22.9463  -19.9563 N   0  0  0  0  0  0  0  0  0  0  0  0
   -7.8103   22.5940  -20.7732 H   0  0  0  0  0  0  0  0  0  0  0  0
   -7.6947   22.6650  -18.5927 C   0  0  0  0  0  0  0  0  0  0  0  0
   -7.3591   21.2793  -18.1943 C   0  0  0  0  0  0  0  0  0  0  0  0
   -7.2371   20.3797  -19.0041 O   0  0  0  0  0  0  0  0  0  0  0  0
   -9.1473   22.9766  -18.4801 C   0  0  0  0  0  0  0  0  0  0  0  0
  -10.0379   21.9507  -19.1220 C   0  0  0  0  0  0  0  0  0  0  0  0
  -11.1718   21.6703  -18.1548 C   0  0  0  0  0  0  0  0  0  0  0  0
  -11.3301   20.2807  -17.8682 N   0  0  0  0  0  0  0  0  0  0  0  0
  -12.0318   19.6806  -18.3491 H   0  0  0  0  0  0  0  0  0  0  0  0
  -10.5028   19.6838  -16.8906 C   0  0  0  0  0  0  0  0  0  0  0  0
  -10.6662   20.0266  -15.5258 N   0  0  0  0  0  0  0  0  0  0  0  0
   -9.6136   18.8386  -17.2488 N   0  0  0  0  0  0  0  0  0  0  0  0
  -11.1549   20.9113  -15.2253 H   0  0  0  0  0  0  0  0  0  0  0  0
  -10.3186   19.4325  -14.7297 H   0  0  0  0  0  0  0  0  0  0  0  0
   -9.5121   18.6026  -18.2547 H   0  0  0  0  0  0  0  0  0  0  0  0
   -2.5355   22.0978  -23.0126 C   0  0  0  0  0  0  0  0  0  0  0  0
   -0.5449   20.8292  -22.0998 C   0  0  0  0  0  0  0  0  0  0  0  0
    0.2066   21.4286  -22.9086 O   0  0  0  0  0  0  0  0  0  0  0  0
   -1.9392   21.1132  -22.0957 N   0  0  0  0  0  0  0  0  0  0  0  0
   -2.5984   20.6422  -21.4501 H   0  0  0  0  0  0  0  0  0  0  0  0
    0.0247   19.9113  -21.2413 O   0  0  0  0  0  0  0  0  0  0  0  0
    1.6883   19.5642  -19.5381 C   0  0  0  0  0  0  0  0  0  0  0  0
    0.3559   20.2306  -19.9163 C   0  0  0  0  0  0  0  0  0  0  0  0
   -0.7252   19.6212  -19.0413 C   0  0  0  0  0  0  0  0  0  0  0  0
    0.4218   21.6951  -19.6281 C   0  0  0  0  0  0  0  0  0  0  0  0
   -3.1745   21.3804  -24.1647 C   0  0  0  0  0  0  0  0  0  0  0  0
   -3.0369   22.0474  -25.4684 C   0  0  0  0  0  0  0  0  0  0  0  0
   -4.1347   22.5165  -26.1345 C   0  0  0  0  0  0  0  0  0  0  0  0
   -3.9279   23.1210  -27.3566 C   0  0  0  0  0  0  0  0  0  0  0  0
   -2.6560   23.2635  -27.9178 C   0  0  0  0  0  0  0  0  0  0  0  0
   -1.5460   22.7926  -27.2503 C   0  0  0  0  0  0  0  0  0  0  0  0
   -1.7802   22.1859  -26.0183 C   0  0  0  0  0  0  0  0  0  0  0  0
   -0.2105   22.9203  -27.7961 C   0  0  0  0  0  0  0  0  0  0  0  0
   -0.0538   23.3504  -29.1340 N   0  0  0  0  0  0  0  0  0  0  0  0
    0.8103   22.6516  -27.0851 N   0  0  0  0  0  0  0  0  0  0  0  0
    0.6954   24.0231  -29.3852 H   0  0  0  0  0  0  0  0  0  0  0  0
   -0.6784   23.0058  -29.8762 H   0  0  0  0  0  0  0  0  0  0  0  0
    0.8608   22.3347  -26.1147 H   0  0  0  0  0  0  0  0  0  0  0  0
 32 33  1  0  0  0
 33 34  1  0  0  0
 33 35  1  0  0  0
 33 31  1  0  0  0
 31 27  1  0  0  0
 27 28  2  0  0  0
 27 29  1  0  0  0
 29 26  1  0  0  0
 26 36  1  0  0  0
 36 37  1  0  0  0
 37 38  2  0  0  0
 38 39  1  0  0  0
 39 40  2  0  0  0
 40 41  1  0  0  0
 41 42  2  0  0  0
 41 43  1  0  0  0
 43 44  1  0  0  0
 43 45  2  0  0  0
 26  1  1  0  0  0
  1  2  2  0  0  0
  1  3  1  0  0  0
  3  4  1  0  0  0
  4  5  1  0  0  0
  5  6  1  0  0  0
  6  7  1  0  0  0
  7  8  1  0  0  0
  8  9  2  0  0  0
  8 10  1  0  0  0
 10 12  1  0  0  0
 12 15  1  0  0  0
 15 16  1  0  0  0
 16 17  1  0  0  0
 17 18  1  0  0  0
 18 20  1  0  0  0
 20 21  1  0  0  0
 20 22  2  0  0  0
 12 13  1  0  0  0
 13 14  2  0  0  0
 42 37  1  0  0  0
  7  3  1  0  0  0
 29 30  1  0  0  0
 44 46  1  0  0  0
 44 47  1  0  0  0
 45 48  1  0  0  0
 10 11  1  0  0  0
 18 19  1  0  0  0
 21 23  1  0  0  0
 21 24  1  0  0  0
 22 25  1  0  0  0
M  END
> <minimizedAffinity>
-7.27834

> <CNNscore>
0.1352349073

> <CNNaffinity>
5.9193844795

> <CNN_VS>
0.8005074263

> <CNNaffinity_variance>
0.1369784772

$$$$
[H]N=C(c1c([H])c([H])c([H])c(C([H])([H])[C@@]([H])(C(=O)N2C([H])([H])C([H])([H])C([H])([H])[C@@]2([H])C(=O)N([H])[C@]([H])(C([H])=O)C([H])([H])C([H])([H])C([H])([H])N([H])C(=N[H])N([H])[H])N([H])C(=O)OC(C([H])([H])[H])(C([H])([H])[H])C([H])([H])[H])c1[H])N([H])[H]


 48 49  0  0  0  0  0  0  0  0999 V2000
   -5.1299   24.3646  -24.2956 C   0  0  0  0  0  0  0  0  0  0  0  0
   -4.0808   25.1235  -24.2008 O   0  0  0  0  0  0  0  0  0  0  0  0
   -5.9484   24.2002  -23.1559 N   0  0  0  0  0  0  0  0  0  0  0  0
   -7.1368   23.4086  -23.0041 C   0  0  0  0  0  0  0  0  0  0  0  0
   -8.0947   24.4368  -22.3742 C   0  0  0  0  0  0  0  0  0  0  0  0
   -7.1979   25.1372  -21.3908 C   0  0  0  0  0  0  0  0  0  0  0  0
   -5.7777   24.8625  -21.8888 C   0  0  0  0  0  0  0  0  0  0  0  0
   -5.0906   24.0977  -20.8467 C   0  0  0  0  0  0  0  0  0  0  0  0
   -3.9114   23.7327  -20.9935 O   0  0  0  0  0  0  0  0  0  0  0  0
   -5.7534   23.7525  -19.6419 N   0  0  0  0  0  0  0  0  0  0  0  0
   -6.7455   24.0650  -19.5265 H   0  0  0  0  0  0  0  0  0  0  0  0
   -5.0901   22.9903  -18.5895 C   0  0  0  0  0  0  0  0  0  0  0  0
   -5.7424   21.6777  -18.3814 C   0  0  0  0  0  0  0  0  0  0  0  0
   -6.1339   20.9906  -19.3057 O   0  0  0  0  0  0  0  0  0  0  0  0
   -5.0349   23.8246  -17.3564 C   0  0  0  0  0  0  0  0  0  0  0  0
   -5.4093   23.0813  -16.1054 C   0  0  0  0  0  0  0  0  0  0  0  0
   -6.3105   23.9915  -15.2934 C   0  0  0  0  0  0  0  0  0  0  0  0
   -5.6891   24.4740  -14.1021 N   0  0  0  0  0  0  0  0  0  0  0  0
   -5.0502   23.8916  -13.5221 H   0  0  0  0  0  0  0  0  0  0  0  0
   -5.9456   25.7988  -13.6833 C   0  0  0  0  0  0  0  0  0  0  0  0
   -6.2935   26.0555  -12.3342 N   0  0  0  0  0  0  0  0  0  0  0  0
   -5.8605   26.7540  -14.5281 N   0  0  0  0  0  0  0  0  0  0  0  0
   -6.6641   25.3007  -11.6982 H   0  0  0  0  0  0  0  0  0  0  0  0
   -6.2071   27.0007  -11.8795 H   0  0  0  0  0  0  0  0  0  0  0  0
   -5.6038   26.5421  -15.5114 H   0  0  0  0  0  0  0  0  0  0  0  0
   -5.3245   23.7756  -25.6203 C   0  0  0  0  0  0  0  0  0  0  0  0
   -5.8209   25.3468  -27.5413 C   0  0  0  0  0  0  0  0  0  0  0  0
   -7.0524   25.1753  -27.3617 O   0  0  0  0  0  0  0  0  0  0  0  0
   -4.8896   24.6722  -26.7033 N   0  0  0  0  0  0  0  0  0  0  0  0
   -3.8653   24.7794  -26.8150 H   0  0  0  0  0  0  0  0  0  0  0  0
   -5.4237   26.1930  -28.5562 O   0  0  0  0  0  0  0  0  0  0  0  0
   -5.5860   24.2793  -30.0055 C   0  0  0  0  0  0  0  0  0  0  0  0
   -5.0874   25.7231  -29.8343 C   0  0  0  0  0  0  0  0  0  0  0  0
   -3.5707   25.6943  -29.8993 C   0  0  0  0  0  0  0  0  0  0  0  0
   -5.5886   26.5693  -30.9590 C   0  0  0  0  0  0  0  0  0  0  0  0
   -4.6841   22.4312  -25.8014 C   0  0  0  0  0  0  0  0  0  0  0  0
   -3.2520   22.4625  -26.1358 C   0  0  0  0  0  0  0  0  0  0  0  0
   -2.8346   22.7749  -27.3996 C   0  0  0  0  0  0  0  0  0  0  0  0
   -1.4768   22.7736  -27.6402 C   0  0  0  0  0  0  0  0  0  0  0  0
   -0.5392   22.4692  -26.6496 C   0  0  0  0  0  0  0  0  0  0  0  0
   -0.9547   22.1540  -25.3739 C   0  0  0  0  0  0  0  0  0  0  0  0
   -2.3306   22.1617  -25.1553 C   0  0  0  0  0  0  0  0  0  0  0  0
   -0.0165   21.8330  -24.3183 C   0  0  0  0  0  0  0  0  0  0  0  0
    1.3663   21.8080  -24.6129 N   0  0  0  0  0  0  0  0  0  0  0  0
   -0.4260   21.5777  -23.1406 N   0  0  0  0  0  0  0  0  0  0  0  0
    2.0533   22.2046  -23.9438 H   0  0  0  0  0  0  0  0  0  0  0  0
    1.7117   21.3993  -25.4923 H   0  0  0  0  0  0  0  0  0  0  0  0
   -1.3802   21.5569  -22.7750 H   0  0  0  0  0  0  0  0  0  0  0  0
 32 33  1  0  0  0
 33 34  1  0  0  0
 33 35  1  0  0  0
 33 31  1  0  0  0
 31 27  1  0  0  0
 27 28  2  0  0  0
 27 29  1  0  0  0
 29 26  1  0  0  0
 26 36  1  0  0  0
 36 37  1  0  0  0
 37 38  2  0  0  0
 38 39  1  0  0  0
 39 40  2  0  0  0
 40 41  1  0  0  0
 41 42  2  0  0  0
 41 43  1  0  0  0
 43 44  1  0  0  0
 43 45  2  0  0  0
 26  1  1  0  0  0
  1  2  2  0  0  0
  1  3  1  0  0  0
  3  4  1  0  0  0
  4  5  1  0  0  0
  5  6  1  0  0  0
  6  7  1  0  0  0
  7  8  1  0  0  0
  8  9  2  0  0  0
  8 10  1  0  0  0
 10 12  1  0  0  0
 12 15  1  0  0  0
 15 16  1  0  0  0
 16 17  1  0  0  0
 17 18  1  0  0  0
 18 20  1  0  0  0
 20 21  1  0  0  0
 20 22  2  0  0  0
 12 13  1  0  0  0
 13 14  2  0  0  0
 42 37  1  0  0  0
  7  3  1  0  0  0
 29 30  1  0  0  0
 44 46  1  0  0  0
 44 47  1  0  0  0
 45 48  1  0  0  0
 10 11  1  0  0  0
 18 19  1  0  0  0
 21 23  1  0  0  0
 21 24  1  0  0  0
 22 25  1  0  0  0
M  END
> <minimizedAffinity>
-8.60670

> <CNNscore>
0.1302547157

> <CNNaffinity>
6.2654695511

> <CNN_VS>
0.8161069751

> <CNNaffinity_variance>
0.0351860151

$$$$
[H]N=C(c1c([H])c([H])c([H])c(C([H])([H])[C@@]([H])(C(=O)N2C([H])([H])C([H])([H])C([H])([H])[C@@]2([H])C(=O)N([H])[C@]([H])(C([H])=O)C([H])([H])C([H])([H])C([H])([H])N([H])C(=N[H])N([H])[H])N([H])C(=O)OC(C([H])([H])[H])(C([H])([H])[H])C([H])([H])[H])c1[H])N([H])[H]


 48 49  0  0  0  0  0  0  0  0999 V2000
   -5.5995   24.2289  -23.2479 C   0  0  0  0  0  0  0  0  0  0  0  0
   -4.3953   24.5860  -22.9196 O   0  0  0  0  0  0  0  0  0  0  0  0
   -6.6603   24.5487  -22.3715 N   0  0  0  0  0  0  0  0  0  0  0  0
   -8.0591   24.2506  -22.4999 C   0  0  0  0  0  0  0  0  0  0  0  0
   -8.6789   25.6351  -22.2347 C   0  0  0  0  0  0  0  0  0  0  0  0
   -7.8396   26.1393  -21.0931 C   0  0  0  0  0  0  0  0  0  0  0  0
   -6.5528   25.3145  -21.1567 C   0  0  0  0  0  0  0  0  0  0  0  0
   -6.4653   24.5463  -19.9137 C   0  0  0  0  0  0  0  0  0  0  0  0
   -7.1312   24.8682  -18.9145 O   0  0  0  0  0  0  0  0  0  0  0  0
   -5.6172   23.4143  -19.8169 N   0  0  0  0  0  0  0  0  0  0  0  0
   -5.0614   23.1500  -20.6633 H   0  0  0  0  0  0  0  0  0  0  0  0
   -5.5124   22.6337  -18.5889 C   0  0  0  0  0  0  0  0  0  0  0  0
   -4.3442   23.0524  -17.7817 C   0  0  0  0  0  0  0  0  0  0  0  0
   -3.2458   23.2360  -18.2712 O   0  0  0  0  0  0  0  0  0  0  0  0
   -5.4984   21.1861  -18.9415 C   0  0  0  0  0  0  0  0  0  0  0  0
   -5.6024   20.2727  -17.7531 C   0  0  0  0  0  0  0  0  0  0  0  0
   -4.3995   19.3498  -17.7878 C   0  0  0  0  0  0  0  0  0  0  0  0
   -4.4925   18.3496  -18.8022 N   0  0  0  0  0  0  0  0  0  0  0  0
   -4.6040   18.5771  -19.8120 H   0  0  0  0  0  0  0  0  0  0  0  0
   -4.4313   16.9879  -18.4300 C   0  0  0  0  0  0  0  0  0  0  0  0
   -5.6283   16.2456  -18.2774 N   0  0  0  0  0  0  0  0  0  0  0  0
   -3.2940   16.4389  -18.2347 N   0  0  0  0  0  0  0  0  0  0  0  0
   -6.5620   16.7128  -18.1305 H   0  0  0  0  0  0  0  0  0  0  0  0
   -5.6693   15.1943  -18.3005 H   0  0  0  0  0  0  0  0  0  0  0  0
   -2.4301   17.0024  -18.3526 H   0  0  0  0  0  0  0  0  0  0  0  0
   -5.6875   23.5295  -24.5296 C   0  0  0  0  0  0  0  0  0  0  0  0
   -5.7337   24.8541  -26.6857 C   0  0  0  0  0  0  0  0  0  0  0  0
   -6.9858   24.7581  -26.7165 O   0  0  0  0  0  0  0  0  0  0  0  0
   -5.0109   24.2578  -25.6148 N   0  0  0  0  0  0  0  0  0  0  0  0
   -3.9783   24.3075  -25.5482 H   0  0  0  0  0  0  0  0  0  0  0  0
   -5.1093   25.5429  -27.7053 O   0  0  0  0  0  0  0  0  0  0  0  0
   -3.4865   25.3657  -29.4728 C   0  0  0  0  0  0  0  0  0  0  0  0
   -4.8829   24.9714  -28.9660 C   0  0  0  0  0  0  0  0  0  0  0  0
   -5.9024   25.5858  -29.9088 C   0  0  0  0  0  0  0  0  0  0  0  0
   -5.0380   23.4861  -29.0116 C   0  0  0  0  0  0  0  0  0  0  0  0
   -5.1936   22.1134  -24.4986 C   0  0  0  0  0  0  0  0  0  0  0  0
   -3.7321   21.9642  -24.4237 C   0  0  0  0  0  0  0  0  0  0  0  0
   -3.1285   21.5526  -23.2683 C   0  0  0  0  0  0  0  0  0  0  0  0
   -1.7535   21.4463  -23.2711 C   0  0  0  0  0  0  0  0  0  0  0  0
   -0.9803   21.7409  -24.3974 C   0  0  0  0  0  0  0  0  0  0  0  0
   -1.5840   22.1559  -25.5646 C   0  0  0  0  0  0  0  0  0  0  0  0
   -2.9732   22.2558  -25.5372 C   0  0  0  0  0  0  0  0  0  0  0  0
   -0.8199   22.4707  -26.7541 C   0  0  0  0  0  0  0  0  0  0  0  0
    0.5883   22.3482  -26.7181 N   0  0  0  0  0  0  0  0  0  0  0  0
   -1.4035   22.8513  -27.8192 N   0  0  0  0  0  0  0  0  0  0  0  0
    1.1013   21.9435  -27.5243 H   0  0  0  0  0  0  0  0  0  0  0  0
    1.1243   22.6556  -25.8947 H   0  0  0  0  0  0  0  0  0  0  0  0
   -2.4001   22.9861  -28.0012 H   0  0  0  0  0  0  0  0  0  0  0  0
 32 33  1  0  0  0
 33 34  1  0  0  0
 33 35  1  0  0  0
 33 31  1  0  0  0
 31 27  1  0  0  0
 27 28  2  0  0  0
 27 29  1  0  0  0
 29 26  1  0  0  0
 26 36  1  0  0  0
 36 37  1  0  0  0
 37 38  2  0  0  0
 38 39  1  0  0  0
 39 40  2  0  0  0
 40 41  1  0  0  0
 41 42  2  0  0  0
 41 43  1  0  0  0
 43 44  1  0  0  0
 43 45  2  0  0  0
 26  1  1  0  0  0
  1  2  2  0  0  0
  1  3  1  0  0  0
  3  4  1  0  0  0
  4  5  1  0  0  0
  5  6  1  0  0  0
  6  7  1  0  0  0
  7  8  1  0  0  0
  8  9  2  0  0  0
  8 10  1  0  0  0
 10 12  1  0  0  0
 12 15  1  0  0  0
 15 16  1  0  0  0
 16 17  1  0  0  0
 17 18  1  0  0  0
 18 20  1  0  0  0
 20 21  1  0  0  0
 20 22  2  0  0  0
 12 13  1  0  0  0
 13 14  2  0  0  0
 42 37  1  0  0  0
  7  3  1  0  0  0
 29 30  1  0  0  0
 44 46  1  0  0  0
 44 47  1  0  0  0
 45 48  1  0  0  0
 10 11  1  0  0  0
 18 19  1  0  0  0
 21 23  1  0  0  0
 21 24  1  0  0  0
 22 25  1  0  0  0
M  END
> <minimizedAffinity>
-7.35244

> <CNNscore>
0.1299646348

> <CNNaffinity>
6.4499235153

> <CNN_VS>
0.8382619619

> <CNNaffinity_variance>
0.0882958546

$$$$
[H]N=C(c1c([H])c([H])c([H])c(C([H])([H])[C@@]([H])(C(=O)N2C([H])([H])C([H])([H])C([H])([H])[C@@]2([H])C(=O)N([H])[C@]([H])(C([H])=O)C([H])([H])C([H])([H])C([H])([H])N([H])C(=N[H])N([H])[H])N([H])C(=O)OC(C([H])([H])[H])(C([H])([H])[H])C([H])([H])[H])c1[H])N([H])[H]


 48 49  0  0  0  0  0  0  0  0999 V2000
   -4.3259   24.0961  -24.7107 C   0  0  0  0  0  0  0  0  0  0  0  0
   -3.6859   25.2236  -24.7768 O   0  0  0  0  0  0  0  0  0  0  0  0
   -4.5806   23.5388  -23.4378 N   0  0  0  0  0  0  0  0  0  0  0  0
   -5.2445   22.3093  -23.1065 C   0  0  0  0  0  0  0  0  0  0  0  0
   -6.2509   22.7965  -22.0476 C   0  0  0  0  0  0  0  0  0  0  0  0
   -5.4190   23.7597  -21.2462 C   0  0  0  0  0  0  0  0  0  0  0  0
   -4.2618   24.1432  -22.1703 C   0  0  0  0  0  0  0  0  0  0  0  0
   -3.0250   23.6907  -21.5310 C   0  0  0  0  0  0  0  0  0  0  0  0
   -1.9144   23.9980  -21.9973 O   0  0  0  0  0  0  0  0  0  0  0  0
   -3.0621   22.8887  -20.3625 N   0  0  0  0  0  0  0  0  0  0  0  0
   -4.0013   22.6361  -19.9763 H   0  0  0  0  0  0  0  0  0  0  0  0
   -1.8434   22.4249  -19.7082 C   0  0  0  0  0  0  0  0  0  0  0  0
   -1.5109   21.0387  -20.1075 C   0  0  0  0  0  0  0  0  0  0  0  0
   -0.3852   20.7041  -20.4250 O   0  0  0  0  0  0  0  0  0  0  0  0
   -1.9960   22.5950  -18.2359 C   0  0  0  0  0  0  0  0  0  0  0  0
   -3.4251   22.6960  -17.7832 C   0  0  0  0  0  0  0  0  0  0  0  0
   -3.7307   21.4497  -16.9749 C   0  0  0  0  0  0  0  0  0  0  0  0
   -2.5971   20.9552  -16.2617 N   0  0  0  0  0  0  0  0  0  0  0  0
   -1.7121   20.6734  -16.7320 H   0  0  0  0  0  0  0  0  0  0  0  0
   -2.6690   20.8397  -14.8554 C   0  0  0  0  0  0  0  0  0  0  0  0
   -2.6918   22.0075  -14.0536 N   0  0  0  0  0  0  0  0  0  0  0  0
   -2.7131   19.6801  -14.3201 N   0  0  0  0  0  0  0  0  0  0  0  0
   -2.3588   22.9407  -14.4140 H   0  0  0  0  0  0  0  0  0  0  0  0
   -3.0375   22.0257  -13.0598 H   0  0  0  0  0  0  0  0  0  0  0  0
   -2.6953   18.8384  -14.9275 H   0  0  0  0  0  0  0  0  0  0  0  0
   -4.7130   23.5508  -26.0118 C   0  0  0  0  0  0  0  0  0  0  0  0
   -5.6875   25.1401  -27.7234 C   0  0  0  0  0  0  0  0  0  0  0  0
   -6.8460   24.8354  -27.3450 O   0  0  0  0  0  0  0  0  0  0  0  0
   -4.5632   24.5312  -27.0990 N   0  0  0  0  0  0  0  0  0  0  0  0
   -3.5895   24.7479  -27.3788 H   0  0  0  0  0  0  0  0  0  0  0  0
   -5.5577   26.0637  -28.7403 O   0  0  0  0  0  0  0  0  0  0  0  0
   -3.6159   25.7361  -30.1227 C   0  0  0  0  0  0  0  0  0  0  0  0
   -5.1499   25.7021  -30.0326 C   0  0  0  0  0  0  0  0  0  0  0  0
   -5.6872   26.7689  -30.9701 C   0  0  0  0  0  0  0  0  0  0  0  0
   -5.6555   24.3744  -30.4948 C   0  0  0  0  0  0  0  0  0  0  0  0
   -4.0072   22.2814  -26.3870 C   0  0  0  0  0  0  0  0  0  0  0  0
   -2.5501   22.4021  -26.5476 C   0  0  0  0  0  0  0  0  0  0  0  0
   -2.0058   22.7710  -27.7462 C   0  0  0  0  0  0  0  0  0  0  0  0
   -0.6314   22.8525  -27.8232 C   0  0  0  0  0  0  0  0  0  0  0  0
    0.1992   22.5749  -26.7341 C   0  0  0  0  0  0  0  0  0  0  0  0
   -0.3444   22.2029  -25.5236 C   0  0  0  0  0  0  0  0  0  0  0  0
   -1.7345   22.1274  -25.4704 C   0  0  0  0  0  0  0  0  0  0  0  0
    0.4802   21.9070  -24.3702 C   0  0  0  0  0  0  0  0  0  0  0  0
   -0.0953   21.9707  -23.0802 N   0  0  0  0  0  0  0  0  0  0  0  0
    1.7053   21.5925  -24.5111 N   0  0  0  0  0  0  0  0  0  0  0  0
    0.1331   21.2523  -22.3669 H   0  0  0  0  0  0  0  0  0  0  0  0
   -0.7482   22.7262  -22.8298 H   0  0  0  0  0  0  0  0  0  0  0  0
    2.2590   21.5036  -25.3655 H   0  0  0  0  0  0  0  0  0  0  0  0
 32 33  1  0  0  0
 33 34  1  0  0  0
 33 35  1  0  0  0
 33 31  1  0  0  0
 31 27  1  0  0  0
 27 28  2  0  0  0
 27 29  1  0  0  0
 29 26  1  0  0  0
 26 36  1  0  0  0
 36 37  1  0  0  0
 37 38  2  0  0  0
 38 39  1  0  0  0
 39 40  2  0  0  0
 40 41  1  0  0  0
 41 42  2  0  0  0
 41 43  1  0  0  0
 43 44  1  0  0  0
 43 45  2  0  0  0
 26  1  1  0  0  0
  1  2  2  0  0  0
  1  3  1  0  0  0
  3  4  1  0  0  0
  4  5  1  0  0  0
  5  6  1  0  0  0
  6  7  1  0  0  0
  7  8  1  0  0  0
  8  9  2  0  0  0
  8 10  1  0  0  0
 10 12  1  0  0  0
 12 15  1  0  0  0
 15 16  1  0  0  0
 16 17  1  0  0  0
 17 18  1  0  0  0
 18 20  1  0  0  0
 20 21  1  0  0  0
 20 22  2  0  0  0
 12 13  1  0  0  0
 13 14  2  0  0  0
 42 37  1  0  0  0
  7  3  1  0  0  0
 29 30  1  0  0  0
 44 46  1  0  0  0
 44 47  1  0  0  0
 45 48  1  0  0  0
 10 11  1  0  0  0
 18 19  1  0  0  0
 21 23  1  0  0  0
 21 24  1  0  0  0
 22 25  1  0  0  0
M  END
> <minimizedAffinity>
-7.80172

> <CNNscore>
0.1286028475

> <CNNaffinity>
6.5065498352

> <CNN_VS>
0.8367608190

> <CNNaffinity_variance>
0.0965475217

$$$$
[H]N=C(c1c([H])c([H])c([H])c(C([H])([H])[C@@]([H])(C(=O)N2C([H])([H])C([H])([H])C([H])([H])[C@@]2([H])C(=O)N([H])[C@]([H])(C([H])=O)C([H])([H])C([H])([H])C([H])([H])N([H])C(=N[H])N([H])[H])N([H])C(=O)OC(C([H])([H])[H])(C([H])([H])[H])C([H])([H])[H])c1[H])N([H])[H]


 48 49  0  0  0  0  0  0  0  0999 V2000
   -5.0055   23.4146  -23.6920 C   0  0  0  0  0  0  0  0  0  0  0  0
   -4.3051   24.5078  -23.6899 O   0  0  0  0  0  0  0  0  0  0  0  0
   -5.6510   23.0250  -22.4974 N   0  0  0  0  0  0  0  0  0  0  0  0
   -6.4571   21.8640  -22.2436 C   0  0  0  0  0  0  0  0  0  0  0  0
   -7.6944   22.5046  -21.5877 C   0  0  0  0  0  0  0  0  0  0  0  0
   -7.0717   23.5360  -20.6875 C   0  0  0  0  0  0  0  0  0  0  0  0
   -5.6753   23.7716  -21.2663 C   0  0  0  0  0  0  0  0  0  0  0  0
   -4.7065   23.3678  -20.2459 C   0  0  0  0  0  0  0  0  0  0  0  0
   -4.9796   23.4511  -19.0360 O   0  0  0  0  0  0  0  0  0  0  0  0
   -3.4299   22.8712  -20.6117 N   0  0  0  0  0  0  0  0  0  0  0  0
   -3.2093   22.8034  -21.6324 H   0  0  0  0  0  0  0  0  0  0  0  0
   -2.4475   22.4635  -19.6132 C   0  0  0  0  0  0  0  0  0  0  0  0
   -1.0884   22.9271  -19.9731 C   0  0  0  0  0  0  0  0  0  0  0  0
   -0.6298   23.9784  -19.5679 O   0  0  0  0  0  0  0  0  0  0  0  0
   -2.5382   20.9880  -19.4269 C   0  0  0  0  0  0  0  0  0  0  0  0
   -1.6526   20.4604  -18.3338 C   0  0  0  0  0  0  0  0  0  0  0  0
   -1.8305   18.9548  -18.2974 C   0  0  0  0  0  0  0  0  0  0  0  0
   -0.6303   18.2435  -18.6002 N   0  0  0  0  0  0  0  0  0  0  0  0
    0.1006   18.0388  -17.8877 H   0  0  0  0  0  0  0  0  0  0  0  0
   -0.4153   17.7930  -19.9221 C   0  0  0  0  0  0  0  0  0  0  0  0
   -0.7269   16.4552  -20.2690 N   0  0  0  0  0  0  0  0  0  0  0  0
    0.0587   18.5992  -20.7930 N   0  0  0  0  0  0  0  0  0  0  0  0
   -0.8242   15.6967  -19.5432 H   0  0  0  0  0  0  0  0  0  0  0  0
   -0.8814   16.1303  -21.2580 H   0  0  0  0  0  0  0  0  0  0  0  0
    0.2795   19.5751  -20.5159 H   0  0  0  0  0  0  0  0  0  0  0  0
   -5.0330   22.7244  -24.9815 C   0  0  0  0  0  0  0  0  0  0  0  0
   -5.7886   23.9770  -27.0468 C   0  0  0  0  0  0  0  0  0  0  0  0
   -6.9410   23.4942  -26.9165 O   0  0  0  0  0  0  0  0  0  0  0  0
   -4.7741   23.6323  -26.1104 N   0  0  0  0  0  0  0  0  0  0  0  0
   -3.8088   24.0022  -26.1785 H   0  0  0  0  0  0  0  0  0  0  0  0
   -5.5573   24.8307  -28.1059 O   0  0  0  0  0  0  0  0  0  0  0  0
   -5.0358   22.8535  -29.3737 C   0  0  0  0  0  0  0  0  0  0  0  0
   -5.0035   24.3891  -29.3164 C   0  0  0  0  0  0  0  0  0  0  0  0
   -3.5464   24.8162  -29.3068 C   0  0  0  0  0  0  0  0  0  0  0  0
   -5.6498   24.9556  -30.5385 C   0  0  0  0  0  0  0  0  0  0  0  0
   -4.1124   21.5435  -25.0726 C   0  0  0  0  0  0  0  0  0  0  0  0
   -2.7310   21.8588  -25.4675 C   0  0  0  0  0  0  0  0  0  0  0  0
   -2.4496   22.3203  -26.7232 C   0  0  0  0  0  0  0  0  0  0  0  0
   -1.1298   22.5840  -27.0237 C   0  0  0  0  0  0  0  0  0  0  0  0
   -0.0978   22.3968  -26.1001 C   0  0  0  0  0  0  0  0  0  0  0  0
   -0.3762   21.9320  -24.8329 C   0  0  0  0  0  0  0  0  0  0  0  0
   -1.7161   21.6726  -24.5531 C   0  0  0  0  0  0  0  0  0  0  0  0
    0.6632   21.7245  -23.8458 C   0  0  0  0  0  0  0  0  0  0  0  0
    0.3120   21.2080  -22.5772 N   0  0  0  0  0  0  0  0  0  0  0  0
    1.8767   22.0004  -24.1124 N   0  0  0  0  0  0  0  0  0  0  0  0
    0.9094   20.4954  -22.1164 H   0  0  0  0  0  0  0  0  0  0  0  0
   -0.5385   21.5281  -22.0936 H   0  0  0  0  0  0  0  0  0  0  0  0
    2.2841   22.3741  -24.9720 H   0  0  0  0  0  0  0  0  0  0  0  0
 32 33  1  0  0  0
 33 34  1  0  0  0
 33 35  1  0  0  0
 33 31  1  0  0  0
 31 27  1  0  0  0
 27 28  2  0  0  0
 27 29  1  0  0  0
 29 26  1  0  0  0
 26 36  1  0  0  0
 36 37  1  0  0  0
 37 38  2  0  0  0
 38 39  1  0  0  0
 39 40  2  0  0  0
 40 41  1  0  0  0
 41 42  2  0  0  0
 41 43  1  0  0  0
 43 44  1  0  0  0
 43 45  2  0  0  0
 26  1  1  0  0  0
  1  2  2  0  0  0
  1  3  1  0  0  0
  3  4  1  0  0  0
  4  5  1  0  0  0
  5  6  1  0  0  0
  6  7  1  0  0  0
  7  8  1  0  0  0
  8  9  2  0  0  0
  8 10  1  0  0  0
 10 12  1  0  0  0
 12 15  1  0  0  0
 15 16  1  0  0  0
 16 17  1  0  0  0
 17 18  1  0  0  0
 18 20  1  0  0  0
 20 21  1  0  0  0
 20 22  2  0  0  0
 12 13  1  0  0  0
 13 14  2  0  0  0
 42 37  1  0  0  0
  7  3  1  0  0  0
 29 30  1  0  0  0
 44 46  1  0  0  0
 44 47  1  0  0  0
 45 48  1  0  0  0
 10 11  1  0  0  0
 18 19  1  0  0  0
 21 23  1  0  0  0
 21 24  1  0  0  0
 22 25  1  0  0  0
M  END
> <minimizedAffinity>
-8.03223

> <CNNscore>
0.1069330275

> <CNNaffinity>
6.1848444939

> <CNN_VS>
0.6613641381

> <CNNaffinity_variance>
0.3170143366

$$$$
[H]N=C(c1c([H])c([H])c([H])c(C([H])([H])[C@@]([H])(C(=O)N2C([H])([H])C([H])([H])C([H])([H])[C@@]2([H])C(=O)N([H])[C@]([H])(C([H])=O)C([H])([H])C([H])([H])C([H])([H])N([H])C(=N[H])N([H])[H])N([H])C(=O)OC(C([H])([H])[H])(C([H])([H])[H])C([H])([H])[H])c1[H])N([H])[H]


 48 49  0  0  0  0  0  0  0  0999 V2000
   -0.9866   22.5508  -20.1658 C   0  0  0  0  0  0  0  0  0  0  0  0
   -1.0207   23.7835  -19.7598 O   0  0  0  0  0  0  0  0  0  0  0  0
   -1.1357   22.2911  -21.5463 N   0  0  0  0  0  0  0  0  0  0  0  0
   -1.1519   21.0292  -22.2315 C   0  0  0  0  0  0  0  0  0  0  0  0
   -0.1343   21.2941  -23.3565 C   0  0  0  0  0  0  0  0  0  0  0  0
   -0.4918   22.6930  -23.7777 C   0  0  0  0  0  0  0  0  0  0  0  0
   -1.2499   23.2808  -22.5861 C   0  0  0  0  0  0  0  0  0  0  0  0
   -2.6071   23.5871  -23.0410 C   0  0  0  0  0  0  0  0  0  0  0  0
   -3.3989   24.2134  -22.3156 O   0  0  0  0  0  0  0  0  0  0  0  0
   -3.0545   23.1763  -24.3221 N   0  0  0  0  0  0  0  0  0  0  0  0
   -2.3808   22.6509  -24.9264 H   0  0  0  0  0  0  0  0  0  0  0  0
   -4.4025   23.4689  -24.7972 C   0  0  0  0  0  0  0  0  0  0  0  0
   -5.3071   22.3141  -24.5979 C   0  0  0  0  0  0  0  0  0  0  0  0
   -4.9100   21.2370  -24.1953 O   0  0  0  0  0  0  0  0  0  0  0  0
   -4.3231   23.9192  -26.2153 C   0  0  0  0  0  0  0  0  0  0  0  0
   -3.9274   22.8323  -27.1742 C   0  0  0  0  0  0  0  0  0  0  0  0
   -2.6376   23.2685  -27.8421 C   0  0  0  0  0  0  0  0  0  0  0  0
   -1.4879   22.5957  -27.3285 N   0  0  0  0  0  0  0  0  0  0  0  0
   -1.5416   21.8796  -26.5747 H   0  0  0  0  0  0  0  0  0  0  0  0
   -0.2165   22.9078  -27.8600 C   0  0  0  0  0  0  0  0  0  0  0  0
   -0.1133   23.4546  -29.1629 N   0  0  0  0  0  0  0  0  0  0  0  0
    0.8296   22.6934  -27.1579 N   0  0  0  0  0  0  0  0  0  0  0  0
   -0.8896   23.3650  -29.8708 H   0  0  0  0  0  0  0  0  0  0  0  0
    0.7299   23.9802  -29.5095 H   0  0  0  0  0  0  0  0  0  0  0  0
    0.7297   22.2922  -26.2057 H   0  0  0  0  0  0  0  0  0  0  0  0
   -0.7819   21.5742  -19.0961 C   0  0  0  0  0  0  0  0  0  0  0  0
    1.2289   21.8165  -17.5785 C   0  0  0  0  0  0  0  0  0  0  0  0
    1.8604   20.9922  -18.2856 O   0  0  0  0  0  0  0  0  0  0  0  0
   -0.1086   22.1570  -17.9245 N   0  0  0  0  0  0  0  0  0  0  0  0
   -0.6701   22.8285  -17.3703 H   0  0  0  0  0  0  0  0  0  0  0  0
    1.8707   22.3607  -16.4849 O   0  0  0  0  0  0  0  0  0  0  0  0
    4.2325   22.0683  -16.8388 C   0  0  0  0  0  0  0  0  0  0  0  0
    3.0819   23.0587  -16.5983 C   0  0  0  0  0  0  0  0  0  0  0  0
    3.3246   23.7249  -15.2556 C   0  0  0  0  0  0  0  0  0  0  0  0
    3.0934   24.1152  -17.6546 C   0  0  0  0  0  0  0  0  0  0  0  0
   -2.0297   20.8696  -18.6525 C   0  0  0  0  0  0  0  0  0  0  0  0
   -3.2474   21.6948  -18.6584 C   0  0  0  0  0  0  0  0  0  0  0  0
   -4.1352   21.6256  -19.6956 C   0  0  0  0  0  0  0  0  0  0  0  0
   -5.2486   22.4371  -19.6359 C   0  0  0  0  0  0  0  0  0  0  0  0
   -5.4872   23.3067  -18.5682 C   0  0  0  0  0  0  0  0  0  0  0  0
   -4.5955   23.3800  -17.5200 C   0  0  0  0  0  0  0  0  0  0  0  0
   -3.4788   22.5512  -17.6029 C   0  0  0  0  0  0  0  0  0  0  0  0
   -4.8050   24.2671  -16.3945 C   0  0  0  0  0  0  0  0  0  0  0  0
   -4.7171   23.7452  -15.0832 N   0  0  0  0  0  0  0  0  0  0  0  0
   -5.0636   25.4997  -16.5781 N   0  0  0  0  0  0  0  0  0  0  0  0
   -4.2443   24.2850  -14.3335 H   0  0  0  0  0  0  0  0  0  0  0  0
   -5.1175   22.8252  -14.8530 H   0  0  0  0  0  0  0  0  0  0  0  0
   -5.1578   26.0203  -17.4525 H   0  0  0  0  0  0  0  0  0  0  0  0
 32 33  1  0  0  0
 33 34  1  0  0  0
 33 35  1  0  0  0
 33 31  1  0  0  0
 31 27  1  0  0  0
 27 28  2  0  0  0
 27 29  1  0  0  0
 29 26  1  0  0  0
 26 36  1  0  0  0
 36 37  1  0  0  0
 37 38  2  0  0  0
 38 39  1  0  0  0
 39 40  2  0  0  0
 40 41  1  0  0  0
 41 42  2  0  0  0
 41 43  1  0  0  0
 43 44  1  0  0  0
 43 45  2  0  0  0
 26  1  1  0  0  0
  1  2  2  0  0  0
  1  3  1  0  0  0
  3  4  1  0  0  0
  4  5  1  0  0  0
  5  6  1  0  0  0
  6  7  1  0  0  0
  7  8  1  0  0  0
  8  9  2  0  0  0
  8 10  1  0  0  0
 10 12  1  0  0  0
 12 15  1  0  0  0
 15 16  1  0  0  0
 16 17  1  0  0  0
 17 18  1  0  0  0
 18 20  1  0  0  0
 20 21  1  0  0  0
 20 22  2  0  0  0
 12 13  1  0  0  0
 13 14  2  0  0  0
 42 37  1  0  0  0
  7  3  1  0  0  0
 29 30  1  0  0  0
 44 46  1  0  0  0
 44 47  1  0  0  0
 45 48  1  0  0  0
 10 11  1  0  0  0
 18 19  1  0  0  0
 21 23  1  0  0  0
 21 24  1  0  0  0
 22 25  1  0  0  0
M  END
> <minimizedAffinity>
-7.19266

> <CNNscore>
0.1062115803

> <CNNaffinity>
5.6490602493

> <CNN_VS>
0.5999956131

> <CNNaffinity_variance>
0.8742668033

$$$$
[H]c1c([H])c([H])c(C([H])([H])[C@@]2([H])C(=O)N([H])[C@]([H])(C([H])([H])c3c([H])c([H])c([H])c([H])c3[H])C(=O)N([H])[C@@]([H])([C@@]([H])(C([H])([H])[H])C([H])([H])C([H])([H])[H])C(=O)N([H])[C@@]([H])(C([H])(C([H])([H])[H])C([H])([H])[H])C(=O)N2[H])c([H])c1[H]


 41 43  0  0  0  0  0  0  0  0999 V2000
   -6.2271   21.8634  -15.4249 C   0  0  0  0  0  0  0  0  0  0  0  0
   -5.0399   22.6843  -15.3877 N   0  0  0  0  0  0  0  0  0  0  0  0
   -4.1513   23.0140  -16.4053 C   0  0  0  0  0  0  0  0  0  0  0  0
   -3.9570   24.2840  -16.5584 O   0  0  0  0  0  0  0  0  0  0  0  0
   -3.4092   22.1442  -17.3217 C   0  0  0  0  0  0  0  0  0  0  0  0
   -4.1067   21.0147  -17.8471 N   0  0  0  0  0  0  0  0  0  0  0  0
   -4.7996   20.8314  -19.0346 C   0  0  0  0  0  0  0  0  0  0  0  0
   -4.9145   19.6185  -19.4541 O   0  0  0  0  0  0  0  0  0  0  0  0
   -5.4452   21.8133  -19.9218 C   0  0  0  0  0  0  0  0  0  0  0  0
   -5.9298   23.0038  -19.2894 N   0  0  0  0  0  0  0  0  0  0  0  0
   -7.2282   23.2200  -18.7674 C   0  0  0  0  0  0  0  0  0  0  0  0
   -7.7041   24.4126  -18.7896 O   0  0  0  0  0  0  0  0  0  0  0  0
   -8.1275   22.2209  -18.1854 C   0  0  0  0  0  0  0  0  0  0  0  0
   -8.3840   22.3930  -16.7704 N   0  0  0  0  0  0  0  0  0  0  0  0
   -7.4512   22.6348  -15.7390 C   0  0  0  0  0  0  0  0  0  0  0  0
   -7.6771   23.6238  -14.9878 O   0  0  0  0  0  0  0  0  0  0  0  0
   -4.8205   23.1003  -14.4290 H   0  0  0  0  0  0  0  0  0  0  0  0
   -4.0733   20.1674  -17.1869 H   0  0  0  0  0  0  0  0  0  0  0  0
   -5.2683   23.8083  -19.2011 H   0  0  0  0  0  0  0  0  0  0  0  0
   -9.4255   22.3182  -16.5283 H   0  0  0  0  0  0  0  0  0  0  0  0
   -9.4345   22.3830  -18.9812 C   0  0  0  0  0  0  0  0  0  0  0  0
  -10.5590   21.6087  -18.3834 C   0  0  0  0  0  0  0  0  0  0  0  0
   -9.2854   22.0231  -20.4212 C   0  0  0  0  0  0  0  0  0  0  0  0
   -6.3073   21.1228  -14.0921 C   0  0  0  0  0  0  0  0  0  0  0  0
   -6.8222   19.7322  -14.2103 C   0  0  0  0  0  0  0  0  0  0  0  0
   -4.3346   19.7740  -13.2637 C   0  0  0  0  0  0  0  0  0  0  0  0
   -4.9774   21.1224  -13.3935 C   0  0  0  0  0  0  0  0  0  0  0  0
   -2.1404   21.6938  -16.5682 C   0  0  0  0  0  0  0  0  0  0  0  0
   -0.9229   22.0246  -17.3096 C   0  0  0  0  0  0  0  0  0  0  0  0
    0.2930   21.5613  -16.8707 C   0  0  0  0  0  0  0  0  0  0  0  0
    1.4668   21.8438  -17.5290 C   0  0  0  0  0  0  0  0  0  0  0  0
    1.4251   22.6157  -18.6648 C   0  0  0  0  0  0  0  0  0  0  0  0
    0.2042   23.0790  -19.1027 C   0  0  0  0  0  0  0  0  0  0  0  0
   -0.9683   22.7963  -18.4445 C   0  0  0  0  0  0  0  0  0  0  0  0
   -4.4333   22.2518  -20.9716 C   0  0  0  0  0  0  0  0  0  0  0  0
   -5.0506   22.5789  -22.2770 C   0  0  0  0  0  0  0  0  0  0  0  0
   -4.9577   23.8762  -22.7160 C   0  0  0  0  0  0  0  0  0  0  0  0
   -5.5134   24.2022  -23.9341 C   0  0  0  0  0  0  0  0  0  0  0  0
   -6.1559   23.2580  -24.7139 C   0  0  0  0  0  0  0  0  0  0  0  0
   -6.2566   21.9527  -24.2862 C   0  0  0  0  0  0  0  0  0  0  0  0
   -5.6905   21.6522  -23.0607 C   0  0  0  0  0  0  0  0  0  0  0  0
 26 27  1  0  0  0
 27 24  1  0  0  0
 24 25  1  0  0  0
 24  1  1  0  0  0
  1  2  1  0  0  0
  2  3  1  0  0  0
  3  4  2  0  0  0
  3  5  1  0  0  0
  5 28  1  0  0  0
 28 29  1  0  0  0
 29 30  2  0  0  0
 30 31  1  0  0  0
 31 32  2  0  0  0
 32 33  1  0  0  0
 33 34  2  0  0  0
  5  6  1  0  0  0
  6  7  1  0  0  0
  7  8  2  0  0  0
  7  9  1  0  0  0
  9 35  1  0  0  0
 35 36  1  0  0  0
 36 37  2  0  0  0
 37 38  1  0  0  0
 38 39  2  0  0  0
 39 40  1  0  0  0
 40 41  2  0  0  0
  9 10  1  0  0  0
 10 11  1  0  0  0
 11 12  2  0  0  0
 11 13  1  0  0  0
 13 14  1  0  0  0
 14 15  1  0  0  0
 15 16  2  0  0  0
 13 21  1  0  0  0
 21 22  1  0  0  0
 21 23  1  0  0  0
 15  1  1  0  0  0
 34 29  1  0  0  0
 41 36  1  0  0  0
  2 17  1  0  0  0
  6 18  1  0  0  0
 10 19  1  0  0  0
 14 20  1  0  0  0
M  END
> <minimizedAffinity>
-5.56164

> <CNNscore>
0.3823268712

> <CNNaffinity>
5.6415262222

> <CNN_VS>
2.1569070816

> <CNNaffinity_variance>
0.5653248429

$$$$
[H]c1c([H])c([H])c(C([H])([H])[C@@]2([H])C(=O)N([H])[C@]([H])(C([H])([H])c3c([H])c([H])c([H])c([H])c3[H])C(=O)N([H])[C@@]([H])([C@@]([H])(C([H])([H])[H])C([H])([H])C([H])([H])[H])C(=O)N([H])[C@@]([H])(C([H])(C([H])([H])[H])C([H])([H])[H])C(=O)N2[H])c([H])c1[H]


 41 43  0  0  0  0  0  0  0  0999 V2000
   -6.6760   22.7954  -20.8184 C   0  0  0  0  0  0  0  0  0  0  0  0
   -5.5194   21.9506  -20.6350 N   0  0  0  0  0  0  0  0  0  0  0  0
   -4.9046   21.5223  -19.4637 C   0  0  0  0  0  0  0  0  0  0  0  0
   -4.7599   20.2399  -19.3707 O   0  0  0  0  0  0  0  0  0  0  0  0
   -4.4008   22.3009  -18.3291 C   0  0  0  0  0  0  0  0  0  0  0  0
   -5.1984   23.4037  -17.8978 N   0  0  0  0  0  0  0  0  0  0  0  0
   -6.1565   23.5126  -16.9008 C   0  0  0  0  0  0  0  0  0  0  0  0
   -6.3626   24.6923  -16.4252 O   0  0  0  0  0  0  0  0  0  0  0  0
   -7.0024   22.4819  -16.2763 C   0  0  0  0  0  0  0  0  0  0  0  0
   -7.3265   21.3556  -17.0999 N   0  0  0  0  0  0  0  0  0  0  0  0
   -8.4617   21.2121  -17.9341 C   0  0  0  0  0  0  0  0  0  0  0  0
   -8.9354   20.0333  -18.1226 O   0  0  0  0  0  0  0  0  0  0  0  0
   -9.1884   22.2746  -18.6330 C   0  0  0  0  0  0  0  0  0  0  0  0
   -9.0968   22.2176  -20.0773 N   0  0  0  0  0  0  0  0  0  0  0  0
   -7.9439   22.0325  -20.8705 C   0  0  0  0  0  0  0  0  0  0  0  0
   -7.9872   21.1097  -21.7307 O   0  0  0  0  0  0  0  0  0  0  0  0
   -5.0773   21.6039  -21.5432 H   0  0  0  0  0  0  0  0  0  0  0  0
   -5.0019   24.2979  -18.4605 H   0  0  0  0  0  0  0  0  0  0  0  0
   -6.6677   20.5442  -17.0910 H   0  0  0  0  0  0  0  0  0  0  0  0
  -10.0486   22.3363  -20.5557 H   0  0  0  0  0  0  0  0  0  0  0  0
  -10.6498   22.0844  -18.1901 C   0  0  0  0  0  0  0  0  0  0  0  0
  -11.5785   23.0136  -18.8940 C   0  0  0  0  0  0  0  0  0  0  0  0
  -10.8305   22.2141  -16.7151 C   0  0  0  0  0  0  0  0  0  0  0  0
   -6.4280   23.6375  -22.0676 C   0  0  0  0  0  0  0  0  0  0  0  0
   -7.4669   24.6753  -22.3056 C   0  0  0  0  0  0  0  0  0  0  0  0
   -4.5820   24.7999  -23.3474 C   0  0  0  0  0  0  0  0  0  0  0  0
   -5.0661   24.2704  -22.0308 C   0  0  0  0  0  0  0  0  0  0  0  0
   -2.9853   22.7762  -18.7172 C   0  0  0  0  0  0  0  0  0  0  0  0
   -1.9670   22.2454  -17.8101 C   0  0  0  0  0  0  0  0  0  0  0  0
   -2.3419   21.6788  -16.6166 C   0  0  0  0  0  0  0  0  0  0  0  0
   -1.4259   21.1665  -15.7280 C   0  0  0  0  0  0  0  0  0  0  0  0
   -0.0895   21.2219  -16.0418 C   0  0  0  0  0  0  0  0  0  0  0  0
    0.2835   21.7906  -17.2395 C   0  0  0  0  0  0  0  0  0  0  0  0
   -0.6322   22.3024  -18.1269 C   0  0  0  0  0  0  0  0  0  0  0  0
   -6.2763   21.9396  -15.0528 C   0  0  0  0  0  0  0  0  0  0  0  0
   -6.9189   22.3222  -13.7750 C   0  0  0  0  0  0  0  0  0  0  0  0
   -8.2685   22.5723  -13.7929 C   0  0  0  0  0  0  0  0  0  0  0  0
   -8.8915   22.9177  -12.6133 C   0  0  0  0  0  0  0  0  0  0  0  0
   -8.1910   23.0161  -11.4251 C   0  0  0  0  0  0  0  0  0  0  0  0
   -6.8366   22.7680  -11.3921 C   0  0  0  0  0  0  0  0  0  0  0  0
   -6.2361   22.4234  -12.5893 C   0  0  0  0  0  0  0  0  0  0  0  0
 26 27  1  0  0  0
 27 24  1  0  0  0
 24 25  1  0  0  0
 24  1  1  0  0  0
  1  2  1  0  0  0
  2  3  1  0  0  0
  3  4  2  0  0  0
  3  5  1  0  0  0
  5 28  1  0  0  0
 28 29  1  0  0  0
 29 30  2  0  0  0
 30 31  1  0  0  0
 31 32  2  0  0  0
 32 33  1  0  0  0
 33 34  2  0  0  0
  5  6  1  0  0  0
  6  7  1  0  0  0
  7  8  2  0  0  0
  7  9  1  0  0  0
  9 35  1  0  0  0
 35 36  1  0  0  0
 36 37  2  0  0  0
 37 38  1  0  0  0
 38 39  2  0  0  0
 39 40  1  0  0  0
 40 41  2  0  0  0
  9 10  1  0  0  0
 10 11  1  0  0  0
 11 12  2  0  0  0
 11 13  1  0  0  0
 13 14  1  0  0  0
 14 15  1  0  0  0
 15 16  2  0  0  0
 13 21  1  0  0  0
 21 22  1  0  0  0
 21 23  1  0  0  0
 15  1  1  0  0  0
 34 29  1  0  0  0
 41 36  1  0  0  0
  2 17  1  0  0  0
  6 18  1  0  0  0
 10 19  1  0  0  0
 14 20  1  0  0  0
M  END
> <minimizedAffinity>
-5.75356

> <CNNscore>
0.3253366351

> <CNNaffinity>
5.3773765564

> <CNN_VS>
1.7494575977

> <CNNaffinity_variance>
0.6604412794

$$$$
[H]c1c([H])c([H])c(C([H])([H])[C@@]2([H])C(=O)N([H])[C@]([H])(C([H])([H])c3c([H])c([H])c([H])c([H])c3[H])C(=O)N([H])[C@@]([H])([C@@]([H])(C([H])([H])[H])C([H])([H])C([H])([H])[H])C(=O)N([H])[C@@]([H])(C([H])(C([H])([H])[H])C([H])([H])[H])C(=O)N2[H])c([H])c1[H]


 41 43  0  0  0  0  0  0  0  0999 V2000
   -5.5871   22.6345  -19.7495 C   0  0  0  0  0  0  0  0  0  0  0  0
   -5.5380   23.3849  -18.5169 N   0  0  0  0  0  0  0  0  0  0  0  0
   -4.6543   23.2869  -17.4478 C   0  0  0  0  0  0  0  0  0  0  0  0
   -4.0821   24.4001  -17.1199 O   0  0  0  0  0  0  0  0  0  0  0  0
   -4.2783   22.1204  -16.6446 C   0  0  0  0  0  0  0  0  0  0  0  0
   -4.0874   20.8899  -17.3431 N   0  0  0  0  0  0  0  0  0  0  0  0
   -2.9452   20.2839  -17.8449 C   0  0  0  0  0  0  0  0  0  0  0  0
   -2.9895   19.0050  -17.9956 O   0  0  0  0  0  0  0  0  0  0  0  0
   -1.6552   20.8687  -18.2470 C   0  0  0  0  0  0  0  0  0  0  0  0
   -1.7018   22.2193  -18.7221 N   0  0  0  0  0  0  0  0  0  0  0  0
   -1.8568   22.6425  -20.0645 C   0  0  0  0  0  0  0  0  0  0  0  0
   -1.3081   23.7468  -20.4235 O   0  0  0  0  0  0  0  0  0  0  0  0
   -2.5889   21.9562  -21.1316 C   0  0  0  0  0  0  0  0  0  0  0  0
   -3.7664   22.6567  -21.6010 N   0  0  0  0  0  0  0  0  0  0  0  0
   -4.7894   23.2531  -20.8327 C   0  0  0  0  0  0  0  0  0  0  0  0
   -5.0666   24.4572  -21.0909 O   0  0  0  0  0  0  0  0  0  0  0  0
   -6.2983   24.1289  -18.4223 H   0  0  0  0  0  0  0  0  0  0  0  0
   -5.0077   20.3556  -17.4932 H   0  0  0  0  0  0  0  0  0  0  0  0
   -1.6079   22.9841  -18.0159 H   0  0  0  0  0  0  0  0  0  0  0  0
   -3.8215   22.6996  -22.6706 H   0  0  0  0  0  0  0  0  0  0  0  0
   -1.5620   21.8301  -22.2707 C   0  0  0  0  0  0  0  0  0  0  0  0
   -2.2115   21.6150  -23.5949 C   0  0  0  0  0  0  0  0  0  0  0  0
   -0.5523   20.7598  -22.0257 C   0  0  0  0  0  0  0  0  0  0  0  0
   -7.0594   22.4559  -20.1124 C   0  0  0  0  0  0  0  0  0  0  0  0
   -7.2759   21.7607  -21.4096 C   0  0  0  0  0  0  0  0  0  0  0  0
   -9.0804   22.4082  -18.5925 C   0  0  0  0  0  0  0  0  0  0  0  0
   -7.8036   21.7467  -19.0170 C   0  0  0  0  0  0  0  0  0  0  0  0
   -5.3660   21.9645  -15.5616 C   0  0  0  0  0  0  0  0  0  0  0  0
   -4.9730   22.5989  -14.3028 C   0  0  0  0  0  0  0  0  0  0  0  0
   -3.8593   22.1569  -13.6319 C   0  0  0  0  0  0  0  0  0  0  0  0
   -3.4471   22.7168  -12.4455 C   0  0  0  0  0  0  0  0  0  0  0  0
   -4.1720   23.7540  -11.9104 C   0  0  0  0  0  0  0  0  0  0  0  0
   -5.2885   24.1954  -12.5854 C   0  0  0  0  0  0  0  0  0  0  0  0
   -5.6998   23.6355  -13.7709 C   0  0  0  0  0  0  0  0  0  0  0  0
   -0.7248   20.8568  -17.0417 C   0  0  0  0  0  0  0  0  0  0  0  0
    0.6700   21.2232  -17.3770 C   0  0  0  0  0  0  0  0  0  0  0  0
    1.2820   22.1729  -16.5973 C   0  0  0  0  0  0  0  0  0  0  0  0
    2.5844   22.5213  -16.8819 C   0  0  0  0  0  0  0  0  0  0  0  0
    3.2791   21.9391  -17.9264 C   0  0  0  0  0  0  0  0  0  0  0  0
    2.6778   20.9849  -18.7169 C   0  0  0  0  0  0  0  0  0  0  0  0
    1.3707   20.6535  -18.4099 C   0  0  0  0  0  0  0  0  0  0  0  0
 26 27  1  0  0  0
 27 24  1  0  0  0
 24 25  1  0  0  0
 24  1  1  0  0  0
  1  2  1  0  0  0
  2  3  1  0  0  0
  3  4  2  0  0  0
  3  5  1  0  0  0
  5 28  1  0  0  0
 28 29  1  0  0  0
 29 30  2  0  0  0
 30 31  1  0  0  0
 31 32  2  0  0  0
 32 33  1  0  0  0
 33 34  2  0  0  0
  5  6  1  0  0  0
  6  7  1  0  0  0
  7  8  2  0  0  0
  7  9  1  0  0  0
  9 35  1  0  0  0
 35 36  1  0  0  0
 36 37  2  0  0  0
 37 38  1  0  0  0
 38 39  2  0  0  0
 39 40  1  0  0  0
 40 41  2  0  0  0
  9 10  1  0  0  0
 10 11  1  0  0  0
 11 12  2  0  0  0
 11 13  1  0  0  0
 13 14  1  0  0  0
 14 15  1  0  0  0
 15 16  2  0  0  0
 13 21  1  0  0  0
 21 22  1  0  0  0
 21 23  1  0  0  0
 15  1  1  0  0  0
 34 29  1  0  0  0
 41 36  1  0  0  0
  2 17  1  0  0  0
  6 18  1  0  0  0
 10 19  1  0  0  0
 14 20  1  0  0  0
M  END
> <minimizedAffinity>
-6.19567

> <CNNscore>
0.2159560472

> <CNNaffinity>
5.5787234306

> <CNN_VS>
1.2047590017

> <CNNaffinity_variance>
0.4532752633

$$$$
[H]c1c([H])c([H])c(C([H])([H])[C@@]2([H])C(=O)N([H])[C@]([H])(C([H])([H])c3c([H])c([H])c([H])c([H])c3[H])C(=O)N([H])[C@@]([H])([C@@]([H])(C([H])([H])[H])C([H])([H])C([H])([H])[H])C(=O)N([H])[C@@]([H])(C([H])(C([H])([H])[H])C([H])([H])[H])C(=O)N2[H])c([H])c1[H]


 41 43  0  0  0  0  0  0  0  0999 V2000
   -4.3556   20.9133  -19.1774 C   0  0  0  0  0  0  0  0  0  0  0  0
   -4.4121   21.7775  -18.0220 N   0  0  0  0  0  0  0  0  0  0  0  0
   -3.3812   22.3572  -17.2907 C   0  0  0  0  0  0  0  0  0  0  0  0
   -3.4724   23.6410  -17.1582 O   0  0  0  0  0  0  0  0  0  0  0  0
   -2.2174   21.7353  -16.6535 C   0  0  0  0  0  0  0  0  0  0  0  0
   -1.5612   20.6967  -17.3808 N   0  0  0  0  0  0  0  0  0  0  0  0
   -0.4592   20.7172  -18.2227 C   0  0  0  0  0  0  0  0  0  0  0  0
    0.1856   19.6096  -18.3561 O   0  0  0  0  0  0  0  0  0  0  0  0
    0.1152   21.8189  -19.0129 C   0  0  0  0  0  0  0  0  0  0  0  0
   -0.8072   22.8268  -19.4435 N   0  0  0  0  0  0  0  0  0  0  0  0
   -1.5229   22.8570  -20.6649 C   0  0  0  0  0  0  0  0  0  0  0  0
   -1.8098   23.9997  -21.1760 O   0  0  0  0  0  0  0  0  0  0  0  0
   -1.9934   21.7102  -21.4455 C   0  0  0  0  0  0  0  0  0  0  0  0
   -3.4340   21.5776  -21.5125 N   0  0  0  0  0  0  0  0  0  0  0  0
   -4.3666   21.6598  -20.4560 C   0  0  0  0  0  0  0  0  0  0  0  0
   -5.3295   22.4617  -20.6081 O   0  0  0  0  0  0  0  0  0  0  0  0
   -5.4008   22.0032  -17.6873 H   0  0  0  0  0  0  0  0  0  0  0  0
   -2.0210   19.7369  -17.2318 H   0  0  0  0  0  0  0  0  0  0  0  0
   -0.9764   23.6338  -18.8012 H   0  0  0  0  0  0  0  0  0  0  0  0
   -3.7852   21.3949  -22.5086 H   0  0  0  0  0  0  0  0  0  0  0  0
   -1.4208   21.9535  -22.8529 C   0  0  0  0  0  0  0  0  0  0  0  0
   -2.3475   21.4949  -23.9263 C   0  0  0  0  0  0  0  0  0  0  0  0
   -0.0783   21.3332  -23.0483 C   0  0  0  0  0  0  0  0  0  0  0  0
   -5.5043   19.9152  -19.0528 C   0  0  0  0  0  0  0  0  0  0  0  0
   -5.0883   18.5864  -18.5295 C   0  0  0  0  0  0  0  0  0  0  0  0
   -7.9956   20.2278  -18.7488 C   0  0  0  0  0  0  0  0  0  0  0  0
   -6.6172   20.4746  -18.2130 C   0  0  0  0  0  0  0  0  0  0  0  0
   -2.6939   21.2165  -15.2808 C   0  0  0  0  0  0  0  0  0  0  0  0
   -1.7471   21.5507  -14.2162 C   0  0  0  0  0  0  0  0  0  0  0  0
   -0.4128   21.6948  -14.5071 C   0  0  0  0  0  0  0  0  0  0  0  0
    0.5184   22.0067  -13.5445 C   0  0  0  0  0  0  0  0  0  0  0  0
    0.1030   22.1808  -12.2466 C   0  0  0  0  0  0  0  0  0  0  0  0
   -1.2359   22.0357  -11.9577 C   0  0  0  0  0  0  0  0  0  0  0  0
   -2.1658   21.7240  -12.9200 C   0  0  0  0  0  0  0  0  0  0  0  0
    1.1704   22.5187  -18.1670 C   0  0  0  0  0  0  0  0  0  0  0  0
    2.5476   22.3283  -18.6762 C   0  0  0  0  0  0  0  0  0  0  0  0
    2.7040   21.5924  -19.8244 C   0  0  0  0  0  0  0  0  0  0  0  0
    3.9751   21.4122  -20.3249 C   0  0  0  0  0  0  0  0  0  0  0  0
    5.0839   21.9524  -19.6995 C   0  0  0  0  0  0  0  0  0  0  0  0
    4.9421   22.6930  -18.5469 C   0  0  0  0  0  0  0  0  0  0  0  0
    3.6561   22.8587  -18.0660 C   0  0  0  0  0  0  0  0  0  0  0  0
 26 27  1  0  0  0
 27 24  1  0  0  0
 24 25  1  0  0  0
 24  1  1  0  0  0
  1  2  1  0  0  0
  2  3  1  0  0  0
  3  4  2  0  0  0
  3  5  1  0  0  0
  5 28  1  0  0  0
 28 29  1  0  0  0
 29 30  2  0  0  0
 30 31  1  0  0  0
 31 32  2  0  0  0
 32 33  1  0  0  0
 33 34  2  0  0  0
  5  6  1  0  0  0
  6  7  1  0  0  0
  7  8  2  0  0  0
  7  9  1  0  0  0
  9 35  1  0  0  0
 35 36  1  0  0  0
 36 37  2  0  0  0
 37 38  1  0  0  0
 38 39  2  0  0  0
 39 40  1  0  0  0
 40 41  2  0  0  0
  9 10  1  0  0  0
 10 11  1  0  0  0
 11 12  2  0  0  0
 11 13  1  0  0  0
 13 14  1  0  0  0
 14 15  1  0  0  0
 15 16  2  0  0  0
 13 21  1  0  0  0
 21 22  1  0  0  0
 21 23  1  0  0  0
 15  1  1  0  0  0
 34 29  1  0  0  0
 41 36  1  0  0  0
  2 17  1  0  0  0
  6 18  1  0  0  0
 10 19  1  0  0  0
 14 20  1  0  0  0
M  END
> <minimizedAffinity>
-6.19757

> <CNNscore>
0.2125878036

> <CNNaffinity>
5.4837961197

> <CNN_VS>
1.1657881737

> <CNNaffinity_variance>
0.3260701001

$$$$
[H]c1c([H])c([H])c(C([H])([H])[C@@]2([H])C(=O)N([H])[C@]([H])(C([H])([H])c3c([H])c([H])c([H])c([H])c3[H])C(=O)N([H])[C@@]([H])([C@@]([H])(C([H])([H])[H])C([H])([H])C([H])([H])[H])C(=O)N([H])[C@@]([H])(C([H])(C([H])([H])[H])C([H])([H])[H])C(=O)N2[H])c([H])c1[H]


 41 43  0  0  0  0  0  0  0  0999 V2000
   -1.9330   21.7275  -20.7393 C   0  0  0  0  0  0  0  0  0  0  0  0
   -1.2478   22.6483  -21.6154 N   0  0  0  0  0  0  0  0  0  0  0  0
   -1.6407   23.1719  -22.8422 C   0  0  0  0  0  0  0  0  0  0  0  0
   -1.6120   24.4638  -22.9090 O   0  0  0  0  0  0  0  0  0  0  0  0
   -2.0785   22.4839  -24.0596 C   0  0  0  0  0  0  0  0  0  0  0  0
   -2.9409   21.3587  -23.8907 N   0  0  0  0  0  0  0  0  0  0  0  0
   -4.3226   21.2437  -23.9312 C   0  0  0  0  0  0  0  0  0  0  0  0
   -4.7964   20.0795  -24.2153 O   0  0  0  0  0  0  0  0  0  0  0  0
   -5.3694   22.2523  -23.6976 C   0  0  0  0  0  0  0  0  0  0  0  0
   -5.0258   23.3137  -22.7990 N   0  0  0  0  0  0  0  0  0  0  0  0
   -5.2433   23.3462  -21.4002 C   0  0  0  0  0  0  0  0  0  0  0  0
   -5.4539   24.4833  -20.8416 O   0  0  0  0  0  0  0  0  0  0  0  0
   -5.2588   22.2077  -20.4787 C   0  0  0  0  0  0  0  0  0  0  0  0
   -4.1758   22.1963  -19.5172 N   0  0  0  0  0  0  0  0  0  0  0  0
   -2.8003   22.4094  -19.7518 C   0  0  0  0  0  0  0  0  0  0  0  0
   -2.2304   23.2828  -19.0406 O   0  0  0  0  0  0  0  0  0  0  0  0
   -0.2962   22.9740  -21.2565 H   0  0  0  0  0  0  0  0  0  0  0  0
   -2.3990   20.4503  -23.7009 H   0  0  0  0  0  0  0  0  0  0  0  0
   -4.5702   24.1625  -23.2046 H   0  0  0  0  0  0  0  0  0  0  0  0
   -4.5125   21.9965  -18.5194 H   0  0  0  0  0  0  0  0  0  0  0  0
   -6.6086   22.3324  -19.7502 C   0  0  0  0  0  0  0  0  0  0  0  0
   -6.5844   21.6937  -18.4038 C   0  0  0  0  0  0  0  0  0  0  0  0
   -7.7487   21.7895  -20.5442 C   0  0  0  0  0  0  0  0  0  0  0  0
   -0.8709   20.8391  -20.0961 C   0  0  0  0  0  0  0  0  0  0  0  0
   -1.4034   19.9414  -19.0361 C   0  0  0  0  0  0  0  0  0  0  0  0
    0.3553   18.7004  -20.6613 C   0  0  0  0  0  0  0  0  0  0  0  0
   -0.1392   20.0350  -21.1329 C   0  0  0  0  0  0  0  0  0  0  0  0
   -0.7981   22.0750  -24.8170 C   0  0  0  0  0  0  0  0  0  0  0  0
   -0.8513   22.4697  -26.2251 C   0  0  0  0  0  0  0  0  0  0  0  0
   -2.0659   22.6427  -26.8421 C   0  0  0  0  0  0  0  0  0  0  0  0
   -2.1721   23.0116  -28.1626 C   0  0  0  0  0  0  0  0  0  0  0  0
   -1.0259   23.2147  -28.8923 C   0  0  0  0  0  0  0  0  0  0  0  0
    0.1909   23.0406  -28.2710 C   0  0  0  0  0  0  0  0  0  0  0  0
    0.2963   22.6720  -26.9515 C   0  0  0  0  0  0  0  0  0  0  0  0
   -5.7209   22.8989  -25.0306 C   0  0  0  0  0  0  0  0  0  0  0  0
   -5.5730   24.3720  -25.0221 C   0  0  0  0  0  0  0  0  0  0  0  0
   -4.4097   24.8964  -25.5282 C   0  0  0  0  0  0  0  0  0  0  0  0
   -4.2542   26.2654  -25.5427 C   0  0  0  0  0  0  0  0  0  0  0  0
   -5.2366   27.1119  -25.0625 C   0  0  0  0  0  0  0  0  0  0  0  0
   -6.4089   26.6000  -24.5519 C   0  0  0  0  0  0  0  0  0  0  0  0
   -6.5395   25.2232  -24.5490 C   0  0  0  0  0  0  0  0  0  0  0  0
 26 27  1  0  0  0
 27 24  1  0  0  0
 24 25  1  0  0  0
 24  1  1  0  0  0
  1  2  1  0  0  0
  2  3  1  0  0  0
  3  4  2  0  0  0
  3  5  1  0  0  0
  5 28  1  0  0  0
 28 29  1  0  0  0
 29 30  2  0  0  0
 30 31  1  0  0  0
 31 32  2  0  0  0
 32 33  1  0  0  0
 33 34  2  0  0  0
  5  6  1  0  0  0
  6  7  1  0  0  0
  7  8  2  0  0  0
  7  9  1  0  0  0
  9 35  1  0  0  0
 35 36  1  0  0  0
 36 37  2  0  0  0
 37 38  1  0  0  0
 38 39  2  0  0  0
 39 40  1  0  0  0
 40 41  2  0  0  0
  9 10  1  0  0  0
 10 11  1  0  0  0
 11 12  2  0  0  0
 11 13  1  0  0  0
 13 14  1  0  0  0
 14 15  1  0  0  0
 15 16  2  0  0  0
 13 21  1  0  0  0
 21 22  1  0  0  0
 21 23  1  0  0  0
 15  1  1  0  0  0
 34 29  1  0  0  0
 41 36  1  0  0  0
  2 17  1  0  0  0
  6 18  1  0  0  0
 10 19  1  0  0  0
 14 20  1  0  0  0
M  END
> <minimizedAffinity>
-9.44652

> <CNNscore>
0.1999637634

> <CNNaffinity>
6.3590478897

> <CNN_VS>
1.2715791464

> <CNNaffinity_variance>
0.4057907462

$$$$
[H]c1c([H])c([H])c(C([H])([H])[C@@]2([H])C(=O)N([H])[C@]([H])(C([H])([H])c3c([H])c([H])c([H])c([H])c3[H])C(=O)N([H])[C@@]([H])([C@@]([H])(C([H])([H])[H])C([H])([H])C([H])([H])[H])C(=O)N([H])[C@@]([H])(C([H])(C([H])([H])[H])C([H])([H])[H])C(=O)N2[H])c([H])c1[H]


 41 43  0  0  0  0  0  0  0  0999 V2000
   -6.4983   23.3736  -22.9647 C   0  0  0  0  0  0  0  0  0  0  0  0
   -6.1993   22.3479  -23.9361 N   0  0  0  0  0  0  0  0  0  0  0  0
   -5.0194   21.6462  -24.1576 C   0  0  0  0  0  0  0  0  0  0  0  0
   -5.1491   20.3589  -24.1434 O   0  0  0  0  0  0  0  0  0  0  0  0
   -3.6631   22.1439  -24.4026 C   0  0  0  0  0  0  0  0  0  0  0  0
   -3.2380   23.2668  -23.6301 N   0  0  0  0  0  0  0  0  0  0  0  0
   -2.5150   23.3512  -22.4494 C   0  0  0  0  0  0  0  0  0  0  0  0
   -1.8829   24.4539  -22.2376 O   0  0  0  0  0  0  0  0  0  0  0  0
   -2.3424   22.3691  -21.3661 C   0  0  0  0  0  0  0  0  0  0  0  0
   -3.4277   21.4544  -21.1725 N   0  0  0  0  0  0  0  0  0  0  0  0
   -4.5335   21.6203  -20.3038 C   0  0  0  0  0  0  0  0  0  0  0  0
   -5.0658   20.5722  -19.7864 O   0  0  0  0  0  0  0  0  0  0  0  0
   -5.1686   22.8793  -19.9074 C   0  0  0  0  0  0  0  0  0  0  0  0
   -6.5242   23.0478  -20.3886 N   0  0  0  0  0  0  0  0  0  0  0  0
   -7.0200   22.8266  -21.6916 C   0  0  0  0  0  0  0  0  0  0  0  0
   -8.0285   22.0747  -21.7967 O   0  0  0  0  0  0  0  0  0  0  0  0
   -7.0160   22.0937  -24.5754 H   0  0  0  0  0  0  0  0  0  0  0  0
   -3.5437   24.2022  -24.0619 H   0  0  0  0  0  0  0  0  0  0  0  0
   -3.4133   20.5639  -21.7196 H   0  0  0  0  0  0  0  0  0  0  0  0
   -7.1947   23.3836  -19.6227 H   0  0  0  0  0  0  0  0  0  0  0  0
   -5.1570   22.8379  -18.3692 C   0  0  0  0  0  0  0  0  0  0  0  0
   -6.0180   23.8965  -17.7696 C   0  0  0  0  0  0  0  0  0  0  0  0
   -3.7822   22.9236  -17.7968 C   0  0  0  0  0  0  0  0  0  0  0  0
   -7.4512   24.3635  -23.6303 C   0  0  0  0  0  0  0  0  0  0  0  0
   -7.6471   25.6185  -22.8561 C   0  0  0  0  0  0  0  0  0  0  0  0
   -6.0333   25.8206  -25.1348 C   0  0  0  0  0  0  0  0  0  0  0  0
   -7.0062   24.6847  -25.0287 C   0  0  0  0  0  0  0  0  0  0  0  0
   -3.5778   22.4611  -25.9101 C   0  0  0  0  0  0  0  0  0  0  0  0
   -2.1931   22.4801  -26.3829 C   0  0  0  0  0  0  0  0  0  0  0  0
   -1.9066   22.9426  -27.6438 C   0  0  0  0  0  0  0  0  0  0  0  0
   -0.6236   22.9807  -28.1374 C   0  0  0  0  0  0  0  0  0  0  0  0
    0.4090   22.5417  -27.3446 C   0  0  0  0  0  0  0  0  0  0  0  0
    0.1188   22.0784  -26.0804 C   0  0  0  0  0  0  0  0  0  0  0  0
   -1.1634   22.0406  -25.5879 C   0  0  0  0  0  0  0  0  0  0  0  0
   -1.1076   21.5310  -21.6684 C   0  0  0  0  0  0  0  0  0  0  0  0
   -0.0225   21.7113  -20.6773 C   0  0  0  0  0  0  0  0  0  0  0  0
   -0.2532   22.5711  -19.6325 C   0  0  0  0  0  0  0  0  0  0  0  0
    0.7369   22.7456  -18.6902 C   0  0  0  0  0  0  0  0  0  0  0  0
    1.9452   22.0785  -18.7761 C   0  0  0  0  0  0  0  0  0  0  0  0
    2.1906   21.2128  -19.8188 C   0  0  0  0  0  0  0  0  0  0  0  0
    1.1806   21.0558  -20.7504 C   0  0  0  0  0  0  0  0  0  0  0  0
 26 27  1  0  0  0
 27 24  1  0  0  0
 24 25  1  0  0  0
 24  1  1  0  0  0
  1  2  1  0  0  0
  2  3  1  0  0  0
  3  4  2  0  0  0
  3  5  1  0  0  0
  5 28  1  0  0  0
 28 29  1  0  0  0
 29 30  2  0  0  0
 30 31  1  0  0  0
 31 32  2  0  0  0
 32 33  1  0  0  0
 33 34  2  0  0  0
  5  6  1  0  0  0
  6  7  1  0  0  0
  7  8  2  0  0  0
  7  9  1  0  0  0
  9 35  1  0  0  0
 35 36  1  0  0  0
 36 37  2  0  0  0
 37 38  1  0  0  0
 38 39  2  0  0  0
 39 40  1  0  0  0
 40 41  2  0  0  0
  9 10  1  0  0  0
 10 11  1  0  0  0
 11 12  2  0  0  0
 11 13  1  0  0  0
 13 14  1  0  0  0
 14 15  1  0  0  0
 15 16  2  0  0  0
 13 21  1  0  0  0
 21 22  1  0  0  0
 21 23  1  0  0  0
 15  1  1  0  0  0
 34 29  1  0  0  0
 41 36  1  0  0  0
  2 17  1  0  0  0
  6 18  1  0  0  0
 10 19  1  0  0  0
 14 20  1  0  0  0
M  END
> <minimizedAffinity>
-9.18844

> <CNNscore>
0.1916573942

> <CNNaffinity>
5.9368062019

> <CNN_VS>
1.1378327608

> <CNNaffinity_variance>
0.7397843599

$$$$
[H]c1c([H])c([H])c(C([H])([H])[C@@]2([H])C(=O)N([H])[C@]([H])(C([H])([H])c3c([H])c([H])c([H])c([H])c3[H])C(=O)N([H])[C@@]([H])([C@@]([H])(C([H])([H])[H])C([H])([H])C([H])([H])[H])C(=O)N([H])[C@@]([H])(C([H])(C([H])([H])[H])C([H])([H])[H])C(=O)N2[H])c([H])c1[H]


 41 43  0  0  0  0  0  0  0  0999 V2000
   -3.7170   22.2870  -20.9881 C   0  0  0  0  0  0  0  0  0  0  0  0
   -4.5215   21.2785  -20.3396 N   0  0  0  0  0  0  0  0  0  0  0  0
   -5.8167   21.3564  -19.8396 C   0  0  0  0  0  0  0  0  0  0  0  0
   -6.6228   20.4513  -20.2924 O   0  0  0  0  0  0  0  0  0  0  0  0
   -6.3988   22.3030  -18.8844 C   0  0  0  0  0  0  0  0  0  0  0  0
   -6.0139   23.6716  -19.0156 N   0  0  0  0  0  0  0  0  0  0  0  0
   -6.6132   24.7377  -19.6697 C   0  0  0  0  0  0  0  0  0  0  0  0
   -6.3190   25.9167  -19.2409 O   0  0  0  0  0  0  0  0  0  0  0  0
   -7.5537   24.7530  -20.8024 C   0  0  0  0  0  0  0  0  0  0  0  0
   -7.4471   23.6568  -21.7186 N   0  0  0  0  0  0  0  0  0  0  0  0
   -6.6578   23.6053  -22.8930 C   0  0  0  0  0  0  0  0  0  0  0  0
   -7.0754   22.8951  -23.8783 O   0  0  0  0  0  0  0  0  0  0  0  0
   -5.3817   24.2828  -23.1341 C   0  0  0  0  0  0  0  0  0  0  0  0
   -4.2460   23.3953  -23.2762 N   0  0  0  0  0  0  0  0  0  0  0  0
   -3.8873   22.3017  -22.4588 C   0  0  0  0  0  0  0  0  0  0  0  0
   -3.6845   21.1996  -23.0398 O   0  0  0  0  0  0  0  0  0  0  0  0
   -4.0415   20.3303  -20.2356 H   0  0  0  0  0  0  0  0  0  0  0  0
   -5.0929   23.8901  -18.5068 H   0  0  0  0  0  0  0  0  0  0  0  0
   -8.0091   22.7995  -21.5146 H   0  0  0  0  0  0  0  0  0  0  0  0
   -3.6334   23.6417  -24.1206 H   0  0  0  0  0  0  0  0  0  0  0  0
   -5.6101   25.0595  -24.4427 C   0  0  0  0  0  0  0  0  0  0  0  0
   -4.3370   25.3257  -25.1707 C   0  0  0  0  0  0  0  0  0  0  0  0
   -6.3487   26.3390  -24.2366 C   0  0  0  0  0  0  0  0  0  0  0  0
   -2.2713   22.0627  -20.5514 C   0  0  0  0  0  0  0  0  0  0  0  0
   -1.2994   22.9792  -21.2059 C   0  0  0  0  0  0  0  0  0  0  0  0
   -1.3926   21.0161  -18.4232 C   0  0  0  0  0  0  0  0  0  0  0  0
   -2.1382   22.1517  -19.0577 C   0  0  0  0  0  0  0  0  0  0  0  0
   -6.0507   21.7758  -17.4768 C   0  0  0  0  0  0  0  0  0  0  0  0
   -7.2377   21.2947  -16.7689 C   0  0  0  0  0  0  0  0  0  0  0  0
   -7.6609   19.9999  -16.9435 C   0  0  0  0  0  0  0  0  0  0  0  0
   -8.7699   19.4981  -16.3037 C   0  0  0  0  0  0  0  0  0  0  0  0
   -9.4809   20.3173  -15.4605 C   0  0  0  0  0  0  0  0  0  0  0  0
   -9.0541   21.6153  -15.2873 C   0  0  0  0  0  0  0  0  0  0  0  0
   -7.9460   22.1162  -15.9269 C   0  0  0  0  0  0  0  0  0  0  0  0
   -8.9726   24.7303  -20.2504 C   0  0  0  0  0  0  0  0  0  0  0  0
   -9.8665   25.7180  -20.8964 C   0  0  0  0  0  0  0  0  0  0  0  0
  -10.6773   25.2727  -21.9106 C   0  0  0  0  0  0  0  0  0  0  0  0
  -11.5273   26.1707  -22.5187 C   0  0  0  0  0  0  0  0  0  0  0  0
  -11.5786   27.4972  -22.1313 C   0  0  0  0  0  0  0  0  0  0  0  0
  -10.7709   27.9580  -21.1152 C   0  0  0  0  0  0  0  0  0  0  0  0
   -9.9275   27.0365  -20.5219 C   0  0  0  0  0  0  0  0  0  0  0  0
 26 27  1  0  0  0
 27 24  1  0  0  0
 24 25  1  0  0  0
 24  1  1  0  0  0
  1  2  1  0  0  0
  2  3  1  0  0  0
  3  4  2  0  0  0
  3  5  1  0  0  0
  5 28  1  0  0  0
 28 29  1  0  0  0
 29 30  2  0  0  0
 30 31  1  0  0  0
 31 32  2  0  0  0
 32 33  1  0  0  0
 33 34  2  0  0  0
  5  6  1  0  0  0
  6  7  1  0  0  0
  7  8  2  0  0  0
  7  9  1  0  0  0
  9 35  1  0  0  0
 35 36  1  0  0  0
 36 37  2  0  0  0
 37 38  1  0  0  0
 38 39  2  0  0  0
 39 40  1  0  0  0
 40 41  2  0  0  0
  9 10  1  0  0  0
 10 11  1  0  0  0
 11 12  2  0  0  0
 11 13  1  0  0  0
 13 14  1  0  0  0
 14 15  1  0  0  0
 15 16  2  0  0  0
 13 21  1  0  0  0
 21 22  1  0  0  0
 21 23  1  0  0  0
 15  1  1  0  0  0
 34 29  1  0  0  0
 41 36  1  0  0  0
  2 17  1  0  0  0
  6 18  1  0  0  0
 10 19  1  0  0  0
 14 20  1  0  0  0
M  END
> <minimizedAffinity>
-6.53039

> <CNNscore>
0.1810777783

> <CNNaffinity>
5.6243915558

> <CNN_VS>
1.0184522867

> <CNNaffinity_variance>
0.5992697477

$$$$
[H]c1c([H])c([H])c(C([H])([H])[C@@]2([H])C(=O)N([H])[C@]([H])(C([H])([H])c3c([H])c([H])c([H])c([H])c3[H])C(=O)N([H])[C@@]([H])([C@@]([H])(C([H])([H])[H])C([H])([H])C([H])([H])[H])C(=O)N([H])[C@@]([H])(C([H])(C([H])([H])[H])C([H])([H])[H])C(=O)N2[H])c([H])c1[H]


 41 43  0  0  0  0  0  0  0  0999 V2000
   -3.4821   23.1931  -22.2418 C   0  0  0  0  0  0  0  0  0  0  0  0
   -4.0338   24.5273  -22.2209 N   0  0  0  0  0  0  0  0  0  0  0  0
   -5.2885   24.9672  -21.8139 C   0  0  0  0  0  0  0  0  0  0  0  0
   -5.2661   25.9128  -20.9310 O   0  0  0  0  0  0  0  0  0  0  0  0
   -6.6205   24.5227  -22.2327 C   0  0  0  0  0  0  0  0  0  0  0  0
   -6.8061   23.1184  -22.4111 N   0  0  0  0  0  0  0  0  0  0  0  0
   -7.2975   22.1394  -21.5604 C   0  0  0  0  0  0  0  0  0  0  0  0
   -7.7877   21.0852  -22.1161 O   0  0  0  0  0  0  0  0  0  0  0  0
   -7.3556   22.0974  -20.0897 C   0  0  0  0  0  0  0  0  0  0  0  0
   -6.3331   22.8284  -19.4024 N   0  0  0  0  0  0  0  0  0  0  0  0
   -5.0803   22.3317  -18.9678 C   0  0  0  0  0  0  0  0  0  0  0  0
   -4.5535   22.8428  -17.9139 O   0  0  0  0  0  0  0  0  0  0  0  0
   -4.2821   21.2728  -19.5901 C   0  0  0  0  0  0  0  0  0  0  0  0
   -3.0247   21.7186  -20.1537 N   0  0  0  0  0  0  0  0  0  0  0  0
   -2.7893   22.8365  -20.9828 C   0  0  0  0  0  0  0  0  0  0  0  0
   -1.8818   23.6345  -20.6178 O   0  0  0  0  0  0  0  0  0  0  0  0
   -3.3681   25.2859  -22.5699 H   0  0  0  0  0  0  0  0  0  0  0  0
   -6.5054   22.7849  -23.3875 H   0  0  0  0  0  0  0  0  0  0  0  0
   -6.5189   23.8343  -19.1876 H   0  0  0  0  0  0  0  0  0  0  0  0
   -2.2029   21.0880  -19.8782 H   0  0  0  0  0  0  0  0  0  0  0  0
   -4.0228   20.2766  -18.4462 C   0  0  0  0  0  0  0  0  0  0  0  0
   -2.6009   19.8326  -18.3959 C   0  0  0  0  0  0  0  0  0  0  0  0
   -4.9200   19.0860  -18.4992 C   0  0  0  0  0  0  0  0  0  0  0  0
   -2.5839   23.0939  -23.4725 C   0  0  0  0  0  0  0  0  0  0  0  0
   -1.1312   23.0709  -23.1529 C   0  0  0  0  0  0  0  0  0  0  0  0
   -4.1435   21.1357  -23.8328 C   0  0  0  0  0  0  0  0  0  0  0  0
   -2.9461   21.9011  -24.3108 C   0  0  0  0  0  0  0  0  0  0  0  0
   -6.9463   25.2812  -23.5361 C   0  0  0  0  0  0  0  0  0  0  0  0
   -6.1535   24.7885  -24.6632 C   0  0  0  0  0  0  0  0  0  0  0  0
   -5.0505   25.4907  -25.0830 C   0  0  0  0  0  0  0  0  0  0  0  0
   -4.2723   25.0728  -26.1370 C   0  0  0  0  0  0  0  0  0  0  0  0
   -4.6070   23.9137  -26.7944 C   0  0  0  0  0  0  0  0  0  0  0  0
   -5.7136   23.2115  -26.3711 C   0  0  0  0  0  0  0  0  0  0  0  0
   -6.4908   23.6296  -25.3180 C   0  0  0  0  0  0  0  0  0  0  0  0
   -8.6899   22.6797  -19.6438 C   0  0  0  0  0  0  0  0  0  0  0  0
   -9.4271   21.8006  -18.7079 C   0  0  0  0  0  0  0  0  0  0  0  0
  -10.7481   22.0901  -18.4720 C   0  0  0  0  0  0  0  0  0  0  0  0
  -11.4587   21.2786  -17.6145 C   0  0  0  0  0  0  0  0  0  0  0  0
  -10.8731   20.1904  -16.9939 C   0  0  0  0  0  0  0  0  0  0  0  0
   -9.5488   19.8880  -17.2212 C   0  0  0  0  0  0  0  0  0  0  0  0
   -8.8587   20.7180  -18.0857 C   0  0  0  0  0  0  0  0  0  0  0  0
 26 27  1  0  0  0
 27 24  1  0  0  0
 24 25  1  0  0  0
 24  1  1  0  0  0
  1  2  1  0  0  0
  2  3  1  0  0  0
  3  4  2  0  0  0
  3  5  1  0  0  0
  5 28  1  0  0  0
 28 29  1  0  0  0
 29 30  2  0  0  0
 30 31  1  0  0  0
 31 32  2  0  0  0
 32 33  1  0  0  0
 33 34  2  0  0  0
  5  6  1  0  0  0
  6  7  1  0  0  0
  7  8  2  0  0  0
  7  9  1  0  0  0
  9 35  1  0  0  0
 35 36  1  0  0  0
 36 37  2  0  0  0
 37 38  1  0  0  0
 38 39  2  0  0  0
 39 40  1  0  0  0
 40 41  2  0  0  0
  9 10  1  0  0  0
 10 11  1  0  0  0
 11 12  2  0  0  0
 11 13  1  0  0  0
 13 14  1  0  0  0
 14 15  1  0  0  0
 15 16  2  0  0  0
 13 21  1  0  0  0
 21 22  1  0  0  0
 21 23  1  0  0  0
 15  1  1  0  0  0
 34 29  1  0  0  0
 41 36  1  0  0  0
  2 17  1  0  0  0
  6 18  1  0  0  0
 10 19  1  0  0  0
 14 20  1  0  0  0
M  END
> <minimizedAffinity>
-7.64612

> <CNNscore>
0.1777975559

> <CNNaffinity>
5.8174624443

> <CNN_VS>
1.0343306065

> <CNNaffinity_variance>
0.5330386758

$$$$
[H]c1c([H])c([H])c(C([H])([H])[C@@]2([H])C(=O)N([H])[C@]([H])(C([H])([H])c3c([H])c([H])c([H])c([H])c3[H])C(=O)N([H])[C@@]([H])([C@@]([H])(C([H])([H])[H])C([H])([H])C([H])([H])[H])C(=O)N([H])[C@@]([H])(C([H])(C([H])([H])[H])C([H])([H])[H])C(=O)N2[H])c([H])c1[H]


 41 43  0  0  0  0  0  0  0  0999 V2000
   -3.4925   22.3234  -21.1370 C   0  0  0  0  0  0  0  0  0  0  0  0
   -3.3429   21.1816  -20.2659 N   0  0  0  0  0  0  0  0  0  0  0  0
   -4.0198   20.8584  -19.0951 C   0  0  0  0  0  0  0  0  0  0  0  0
   -4.5554   19.6805  -19.0918 O   0  0  0  0  0  0  0  0  0  0  0  0
   -4.2149   21.6468  -17.8754 C   0  0  0  0  0  0  0  0  0  0  0  0
   -4.4925   23.0372  -18.0429 N   0  0  0  0  0  0  0  0  0  0  0  0
   -5.6884   23.7384  -18.0861 C   0  0  0  0  0  0  0  0  0  0  0  0
   -5.6362   24.9877  -17.7750 O   0  0  0  0  0  0  0  0  0  0  0  0
   -7.0450   23.2867  -18.4376 C   0  0  0  0  0  0  0  0  0  0  0  0
   -7.1209   22.1970  -19.3644 N   0  0  0  0  0  0  0  0  0  0  0  0
   -7.2183   22.2864  -20.7742 C   0  0  0  0  0  0  0  0  0  0  0  0
   -7.8523   21.3626  -21.4019 O   0  0  0  0  0  0  0  0  0  0  0  0
   -6.6684   23.3353  -21.6362 C   0  0  0  0  0  0  0  0  0  0  0  0
   -5.6127   22.8934  -22.5238 N   0  0  0  0  0  0  0  0  0  0  0  0
   -4.4865   22.1016  -22.2117 C   0  0  0  0  0  0  0  0  0  0  0  0
   -4.2930   21.0801  -22.9276 O   0  0  0  0  0  0  0  0  0  0  0  0
   -2.5988   20.4822  -20.5784 H   0  0  0  0  0  0  0  0  0  0  0  0
   -3.5991   23.6245  -18.1511 H   0  0  0  0  0  0  0  0  0  0  0  0
   -7.1091   21.2278  -18.9734 H   0  0  0  0  0  0  0  0  0  0  0  0
   -5.7494   23.2367  -23.5300 H   0  0  0  0  0  0  0  0  0  0  0  0
   -7.8772   23.8200  -22.4559 C   0  0  0  0  0  0  0  0  0  0  0  0
   -7.4694   24.4573  -23.7400 C   0  0  0  0  0  0  0  0  0  0  0  0
   -8.7615   24.7475  -21.6924 C   0  0  0  0  0  0  0  0  0  0  0  0
   -2.1036   22.6754  -21.6645 C   0  0  0  0  0  0  0  0  0  0  0  0
   -1.2290   23.3317  -20.6559 C   0  0  0  0  0  0  0  0  0  0  0  0
   -0.7964   21.6670  -23.5805 C   0  0  0  0  0  0  0  0  0  0  0  0
   -1.4182   21.4647  -22.2313 C   0  0  0  0  0  0  0  0  0  0  0  0
   -2.9484   21.4476  -17.0171 C   0  0  0  0  0  0  0  0  0  0  0  0
   -3.2782   21.1983  -15.6133 C   0  0  0  0  0  0  0  0  0  0  0  0
   -3.5910   22.2493  -14.7866 C   0  0  0  0  0  0  0  0  0  0  0  0
   -3.9069   22.0704  -13.4602 C   0  0  0  0  0  0  0  0  0  0  0  0
   -3.9104   20.7983  -12.9414 C   0  0  0  0  0  0  0  0  0  0  0  0
   -3.5964   19.7462  -13.7728 C   0  0  0  0  0  0  0  0  0  0  0  0
   -3.2808   19.9255  -15.0980 C   0  0  0  0  0  0  0  0  0  0  0  0
   -7.7462   22.8329  -17.1644 C   0  0  0  0  0  0  0  0  0  0  0  0
   -7.7227   21.3645  -16.9765 C   0  0  0  0  0  0  0  0  0  0  0  0
   -6.8621   20.8585  -16.0343 C   0  0  0  0  0  0  0  0  0  0  0  0
   -6.8315   19.4958  -15.8323 C   0  0  0  0  0  0  0  0  0  0  0  0
   -7.6421   18.6377  -16.5526 C   0  0  0  0  0  0  0  0  0  0  0  0
   -8.5104   19.1311  -17.5010 C   0  0  0  0  0  0  0  0  0  0  0  0
   -8.5214   20.5019  -17.6839 C   0  0  0  0  0  0  0  0  0  0  0  0
 26 27  1  0  0  0
 27 24  1  0  0  0
 24 25  1  0  0  0
 24  1  1  0  0  0
  1  2  1  0  0  0
  2  3  1  0  0  0
  3  4  2  0  0  0
  3  5  1  0  0  0
  5 28  1  0  0  0
 28 29  1  0  0  0
 29 30  2  0  0  0
 30 31  1  0  0  0
 31 32  2  0  0  0
 32 33  1  0  0  0
 33 34  2  0  0  0
  5  6  1  0  0  0
  6  7  1  0  0  0
  7  8  2  0  0  0
  7  9  1  0  0  0
  9 35  1  0  0  0
 35 36  1  0  0  0
 36 37  2  0  0  0
 37 38  1  0  0  0
 38 39  2  0  0  0
 39 40  1  0  0  0
 40 41  2  0  0  0
  9 10  1  0  0  0
 10 11  1  0  0  0
 11 12  2  0  0  0
 11 13  1  0  0  0
 13 14  1  0  0  0
 14 15  1  0  0  0
 15 16  2  0  0  0
 13 21  1  0  0  0
 21 22  1  0  0  0
 21 23  1  0  0  0
 15  1  1  0  0  0
 34 29  1  0  0  0
 41 36  1  0  0  0
  2 17  1  0  0  0
  6 18  1  0  0  0
 10 19  1  0  0  0
 14 20  1  0  0  0
M  END
> <minimizedAffinity>
-5.74306

> <CNNscore>
0.1760943383

> <CNNaffinity>
5.5569729805

> <CNN_VS>
0.9785515070

> <CNNaffinity_variance>
0.3018136919

$$$$
[H]c1nc(N([H])c2c([H])c(OC([H])([H])[H])c(OC([H])([H])[H])c(OC([H])([H])[H])c2[H])nc(N([H])c2nc3c(c([H])c2[H])OC(C([H])([H])[H])(C([H])([H])[H])C(=O)N3[H])c1F


 37 40  0  0  0  0  0  0  0  0999 V2000
   -0.6598   22.6538  -26.4556 C   0  0  0  0  0  0  0  0  0  0  0  0
   -0.6740   22.4441  -27.7774 N   0  0  0  0  0  0  0  0  0  0  0  0
   -1.6989   22.7145  -28.5884 C   0  0  0  0  0  0  0  0  0  0  0  0
   -2.8325   23.2465  -28.0537 C   0  0  0  0  0  0  0  0  0  0  0  0
   -3.9309   23.5637  -28.7537 F   0  0  0  0  0  0  0  0  0  0  0  0
   -2.8815   23.4905  -26.6724 C   0  0  0  0  0  0  0  0  0  0  0  0
   -1.8015   23.1847  -25.9466 N   0  0  0  0  0  0  0  0  0  0  0  0
    0.4026   22.3801  -25.5761 N   0  0  0  0  0  0  0  0  0  0  0  0
    1.3809   22.5366  -25.9849 H   0  0  0  0  0  0  0  0  0  0  0  0
   -0.8466   21.4717  -22.1646 C   0  0  0  0  0  0  0  0  0  0  0  0
   -0.8235   21.9204  -23.4930 C   0  0  0  0  0  0  0  0  0  0  0  0
    0.2934   21.9284  -24.2478 C   0  0  0  0  0  0  0  0  0  0  0  0
    1.4683   21.4536  -23.6307 C   0  0  0  0  0  0  0  0  0  0  0  0
    1.4807   21.0076  -22.3349 C   0  0  0  0  0  0  0  0  0  0  0  0
    0.3219   21.0113  -21.5846 C   0  0  0  0  0  0  0  0  0  0  0  0
   -2.4089   22.6645  -20.7783 C   0  0  0  0  0  0  0  0  0  0  0  0
   -2.0331   21.4960  -21.4569 O   0  0  0  0  0  0  0  0  0  0  0  0
    2.6422   20.5530  -21.7685 O   0  0  0  0  0  0  0  0  0  0  0  0
    3.5318   19.7756  -22.5424 C   0  0  0  0  0  0  0  0  0  0  0  0
    0.2842   20.5684  -20.2641 O   0  0  0  0  0  0  0  0  0  0  0  0
    0.6810   21.4761  -19.2446 C   0  0  0  0  0  0  0  0  0  0  0  0
   -4.0469   24.0431  -26.0874 N   0  0  0  0  0  0  0  0  0  0  0  0
   -4.4890   24.8618  -26.5266 H   0  0  0  0  0  0  0  0  0  0  0  0
   -4.5753   23.4553  -24.9117 C   0  0  0  0  0  0  0  0  0  0  0  0
   -4.9117   22.0938  -24.8843 C   0  0  0  0  0  0  0  0  0  0  0  0
   -5.4239   21.5360  -23.7359 C   0  0  0  0  0  0  0  0  0  0  0  0
   -5.6146   22.2935  -22.6031 C   0  0  0  0  0  0  0  0  0  0  0  0
   -6.1290   21.7635  -21.4282 O   0  0  0  0  0  0  0  0  0  0  0  0
   -6.7430   22.5756  -20.4393 C   0  0  0  0  0  0  0  0  0  0  0  0
   -6.7119   21.8875  -19.1045 C   0  0  0  0  0  0  0  0  0  0  0  0
   -8.1559   22.9019  -20.8456 C   0  0  0  0  0  0  0  0  0  0  0  0
   -5.9944   23.8614  -20.2954 C   0  0  0  0  0  0  0  0  0  0  0  0
   -5.8462   24.4007  -19.1547 O   0  0  0  0  0  0  0  0  0  0  0  0
   -5.4688   24.4362  -21.4764 N   0  0  0  0  0  0  0  0  0  0  0  0
   -5.2773   23.6457  -22.6396 C   0  0  0  0  0  0  0  0  0  0  0  0
   -4.7808   24.1450  -23.7834 N   0  0  0  0  0  0  0  0  0  0  0  0
   -5.2258   25.4438  -21.4787 H   0  0  0  0  0  0  0  0  0  0  0  0
 16 17  1  0  0  0
 17 10  1  0  0  0
 10 11  2  0  0  0
 11 12  1  0  0  0
 12  8  1  0  0  0
  8  1  1  0  0  0
  1  2  2  0  0  0
  2  3  1  0  0  0
  3  4  2  0  0  0
  4  5  1  0  0  0
  4  6  1  0  0  0
  6 22  1  0  0  0
 22 24  1  0  0  0
 24 25  2  0  0  0
 25 26  1  0  0  0
 26 27  2  0  0  0
 27 28  1  0  0  0
 28 29  1  0  0  0
 29 30  1  0  0  0
 29 31  1  0  0  0
 29 32  1  0  0  0
 32 33  2  0  0  0
 32 34  1  0  0  0
 34 35  1  0  0  0
 35 36  2  0  0  0
  6  7  2  0  0  0
 12 13  2  0  0  0
 13 14  1  0  0  0
 14 18  1  0  0  0
 18 19  1  0  0  0
 14 15  2  0  0  0
 15 20  1  0  0  0
 20 21  1  0  0  0
 15 10  1  0  0  0
  7  1  1  0  0  0
 36 24  1  0  0  0
 35 27  1  0  0  0
  8  9  1  0  0  0
 22 23  1  0  0  0
 34 37  1  0  0  0
M  END
> <minimizedAffinity>
-7.32559

> <CNNscore>
0.5832723379

> <CNNaffinity>
7.2199988365

> <CNN_VS>
4.2112255096

> <CNNaffinity_variance>
0.1729515493

$$$$
[H]c1nc(N([H])c2c([H])c(OC([H])([H])[H])c(OC([H])([H])[H])c(OC([H])([H])[H])c2[H])nc(N([H])c2nc3c(c([H])c2[H])OC(C([H])([H])[H])(C([H])([H])[H])C(=O)N3[H])c1F


 37 40  0  0  0  0  0  0  0  0999 V2000
   -1.1990   22.7880  -22.2100 C   0  0  0  0  0  0  0  0  0  0  0  0
   -0.5125   21.8615  -21.5307 N   0  0  0  0  0  0  0  0  0  0  0  0
    0.5167   21.1605  -22.0111 C   0  0  0  0  0  0  0  0  0  0  0  0
    0.9204   21.3866  -23.2916 C   0  0  0  0  0  0  0  0  0  0  0  0
    1.9364   20.7535  -23.8948 F   0  0  0  0  0  0  0  0  0  0  0  0
    0.2410   22.3465  -24.0577 C   0  0  0  0  0  0  0  0  0  0  0  0
   -0.7774   22.9952  -23.4842 N   0  0  0  0  0  0  0  0  0  0  0  0
   -2.2856   23.5421  -21.7323 N   0  0  0  0  0  0  0  0  0  0  0  0
   -2.1633   23.9366  -20.7434 H   0  0  0  0  0  0  0  0  0  0  0  0
   -5.0277   25.1501  -23.7118 C   0  0  0  0  0  0  0  0  0  0  0  0
   -3.7993   24.9511  -23.0654 C   0  0  0  0  0  0  0  0  0  0  0  0
   -3.4837   23.8105  -22.4199 C   0  0  0  0  0  0  0  0  0  0  0  0
   -4.4651   22.7988  -22.4223 C   0  0  0  0  0  0  0  0  0  0  0  0
   -5.6754   22.9602  -23.0444 C   0  0  0  0  0  0  0  0  0  0  0  0
   -5.9724   24.1396  -23.6977 C   0  0  0  0  0  0  0  0  0  0  0  0
   -4.4352   26.7619  -25.3960 C   0  0  0  0  0  0  0  0  0  0  0  0
   -5.2755   26.3496  -24.3516 O   0  0  0  0  0  0  0  0  0  0  0  0
   -6.6050   21.9542  -23.0257 O   0  0  0  0  0  0  0  0  0  0  0  0
   -7.4144   21.7806  -21.8814 C   0  0  0  0  0  0  0  0  0  0  0  0
   -7.1884   24.3511  -24.3440 O   0  0  0  0  0  0  0  0  0  0  0  0
   -8.2332   24.9775  -23.6113 C   0  0  0  0  0  0  0  0  0  0  0  0
    0.6379   22.6036  -25.3927 N   0  0  0  0  0  0  0  0  0  0  0  0
    1.6407   22.6489  -25.6182 H   0  0  0  0  0  0  0  0  0  0  0  0
   -0.3556   22.7925  -26.3849 C   0  0  0  0  0  0  0  0  0  0  0  0
   -0.0139   22.7920  -27.7453 C   0  0  0  0  0  0  0  0  0  0  0  0
   -0.9888   22.9765  -28.6982 C   0  0  0  0  0  0  0  0  0  0  0  0
   -2.3043   23.1630  -28.3406 C   0  0  0  0  0  0  0  0  0  0  0  0
   -3.3127   23.3520  -29.2751 O   0  0  0  0  0  0  0  0  0  0  0  0
   -4.5415   23.9798  -28.9429 C   0  0  0  0  0  0  0  0  0  0  0  0
   -5.6118   23.5835  -29.9194 C   0  0  0  0  0  0  0  0  0  0  0  0
   -4.3643   25.4750  -28.9135 C   0  0  0  0  0  0  0  0  0  0  0  0
   -4.9908   23.5405  -27.5866 C   0  0  0  0  0  0  0  0  0  0  0  0
   -6.2228   23.3493  -27.3426 O   0  0  0  0  0  0  0  0  0  0  0  0
   -3.9887   23.3521  -26.6059 N   0  0  0  0  0  0  0  0  0  0  0  0
   -2.6345   23.1618  -26.9861 C   0  0  0  0  0  0  0  0  0  0  0  0
   -1.6484   22.9780  -26.0929 N   0  0  0  0  0  0  0  0  0  0  0  0
   -4.2592   23.3554  -25.6054 H   0  0  0  0  0  0  0  0  0  0  0  0
 16 17  1  0  0  0
 17 10  1  0  0  0
 10 11  2  0  0  0
 11 12  1  0  0  0
 12  8  1  0  0  0
  8  1  1  0  0  0
  1  2  2  0  0  0
  2  3  1  0  0  0
  3  4  2  0  0  0
  4  5  1  0  0  0
  4  6  1  0  0  0
  6 22  1  0  0  0
 22 24  1  0  0  0
 24 25  2  0  0  0
 25 26  1  0  0  0
 26 27  2  0  0  0
 27 28  1  0  0  0
 28 29  1  0  0  0
 29 30  1  0  0  0
 29 31  1  0  0  0
 29 32  1  0  0  0
 32 33  2  0  0  0
 32 34  1  0  0  0
 34 35  1  0  0  0
 35 36  2  0  0  0
  6  7  2  0  0  0
 12 13  2  0  0  0
 13 14  1  0  0  0
 14 18  1  0  0  0
 18 19  1  0  0  0
 14 15  2  0  0  0
 15 20  1  0  0  0
 20 21  1  0  0  0
 15 10  1  0  0  0
  7  1  1  0  0  0
 36 24  1  0  0  0
 35 27  1  0  0  0
  8  9  1  0  0  0
 22 23  1  0  0  0
 34 37  1  0  0  0
M  END
> <minimizedAffinity>
-8.74391

> <CNNscore>
0.4928331971

> <CNNaffinity>
7.1453452110

> <CNN_VS>
3.5214633942

> <CNNaffinity_variance>
0.3168864846

$$$$
[H]c1nc(N([H])c2c([H])c(OC([H])([H])[H])c(OC([H])([H])[H])c(OC([H])([H])[H])c2[H])nc(N([H])c2nc3c(c([H])c2[H])OC(C([H])([H])[H])(C([H])([H])[H])C(=O)N3[H])c1F


 37 40  0  0  0  0  0  0  0  0999 V2000
   -1.1566   22.7845  -22.1473 C   0  0  0  0  0  0  0  0  0  0  0  0
   -0.4816   21.8667  -21.4448 N   0  0  0  0  0  0  0  0  0  0  0  0
    0.5463   21.1496  -21.9034 C   0  0  0  0  0  0  0  0  0  0  0  0
    0.9615   21.3481  -23.1849 C   0  0  0  0  0  0  0  0  0  0  0  0
    1.9778   20.6966  -23.7677 F   0  0  0  0  0  0  0  0  0  0  0  0
    0.2946   22.2974  -23.9748 C   0  0  0  0  0  0  0  0  0  0  0  0
   -0.7236   22.9640  -23.4219 N   0  0  0  0  0  0  0  0  0  0  0  0
   -2.2415   23.5550  -21.6929 N   0  0  0  0  0  0  0  0  0  0  0  0
   -2.0712   24.0799  -20.7742 H   0  0  0  0  0  0  0  0  0  0  0  0
   -5.6864   22.9591  -23.0352 C   0  0  0  0  0  0  0  0  0  0  0  0
   -4.4689   22.7578  -22.3689 C   0  0  0  0  0  0  0  0  0  0  0  0
   -3.4940   23.6876  -22.3207 C   0  0  0  0  0  0  0  0  0  0  0  0
   -3.7560   24.9031  -22.9843 C   0  0  0  0  0  0  0  0  0  0  0  0
   -4.9348   25.1327  -23.6444 C   0  0  0  0  0  0  0  0  0  0  0  0
   -5.9160   24.1621  -23.6783 C   0  0  0  0  0  0  0  0  0  0  0  0
   -7.3646   21.6889  -21.8709 C   0  0  0  0  0  0  0  0  0  0  0  0
   -6.6359   21.9552  -23.0392 O   0  0  0  0  0  0  0  0  0  0  0  0
   -5.1540   26.3271  -24.2784 O   0  0  0  0  0  0  0  0  0  0  0  0
   -4.3789   26.6625  -25.4104 C   0  0  0  0  0  0  0  0  0  0  0  0
   -7.1300   24.3483  -24.3362 O   0  0  0  0  0  0  0  0  0  0  0  0
   -8.1925   24.9585  -23.6155 C   0  0  0  0  0  0  0  0  0  0  0  0
    0.7036   22.5259  -25.3113 N   0  0  0  0  0  0  0  0  0  0  0  0
    1.7082   22.5447  -25.5325 H   0  0  0  0  0  0  0  0  0  0  0  0
   -0.2806   22.7233  -26.3110 C   0  0  0  0  0  0  0  0  0  0  0  0
    0.0755   22.7465  -27.6676 C   0  0  0  0  0  0  0  0  0  0  0  0
   -0.8905   22.9390  -28.6279 C   0  0  0  0  0  0  0  0  0  0  0  0
   -2.2111   23.1108  -28.2815 C   0  0  0  0  0  0  0  0  0  0  0  0
   -3.2108   23.3073  -29.2238 O   0  0  0  0  0  0  0  0  0  0  0  0
   -4.4475   23.9213  -28.8951 C   0  0  0  0  0  0  0  0  0  0  0  0
   -5.5045   23.5329  -29.8890 C   0  0  0  0  0  0  0  0  0  0  0  0
   -4.2813   25.4170  -28.8405 C   0  0  0  0  0  0  0  0  0  0  0  0
   -4.9081   23.4577  -27.5507 C   0  0  0  0  0  0  0  0  0  0  0  0
   -6.1412   23.2542  -27.3229 O   0  0  0  0  0  0  0  0  0  0  0  0
   -3.9151   23.2611  -26.5623 N   0  0  0  0  0  0  0  0  0  0  0  0
   -2.5556   23.0862  -26.9308 C   0  0  0  0  0  0  0  0  0  0  0  0
   -1.5777   22.8952  -26.0301 N   0  0  0  0  0  0  0  0  0  0  0  0
   -4.1963   23.2468  -25.5648 H   0  0  0  0  0  0  0  0  0  0  0  0
 16 17  1  0  0  0
 17 10  1  0  0  0
 10 11  2  0  0  0
 11 12  1  0  0  0
 12  8  1  0  0  0
  8  1  1  0  0  0
  1  2  2  0  0  0
  2  3  1  0  0  0
  3  4  2  0  0  0
  4  5  1  0  0  0
  4  6  1  0  0  0
  6 22  1  0  0  0
 22 24  1  0  0  0
 24 25  2  0  0  0
 25 26  1  0  0  0
 26 27  2  0  0  0
 27 28  1  0  0  0
 28 29  1  0  0  0
 29 30  1  0  0  0
 29 31  1  0  0  0
 29 32  1  0  0  0
 32 33  2  0  0  0
 32 34  1  0  0  0
 34 35  1  0  0  0
 35 36  2  0  0  0
  6  7  2  0  0  0
 12 13  2  0  0  0
 13 14  1  0  0  0
 14 18  1  0  0  0
 18 19  1  0  0  0
 14 15  2  0  0  0
 15 20  1  0  0  0
 20 21  1  0  0  0
 15 10  1  0  0  0
  7  1  1  0  0  0
 36 24  1  0  0  0
 35 27  1  0  0  0
  8  9  1  0  0  0
 22 23  1  0  0  0
 34 37  1  0  0  0
M  END
> <minimizedAffinity>
-8.69590

> <CNNscore>
0.4634150565

> <CNNaffinity>
7.0806450844

> <CNN_VS>
3.2812776566

> <CNNaffinity_variance>
0.3493385017

$$$$
[H]c1nc(N([H])c2c([H])c(OC([H])([H])[H])c(OC([H])([H])[H])c(OC([H])([H])[H])c2[H])nc(N([H])c2nc3c(c([H])c2[H])OC(C([H])([H])[H])(C([H])([H])[H])C(=O)N3[H])c1F


 37 40  0  0  0  0  0  0  0  0999 V2000
   -1.1340   22.3314  -25.7177 C   0  0  0  0  0  0  0  0  0  0  0  0
    0.1858   22.2712  -25.5038 N   0  0  0  0  0  0  0  0  0  0  0  0
    0.7637   21.8923  -24.3619 C   0  0  0  0  0  0  0  0  0  0  0  0
   -0.0301   21.5334  -23.3155 C   0  0  0  0  0  0  0  0  0  0  0  0
    0.4200   21.1346  -22.1175 F   0  0  0  0  0  0  0  0  0  0  0  0
   -1.4238   21.5750  -23.4757 C   0  0  0  0  0  0  0  0  0  0  0  0
   -1.9040   21.9687  -24.6594 N   0  0  0  0  0  0  0  0  0  0  0  0
   -1.7720   22.7254  -26.9072 N   0  0  0  0  0  0  0  0  0  0  0  0
   -1.2011   22.5693  -27.8007 H   0  0  0  0  0  0  0  0  0  0  0  0
   -5.1859   23.7254  -28.0773 C   0  0  0  0  0  0  0  0  0  0  0  0
   -3.9296   23.1043  -28.0276 C   0  0  0  0  0  0  0  0  0  0  0  0
   -3.0546   23.2934  -27.0196 C   0  0  0  0  0  0  0  0  0  0  0  0
   -3.4658   24.1636  -25.9899 C   0  0  0  0  0  0  0  0  0  0  0  0
   -4.6865   24.7863  -26.0072 C   0  0  0  0  0  0  0  0  0  0  0  0
   -5.5629   24.5749  -27.0526 C   0  0  0  0  0  0  0  0  0  0  0  0
   -5.7488   24.0634  -30.3913 C   0  0  0  0  0  0  0  0  0  0  0  0
   -6.0263   23.4801  -29.1464 O   0  0  0  0  0  0  0  0  0  0  0  0
   -5.0518   25.6257  -24.9881 O   0  0  0  0  0  0  0  0  0  0  0  0
   -4.6206   26.9704  -25.0106 C   0  0  0  0  0  0  0  0  0  0  0  0
   -6.8139   25.1850  -27.1151 O   0  0  0  0  0  0  0  0  0  0  0  0
   -7.8153   24.7479  -26.2058 C   0  0  0  0  0  0  0  0  0  0  0  0
   -2.2752   21.2075  -22.4052 N   0  0  0  0  0  0  0  0  0  0  0  0
   -1.9147   20.5881  -21.6671 H   0  0  0  0  0  0  0  0  0  0  0  0
   -3.6027   21.7016  -22.3771 C   0  0  0  0  0  0  0  0  0  0  0  0
   -4.5219   21.3334  -23.3707 C   0  0  0  0  0  0  0  0  0  0  0  0
   -5.8077   21.8207  -23.3310 C   0  0  0  0  0  0  0  0  0  0  0  0
   -6.2143   22.6695  -22.3272 C   0  0  0  0  0  0  0  0  0  0  0  0
   -7.5030   23.1795  -22.2568 O   0  0  0  0  0  0  0  0  0  0  0  0
   -7.8076   24.3637  -21.5360 C   0  0  0  0  0  0  0  0  0  0  0  0
   -9.2637   24.3921  -21.1685 C   0  0  0  0  0  0  0  0  0  0  0  0
   -7.4328   25.5733  -22.3510 C   0  0  0  0  0  0  0  0  0  0  0  0
   -7.0258   24.4035  -20.2626 C   0  0  0  0  0  0  0  0  0  0  0  0
   -7.5424   24.8690  -19.1994 O   0  0  0  0  0  0  0  0  0  0  0  0
   -5.7028   23.9040  -20.3032 N   0  0  0  0  0  0  0  0  0  0  0  0
   -5.2939   23.0298  -21.3440 C   0  0  0  0  0  0  0  0  0  0  0  0
   -4.0503   22.5288  -21.4250 N   0  0  0  0  0  0  0  0  0  0  0  0
   -5.0370   24.1865  -19.5609 H   0  0  0  0  0  0  0  0  0  0  0  0
 16 17  1  0  0  0
 17 10  1  0  0  0
 10 11  2  0  0  0
 11 12  1  0  0  0
 12  8  1  0  0  0
  8  1  1  0  0  0
  1  2  2  0  0  0
  2  3  1  0  0  0
  3  4  2  0  0  0
  4  5  1  0  0  0
  4  6  1  0  0  0
  6 22  1  0  0  0
 22 24  1  0  0  0
 24 25  2  0  0  0
 25 26  1  0  0  0
 26 27  2  0  0  0
 27 28  1  0  0  0
 28 29  1  0  0  0
 29 30  1  0  0  0
 29 31  1  0  0  0
 29 32  1  0  0  0
 32 33  2  0  0  0
 32 34  1  0  0  0
 34 35  1  0  0  0
 35 36  2  0  0  0
  6  7  2  0  0  0
 12 13  2  0  0  0
 13 14  1  0  0  0
 14 18  1  0  0  0
 18 19  1  0  0  0
 14 15  2  0  0  0
 15 20  1  0  0  0
 20 21  1  0  0  0
 15 10  1  0  0  0
  7  1  1  0  0  0
 36 24  1  0  0  0
 35 27  1  0  0  0
  8  9  1  0  0  0
 22 23  1  0  0  0
 34 37  1  0  0  0
M  END
> <minimizedAffinity>
-8.80701

> <CNNscore>
0.3945579231

> <CNNaffinity>
7.0867891312

> <CNN_VS>
2.7961487770

> <CNNaffinity_variance>
0.1638673693

$$$$
[H]c1nc(N([H])c2c([H])c(OC([H])([H])[H])c(OC([H])([H])[H])c(OC([H])([H])[H])c2[H])nc(N([H])c2nc3c(c([H])c2[H])OC(C([H])([H])[H])(C([H])([H])[H])C(=O)N3[H])c1F


 37 40  0  0  0  0  0  0  0  0999 V2000
   -1.4542   22.5158  -26.4729 C   0  0  0  0  0  0  0  0  0  0  0  0
   -0.1972   22.9062  -26.7152 N   0  0  0  0  0  0  0  0  0  0  0  0
    0.8312   22.7523  -25.8785 C   0  0  0  0  0  0  0  0  0  0  0  0
    0.6110   22.1534  -24.6757 C   0  0  0  0  0  0  0  0  0  0  0  0
    1.5527   21.9379  -23.7463 F   0  0  0  0  0  0  0  0  0  0  0  0
   -0.6866   21.7207  -24.3607 C   0  0  0  0  0  0  0  0  0  0  0  0
   -1.6481   21.9214  -25.2673 N   0  0  0  0  0  0  0  0  0  0  0  0
   -2.5570   22.6634  -27.3327 N   0  0  0  0  0  0  0  0  0  0  0  0
   -2.3596   22.4478  -28.3638 H   0  0  0  0  0  0  0  0  0  0  0  0
   -5.8654   23.0476  -25.6208 C   0  0  0  0  0  0  0  0  0  0  0  0
   -4.5627   22.6153  -25.9084 C   0  0  0  0  0  0  0  0  0  0  0  0
   -3.8559   23.0618  -26.9659 C   0  0  0  0  0  0  0  0  0  0  0  0
   -4.4967   24.0069  -27.7921 C   0  0  0  0  0  0  0  0  0  0  0  0
   -5.7685   24.4509  -27.5396 C   0  0  0  0  0  0  0  0  0  0  0  0
   -6.4697   23.9759  -26.4494 C   0  0  0  0  0  0  0  0  0  0  0  0
   -6.2182   21.2502  -24.0619 C   0  0  0  0  0  0  0  0  0  0  0  0
   -6.5241   22.5410  -24.5167 O   0  0  0  0  0  0  0  0  0  0  0  0
   -6.3592   25.3706  -28.3653 O   0  0  0  0  0  0  0  0  0  0  0  0
   -5.7779   25.6463  -29.6226 C   0  0  0  0  0  0  0  0  0  0  0  0
   -7.7642   24.3965  -26.1516 O   0  0  0  0  0  0  0  0  0  0  0  0
   -7.9826   25.0552  -24.9110 C   0  0  0  0  0  0  0  0  0  0  0  0
   -0.9465   21.0944  -23.1173 N   0  0  0  0  0  0  0  0  0  0  0  0
   -0.4476   20.2269  -22.8784 H   0  0  0  0  0  0  0  0  0  0  0  0
   -1.8872   21.6776  -22.2330 C   0  0  0  0  0  0  0  0  0  0  0  0
   -1.8153   21.4341  -20.8534 C   0  0  0  0  0  0  0  0  0  0  0  0
   -2.7353   22.0069  -20.0062 C   0  0  0  0  0  0  0  0  0  0  0  0
   -3.7338   22.8214  -20.4889 C   0  0  0  0  0  0  0  0  0  0  0  0
   -4.6779   23.4151  -19.6631 O   0  0  0  0  0  0  0  0  0  0  0  0
   -5.9341   23.8603  -20.1513 C   0  0  0  0  0  0  0  0  0  0  0  0
   -6.5088   24.9058  -19.2387 C   0  0  0  0  0  0  0  0  0  0  0  0
   -6.8742   22.6925  -20.2940 C   0  0  0  0  0  0  0  0  0  0  0  0
   -5.7673   24.4871  -21.4980 C   0  0  0  0  0  0  0  0  0  0  0  0
   -6.4525   25.5046  -21.8284 O   0  0  0  0  0  0  0  0  0  0  0  0
   -4.8224   23.8974  -22.3702 N   0  0  0  0  0  0  0  0  0  0  0  0
   -3.7973   23.0578  -21.8615 C   0  0  0  0  0  0  0  0  0  0  0  0
   -2.8771   22.4766  -22.6486 N   0  0  0  0  0  0  0  0  0  0  0  0
   -4.8907   24.0883  -23.3866 H   0  0  0  0  0  0  0  0  0  0  0  0
 16 17  1  0  0  0
 17 10  1  0  0  0
 10 11  2  0  0  0
 11 12  1  0  0  0
 12  8  1  0  0  0
  8  1  1  0  0  0
  1  2  2  0  0  0
  2  3  1  0  0  0
  3  4  2  0  0  0
  4  5  1  0  0  0
  4  6  1  0  0  0
  6 22  1  0  0  0
 22 24  1  0  0  0
 24 25  2  0  0  0
 25 26  1  0  0  0
 26 27  2  0  0  0
 27 28  1  0  0  0
 28 29  1  0  0  0
 29 30  1  0  0  0
 29 31  1  0  0  0
 29 32  1  0  0  0
 32 33  2  0  0  0
 32 34  1  0  0  0
 34 35  1  0  0  0
 35 36  2  0  0  0
  6  7  2  0  0  0
 12 13  2  0  0  0
 13 14  1  0  0  0
 14 18  1  0  0  0
 18 19  1  0  0  0
 14 15  2  0  0  0
 15 20  1  0  0  0
 20 21  1  0  0  0
 15 10  1  0  0  0
  7  1  1  0  0  0
 36 24  1  0  0  0
 35 27  1  0  0  0
  8  9  1  0  0  0
 22 23  1  0  0  0
 34 37  1  0  0  0
M  END
> <minimizedAffinity>
-8.03757

> <CNNscore>
0.3092269599

> <CNNaffinity>
6.9425139427

> <CNN_VS>
2.1468124390

> <CNNaffinity_variance>
0.4090202749

$$$$
[H]c1nc(N([H])c2c([H])c(OC([H])([H])[H])c(OC([H])([H])[H])c(OC([H])([H])[H])c2[H])nc(N([H])c2nc3c(c([H])c2[H])OC(C([H])([H])[H])(C([H])([H])[H])C(=O)N3[H])c1F


 37 40  0  0  0  0  0  0  0  0999 V2000
   -3.0670   22.8982  -28.4276 C   0  0  0  0  0  0  0  0  0  0  0  0
   -3.6775   22.2323  -29.4152 N   0  0  0  0  0  0  0  0  0  0  0  0
   -4.7823   22.6350  -30.0465 C   0  0  0  0  0  0  0  0  0  0  0  0
   -5.3540   23.8137  -29.6755 C   0  0  0  0  0  0  0  0  0  0  0  0
   -6.4612   24.3318  -30.2257 F   0  0  0  0  0  0  0  0  0  0  0  0
   -4.7619   24.5604  -28.6451 C   0  0  0  0  0  0  0  0  0  0  0  0
   -3.6561   24.0702  -28.0760 N   0  0  0  0  0  0  0  0  0  0  0  0
   -1.9040   22.5008  -27.7444 N   0  0  0  0  0  0  0  0  0  0  0  0
   -1.0290   22.4068  -28.3560 H   0  0  0  0  0  0  0  0  0  0  0  0
   -2.6111   21.5995  -24.1791 C   0  0  0  0  0  0  0  0  0  0  0  0
   -2.7954   21.8403  -25.5482 C   0  0  0  0  0  0  0  0  0  0  0  0
   -1.7964   22.2210  -26.3694 C   0  0  0  0  0  0  0  0  0  0  0  0
   -0.5249   22.3701  -25.7798 C   0  0  0  0  0  0  0  0  0  0  0  0
   -0.3101   22.1425  -24.4455 C   0  0  0  0  0  0  0  0  0  0  0  0
   -1.3520   21.7540  -23.6274 C   0  0  0  0  0  0  0  0  0  0  0  0
   -4.9659   21.1530  -23.9767 C   0  0  0  0  0  0  0  0  0  0  0  0
   -3.6873   21.2124  -23.4036 O   0  0  0  0  0  0  0  0  0  0  0  0
    0.9402   22.2976  -23.9076 O   0  0  0  0  0  0  0  0  0  0  0  0
    1.7633   21.1637  -23.7307 C   0  0  0  0  0  0  0  0  0  0  0  0
   -1.1834   21.5113  -22.2657 O   0  0  0  0  0  0  0  0  0  0  0  0
   -1.3118   22.6090  -21.3717 C   0  0  0  0  0  0  0  0  0  0  0  0
   -5.3336   25.7903  -28.2373 N   0  0  0  0  0  0  0  0  0  0  0  0
   -5.4864   26.5291  -28.9368 H   0  0  0  0  0  0  0  0  0  0  0  0
   -5.6810   25.9732  -26.8761 C   0  0  0  0  0  0  0  0  0  0  0  0
   -4.8469   26.7069  -26.0196 C   0  0  0  0  0  0  0  0  0  0  0  0
   -5.1966   26.8768  -24.7000 C   0  0  0  0  0  0  0  0  0  0  0  0
   -6.3586   26.3368  -24.1987 C   0  0  0  0  0  0  0  0  0  0  0  0
   -6.7417   26.4885  -22.8735 O   0  0  0  0  0  0  0  0  0  0  0  0
   -7.6508   25.5985  -22.2441 C   0  0  0  0  0  0  0  0  0  0  0  0
   -8.2948   26.2604  -21.0596 C   0  0  0  0  0  0  0  0  0  0  0  0
   -6.9368   24.3371  -21.8356 C   0  0  0  0  0  0  0  0  0  0  0  0
   -8.7426   25.2251  -23.1942 C   0  0  0  0  0  0  0  0  0  0  0  0
   -9.9358   25.0766  -22.7840 O   0  0  0  0  0  0  0  0  0  0  0  0
   -8.3832   25.0488  -24.5511 N   0  0  0  0  0  0  0  0  0  0  0  0
   -7.1815   25.6093  -25.0574 C   0  0  0  0  0  0  0  0  0  0  0  0
   -6.7981   25.4704  -26.3372 N   0  0  0  0  0  0  0  0  0  0  0  0
   -9.0114   24.5038  -25.1696 H   0  0  0  0  0  0  0  0  0  0  0  0
 16 17  1  0  0  0
 17 10  1  0  0  0
 10 11  2  0  0  0
 11 12  1  0  0  0
 12  8  1  0  0  0
  8  1  1  0  0  0
  1  2  2  0  0  0
  2  3  1  0  0  0
  3  4  2  0  0  0
  4  5  1  0  0  0
  4  6  1  0  0  0
  6 22  1  0  0  0
 22 24  1  0  0  0
 24 25  2  0  0  0
 25 26  1  0  0  0
 26 27  2  0  0  0
 27 28  1  0  0  0
 28 29  1  0  0  0
 29 30  1  0  0  0
 29 31  1  0  0  0
 29 32  1  0  0  0
 32 33  2  0  0  0
 32 34  1  0  0  0
 34 35  1  0  0  0
 35 36  2  0  0  0
  6  7  2  0  0  0
 12 13  2  0  0  0
 13 14  1  0  0  0
 14 18  1  0  0  0
 18 19  1  0  0  0
 14 15  2  0  0  0
 15 20  1  0  0  0
 20 21  1  0  0  0
 15 10  1  0  0  0
  7  1  1  0  0  0
 36 24  1  0  0  0
 35 27  1  0  0  0
  8  9  1  0  0  0
 22 23  1  0  0  0
 34 37  1  0  0  0
M  END
> <minimizedAffinity>
-8.23986

> <CNNscore>
0.2837499380

> <CNNaffinity>
6.8570299149

> <CNN_VS>
1.9456818104

> <CNNaffinity_variance>
0.1251989305

$$$$
[H]c1nc(N([H])c2c([H])c(OC([H])([H])[H])c(OC([H])([H])[H])c(OC([H])([H])[H])c2[H])nc(N([H])c2nc3c(c([H])c2[H])OC(C([H])([H])[H])(C([H])([H])[H])C(=O)N3[H])c1F


 37 40  0  0  0  0  0  0  0  0999 V2000
   -2.4688   22.8511  -27.2836 C   0  0  0  0  0  0  0  0  0  0  0  0
   -3.1447   22.4831  -28.3786 N   0  0  0  0  0  0  0  0  0  0  0  0
   -4.2605   23.0633  -28.8253 C   0  0  0  0  0  0  0  0  0  0  0  0
   -4.7733   24.1157  -28.1300 C   0  0  0  0  0  0  0  0  0  0  0  0
   -5.8839   24.7859  -28.4682 F   0  0  0  0  0  0  0  0  0  0  0  0
   -4.1110   24.5507  -26.9715 C   0  0  0  0  0  0  0  0  0  0  0  0
   -3.0000   23.9025  -26.6077 N   0  0  0  0  0  0  0  0  0  0  0  0
   -1.2924   22.2610  -26.7884 N   0  0  0  0  0  0  0  0  0  0  0  0
   -0.5860   21.9619  -27.5367 H   0  0  0  0  0  0  0  0  0  0  0  0
   -1.4567   21.6623  -23.0954 C   0  0  0  0  0  0  0  0  0  0  0  0
   -1.8523   21.8644  -24.4255 C   0  0  0  0  0  0  0  0  0  0  0  0
   -0.9763   22.0336  -25.4361 C   0  0  0  0  0  0  0  0  0  0  0  0
    0.3900   21.9971  -25.0918 C   0  0  0  0  0  0  0  0  0  0  0  0
    0.8107   21.8013  -23.8023 C   0  0  0  0  0  0  0  0  0  0  0  0
   -0.1086   21.6314  -22.7866 C   0  0  0  0  0  0  0  0  0  0  0  0
   -3.7688   21.4141  -22.4803 C   0  0  0  0  0  0  0  0  0  0  0  0
   -2.4172   21.4974  -22.1156 O   0  0  0  0  0  0  0  0  0  0  0  0
    2.1478   21.7718  -23.5055 O   0  0  0  0  0  0  0  0  0  0  0  0
    2.8232   20.5318  -23.4760 C   0  0  0  0  0  0  0  0  0  0  0  0
    0.2699   21.4297  -21.4609 O   0  0  0  0  0  0  0  0  0  0  0  0
    0.2723   20.0982  -20.9632 C   0  0  0  0  0  0  0  0  0  0  0  0
   -4.6203   25.6427  -26.2273 N   0  0  0  0  0  0  0  0  0  0  0  0
   -4.3142   26.5965  -26.4622 H   0  0  0  0  0  0  0  0  0  0  0  0
   -5.5386   25.3952  -25.1773 C   0  0  0  0  0  0  0  0  0  0  0  0
   -6.3476   26.4272  -24.6793 C   0  0  0  0  0  0  0  0  0  0  0  0
   -7.2351   26.1727  -23.6595 C   0  0  0  0  0  0  0  0  0  0  0  0
   -7.3464   24.9148  -23.1131 C   0  0  0  0  0  0  0  0  0  0  0  0
   -8.2305   24.6231  -22.0839 O   0  0  0  0  0  0  0  0  0  0  0  0
   -8.0486   23.5069  -21.2264 C   0  0  0  0  0  0  0  0  0  0  0  0
   -9.3543   23.1128  -20.5971 C   0  0  0  0  0  0  0  0  0  0  0  0
   -7.0181   23.8272  -20.1760 C   0  0  0  0  0  0  0  0  0  0  0  0
   -7.5597   22.3324  -22.0112 C   0  0  0  0  0  0  0  0  0  0  0  0
   -7.9578   21.1579  -21.7356 O   0  0  0  0  0  0  0  0  0  0  0  0
   -6.6458   22.5935  -23.0591 N   0  0  0  0  0  0  0  0  0  0  0  0
   -6.5384   23.8953  -23.6145 C   0  0  0  0  0  0  0  0  0  0  0  0
   -5.6873   24.1920  -24.6104 N   0  0  0  0  0  0  0  0  0  0  0  0
   -6.0559   21.8190  -23.4146 H   0  0  0  0  0  0  0  0  0  0  0  0
 16 17  1  0  0  0
 17 10  1  0  0  0
 10 11  2  0  0  0
 11 12  1  0  0  0
 12  8  1  0  0  0
  8  1  1  0  0  0
  1  2  2  0  0  0
  2  3  1  0  0  0
  3  4  2  0  0  0
  4  5  1  0  0  0
  4  6  1  0  0  0
  6 22  1  0  0  0
 22 24  1  0  0  0
 24 25  2  0  0  0
 25 26  1  0  0  0
 26 27  2  0  0  0
 27 28  1  0  0  0
 28 29  1  0  0  0
 29 30  1  0  0  0
 29 31  1  0  0  0
 29 32  1  0  0  0
 32 33  2  0  0  0
 32 34  1  0  0  0
 34 35  1  0  0  0
 35 36  2  0  0  0
  6  7  2  0  0  0
 12 13  2  0  0  0
 13 14  1  0  0  0
 14 18  1  0  0  0
 18 19  1  0  0  0
 14 15  2  0  0  0
 15 20  1  0  0  0
 20 21  1  0  0  0
 15 10  1  0  0  0
  7  1  1  0  0  0
 36 24  1  0  0  0
 35 27  1  0  0  0
  8  9  1  0  0  0
 22 23  1  0  0  0
 34 37  1  0  0  0
M  END
> <minimizedAffinity>
-8.07130

> <CNNscore>
0.2594633996

> <CNNaffinity>
7.0183119774

> <CNN_VS>
1.8209950924

> <CNNaffinity_variance>
0.2064985782

$$$$
[H]c1nc(N([H])c2c([H])c(OC([H])([H])[H])c(OC([H])([H])[H])c(OC([H])([H])[H])c2[H])nc(N([H])c2nc3c(c([H])c2[H])OC(C([H])([H])[H])(C([H])([H])[H])C(=O)N3[H])c1F


 37 40  0  0  0  0  0  0  0  0999 V2000
   -2.8086   21.7670  -25.5996 C   0  0  0  0  0  0  0  0  0  0  0  0
   -2.9395   22.3187  -26.8119 N   0  0  0  0  0  0  0  0  0  0  0  0
   -1.9494   22.8689  -27.5179 C   0  0  0  0  0  0  0  0  0  0  0  0
   -0.6966   22.8832  -26.9850 C   0  0  0  0  0  0  0  0  0  0  0  0
    0.3830   23.4028  -27.5864 F   0  0  0  0  0  0  0  0  0  0  0  0
   -0.4927   22.3201  -25.7156 C   0  0  0  0  0  0  0  0  0  0  0  0
   -1.5501   21.7937  -25.0899 N   0  0  0  0  0  0  0  0  0  0  0  0
   -3.8305   21.1803  -24.8322 N   0  0  0  0  0  0  0  0  0  0  0  0
   -3.9085   20.1151  -24.9205 H   0  0  0  0  0  0  0  0  0  0  0  0
   -6.5266   23.3864  -23.4583 C   0  0  0  0  0  0  0  0  0  0  0  0
   -5.6754   22.7401  -24.3662 C   0  0  0  0  0  0  0  0  0  0  0  0
   -4.7334   21.8530  -23.9881 C   0  0  0  0  0  0  0  0  0  0  0  0
   -4.6373   21.5942  -22.6059 C   0  0  0  0  0  0  0  0  0  0  0  0
   -5.4535   22.2079  -21.6920 C   0  0  0  0  0  0  0  0  0  0  0  0
   -6.4095   23.1131  -22.1073 C   0  0  0  0  0  0  0  0  0  0  0  0
   -7.0458   25.5093  -24.4630 C   0  0  0  0  0  0  0  0  0  0  0  0
   -7.4673   24.2843  -23.9257 O   0  0  0  0  0  0  0  0  0  0  0  0
   -5.3309   21.9311  -20.3559 O   0  0  0  0  0  0  0  0  0  0  0  0
   -4.3031   22.5514  -19.6119 C   0  0  0  0  0  0  0  0  0  0  0  0
   -7.2619   23.7625  -21.2167 O   0  0  0  0  0  0  0  0  0  0  0  0
   -8.4738   23.1116  -20.8586 C   0  0  0  0  0  0  0  0  0  0  0  0
    0.7992   22.3201  -25.1354 N   0  0  0  0  0  0  0  0  0  0  0  0
    1.5692   22.7957  -25.6248 H   0  0  0  0  0  0  0  0  0  0  0  0
    0.9999   21.6652  -23.8953 C   0  0  0  0  0  0  0  0  0  0  0  0
    2.2654   21.1710  -23.5463 C   0  0  0  0  0  0  0  0  0  0  0  0
    2.4460   20.5371  -22.3388 C   0  0  0  0  0  0  0  0  0  0  0  0
    1.4009   20.3767  -21.4583 C   0  0  0  0  0  0  0  0  0  0  0  0
    1.5477   19.7426  -20.2327 O   0  0  0  0  0  0  0  0  0  0  0  0
    0.4462   19.1764  -19.5393 C   0  0  0  0  0  0  0  0  0  0  0  0
    0.7564   19.0563  -18.0746 C   0  0  0  0  0  0  0  0  0  0  0  0
    0.1008   17.8348  -20.1297 C   0  0  0  0  0  0  0  0  0  0  0  0
   -0.7512   20.0615  -19.6702 C   0  0  0  0  0  0  0  0  0  0  0  0
   -1.5555   20.2113  -18.6983 O   0  0  0  0  0  0  0  0  0  0  0  0
   -0.9382   20.7123  -20.9123 N   0  0  0  0  0  0  0  0  0  0  0  0
    0.1468   20.8712  -21.8136 C   0  0  0  0  0  0  0  0  0  0  0  0
    0.0194   21.4825  -23.0028 N   0  0  0  0  0  0  0  0  0  0  0  0
   -1.8801   21.0712  -21.1537 H   0  0  0  0  0  0  0  0  0  0  0  0
 16 17  1  0  0  0
 17 10  1  0  0  0
 10 11  2  0  0  0
 11 12  1  0  0  0
 12  8  1  0  0  0
  8  1  1  0  0  0
  1  2  2  0  0  0
  2  3  1  0  0  0
  3  4  2  0  0  0
  4  5  1  0  0  0
  4  6  1  0  0  0
  6 22  1  0  0  0
 22 24  1  0  0  0
 24 25  2  0  0  0
 25 26  1  0  0  0
 26 27  2  0  0  0
 27 28  1  0  0  0
 28 29  1  0  0  0
 29 30  1  0  0  0
 29 31  1  0  0  0
 29 32  1  0  0  0
 32 33  2  0  0  0
 32 34  1  0  0  0
 34 35  1  0  0  0
 35 36  2  0  0  0
  6  7  2  0  0  0
 12 13  2  0  0  0
 13 14  1  0  0  0
 14 18  1  0  0  0
 18 19  1  0  0  0
 14 15  2  0  0  0
 15 20  1  0  0  0
 20 21  1  0  0  0
 15 10  1  0  0  0
  7  1  1  0  0  0
 36 24  1  0  0  0
 35 27  1  0  0  0
  8  9  1  0  0  0
 22 23  1  0  0  0
 34 37  1  0  0  0
M  END
> <minimizedAffinity>
-7.48833

> <CNNscore>
0.2481005341

> <CNNaffinity>
6.4556236267

> <CNN_VS>
1.6016436815

> <CNNaffinity_variance>
0.1365602463

$$$$
[H]c1nc(N([H])c2c([H])c(OC([H])([H])[H])c(OC([H])([H])[H])c(OC([H])([H])[H])c2[H])nc(N([H])c2nc3c(c([H])c2[H])OC(C([H])([H])[H])(C([H])([H])[H])C(=O)N3[H])c1F


 37 40  0  0  0  0  0  0  0  0999 V2000
   -2.0556   22.3031  -27.0538 C   0  0  0  0  0  0  0  0  0  0  0  0
   -0.7618   22.4028  -27.3818 N   0  0  0  0  0  0  0  0  0  0  0  0
    0.2489   22.4738  -26.5130 C   0  0  0  0  0  0  0  0  0  0  0  0
   -0.0311   22.4447  -25.1809 C   0  0  0  0  0  0  0  0  0  0  0  0
    0.8869   22.5082  -24.2062 F   0  0  0  0  0  0  0  0  0  0  0  0
   -1.3695   22.3413  -24.7711 C   0  0  0  0  0  0  0  0  0  0  0  0
   -2.3089   22.2760  -25.7198 N   0  0  0  0  0  0  0  0  0  0  0  0
   -3.1412   22.2263  -27.9441 N   0  0  0  0  0  0  0  0  0  0  0  0
   -3.3569   21.2430  -28.3117 H   0  0  0  0  0  0  0  0  0  0  0  0
   -5.0452   25.4412  -28.1948 C   0  0  0  0  0  0  0  0  0  0  0  0
   -4.2193   24.4239  -27.6952 C   0  0  0  0  0  0  0  0  0  0  0  0
   -3.9405   23.2983  -28.3826 C   0  0  0  0  0  0  0  0  0  0  0  0
   -4.5281   23.1833  -29.6586 C   0  0  0  0  0  0  0  0  0  0  0  0
   -5.3394   24.1586  -30.1770 C   0  0  0  0  0  0  0  0  0  0  0  0
   -5.6086   25.3012  -29.4505 C   0  0  0  0  0  0  0  0  0  0  0  0
   -4.8697   26.5872  -26.0874 C   0  0  0  0  0  0  0  0  0  0  0  0
   -5.2830   26.5655  -27.4274 O   0  0  0  0  0  0  0  0  0  0  0  0
   -5.8930   24.0119  -31.4214 O   0  0  0  0  0  0  0  0  0  0  0  0
   -5.8976   22.7380  -32.0312 C   0  0  0  0  0  0  0  0  0  0  0  0
   -6.4270   26.3198  -29.9342 O   0  0  0  0  0  0  0  0  0  0  0  0
   -5.9828   27.0492  -31.0706 C   0  0  0  0  0  0  0  0  0  0  0  0
   -1.6920   22.3087  -23.3924 N   0  0  0  0  0  0  0  0  0  0  0  0
   -1.0098   21.9217  -22.7265 H   0  0  0  0  0  0  0  0  0  0  0  0
   -2.9460   22.8096  -22.9639 C   0  0  0  0  0  0  0  0  0  0  0  0
   -3.1853   24.1911  -22.9215 C   0  0  0  0  0  0  0  0  0  0  0  0
   -4.4077   24.6637  -22.5034 C   0  0  0  0  0  0  0  0  0  0  0  0
   -5.4096   23.8008  -22.1225 C   0  0  0  0  0  0  0  0  0  0  0  0
   -6.6538   24.2431  -21.6956 O   0  0  0  0  0  0  0  0  0  0  0  0
   -7.5061   23.4395  -20.8940 C   0  0  0  0  0  0  0  0  0  0  0  0
   -8.9314   23.8937  -21.0286 C   0  0  0  0  0  0  0  0  0  0  0  0
   -7.0574   23.4875  -19.4573 C   0  0  0  0  0  0  0  0  0  0  0  0
   -7.4467   22.0172  -21.3499 C   0  0  0  0  0  0  0  0  0  0  0  0
   -8.4894   21.2915  -21.3460 O   0  0  0  0  0  0  0  0  0  0  0  0
   -6.1894   21.5303  -21.7785 N   0  0  0  0  0  0  0  0  0  0  0  0
   -5.1626   22.4295  -22.1680 C   0  0  0  0  0  0  0  0  0  0  0  0
   -3.9540   22.0159  -22.5831 N   0  0  0  0  0  0  0  0  0  0  0  0
   -6.0301   20.5064  -21.8036 H   0  0  0  0  0  0  0  0  0  0  0  0
 16 17  1  0  0  0
 17 10  1  0  0  0
 10 11  2  0  0  0
 11 12  1  0  0  0
 12  8  1  0  0  0
  8  1  1  0  0  0
  1  2  2  0  0  0
  2  3  1  0  0  0
  3  4  2  0  0  0
  4  5  1  0  0  0
  4  6  1  0  0  0
  6 22  1  0  0  0
 22 24  1  0  0  0
 24 25  2  0  0  0
 25 26  1  0  0  0
 26 27  2  0  0  0
 27 28  1  0  0  0
 28 29  1  0  0  0
 29 30  1  0  0  0
 29 31  1  0  0  0
 29 32  1  0  0  0
 32 33  2  0  0  0
 32 34  1  0  0  0
 34 35  1  0  0  0
 35 36  2  0  0  0
  6  7  2  0  0  0
 12 13  2  0  0  0
 13 14  1  0  0  0
 14 18  1  0  0  0
 18 19  1  0  0  0
 14 15  2  0  0  0
 15 20  1  0  0  0
 20 21  1  0  0  0
 15 10  1  0  0  0
  7  1  1  0  0  0
 36 24  1  0  0  0
 35 27  1  0  0  0
  8  9  1  0  0  0
 22 23  1  0  0  0
 34 37  1  0  0  0
M  END
> <minimizedAffinity>
-7.89987

> <CNNscore>
0.2312019765

> <CNNaffinity>
7.1121864319

> <CNN_VS>
1.6443516016

> <CNNaffinity_variance>
0.1537469029

$$$$
[H]c1c([H])c([H])c(-c2c([H])c([H])c([H])c([H])c2C(=O)N([H])C([H])([H])C2(c3c([H])c([H])c(OC([H])([H])[H])c(OC([H])([H])[H])c3[H])C([H])([H])C([H])([H])C([H])([H])C([H])([H])C2([H])[H])c([H])c1[H]


 33 36  0  0  0  0  0  0  0  0999 V2000
   -4.3657   24.0463  -21.5941 C   0  0  0  0  0  0  0  0  0  0  0  0
   -5.6534   23.5188  -22.2069 C   0  0  0  0  0  0  0  0  0  0  0  0
   -5.7163   22.0403  -21.9658 C   0  0  0  0  0  0  0  0  0  0  0  0
   -6.8067   21.5867  -21.0816 C   0  0  0  0  0  0  0  0  0  0  0  0
   -8.1479   22.1588  -21.3493 C   0  0  0  0  0  0  0  0  0  0  0  0
   -8.1481   23.5596  -21.8357 C   0  0  0  0  0  0  0  0  0  0  0  0
   -6.8496   24.2680  -21.6728 C   0  0  0  0  0  0  0  0  0  0  0  0
   -5.2827   24.1047  -26.4696 C   0  0  0  0  0  0  0  0  0  0  0  0
   -5.8752   22.9946  -25.9553 C   0  0  0  0  0  0  0  0  0  0  0  0
   -6.0005   22.7859  -24.5671 C   0  0  0  0  0  0  0  0  0  0  0  0
   -5.5187   23.7123  -23.6833 C   0  0  0  0  0  0  0  0  0  0  0  0
   -4.9188   24.8341  -24.2014 C   0  0  0  0  0  0  0  0  0  0  0  0
   -4.8007   25.0318  -25.5695 C   0  0  0  0  0  0  0  0  0  0  0  0
   -5.6751   23.4237  -28.7292 C   0  0  0  0  0  0  0  0  0  0  0  0
   -5.1289   24.3694  -27.8240 O   0  0  0  0  0  0  0  0  0  0  0  0
   -4.1913   26.1812  -26.0227 O   0  0  0  0  0  0  0  0  0  0  0  0
   -4.2627   27.4511  -25.4432 C   0  0  0  0  0  0  0  0  0  0  0  0
   -3.3253   23.0733  -21.4548 N   0  0  0  0  0  0  0  0  0  0  0  0
   -2.0155   23.3687  -21.9348 C   0  0  0  0  0  0  0  0  0  0  0  0
   -1.8677   24.4911  -22.4587 O   0  0  0  0  0  0  0  0  0  0  0  0
   -3.4852   22.1716  -21.0161 H   0  0  0  0  0  0  0  0  0  0  0  0
   -0.9366   22.3911  -21.8075 C   0  0  0  0  0  0  0  0  0  0  0  0
   -0.4648   22.0938  -20.5365 C   0  0  0  0  0  0  0  0  0  0  0  0
    0.5640   21.2285  -20.2823 C   0  0  0  0  0  0  0  0  0  0  0  0
    1.1557   20.6230  -21.3704 C   0  0  0  0  0  0  0  0  0  0  0  0
    0.7133   20.8934  -22.6386 C   0  0  0  0  0  0  0  0  0  0  0  0
   -0.3560   21.7941  -22.8856 C   0  0  0  0  0  0  0  0  0  0  0  0
   -0.7450   21.9556  -24.2747 C   0  0  0  0  0  0  0  0  0  0  0  0
   -2.0178   21.7264  -24.6914 C   0  0  0  0  0  0  0  0  0  0  0  0
   -2.3570   21.8949  -26.0172 C   0  0  0  0  0  0  0  0  0  0  0  0
   -1.4309   22.2952  -26.9504 C   0  0  0  0  0  0  0  0  0  0  0  0
   -0.1394   22.5287  -26.5383 C   0  0  0  0  0  0  0  0  0  0  0  0
    0.1966   22.3554  -25.1908 C   0  0  0  0  0  0  0  0  0  0  0  0
 14 15  1  0  0  0
 15  8  1  0  0  0
  8  9  2  0  0  0
  9 10  1  0  0  0
 10 11  2  0  0  0
 11 12  1  0  0  0
 12 13  2  0  0  0
 13 16  1  0  0  0
 16 17  1  0  0  0
 11  2  1  0  0  0
  2  1  1  0  0  0
  1 18  1  0  0  0
 18 19  1  0  0  0
 19 20  2  0  0  0
 19 22  1  0  0  0
 22 23  2  0  0  0
 23 24  1  0  0  0
 24 25  2  0  0  0
 25 26  1  0  0  0
 26 27  2  0  0  0
 27 28  1  0  0  0
 28 29  2  0  0  0
 29 30  1  0  0  0
 30 31  2  0  0  0
 31 32  1  0  0  0
 32 33  2  0  0  0
  2  3  1  0  0  0
  3  4  1  0  0  0
  4  5  1  0  0  0
  5  6  1  0  0  0
  6  7  1  0  0  0
 13  8  1  0  0  0
  7  2  1  0  0  0
 27 22  1  0  0  0
 33 28  1  0  0  0
 18 21  1  0  0  0
M  END
> <minimizedAffinity>
-8.75581

> <CNNscore>
0.2195580304

> <CNNaffinity>
6.3749871254

> <CNN_VS>
1.3996796608

> <CNNaffinity_variance>
0.1544447094

$$$$
[H]c1c([H])c([H])c(-c2c([H])c([H])c([H])c([H])c2C(=O)N([H])C([H])([H])C2(c3c([H])c([H])c(OC([H])([H])[H])c(OC([H])([H])[H])c3[H])C([H])([H])C([H])([H])C([H])([H])C([H])([H])C2([H])[H])c([H])c1[H]


 33 36  0  0  0  0  0  0  0  0999 V2000
   -0.5738   21.2634  -21.3227 C   0  0  0  0  0  0  0  0  0  0  0  0
    0.6166   20.5792  -20.6693 C   0  0  0  0  0  0  0  0  0  0  0  0
    1.6320   20.2875  -21.7333 C   0  0  0  0  0  0  0  0  0  0  0  0
    2.9086   21.0166  -21.6099 C   0  0  0  0  0  0  0  0  0  0  0  0
    3.5187   21.0449  -20.2591 C   0  0  0  0  0  0  0  0  0  0  0  0
    2.5535   21.0838  -19.1341 C   0  0  0  0  0  0  0  0  0  0  0  0
    1.1573   21.4107  -19.5319 C   0  0  0  0  0  0  0  0  0  0  0  0
   -0.8141   16.7739  -19.2121 C   0  0  0  0  0  0  0  0  0  0  0  0
   -0.0495   16.8621  -20.3326 C   0  0  0  0  0  0  0  0  0  0  0  0
    0.4219   18.0960  -20.8239 C   0  0  0  0  0  0  0  0  0  0  0  0
    0.1155   19.2603  -20.1744 C   0  0  0  0  0  0  0  0  0  0  0  0
   -0.6578   19.1730  -19.0426 C   0  0  0  0  0  0  0  0  0  0  0  0
   -1.1167   17.9538  -18.5654 C   0  0  0  0  0  0  0  0  0  0  0  0
   -2.3324   14.9353  -19.4068 C   0  0  0  0  0  0  0  0  0  0  0  0
   -1.3082   15.5916  -18.6770 O   0  0  0  0  0  0  0  0  0  0  0  0
   -1.8850   17.9366  -17.4221 O   0  0  0  0  0  0  0  0  0  0  0  0
   -2.3284   19.0445  -16.6944 C   0  0  0  0  0  0  0  0  0  0  0  0
   -0.5738   21.2296  -22.7535 N   0  0  0  0  0  0  0  0  0  0  0  0
   -0.9285   22.4006  -23.4859 C   0  0  0  0  0  0  0  0  0  0  0  0
   -1.2229   23.4019  -22.8028 O   0  0  0  0  0  0  0  0  0  0  0  0
   -0.3216   20.3946  -23.2735 H   0  0  0  0  0  0  0  0  0  0  0  0
   -0.9393   22.3912  -24.9473 C   0  0  0  0  0  0  0  0  0  0  0  0
    0.2780   22.3849  -25.6142 C   0  0  0  0  0  0  0  0  0  0  0  0
    0.4077   22.4147  -26.9759 C   0  0  0  0  0  0  0  0  0  0  0  0
   -0.7558   22.4520  -27.7146 C   0  0  0  0  0  0  0  0  0  0  0  0
   -1.9740   22.4580  -27.0877 C   0  0  0  0  0  0  0  0  0  0  0  0
   -2.0916   22.4267  -25.6731 C   0  0  0  0  0  0  0  0  0  0  0  0
   -3.4440   22.3978  -25.1468 C   0  0  0  0  0  0  0  0  0  0  0  0
   -4.2262   23.5086  -25.1255 C   0  0  0  0  0  0  0  0  0  0  0  0
   -5.5092   23.4469  -24.6245 C   0  0  0  0  0  0  0  0  0  0  0  0
   -6.0340   22.2744  -24.1358 C   0  0  0  0  0  0  0  0  0  0  0  0
   -5.2494   21.1447  -24.1521 C   0  0  0  0  0  0  0  0  0  0  0  0
   -3.9482   21.2159  -24.6623 C   0  0  0  0  0  0  0  0  0  0  0  0
 14 15  1  0  0  0
 15  8  1  0  0  0
  8  9  2  0  0  0
  9 10  1  0  0  0
 10 11  2  0  0  0
 11 12  1  0  0  0
 12 13  2  0  0  0
 13 16  1  0  0  0
 16 17  1  0  0  0
 11  2  1  0  0  0
  2  1  1  0  0  0
  1 18  1  0  0  0
 18 19  1  0  0  0
 19 20  2  0  0  0
 19 22  1  0  0  0
 22 23  2  0  0  0
 23 24  1  0  0  0
 24 25  2  0  0  0
 25 26  1  0  0  0
 26 27  2  0  0  0
 27 28  1  0  0  0
 28 29  2  0  0  0
 29 30  1  0  0  0
 30 31  2  0  0  0
 31 32  1  0  0  0
 32 33  2  0  0  0
  2  3  1  0  0  0
  3  4  1  0  0  0
  4  5  1  0  0  0
  5  6  1  0  0  0
  6  7  1  0  0  0
 13  8  1  0  0  0
  7  2  1  0  0  0
 27 22  1  0  0  0
 33 28  1  0  0  0
 18 21  1  0  0  0
M  END
> <minimizedAffinity>
-7.81463

> <CNNscore>
0.2151258886

> <CNNaffinity>
5.6653470993

> <CNN_VS>
1.2187628746

> <CNNaffinity_variance>
0.1780101657

$$$$
[H]c1c([H])c([H])c(-c2c([H])c([H])c([H])c([H])c2C(=O)N([H])C([H])([H])C2(c3c([H])c([H])c(OC([H])([H])[H])c(OC([H])([H])[H])c3[H])C([H])([H])C([H])([H])C([H])([H])C([H])([H])C2([H])[H])c([H])c1[H]


 33 36  0  0  0  0  0  0  0  0999 V2000
   -1.4647   21.0996  -20.5978 C   0  0  0  0  0  0  0  0  0  0  0  0
   -0.2647   20.9182  -19.6818 C   0  0  0  0  0  0  0  0  0  0  0  0
    0.6119   22.1276  -19.8121 C   0  0  0  0  0  0  0  0  0  0  0  0
    0.7302   22.9600  -18.5999 C   0  0  0  0  0  0  0  0  0  0  0  0
    0.9757   22.2359  -17.3297 C   0  0  0  0  0  0  0  0  0  0  0  0
    0.3318   20.9039  -17.2309 C   0  0  0  0  0  0  0  0  0  0  0  0
   -0.7061   20.6436  -18.2650 C   0  0  0  0  0  0  0  0  0  0  0  0
    1.9597   17.5916  -21.3057 C   0  0  0  0  0  0  0  0  0  0  0  0
    0.7600   17.4107  -20.6927 C   0  0  0  0  0  0  0  0  0  0  0  0
    0.0234   18.4846  -20.1538 C   0  0  0  0  0  0  0  0  0  0  0  0
    0.5062   19.7620  -20.2337 C   0  0  0  0  0  0  0  0  0  0  0  0
    1.7188   19.9464  -20.8518 C   0  0  0  0  0  0  0  0  0  0  0  0
    2.4367   18.8835  -21.3805 C   0  0  0  0  0  0  0  0  0  0  0  0
    3.5301   15.8199  -20.9610 C   0  0  0  0  0  0  0  0  0  0  0  0
    2.7327   16.5780  -21.8564 O   0  0  0  0  0  0  0  0  0  0  0  0
    3.6450   19.1385  -21.9911 O   0  0  0  0  0  0  0  0  0  0  0  0
    4.8763   19.3379  -21.3605 C   0  0  0  0  0  0  0  0  0  0  0  0
   -1.1688   21.0226  -21.9960 N   0  0  0  0  0  0  0  0  0  0  0  0
   -1.3188   22.1819  -22.8127 C   0  0  0  0  0  0  0  0  0  0  0  0
   -1.7104   23.2124  -22.2290 O   0  0  0  0  0  0  0  0  0  0  0  0
   -0.8460   20.1646  -22.4328 H   0  0  0  0  0  0  0  0  0  0  0  0
   -1.0261   22.1288  -24.2436 C   0  0  0  0  0  0  0  0  0  0  0  0
    0.3005   22.0349  -24.6407 C   0  0  0  0  0  0  0  0  0  0  0  0
    0.7120   22.0161  -25.9454 C   0  0  0  0  0  0  0  0  0  0  0  0
   -0.2681   22.0954  -26.9118 C   0  0  0  0  0  0  0  0  0  0  0  0
   -1.5873   22.1879  -26.5540 C   0  0  0  0  0  0  0  0  0  0  0  0
   -1.9981   22.2060  -25.1950 C   0  0  0  0  0  0  0  0  0  0  0  0
   -3.4296   22.2681  -24.9629 C   0  0  0  0  0  0  0  0  0  0  0  0
   -4.1565   23.3731  -25.2740 C   0  0  0  0  0  0  0  0  0  0  0  0
   -5.5162   23.3983  -25.0470 C   0  0  0  0  0  0  0  0  0  0  0  0
   -6.1742   22.3203  -24.5052 C   0  0  0  0  0  0  0  0  0  0  0  0
   -5.4467   21.1973  -24.1859 C   0  0  0  0  0  0  0  0  0  0  0  0
   -4.0670   21.1799  -24.4195 C   0  0  0  0  0  0  0  0  0  0  0  0
 14 15  1  0  0  0
 15  8  1  0  0  0
  8  9  2  0  0  0
  9 10  1  0  0  0
 10 11  2  0  0  0
 11 12  1  0  0  0
 12 13  2  0  0  0
 13 16  1  0  0  0
 16 17  1  0  0  0
 11  2  1  0  0  0
  2  1  1  0  0  0
  1 18  1  0  0  0
 18 19  1  0  0  0
 19 20  2  0  0  0
 19 22  1  0  0  0
 22 23  2  0  0  0
 23 24  1  0  0  0
 24 25  2  0  0  0
 25 26  1  0  0  0
 26 27  2  0  0  0
 27 28  1  0  0  0
 28 29  2  0  0  0
 29 30  1  0  0  0
 30 31  2  0  0  0
 31 32  1  0  0  0
 32 33  2  0  0  0
  2  3  1  0  0  0
  3  4  1  0  0  0
  4  5  1  0  0  0
  5  6  1  0  0  0
  6  7  1  0  0  0
 13  8  1  0  0  0
  7  2  1  0  0  0
 27 22  1  0  0  0
 33 28  1  0  0  0
 18 21  1  0  0  0
M  END
> <minimizedAffinity>
-7.70509

> <CNNscore>
0.2090727091

> <CNNaffinity>
5.7204065323

> <CNN_VS>
1.1959809065

> <CNNaffinity_variance>
0.1992323250

$$$$
[H]c1c([H])c([H])c(-c2c([H])c([H])c([H])c([H])c2C(=O)N([H])C([H])([H])C2(c3c([H])c([H])c(OC([H])([H])[H])c(OC([H])([H])[H])c3[H])C([H])([H])C([H])([H])C([H])([H])C([H])([H])C2([H])[H])c([H])c1[H]


 33 36  0  0  0  0  0  0  0  0999 V2000
   -0.1907   21.3825  -21.3128 C   0  0  0  0  0  0  0  0  0  0  0  0
    0.8166   20.4435  -20.6680 C   0  0  0  0  0  0  0  0  0  0  0  0
    0.0634   19.3200  -20.0212 C   0  0  0  0  0  0  0  0  0  0  0  0
    0.2874   17.9848  -20.6072 C   0  0  0  0  0  0  0  0  0  0  0  0
    1.6977   17.6175  -20.8800 C   0  0  0  0  0  0  0  0  0  0  0  0
    2.5719   18.7424  -21.2911 C   0  0  0  0  0  0  0  0  0  0  0  0
    1.8419   19.9813  -21.6743 C   0  0  0  0  0  0  0  0  0  0  0  0
    2.6583   22.7139  -17.4891 C   0  0  0  0  0  0  0  0  0  0  0  0
    3.2424   22.6028  -18.7115 C   0  0  0  0  0  0  0  0  0  0  0  0
    2.6570   21.8625  -19.7582 C   0  0  0  0  0  0  0  0  0  0  0  0
    1.4631   21.2226  -19.5676 C   0  0  0  0  0  0  0  0  0  0  0  0
    0.8721   21.3329  -18.3327 C   0  0  0  0  0  0  0  0  0  0  0  0
    1.4550   22.0648  -17.3082 C   0  0  0  0  0  0  0  0  0  0  0  0
    4.1000   24.4639  -16.7260 C   0  0  0  0  0  0  0  0  0  0  0  0
    3.1819   23.4271  -16.4189 O   0  0  0  0  0  0  0  0  0  0  0  0
    0.8071   22.1381  -16.0947 O   0  0  0  0  0  0  0  0  0  0  0  0
    0.8613   21.2015  -15.0586 C   0  0  0  0  0  0  0  0  0  0  0  0
   -0.2218   21.3379  -22.7430 N   0  0  0  0  0  0  0  0  0  0  0  0
   -0.8227   22.4084  -23.4684 C   0  0  0  0  0  0  0  0  0  0  0  0
   -1.2932   23.3362  -22.7800 O   0  0  0  0  0  0  0  0  0  0  0  0
    0.1784   20.5660  -23.2676 H   0  0  0  0  0  0  0  0  0  0  0  0
   -0.8701   22.3854  -24.9289 C   0  0  0  0  0  0  0  0  0  0  0  0
    0.3296   22.4099  -25.6265 C   0  0  0  0  0  0  0  0  0  0  0  0
    0.4239   22.4311  -26.9912 C   0  0  0  0  0  0  0  0  0  0  0  0
   -0.7584   22.4264  -27.7004 C   0  0  0  0  0  0  0  0  0  0  0  0
   -1.9600   22.4012  -27.0427 C   0  0  0  0  0  0  0  0  0  0  0  0
   -2.0409   22.3793  -25.6253 C   0  0  0  0  0  0  0  0  0  0  0  0
   -3.3780   22.3143  -25.0644 C   0  0  0  0  0  0  0  0  0  0  0  0
   -3.9056   21.1481  -24.6084 C   0  0  0  0  0  0  0  0  0  0  0  0
   -5.1768   21.1207  -24.0753 C   0  0  0  0  0  0  0  0  0  0  0  0
   -5.9439   22.2577  -23.9881 C   0  0  0  0  0  0  0  0  0  0  0  0
   -5.4189   23.4430  -24.4481 C   0  0  0  0  0  0  0  0  0  0  0  0
   -4.1279   23.4622  -24.9878 C   0  0  0  0  0  0  0  0  0  0  0  0
 14 15  1  0  0  0
 15  8  1  0  0  0
  8  9  2  0  0  0
  9 10  1  0  0  0
 10 11  2  0  0  0
 11 12  1  0  0  0
 12 13  2  0  0  0
 13 16  1  0  0  0
 16 17  1  0  0  0
 11  2  1  0  0  0
  2  1  1  0  0  0
  1 18  1  0  0  0
 18 19  1  0  0  0
 19 20  2  0  0  0
 19 22  1  0  0  0
 22 23  2  0  0  0
 23 24  1  0  0  0
 24 25  2  0  0  0
 25 26  1  0  0  0
 26 27  2  0  0  0
 27 28  1  0  0  0
 28 29  2  0  0  0
 29 30  1  0  0  0
 30 31  2  0  0  0
 31 32  1  0  0  0
 32 33  2  0  0  0
  2  3  1  0  0  0
  3  4  1  0  0  0
  4  5  1  0  0  0
  5  6  1  0  0  0
  6  7  1  0  0  0
 13  8  1  0  0  0
  7  2  1  0  0  0
 27 22  1  0  0  0
 33 28  1  0  0  0
 18 21  1  0  0  0
M  END
> <minimizedAffinity>
-8.24820

> <CNNscore>
0.1803187281

> <CNNaffinity>
5.6447067261

> <CNN_VS>
1.0178463459

> <CNNaffinity_variance>
0.1649688333

$$$$
[H]c1c([H])c([H])c(-c2c([H])c([H])c([H])c([H])c2C(=O)N([H])C([H])([H])C2(c3c([H])c([H])c(OC([H])([H])[H])c(OC([H])([H])[H])c3[H])C([H])([H])C([H])([H])C([H])([H])C([H])([H])C2([H])[H])c([H])c1[H]


 33 36  0  0  0  0  0  0  0  0999 V2000
   -0.3743   21.3401  -21.4297 C   0  0  0  0  0  0  0  0  0  0  0  0
    0.8676   20.7274  -20.8016 C   0  0  0  0  0  0  0  0  0  0  0  0
    1.8439   20.4194  -21.8970 C   0  0  0  0  0  0  0  0  0  0  0  0
    3.0983   21.1954  -21.8666 C   0  0  0  0  0  0  0  0  0  0  0  0
    3.7669   21.3079  -20.5482 C   0  0  0  0  0  0  0  0  0  0  0  0
    2.8523   21.3681  -19.3826 C   0  0  0  0  0  0  0  0  0  0  0  0
    1.4290   21.6294  -19.7298 C   0  0  0  0  0  0  0  0  0  0  0  0
   -0.3917   16.9356  -19.1621 C   0  0  0  0  0  0  0  0  0  0  0  0
   -0.8669   18.1120  -18.6743 C   0  0  0  0  0  0  0  0  0  0  0  0
   -0.4632   19.3579  -19.1949 C   0  0  0  0  0  0  0  0  0  0  0  0
    0.4360   19.4176  -20.2240 C   0  0  0  0  0  0  0  0  0  0  0  0
    0.9180   18.2298  -20.7174 C   0  0  0  0  0  0  0  0  0  0  0  0
    0.5142   17.0077  -20.1996 C   0  0  0  0  0  0  0  0  0  0  0  0
   -0.2286   15.2897  -17.4336 C   0  0  0  0  0  0  0  0  0  0  0  0
   -0.7492   15.6779  -18.6947 O   0  0  0  0  0  0  0  0  0  0  0  0
    1.0337   15.8535  -20.7433 O   0  0  0  0  0  0  0  0  0  0  0  0
    1.9534   15.7619  -21.7919 C   0  0  0  0  0  0  0  0  0  0  0  0
   -0.3933   21.3227  -22.8607 N   0  0  0  0  0  0  0  0  0  0  0  0
   -0.8823   22.4573  -23.5726 C   0  0  0  0  0  0  0  0  0  0  0  0
   -1.2712   23.4136  -22.8724 O   0  0  0  0  0  0  0  0  0  0  0  0
   -0.0617   20.5254  -23.3950 H   0  0  0  0  0  0  0  0  0  0  0  0
   -0.9151   22.4634  -25.0337 C   0  0  0  0  0  0  0  0  0  0  0  0
    0.2910   22.5136  -25.7186 C   0  0  0  0  0  0  0  0  0  0  0  0
    0.3986   22.5633  -27.0816 C   0  0  0  0  0  0  0  0  0  0  0  0
   -0.7766   22.5617  -27.8026 C   0  0  0  0  0  0  0  0  0  0  0  0
   -1.9844   22.5116  -27.1576 C   0  0  0  0  0  0  0  0  0  0  0  0
   -2.0789   22.4602  -25.7418 C   0  0  0  0  0  0  0  0  0  0  0  0
   -3.4208   22.3710  -25.1958 C   0  0  0  0  0  0  0  0  0  0  0  0
   -3.8996   21.2169  -24.6618 C   0  0  0  0  0  0  0  0  0  0  0  0
   -5.1770   21.1664  -24.1453 C   0  0  0  0  0  0  0  0  0  0  0  0
   -5.9991   22.2678  -24.1531 C   0  0  0  0  0  0  0  0  0  0  0  0
   -5.5237   23.4404  -24.6925 C   0  0  0  0  0  0  0  0  0  0  0  0
   -4.2260   23.4832  -25.2146 C   0  0  0  0  0  0  0  0  0  0  0  0
 14 15  1  0  0  0
 15  8  1  0  0  0
  8  9  2  0  0  0
  9 10  1  0  0  0
 10 11  2  0  0  0
 11 12  1  0  0  0
 12 13  2  0  0  0
 13 16  1  0  0  0
 16 17  1  0  0  0
 11  2  1  0  0  0
  2  1  1  0  0  0
  1 18  1  0  0  0
 18 19  1  0  0  0
 19 20  2  0  0  0
 19 22  1  0  0  0
 22 23  2  0  0  0
 23 24  1  0  0  0
 24 25  2  0  0  0
 25 26  1  0  0  0
 26 27  2  0  0  0
 27 28  1  0  0  0
 28 29  2  0  0  0
 29 30  1  0  0  0
 30 31  2  0  0  0
 31 32  1  0  0  0
 32 33  2  0  0  0
  2  3  1  0  0  0
  3  4  1  0  0  0
  4  5  1  0  0  0
  5  6  1  0  0  0
  6  7  1  0  0  0
 13  8  1  0  0  0
  7  2  1  0  0  0
 27 22  1  0  0  0
 33 28  1  0  0  0
 18 21  1  0  0  0
M  END
> <minimizedAffinity>
-7.79038

> <CNNscore>
0.1700032502

> <CNNaffinity>
5.8470687866

> <CNN_VS>
0.9940207005

> <CNNaffinity_variance>
0.0557153001

$$$$
[H]c1c([H])c([H])c(-c2c([H])c([H])c([H])c([H])c2C(=O)N([H])C([H])([H])C2(c3c([H])c([H])c(OC([H])([H])[H])c(OC([H])([H])[H])c3[H])C([H])([H])C([H])([H])C([H])([H])C([H])([H])C2([H])[H])c([H])c1[H]


 33 36  0  0  0  0  0  0  0  0999 V2000
   -0.3033   21.5630  -20.9718 C   0  0  0  0  0  0  0  0  0  0  0  0
    0.5709   20.5506  -20.2488 C   0  0  0  0  0  0  0  0  0  0  0  0
   -0.1725   19.2501  -20.1846 C   0  0  0  0  0  0  0  0  0  0  0  0
    0.4276   18.1373  -20.9448 C   0  0  0  0  0  0  0  0  0  0  0  0
    1.8886   17.9454  -20.7817 C   0  0  0  0  0  0  0  0  0  0  0  0
    2.6686   19.1917  -20.5892 C   0  0  0  0  0  0  0  0  0  0  0  0
    1.9237   20.4397  -20.9085 C   0  0  0  0  0  0  0  0  0  0  0  0
    0.9785   21.9664  -16.1891 C   0  0  0  0  0  0  0  0  0  0  0  0
    0.0004   21.0900  -16.5396 C   0  0  0  0  0  0  0  0  0  0  0  0
   -0.1492   20.6214  -17.8603 C   0  0  0  0  0  0  0  0  0  0  0  0
    0.7017   21.0454  -18.8439 C   0  0  0  0  0  0  0  0  0  0  0  0
    1.6901   21.9319  -18.4917 C   0  0  0  0  0  0  0  0  0  0  0  0
    1.8306   22.3871  -17.1887 C   0  0  0  0  0  0  0  0  0  0  0  0
    0.3986   21.8967  -13.8691 C   0  0  0  0  0  0  0  0  0  0  0  0
    1.1792   22.4646  -14.9086 O   0  0  0  0  0  0  0  0  0  0  0  0
    2.8461   23.2728  -16.9022 O   0  0  0  0  0  0  0  0  0  0  0  0
    3.2233   24.3869  -17.6572 C   0  0  0  0  0  0  0  0  0  0  0  0
   -0.2960   21.4508  -22.3987 N   0  0  0  0  0  0  0  0  0  0  0  0
   -0.8711   22.4884  -23.1899 C   0  0  0  0  0  0  0  0  0  0  0  0
   -1.3549   23.4498  -22.5592 O   0  0  0  0  0  0  0  0  0  0  0  0
    0.1139   20.6532  -22.8750 H   0  0  0  0  0  0  0  0  0  0  0  0
   -0.8791   22.3963  -24.6485 C   0  0  0  0  0  0  0  0  0  0  0  0
    0.3393   22.3453  -25.3111 C   0  0  0  0  0  0  0  0  0  0  0  0
    0.4719   22.2971  -26.6720 C   0  0  0  0  0  0  0  0  0  0  0  0
   -0.6899   22.2993  -27.4143 C   0  0  0  0  0  0  0  0  0  0  0  0
   -1.9093   22.3477  -26.7915 C   0  0  0  0  0  0  0  0  0  0  0  0
   -2.0298   22.3973  -25.3777 C   0  0  0  0  0  0  0  0  0  0  0  0
   -3.3834   22.4060  -24.8536 C   0  0  0  0  0  0  0  0  0  0  0  0
   -4.0871   23.5597  -24.7119 C   0  0  0  0  0  0  0  0  0  0  0  0
   -5.3737   23.5338  -24.2168 C   0  0  0  0  0  0  0  0  0  0  0  0
   -5.9803   22.3550  -23.8542 C   0  0  0  0  0  0  0  0  0  0  0  0
   -5.2755   21.1819  -23.9930 C   0  0  0  0  0  0  0  0  0  0  0  0
   -3.9701   21.2170  -24.4964 C   0  0  0  0  0  0  0  0  0  0  0  0
 14 15  1  0  0  0
 15  8  1  0  0  0
  8  9  2  0  0  0
  9 10  1  0  0  0
 10 11  2  0  0  0
 11 12  1  0  0  0
 12 13  2  0  0  0
 13 16  1  0  0  0
 16 17  1  0  0  0
 11  2  1  0  0  0
  2  1  1  0  0  0
  1 18  1  0  0  0
 18 19  1  0  0  0
 19 20  2  0  0  0
 19 22  1  0  0  0
 22 23  2  0  0  0
 23 24  1  0  0  0
 24 25  2  0  0  0
 25 26  1  0  0  0
 26 27  2  0  0  0
 27 28  1  0  0  0
 28 29  2  0  0  0
 29 30  1  0  0  0
 30 31  2  0  0  0
 31 32  1  0  0  0
 32 33  2  0  0  0
  2  3  1  0  0  0
  3  4  1  0  0  0
  4  5  1  0  0  0
  5  6  1  0  0  0
  6  7  1  0  0  0
 13  8  1  0  0  0
  7  2  1  0  0  0
 27 22  1  0  0  0
 33 28  1  0  0  0
 18 21  1  0  0  0
M  END
> <minimizedAffinity>
-7.82957

> <CNNscore>
0.1627038568

> <CNNaffinity>
5.5326938629

> <CNN_VS>
0.9001906514

> <CNNaffinity_variance>
0.1721622646

$$$$
[H]c1c([H])c([H])c(-c2c([H])c([H])c([H])c([H])c2C(=O)N([H])C([H])([H])C2(c3c([H])c([H])c(OC([H])([H])[H])c(OC([H])([H])[H])c3[H])C([H])([H])C([H])([H])C([H])([H])C([H])([H])C2([H])[H])c([H])c1[H]


 33 36  0  0  0  0  0  0  0  0999 V2000
   -6.6322   23.3624  -24.8895 C   0  0  0  0  0  0  0  0  0  0  0  0
   -6.3215   23.7551  -23.4537 C   0  0  0  0  0  0  0  0  0  0  0  0
   -6.0404   25.2275  -23.4206 C   0  0  0  0  0  0  0  0  0  0  0  0
   -7.0114   26.0426  -22.6662 C   0  0  0  0  0  0  0  0  0  0  0  0
   -7.4039   25.5265  -21.3330 C   0  0  0  0  0  0  0  0  0  0  0  0
   -7.4621   24.0489  -21.2231 C   0  0  0  0  0  0  0  0  0  0  0  0
   -7.4357   23.3331  -22.5275 C   0  0  0  0  0  0  0  0  0  0  0  0
   -2.6160   21.7749  -22.4538 C   0  0  0  0  0  0  0  0  0  0  0  0
   -3.5622   21.1658  -23.2163 C   0  0  0  0  0  0  0  0  0  0  0  0
   -4.7783   21.7960  -23.5482 C   0  0  0  0  0  0  0  0  0  0  0  0
   -5.0444   23.0615  -23.1021 C   0  0  0  0  0  0  0  0  0  0  0  0
   -4.0898   23.6781  -22.3307 C   0  0  0  0  0  0  0  0  0  0  0  0
   -2.8948   23.0505  -22.0097 C   0  0  0  0  0  0  0  0  0  0  0  0
   -0.3119   21.4060  -22.9815 C   0  0  0  0  0  0  0  0  0  0  0  0
   -1.4000   21.2099  -22.0929 O   0  0  0  0  0  0  0  0  0  0  0  0
   -1.9784   23.7270  -21.2350 O   0  0  0  0  0  0  0  0  0  0  0  0
   -1.4878   23.3370  -19.9857 C   0  0  0  0  0  0  0  0  0  0  0  0
   -5.9144   24.1023  -25.8822 N   0  0  0  0  0  0  0  0  0  0  0  0
   -6.1958   23.8852  -27.2632 C   0  0  0  0  0  0  0  0  0  0  0  0
   -7.0762   23.0376  -27.5129 O   0  0  0  0  0  0  0  0  0  0  0  0
   -5.2078   24.7892  -25.6372 H   0  0  0  0  0  0  0  0  0  0  0  0
   -5.4746   24.6257  -28.2964 C   0  0  0  0  0  0  0  0  0  0  0  0
   -6.1994   25.4639  -29.1322 C   0  0  0  0  0  0  0  0  0  0  0  0
   -5.6535   26.1816  -30.1611 C   0  0  0  0  0  0  0  0  0  0  0  0
   -4.2960   26.0513  -30.3637 C   0  0  0  0  0  0  0  0  0  0  0  0
   -3.5509   25.2331  -29.5560 C   0  0  0  0  0  0  0  0  0  0  0  0
   -4.1328   24.4948  -28.4920 C   0  0  0  0  0  0  0  0  0  0  0  0
   -3.2182   23.6992  -27.6937 C   0  0  0  0  0  0  0  0  0  0  0  0
   -2.9643   23.9938  -26.3918 C   0  0  0  0  0  0  0  0  0  0  0  0
   -2.0949   23.2144  -25.6586 C   0  0  0  0  0  0  0  0  0  0  0  0
   -1.4633   22.1268  -26.2127 C   0  0  0  0  0  0  0  0  0  0  0  0
   -1.7131   21.8211  -27.5304 C   0  0  0  0  0  0  0  0  0  0  0  0
   -2.5969   22.6173  -28.2676 C   0  0  0  0  0  0  0  0  0  0  0  0
 14 15  1  0  0  0
 15  8  1  0  0  0
  8  9  2  0  0  0
  9 10  1  0  0  0
 10 11  2  0  0  0
 11 12  1  0  0  0
 12 13  2  0  0  0
 13 16  1  0  0  0
 16 17  1  0  0  0
 11  2  1  0  0  0
  2  1  1  0  0  0
  1 18  1  0  0  0
 18 19  1  0  0  0
 19 20  2  0  0  0
 19 22  1  0  0  0
 22 23  2  0  0  0
 23 24  1  0  0  0
 24 25  2  0  0  0
 25 26  1  0  0  0
 26 27  2  0  0  0
 27 28  1  0  0  0
 28 29  2  0  0  0
 29 30  1  0  0  0
 30 31  2  0  0  0
 31 32  1  0  0  0
 32 33  2  0  0  0
  2  3  1  0  0  0
  3  4  1  0  0  0
  4  5  1  0  0  0
  5  6  1  0  0  0
  6  7  1  0  0  0
 13  8  1  0  0  0
  7  2  1  0  0  0
 27 22  1  0  0  0
 33 28  1  0  0  0
 18 21  1  0  0  0
M  END
> <minimizedAffinity>
-8.00498

> <CNNscore>
0.1448140740

> <CNNaffinity>
6.3036146164

> <CNN_VS>
0.9128521085

> <CNNaffinity_variance>
0.3151243925

$$$$
[H]c1c([H])c([H])c(-c2c([H])c([H])c([H])c([H])c2C(=O)N([H])C([H])([H])C2(c3c([H])c([H])c(OC([H])([H])[H])c(OC([H])([H])[H])c3[H])C([H])([H])C([H])([H])C([H])([H])C([H])([H])C2([H])[H])c([H])c1[H]


 33 36  0  0  0  0  0  0  0  0999 V2000
   -4.7540   22.7601  -23.3084 C   0  0  0  0  0  0  0  0  0  0  0  0
   -5.9196   23.7050  -23.5549 C   0  0  0  0  0  0  0  0  0  0  0  0
   -5.4515   25.1053  -23.2937 C   0  0  0  0  0  0  0  0  0  0  0  0
   -5.4258   25.9961  -24.4694 C   0  0  0  0  0  0  0  0  0  0  0  0
   -6.6274   25.9697  -25.3375 C   0  0  0  0  0  0  0  0  0  0  0  0
   -7.2959   24.6505  -25.4456 C   0  0  0  0  0  0  0  0  0  0  0  0
   -6.4885   23.5078  -24.9387 C   0  0  0  0  0  0  0  0  0  0  0  0
   -8.8460   22.7985  -20.5109 C   0  0  0  0  0  0  0  0  0  0  0  0
   -8.2085   21.8136  -21.1975 C   0  0  0  0  0  0  0  0  0  0  0  0
   -7.2543   22.0921  -22.1965 C   0  0  0  0  0  0  0  0  0  0  0  0
   -6.9391   23.3861  -22.5088 C   0  0  0  0  0  0  0  0  0  0  0  0
   -7.5831   24.3826  -21.8167 C   0  0  0  0  0  0  0  0  0  0  0  0
   -8.5204   24.0992  -20.8338 C   0  0  0  0  0  0  0  0  0  0  0  0
   -9.6515   21.4195  -18.7296 C   0  0  0  0  0  0  0  0  0  0  0  0
   -9.7932   22.5908  -19.5170 O   0  0  0  0  0  0  0  0  0  0  0  0
   -9.1267   25.1461  -20.1749 O   0  0  0  0  0  0  0  0  0  0  0  0
   -9.0444   26.5022  -20.5031 C   0  0  0  0  0  0  0  0  0  0  0  0
   -3.5957   23.0152  -24.1095 N   0  0  0  0  0  0  0  0  0  0  0  0
   -3.1714   22.0443  -25.0638 C   0  0  0  0  0  0  0  0  0  0  0  0
   -3.8640   21.0091  -25.1325 O   0  0  0  0  0  0  0  0  0  0  0  0
   -3.0615   23.8748  -24.0273 H   0  0  0  0  0  0  0  0  0  0  0  0
   -1.9902   22.2793  -25.8918 C   0  0  0  0  0  0  0  0  0  0  0  0
   -0.7480   21.9321  -25.3794 C   0  0  0  0  0  0  0  0  0  0  0  0
    0.4364   22.1344  -26.0337 C   0  0  0  0  0  0  0  0  0  0  0  0
    0.3706   22.7206  -27.2799 C   0  0  0  0  0  0  0  0  0  0  0  0
   -0.8397   23.0744  -27.8155 C   0  0  0  0  0  0  0  0  0  0  0  0
   -2.0603   22.8574  -27.1234 C   0  0  0  0  0  0  0  0  0  0  0  0
   -3.2692   23.2456  -27.8267 C   0  0  0  0  0  0  0  0  0  0  0  0
   -3.8346   22.4474  -28.7698 C   0  0  0  0  0  0  0  0  0  0  0  0
   -4.9870   22.8421  -29.4158 C   0  0  0  0  0  0  0  0  0  0  0  0
   -5.5952   24.0413  -29.1314 C   0  0  0  0  0  0  0  0  0  0  0  0
   -5.0297   24.8568  -28.1789 C   0  0  0  0  0  0  0  0  0  0  0  0
   -3.8600   24.4487  -27.5279 C   0  0  0  0  0  0  0  0  0  0  0  0
 14 15  1  0  0  0
 15  8  1  0  0  0
  8  9  2  0  0  0
  9 10  1  0  0  0
 10 11  2  0  0  0
 11 12  1  0  0  0
 12 13  2  0  0  0
 13 16  1  0  0  0
 16 17  1  0  0  0
 11  2  1  0  0  0
  2  1  1  0  0  0
  1 18  1  0  0  0
 18 19  1  0  0  0
 19 20  2  0  0  0
 19 22  1  0  0  0
 22 23  2  0  0  0
 23 24  1  0  0  0
 24 25  2  0  0  0
 25 26  1  0  0  0
 26 27  2  0  0  0
 27 28  1  0  0  0
 28 29  2  0  0  0
 29 30  1  0  0  0
 30 31  2  0  0  0
 31 32  1  0  0  0
 32 33  2  0  0  0
  2  3  1  0  0  0
  3  4  1  0  0  0
  4  5  1  0  0  0
  5  6  1  0  0  0
  6  7  1  0  0  0
 13  8  1  0  0  0
  7  2  1  0  0  0
 27 22  1  0  0  0
 33 28  1  0  0  0
 18 21  1  0  0  0
M  END
> <minimizedAffinity>
-9.62076

> <CNNscore>
0.1440081745

> <CNNaffinity>
6.1997489929

> <CNN_VS>
0.8928145170

> <CNNaffinity_variance>
0.1941219121

$$$$
[H]c1c([H])c([H])c(-c2c([H])c([H])c([H])c([H])c2C(=O)N([H])C([H])([H])C2(c3c([H])c([H])c(OC([H])([H])[H])c(OC([H])([H])[H])c3[H])C([H])([H])C([H])([H])C([H])([H])C([H])([H])C2([H])[H])c([H])c1[H]


 33 36  0  0  0  0  0  0  0  0999 V2000
   -5.6210   21.8398  -23.5312 C   0  0  0  0  0  0  0  0  0  0  0  0
   -5.3570   23.1128  -24.3196 C   0  0  0  0  0  0  0  0  0  0  0  0
   -6.5129   23.3379  -25.2478 C   0  0  0  0  0  0  0  0  0  0  0  0
   -7.3224   24.5404  -24.9742 C   0  0  0  0  0  0  0  0  0  0  0  0
   -6.5702   25.7919  -24.7176 C   0  0  0  0  0  0  0  0  0  0  0  0
   -5.2783   25.6152  -24.0115 C   0  0  0  0  0  0  0  0  0  0  0  0
   -5.0930   24.2744  -23.3931 C   0  0  0  0  0  0  0  0  0  0  0  0
   -1.8910   22.3188  -26.7707 C   0  0  0  0  0  0  0  0  0  0  0  0
   -3.0397   22.8115  -27.3052 C   0  0  0  0  0  0  0  0  0  0  0  0
   -4.1809   23.0722  -26.5204 C   0  0  0  0  0  0  0  0  0  0  0  0
   -4.1630   22.8304  -25.1741 C   0  0  0  0  0  0  0  0  0  0  0  0
   -3.0035   22.3315  -24.6326 C   0  0  0  0  0  0  0  0  0  0  0  0
   -1.8843   22.0788  -25.4126 C   0  0  0  0  0  0  0  0  0  0  0  0
   -0.0927   23.1377  -28.1193 C   0  0  0  0  0  0  0  0  0  0  0  0
   -0.7346   22.0418  -27.4877 O   0  0  0  0  0  0  0  0  0  0  0  0
   -0.7519   21.5822  -24.8054 O   0  0  0  0  0  0  0  0  0  0  0  0
    0.2860   22.3240  -24.2344 C   0  0  0  0  0  0  0  0  0  0  0  0
   -5.6927   22.0170  -22.1127 N   0  0  0  0  0  0  0  0  0  0  0  0
   -6.8748   21.6334  -21.4137 C   0  0  0  0  0  0  0  0  0  0  0  0
   -7.7906   21.1558  -22.1133 O   0  0  0  0  0  0  0  0  0  0  0  0
   -4.9216   22.4047  -21.5778 H   0  0  0  0  0  0  0  0  0  0  0  0
   -6.9744   21.8069  -19.9659 C   0  0  0  0  0  0  0  0  0  0  0  0
   -6.5185   20.7827  -19.1477 C   0  0  0  0  0  0  0  0  0  0  0  0
   -6.5891   20.8021  -17.7815 C   0  0  0  0  0  0  0  0  0  0  0  0
   -7.1510   21.9186  -17.1998 C   0  0  0  0  0  0  0  0  0  0  0  0
   -7.6099   22.9482  -17.9785 C   0  0  0  0  0  0  0  0  0  0  0  0
   -7.5291   22.9127  -19.3956 C   0  0  0  0  0  0  0  0  0  0  0  0
   -8.0182   24.0890  -20.0913 C   0  0  0  0  0  0  0  0  0  0  0  0
   -7.2545   25.2038  -20.2339 C   0  0  0  0  0  0  0  0  0  0  0  0
   -7.7460   26.3029  -20.9058 C   0  0  0  0  0  0  0  0  0  0  0  0
   -9.0092   26.3082  -21.4473 C   0  0  0  0  0  0  0  0  0  0  0  0
   -9.7903   25.1846  -21.3072 C   0  0  0  0  0  0  0  0  0  0  0  0
   -9.2839   24.0733  -20.6238 C   0  0  0  0  0  0  0  0  0  0  0  0
 14 15  1  0  0  0
 15  8  1  0  0  0
  8  9  2  0  0  0
  9 10  1  0  0  0
 10 11  2  0  0  0
 11 12  1  0  0  0
 12 13  2  0  0  0
 13 16  1  0  0  0
 16 17  1  0  0  0
 11  2  1  0  0  0
  2  1  1  0  0  0
  1 18  1  0  0  0
 18 19  1  0  0  0
 19 20  2  0  0  0
 19 22  1  0  0  0
 22 23  2  0  0  0
 23 24  1  0  0  0
 24 25  2  0  0  0
 25 26  1  0  0  0
 26 27  2  0  0  0
 27 28  1  0  0  0
 28 29  2  0  0  0
 29 30  1  0  0  0
 30 31  2  0  0  0
 31 32  1  0  0  0
 32 33  2  0  0  0
  2  3  1  0  0  0
  3  4  1  0  0  0
  4  5  1  0  0  0
  5  6  1  0  0  0
  6  7  1  0  0  0
 13  8  1  0  0  0
  7  2  1  0  0  0
 27 22  1  0  0  0
 33 28  1  0  0  0
 18 21  1  0  0  0
M  END
> <minimizedAffinity>
-7.66774

> <CNNscore>
0.1399420798

> <CNNaffinity>
5.8772377968

> <CNN_VS>
0.8224728703

> <CNNaffinity_variance>
0.2156782448

$$$$
[H]OB(O[H])[C@@]([H])(N([H])C(=O)[C@@]([H])(N([H])C(=O)c1nc([H])c([H])nc1[H])C([H])([H])c1c([H])c([H])c([H])c([H])c1[H])C([H])([H])C([H])(C([H])([H])[H])C([H])([H])[H]


 32 33  0  0  0  0  0  0  0  0999 V2000
   -2.7472   22.3958  -22.0534 C   0  0  0  0  0  0  0  0  0  0  0  0
   -4.7371   23.1288  -20.5835 N   0  0  0  0  0  0  0  0  0  0  0  0
   -4.1687   22.6575  -21.7903 C   0  0  0  0  0  0  0  0  0  0  0  0
   -4.9927   22.4342  -22.7420 O   0  0  0  0  0  0  0  0  0  0  0  0
   -4.1258   23.3176  -19.7711 H   0  0  0  0  0  0  0  0  0  0  0  0
   -6.1827   23.3387  -20.4599 C   0  0  0  0  0  0  0  0  0  0  0  0
   -6.3611   24.8370  -19.9951 B   0  0  0  0  0  0  0  0  0  0  0  0
   -6.9510   25.0362  -18.6519 O   0  0  0  0  0  0  0  0  0  0  0  0
   -5.5243   25.8930  -20.5726 O   0  0  0  0  0  0  0  0  0  0  0  0
   -6.6278   25.8901  -18.2784 H   0  0  0  0  0  0  0  0  0  0  0  0
   -5.6290   25.9768  -21.5458 H   0  0  0  0  0  0  0  0  0  0  0  0
   -6.7592   22.3815  -19.4709 C   0  0  0  0  0  0  0  0  0  0  0  0
   -8.1714   21.6534  -21.4503 C   0  0  0  0  0  0  0  0  0  0  0  0
   -7.7317   21.4174  -20.0326 C   0  0  0  0  0  0  0  0  0  0  0  0
   -9.0136   21.3689  -19.1756 C   0  0  0  0  0  0  0  0  0  0  0  0
   -2.4621   22.7516  -23.4603 N   0  0  0  0  0  0  0  0  0  0  0  0
   -1.4003   22.1104  -24.1278 C   0  0  0  0  0  0  0  0  0  0  0  0
   -0.6832   21.2303  -23.5393 O   0  0  0  0  0  0  0  0  0  0  0  0
   -3.0349   23.4588  -23.9404 H   0  0  0  0  0  0  0  0  0  0  0  0
   -1.0648   22.4110  -25.5083 C   0  0  0  0  0  0  0  0  0  0  0  0
    0.2452   22.5447  -25.9033 C   0  0  0  0  0  0  0  0  0  0  0  0
    0.6010   22.8242  -27.1781 N   0  0  0  0  0  0  0  0  0  0  0  0
   -0.3561   22.9822  -28.1176 C   0  0  0  0  0  0  0  0  0  0  0  0
   -1.6748   22.8524  -27.7429 C   0  0  0  0  0  0  0  0  0  0  0  0
   -2.0022   22.5734  -26.4648 N   0  0  0  0  0  0  0  0  0  0  0  0
   -1.7966   23.2397  -21.2605 C   0  0  0  0  0  0  0  0  0  0  0  0
   -1.1085   22.6176  -20.1388 C   0  0  0  0  0  0  0  0  0  0  0  0
   -1.1538   21.2540  -19.9434 C   0  0  0  0  0  0  0  0  0  0  0  0
   -0.4847   20.6198  -18.9246 C   0  0  0  0  0  0  0  0  0  0  0  0
    0.2700   21.3517  -18.0475 C   0  0  0  0  0  0  0  0  0  0  0  0
    0.3397   22.7171  -18.2102 C   0  0  0  0  0  0  0  0  0  0  0  0
   -0.3480   23.3485  -19.2532 C   0  0  0  0  0  0  0  0  0  0  0  0
 13 14  1  0  0  0
 14 15  1  0  0  0
 14 12  1  0  0  0
 12  6  1  0  0  0
  6  2  1  0  0  0
  2  3  1  0  0  0
  3  4  2  0  0  0
  3  1  1  0  0  0
  1 26  1  0  0  0
 26 27  1  0  0  0
 27 28  2  0  0  0
 28 29  1  0  0  0
 29 30  2  0  0  0
 30 31  1  0  0  0
 31 32  2  0  0  0
  1 16  1  0  0  0
 16 17  1  0  0  0
 17 18  2  0  0  0
 17 20  1  0  0  0
 20 21  2  0  0  0
 21 22  1  0  0  0
 22 23  2  0  0  0
 23 24  1  0  0  0
 24 25  2  0  0  0
  6  7  1  0  0  0
  7  8  1  0  0  0
  7  9  1  0  0  0
 32 27  1  0  0  0
 25 20  1  0  0  0
  2  5  1  0  0  0
 16 19  1  0  0  0
  8 10  1  0  0  0
  9 11  1  0  0  0
M  END
> <minimizedAffinity>
-6.26789

> <CNNscore>
0.6600044370

> <CNNaffinity>
6.1225070953

> <CNN_VS>
4.0408816338

> <CNNaffinity_variance>
0.1927984059

$$$$
[H]OB(O[H])[C@@]([H])(N([H])C(=O)[C@@]([H])(N([H])C(=O)c1nc([H])c([H])nc1[H])C([H])([H])c1c([H])c([H])c([H])c([H])c1[H])C([H])([H])C([H])(C([H])([H])[H])C([H])([H])[H]


 32 33  0  0  0  0  0  0  0  0999 V2000
   -2.6379   22.6847  -21.8765 C   0  0  0  0  0  0  0  0  0  0  0  0
   -5.1800   22.2514  -21.7909 N   0  0  0  0  0  0  0  0  0  0  0  0
   -4.0365   23.0717  -21.6468 C   0  0  0  0  0  0  0  0  0  0  0  0
   -4.2600   24.2770  -21.2836 O   0  0  0  0  0  0  0  0  0  0  0  0
   -5.0685   21.2690  -22.0937 H   0  0  0  0  0  0  0  0  0  0  0  0
   -6.5245   22.7763  -21.5336 C   0  0  0  0  0  0  0  0  0  0  0  0
   -7.2546   21.6796  -20.6637 B   0  0  0  0  0  0  0  0  0  0  0  0
   -8.5552   21.1976  -21.1812 O   0  0  0  0  0  0  0  0  0  0  0  0
   -6.4836   20.8231  -19.7576 O   0  0  0  0  0  0  0  0  0  0  0  0
   -8.7073   20.2743  -20.8689 H   0  0  0  0  0  0  0  0  0  0  0  0
   -6.0011   21.3298  -19.0680 H   0  0  0  0  0  0  0  0  0  0  0  0
   -7.2360   23.0230  -22.8217 C   0  0  0  0  0  0  0  0  0  0  0  0
   -8.6029   25.1240  -23.2220 C   0  0  0  0  0  0  0  0  0  0  0  0
   -7.2659   24.4382  -23.2545 C   0  0  0  0  0  0  0  0  0  0  0  0
   -6.7309   24.5831  -24.6943 C   0  0  0  0  0  0  0  0  0  0  0  0
   -2.2997   22.9802  -23.2856 N   0  0  0  0  0  0  0  0  0  0  0  0
   -1.3776   22.1537  -23.9570 C   0  0  0  0  0  0  0  0  0  0  0  0
   -0.8315   21.1574  -23.3701 O   0  0  0  0  0  0  0  0  0  0  0  0
   -2.7351   23.7802  -23.7644 H   0  0  0  0  0  0  0  0  0  0  0  0
   -0.9998   22.3857  -25.3397 C   0  0  0  0  0  0  0  0  0  0  0  0
    0.3223   22.4084  -25.7160 C   0  0  0  0  0  0  0  0  0  0  0  0
    0.7170   22.6211  -26.9923 N   0  0  0  0  0  0  0  0  0  0  0  0
   -0.2113   22.8216  -27.9523 C   0  0  0  0  0  0  0  0  0  0  0  0
   -1.5414   22.8028  -27.5966 C   0  0  0  0  0  0  0  0  0  0  0  0
   -1.9080   22.5885  -26.3166 N   0  0  0  0  0  0  0  0  0  0  0  0
   -1.6330   23.4650  -21.0854 C   0  0  0  0  0  0  0  0  0  0  0  0
   -1.1984   22.9166  -19.8090 C   0  0  0  0  0  0  0  0  0  0  0  0
   -2.1119   22.5351  -18.8500 C   0  0  0  0  0  0  0  0  0  0  0  0
   -1.7488   21.9733  -17.6499 C   0  0  0  0  0  0  0  0  0  0  0  0
   -0.4246   21.7714  -17.3665 C   0  0  0  0  0  0  0  0  0  0  0  0
    0.5180   22.1399  -18.3000 C   0  0  0  0  0  0  0  0  0  0  0  0
    0.1320   22.7113  -19.5182 C   0  0  0  0  0  0  0  0  0  0  0  0
 13 14  1  0  0  0
 14 15  1  0  0  0
 14 12  1  0  0  0
 12  6  1  0  0  0
  6  2  1  0  0  0
  2  3  1  0  0  0
  3  4  2  0  0  0
  3  1  1  0  0  0
  1 26  1  0  0  0
 26 27  1  0  0  0
 27 28  2  0  0  0
 28 29  1  0  0  0
 29 30  2  0  0  0
 30 31  1  0  0  0
 31 32  2  0  0  0
  1 16  1  0  0  0
 16 17  1  0  0  0
 17 18  2  0  0  0
 17 20  1  0  0  0
 20 21  2  0  0  0
 21 22  1  0  0  0
 22 23  2  0  0  0
 23 24  1  0  0  0
 24 25  2  0  0  0
  6  7  1  0  0  0
  7  8  1  0  0  0
  7  9  1  0  0  0
 32 27  1  0  0  0
 25 20  1  0  0  0
  2  5  1  0  0  0
 16 19  1  0  0  0
  8 10  1  0  0  0
  9 11  1  0  0  0
M  END
> <minimizedAffinity>
-6.44003

> <CNNscore>
0.5548688769

> <CNNaffinity>
6.2119479179

> <CNN_VS>
3.4468166828

> <CNNaffinity_variance>
0.2329156399

$$$$
[H]OB(O[H])[C@@]([H])(N([H])C(=O)[C@@]([H])(N([H])C(=O)c1nc([H])c([H])nc1[H])C([H])([H])c1c([H])c([H])c([H])c([H])c1[H])C([H])([H])C([H])(C([H])([H])[H])C([H])([H])[H]


 32 33  0  0  0  0  0  0  0  0999 V2000
   -1.8987   22.9140  -23.9312 C   0  0  0  0  0  0  0  0  0  0  0  0
   -4.1564   23.6164  -22.8984 N   0  0  0  0  0  0  0  0  0  0  0  0
   -2.7428   23.6112  -22.9515 C   0  0  0  0  0  0  0  0  0  0  0  0
   -2.1508   24.2954  -22.0482 O   0  0  0  0  0  0  0  0  0  0  0  0
   -4.6957   23.0919  -23.6079 H   0  0  0  0  0  0  0  0  0  0  0  0
   -4.8716   24.3677  -21.8623 C   0  0  0  0  0  0  0  0  0  0  0  0
   -5.2793   23.3067  -20.7665 B   0  0  0  0  0  0  0  0  0  0  0  0
   -4.4725   23.3098  -19.5252 O   0  0  0  0  0  0  0  0  0  0  0  0
   -6.6423   22.7682  -20.7324 O   0  0  0  0  0  0  0  0  0  0  0  0
   -5.0248   22.9788  -18.7779 H   0  0  0  0  0  0  0  0  0  0  0  0
   -6.8910   22.2999  -21.5594 H   0  0  0  0  0  0  0  0  0  0  0  0
   -6.0661   25.0432  -22.4482 C   0  0  0  0  0  0  0  0  0  0  0  0
   -5.7362   26.3509  -24.5984 C   0  0  0  0  0  0  0  0  0  0  0  0
   -6.1087   25.0585  -23.9276 C   0  0  0  0  0  0  0  0  0  0  0  0
   -7.5151   24.6851  -24.4400 C   0  0  0  0  0  0  0  0  0  0  0  0
   -0.9562   22.0432  -23.1960 N   0  0  0  0  0  0  0  0  0  0  0  0
    0.3839   21.9686  -23.6236 C   0  0  0  0  0  0  0  0  0  0  0  0
    0.7957   22.6385  -24.6320 O   0  0  0  0  0  0  0  0  0  0  0  0
   -1.2803   21.5011  -22.3837 H   0  0  0  0  0  0  0  0  0  0  0  0
    1.3623   21.1343  -22.9489 C   0  0  0  0  0  0  0  0  0  0  0  0
    2.6069   20.9244  -23.4940 C   0  0  0  0  0  0  0  0  0  0  0  0
    3.5469   20.1549  -22.8989 N   0  0  0  0  0  0  0  0  0  0  0  0
    3.2709   19.5588  -21.7190 C   0  0  0  0  0  0  0  0  0  0  0  0
    2.0299   19.7561  -21.1557 C   0  0  0  0  0  0  0  0  0  0  0  0
    1.1108   20.5282  -21.7701 N   0  0  0  0  0  0  0  0  0  0  0  0
   -2.6346   21.9764  -24.8388 C   0  0  0  0  0  0  0  0  0  0  0  0
   -3.0473   22.4756  -26.1423 C   0  0  0  0  0  0  0  0  0  0  0  0
   -2.1555   22.5521  -27.1904 C   0  0  0  0  0  0  0  0  0  0  0  0
   -2.5110   22.9756  -28.4482 C   0  0  0  0  0  0  0  0  0  0  0  0
   -3.8049   23.3451  -28.7009 C   0  0  0  0  0  0  0  0  0  0  0  0
   -4.7252   23.2824  -27.6787 C   0  0  0  0  0  0  0  0  0  0  0  0
   -4.3472   22.8489  -26.4025 C   0  0  0  0  0  0  0  0  0  0  0  0
 13 14  1  0  0  0
 14 15  1  0  0  0
 14 12  1  0  0  0
 12  6  1  0  0  0
  6  2  1  0  0  0
  2  3  1  0  0  0
  3  4  2  0  0  0
  3  1  1  0  0  0
  1 26  1  0  0  0
 26 27  1  0  0  0
 27 28  2  0  0  0
 28 29  1  0  0  0
 29 30  2  0  0  0
 30 31  1  0  0  0
 31 32  2  0  0  0
  1 16  1  0  0  0
 16 17  1  0  0  0
 17 18  2  0  0  0
 17 20  1  0  0  0
 20 21  2  0  0  0
 21 22  1  0  0  0
 22 23  2  0  0  0
 23 24  1  0  0  0
 24 25  2  0  0  0
  6  7  1  0  0  0
  7  8  1  0  0  0
  7  9  1  0  0  0
 32 27  1  0  0  0
 25 20  1  0  0  0
  2  5  1  0  0  0
 16 19  1  0  0  0
  8 10  1  0  0  0
  9 11  1  0  0  0
M  END
> <minimizedAffinity>
-7.05077

> <CNNscore>
0.4166749418

> <CNNaffinity>
6.3275322914

> <CNN_VS>
2.6365242004

> <CNNaffinity_variance>
0.3064440489

$$$$
[H]OB(O[H])[C@@]([H])(N([H])C(=O)[C@@]([H])(N([H])C(=O)c1nc([H])c([H])nc1[H])C([H])([H])c1c([H])c([H])c([H])c([H])c1[H])C([H])([H])C([H])(C([H])([H])[H])C([H])([H])[H]


 32 33  0  0  0  0  0  0  0  0999 V2000
   -5.7500   24.1702  -24.4975 C   0  0  0  0  0  0  0  0  0  0  0  0
   -3.3642   23.2544  -24.1405 N   0  0  0  0  0  0  0  0  0  0  0  0
   -4.7713   23.1175  -24.1928 C   0  0  0  0  0  0  0  0  0  0  0  0
   -5.2244   21.9462  -23.9535 O   0  0  0  0  0  0  0  0  0  0  0  0
   -2.9333   24.1739  -24.3360 H   0  0  0  0  0  0  0  0  0  0  0  0
   -2.5040   22.1088  -23.8293 C   0  0  0  0  0  0  0  0  0  0  0  0
   -1.4360   22.6417  -22.7959 B   0  0  0  0  0  0  0  0  0  0  0  0
   -0.1407   21.9251  -22.7702 O   0  0  0  0  0  0  0  0  0  0  0  0
   -1.4963   24.0274  -22.3212 O   0  0  0  0  0  0  0  0  0  0  0  0
    0.5669   22.5435  -22.4702 H   0  0  0  0  0  0  0  0  0  0  0  0
   -2.3372   24.2387  -21.8592 H   0  0  0  0  0  0  0  0  0  0  0  0
   -1.8600   21.5956  -25.0736 C   0  0  0  0  0  0  0  0  0  0  0  0
   -2.1630   22.5784  -27.3941 C   0  0  0  0  0  0  0  0  0  0  0  0
   -1.4839   22.6381  -26.0547 C   0  0  0  0  0  0  0  0  0  0  0  0
    0.0342   22.6117  -26.3285 C   0  0  0  0  0  0  0  0  0  0  0  0
   -6.0112   24.1543  -25.9530 N   0  0  0  0  0  0  0  0  0  0  0  0
   -5.1284   24.8335  -26.8153 C   0  0  0  0  0  0  0  0  0  0  0  0
   -4.1103   25.4601  -26.3613 O   0  0  0  0  0  0  0  0  0  0  0  0
   -6.8284   23.6522  -26.3256 H   0  0  0  0  0  0  0  0  0  0  0  0
   -5.3243   24.8594  -28.2539 C   0  0  0  0  0  0  0  0  0  0  0  0
   -5.4110   23.6925  -28.9755 C   0  0  0  0  0  0  0  0  0  0  0  0
   -5.5930   23.6720  -30.3158 N   0  0  0  0  0  0  0  0  0  0  0  0
   -5.6965   24.8363  -30.9921 C   0  0  0  0  0  0  0  0  0  0  0  0
   -5.6123   26.0167  -30.2881 C   0  0  0  0  0  0  0  0  0  0  0  0
   -5.4306   26.0090  -28.9519 N   0  0  0  0  0  0  0  0  0  0  0  0
   -7.0997   23.9699  -23.8791 C   0  0  0  0  0  0  0  0  0  0  0  0
   -7.2803   24.3786  -22.4937 C   0  0  0  0  0  0  0  0  0  0  0  0
   -8.3741   23.9627  -21.7656 C   0  0  0  0  0  0  0  0  0  0  0  0
   -8.5630   24.2878  -20.4440 C   0  0  0  0  0  0  0  0  0  0  0  0
   -7.6373   25.0600  -19.7947 C   0  0  0  0  0  0  0  0  0  0  0  0
   -6.5307   25.4949  -20.4891 C   0  0  0  0  0  0  0  0  0  0  0  0
   -6.3528   25.1552  -21.8353 C   0  0  0  0  0  0  0  0  0  0  0  0
 13 14  1  0  0  0
 14 15  1  0  0  0
 14 12  1  0  0  0
 12  6  1  0  0  0
  6  2  1  0  0  0
  2  3  1  0  0  0
  3  4  2  0  0  0
  3  1  1  0  0  0
  1 26  1  0  0  0
 26 27  1  0  0  0
 27 28  2  0  0  0
 28 29  1  0  0  0
 29 30  2  0  0  0
 30 31  1  0  0  0
 31 32  2  0  0  0
  1 16  1  0  0  0
 16 17  1  0  0  0
 17 18  2  0  0  0
 17 20  1  0  0  0
 20 21  2  0  0  0
 21 22  1  0  0  0
 22 23  2  0  0  0
 23 24  1  0  0  0
 24 25  2  0  0  0
  6  7  1  0  0  0
  7  8  1  0  0  0
  7  9  1  0  0  0
 32 27  1  0  0  0
 25 20  1  0  0  0
  2  5  1  0  0  0
 16 19  1  0  0  0
  8 10  1  0  0  0
  9 11  1  0  0  0
M  END
> <minimizedAffinity>
-7.44377

> <CNNscore>
0.2307778895

> <CNNaffinity>
5.8790254593

> <CNN_VS>
1.3567490578

> <CNNaffinity_variance>
0.2793350518

$$$$
[H]OB(O[H])[C@@]([H])(N([H])C(=O)[C@@]([H])(N([H])C(=O)c1nc([H])c([H])nc1[H])C([H])([H])c1c([H])c([H])c([H])c([H])c1[H])C([H])([H])C([H])(C([H])([H])[H])C([H])([H])[H]


 32 33  0  0  0  0  0  0  0  0999 V2000
   -5.5515   23.8241  -25.1440 C   0  0  0  0  0  0  0  0  0  0  0  0
   -3.1258   23.2174  -24.5074 N   0  0  0  0  0  0  0  0  0  0  0  0
   -4.4795   22.8949  -24.7620 C   0  0  0  0  0  0  0  0  0  0  0  0
   -4.7863   21.6588  -24.6501 O   0  0  0  0  0  0  0  0  0  0  0  0
   -2.8102   24.1984  -24.5924 H   0  0  0  0  0  0  0  0  0  0  0  0
   -2.1573   22.1797  -24.1403 C   0  0  0  0  0  0  0  0  0  0  0  0
   -1.2313   22.8271  -23.0376 B   0  0  0  0  0  0  0  0  0  0  0  0
   -1.7172   24.0911  -22.4393 O   0  0  0  0  0  0  0  0  0  0  0  0
   -0.2898   21.9943  -22.2833 O   0  0  0  0  0  0  0  0  0  0  0  0
   -1.3599   24.1758  -21.5238 H   0  0  0  0  0  0  0  0  0  0  0  0
    0.3717   21.5476  -22.8559 H   0  0  0  0  0  0  0  0  0  0  0  0
   -1.3758   21.7576  -25.3392 C   0  0  0  0  0  0  0  0  0  0  0  0
   -2.0975   22.5576  -27.6374 C   0  0  0  0  0  0  0  0  0  0  0  0
   -1.2688   22.7806  -26.4036 C   0  0  0  0  0  0  0  0  0  0  0  0
    0.1924   22.9311  -26.8751 C   0  0  0  0  0  0  0  0  0  0  0  0
   -6.0673   24.4679  -23.9166 N   0  0  0  0  0  0  0  0  0  0  0  0
   -7.4172   24.8674  -23.8675 C   0  0  0  0  0  0  0  0  0  0  0  0
   -8.1991   24.6828  -24.8624 O   0  0  0  0  0  0  0  0  0  0  0  0
   -5.4440   24.6197  -23.1121 H   0  0  0  0  0  0  0  0  0  0  0  0
   -7.9896   25.5050  -22.6952 C   0  0  0  0  0  0  0  0  0  0  0  0
   -7.2710   25.6120  -21.5281 C   0  0  0  0  0  0  0  0  0  0  0  0
   -7.7663   26.1979  -20.4140 N   0  0  0  0  0  0  0  0  0  0  0  0
   -9.0177   26.7055  -20.4283 C   0  0  0  0  0  0  0  0  0  0  0  0
   -9.7546   26.6088  -21.5875 C   0  0  0  0  0  0  0  0  0  0  0  0
   -9.2367   26.0196  -22.6844 N   0  0  0  0  0  0  0  0  0  0  0  0
   -5.1121   24.9696  -26.0038 C   0  0  0  0  0  0  0  0  0  0  0  0
   -5.1318   24.7830  -27.4472 C   0  0  0  0  0  0  0  0  0  0  0  0
   -4.5682   25.7137  -28.2932 C   0  0  0  0  0  0  0  0  0  0  0  0
   -4.5254   25.5582  -29.6577 C   0  0  0  0  0  0  0  0  0  0  0  0
   -5.0603   24.4359  -30.2313 C   0  0  0  0  0  0  0  0  0  0  0  0
   -5.6326   23.4831  -29.4186 C   0  0  0  0  0  0  0  0  0  0  0  0
   -5.6685   23.6564  -28.0300 C   0  0  0  0  0  0  0  0  0  0  0  0
 13 14  1  0  0  0
 14 15  1  0  0  0
 14 12  1  0  0  0
 12  6  1  0  0  0
  6  2  1  0  0  0
  2  3  1  0  0  0
  3  4  2  0  0  0
  3  1  1  0  0  0
  1 26  1  0  0  0
 26 27  1  0  0  0
 27 28  2  0  0  0
 28 29  1  0  0  0
 29 30  2  0  0  0
 30 31  1  0  0  0
 31 32  2  0  0  0
  1 16  1  0  0  0
 16 17  1  0  0  0
 17 18  2  0  0  0
 17 20  1  0  0  0
 20 21  2  0  0  0
 21 22  1  0  0  0
 22 23  2  0  0  0
 23 24  1  0  0  0
 24 25  2  0  0  0
  6  7  1  0  0  0
  7  8  1  0  0  0
  7  9  1  0  0  0
 32 27  1  0  0  0
 25 20  1  0  0  0
  2  5  1  0  0  0
 16 19  1  0  0  0
  8 10  1  0  0  0
  9 11  1  0  0  0
M  END
> <minimizedAffinity>
-7.70792

> <CNNscore>
0.2051839530

> <CNNaffinity>
5.7117776871

> <CNN_VS>
1.1719651222

> <CNNaffinity_variance>
0.2837491333

$$$$
[H]OB(O[H])[C@@]([H])(N([H])C(=O)[C@@]([H])(N([H])C(=O)c1nc([H])c([H])nc1[H])C([H])([H])c1c([H])c([H])c([H])c([H])c1[H])C([H])([H])C([H])(C([H])([H])[H])C([H])([H])[H]


 32 33  0  0  0  0  0  0  0  0999 V2000
   -3.4152   22.9565  -24.1544 C   0  0  0  0  0  0  0  0  0  0  0  0
   -5.5893   24.2921  -24.5378 N   0  0  0  0  0  0  0  0  0  0  0  0
   -4.8693   23.1578  -24.0948 C   0  0  0  0  0  0  0  0  0  0  0  0
   -5.5715   22.2189  -23.5850 O   0  0  0  0  0  0  0  0  0  0  0  0
   -5.0789   25.0918  -24.9493 H   0  0  0  0  0  0  0  0  0  0  0  0
   -7.0480   24.3601  -24.4082 C   0  0  0  0  0  0  0  0  0  0  0  0
   -7.6061   24.4594  -25.8818 B   0  0  0  0  0  0  0  0  0  0  0  0
   -6.9323   23.6123  -26.8917 O   0  0  0  0  0  0  0  0  0  0  0  0
   -8.9846   24.8975  -26.1204 O   0  0  0  0  0  0  0  0  0  0  0  0
   -7.5708   23.3947  -27.6115 H   0  0  0  0  0  0  0  0  0  0  0  0
   -9.1638   25.8024  -25.7824 H   0  0  0  0  0  0  0  0  0  0  0  0
   -7.4374   25.5450  -23.5893 C   0  0  0  0  0  0  0  0  0  0  0  0
   -8.1768   23.8545  -21.8463 C   0  0  0  0  0  0  0  0  0  0  0  0
   -8.2913   25.2391  -22.4196 C   0  0  0  0  0  0  0  0  0  0  0  0
   -9.7812   25.4551  -22.7563 C   0  0  0  0  0  0  0  0  0  0  0  0
   -2.9623   22.4494  -22.8410 N   0  0  0  0  0  0  0  0  0  0  0  0
   -2.0331   23.2039  -22.0983 C   0  0  0  0  0  0  0  0  0  0  0  0
   -1.5779   24.3143  -22.5397 O   0  0  0  0  0  0  0  0  0  0  0  0
   -3.3243   21.5567  -22.4793 H   0  0  0  0  0  0  0  0  0  0  0  0
   -1.5457   22.7659  -20.8025 C   0  0  0  0  0  0  0  0  0  0  0  0
   -1.6876   21.4592  -20.3997 C   0  0  0  0  0  0  0  0  0  0  0  0
   -1.2482   21.0101  -19.2017 N   0  0  0  0  0  0  0  0  0  0  0  0
   -0.6417   21.8658  -18.3510 C   0  0  0  0  0  0  0  0  0  0  0  0
   -0.4894   23.1793  -18.7351 C   0  0  0  0  0  0  0  0  0  0  0  0
   -0.9367   23.6011  -19.9353 N   0  0  0  0  0  0  0  0  0  0  0  0
   -2.9660   21.9101  -25.1278 C   0  0  0  0  0  0  0  0  0  0  0  0
   -1.9812   22.2912  -26.1296 C   0  0  0  0  0  0  0  0  0  0  0  0
   -0.6305   22.1932  -25.8735 C   0  0  0  0  0  0  0  0  0  0  0  0
    0.3334   22.5003  -26.8032 C   0  0  0  0  0  0  0  0  0  0  0  0
   -0.0364   22.9263  -28.0508 C   0  0  0  0  0  0  0  0  0  0  0  0
   -1.3771   23.0371  -28.3444 C   0  0  0  0  0  0  0  0  0  0  0  0
   -2.3470   22.7205  -27.3860 C   0  0  0  0  0  0  0  0  0  0  0  0
 13 14  1  0  0  0
 14 15  1  0  0  0
 14 12  1  0  0  0
 12  6  1  0  0  0
  6  2  1  0  0  0
  2  3  1  0  0  0
  3  4  2  0  0  0
  3  1  1  0  0  0
  1 26  1  0  0  0
 26 27  1  0  0  0
 27 28  2  0  0  0
 28 29  1  0  0  0
 29 30  2  0  0  0
 30 31  1  0  0  0
 31 32  2  0  0  0
  1 16  1  0  0  0
 16 17  1  0  0  0
 17 18  2  0  0  0
 17 20  1  0  0  0
 20 21  2  0  0  0
 21 22  1  0  0  0
 22 23  2  0  0  0
 23 24  1  0  0  0
 24 25  2  0  0  0
  6  7  1  0  0  0
  7  8  1  0  0  0
  7  9  1  0  0  0
 32 27  1  0  0  0
 25 20  1  0  0  0
  2  5  1  0  0  0
 16 19  1  0  0  0
  8 10  1  0  0  0
  9 11  1  0  0  0
M  END
> <minimizedAffinity>
-8.00068

> <CNNscore>
0.1950082928

> <CNNaffinity>
5.3696184158

> <CNN_VS>
1.0471200943

> <CNNaffinity_variance>
0.2872083187

$$$$
[H]OB(O[H])[C@@]([H])(N([H])C(=O)[C@@]([H])(N([H])C(=O)c1nc([H])c([H])nc1[H])C([H])([H])c1c([H])c([H])c([H])c([H])c1[H])C([H])([H])C([H])(C([H])([H])[H])C([H])([H])[H]


 32 33  0  0  0  0  0  0  0  0999 V2000
   -5.4810   22.7580  -22.3576 C   0  0  0  0  0  0  0  0  0  0  0  0
   -3.1958   21.5858  -22.1101 N   0  0  0  0  0  0  0  0  0  0  0  0
   -4.0398   22.7206  -22.0746 C   0  0  0  0  0  0  0  0  0  0  0  0
   -3.4757   23.8224  -21.7547 O   0  0  0  0  0  0  0  0  0  0  0  0
   -3.5929   20.6618  -22.3504 H   0  0  0  0  0  0  0  0  0  0  0  0
   -1.7682   21.6951  -21.7951 C   0  0  0  0  0  0  0  0  0  0  0  0
   -1.6935   22.3527  -20.3617 B   0  0  0  0  0  0  0  0  0  0  0  0
   -1.7430   21.4192  -19.2137 O   0  0  0  0  0  0  0  0  0  0  0  0
   -1.0757   23.6704  -20.1859 O   0  0  0  0  0  0  0  0  0  0  0  0
   -1.2658   21.8193  -18.4487 H   0  0  0  0  0  0  0  0  0  0  0  0
   -1.5239   24.3765  -20.7014 H   0  0  0  0  0  0  0  0  0  0  0  0
   -1.0769   22.5288  -22.8216 C   0  0  0  0  0  0  0  0  0  0  0  0
    0.4860   21.8565  -24.7052 C   0  0  0  0  0  0  0  0  0  0  0  0
   -0.9064   21.8775  -24.1397 C   0  0  0  0  0  0  0  0  0  0  0  0
   -1.8037   22.5456  -25.2021 C   0  0  0  0  0  0  0  0  0  0  0  0
   -6.2062   22.8064  -21.0696 N   0  0  0  0  0  0  0  0  0  0  0  0
   -7.3440   21.9951  -20.8927 C   0  0  0  0  0  0  0  0  0  0  0  0
   -7.7572   21.2218  -21.8235 O   0  0  0  0  0  0  0  0  0  0  0  0
   -5.8795   23.4263  -20.3160 H   0  0  0  0  0  0  0  0  0  0  0  0
   -8.1034   21.9927  -19.6550 C   0  0  0  0  0  0  0  0  0  0  0  0
   -7.5950   22.5666  -18.5138 C   0  0  0  0  0  0  0  0  0  0  0  0
   -8.2688   22.5859  -17.3410 N   0  0  0  0  0  0  0  0  0  0  0  0
   -9.4942   22.0231  -17.2671 C   0  0  0  0  0  0  0  0  0  0  0  0
  -10.0218   21.4428  -18.3989 C   0  0  0  0  0  0  0  0  0  0  0  0
   -9.3289   21.4372  -19.5557 N   0  0  0  0  0  0  0  0  0  0  0  0
   -5.9455   23.9810  -23.0877 C   0  0  0  0  0  0  0  0  0  0  0  0
   -5.4762   24.1780  -24.4515 C   0  0  0  0  0  0  0  0  0  0  0  0
   -4.8030   25.3246  -24.8140 C   0  0  0  0  0  0  0  0  0  0  0  0
   -4.3046   25.5341  -26.0772 C   0  0  0  0  0  0  0  0  0  0  0  0
   -4.4700   24.5758  -27.0410 C   0  0  0  0  0  0  0  0  0  0  0  0
   -5.1377   23.4161  -26.7167 C   0  0  0  0  0  0  0  0  0  0  0  0
   -5.6398   23.2178  -25.4252 C   0  0  0  0  0  0  0  0  0  0  0  0
 13 14  1  0  0  0
 14 15  1  0  0  0
 14 12  1  0  0  0
 12  6  1  0  0  0
  6  2  1  0  0  0
  2  3  1  0  0  0
  3  4  2  0  0  0
  3  1  1  0  0  0
  1 26  1  0  0  0
 26 27  1  0  0  0
 27 28  2  0  0  0
 28 29  1  0  0  0
 29 30  2  0  0  0
 30 31  1  0  0  0
 31 32  2  0  0  0
  1 16  1  0  0  0
 16 17  1  0  0  0
 17 18  2  0  0  0
 17 20  1  0  0  0
 20 21  2  0  0  0
 21 22  1  0  0  0
 22 23  2  0  0  0
 23 24  1  0  0  0
 24 25  2  0  0  0
  6  7  1  0  0  0
  7  8  1  0  0  0
  7  9  1  0  0  0
 32 27  1  0  0  0
 25 20  1  0  0  0
  2  5  1  0  0  0
 16 19  1  0  0  0
  8 10  1  0  0  0
  9 11  1  0  0  0
M  END
> <minimizedAffinity>
-6.70676

> <CNNscore>
0.1937269419

> <CNNaffinity>
5.3097257614

> <CNN_VS>
1.0286369324

> <CNNaffinity_variance>
0.3345333040

$$$$
[H]OB(O[H])[C@@]([H])(N([H])C(=O)[C@@]([H])(N([H])C(=O)c1nc([H])c([H])nc1[H])C([H])([H])c1c([H])c([H])c([H])c([H])c1[H])C([H])([H])C([H])(C([H])([H])[H])C([H])([H])[H]


 32 33  0  0  0  0  0  0  0  0999 V2000
   -0.9445   22.5249  -23.2078 C   0  0  0  0  0  0  0  0  0  0  0  0
   -3.1943   23.7832  -23.3198 N   0  0  0  0  0  0  0  0  0  0  0  0
   -1.9579   23.4651  -22.7103 C   0  0  0  0  0  0  0  0  0  0  0  0
   -1.7067   24.0730  -21.6140 O   0  0  0  0  0  0  0  0  0  0  0  0
   -3.4523   23.3345  -24.2150 H   0  0  0  0  0  0  0  0  0  0  0  0
   -4.1104   24.7523  -22.7109 C   0  0  0  0  0  0  0  0  0  0  0  0
   -5.0424   23.9167  -21.7487 B   0  0  0  0  0  0  0  0  0  0  0  0
   -4.5398   23.7120  -20.3713 O   0  0  0  0  0  0  0  0  0  0  0  0
   -6.4839   23.8377  -22.0033 O   0  0  0  0  0  0  0  0  0  0  0  0
   -5.3053   23.6008  -19.7592 H   0  0  0  0  0  0  0  0  0  0  0  0
   -6.6985   23.4409  -22.8759 H   0  0  0  0  0  0  0  0  0  0  0  0
   -4.8956   25.4533  -23.7685 C   0  0  0  0  0  0  0  0  0  0  0  0
   -4.3756   25.7793  -26.2314 C   0  0  0  0  0  0  0  0  0  0  0  0
   -4.7902   24.8573  -25.1192 C   0  0  0  0  0  0  0  0  0  0  0  0
   -6.1314   24.2260  -25.5467 C   0  0  0  0  0  0  0  0  0  0  0  0
   -0.6383   21.5592  -22.1304 N   0  0  0  0  0  0  0  0  0  0  0  0
    0.6476   20.9877  -22.0673 C   0  0  0  0  0  0  0  0  0  0  0  0
    1.5492   21.2894  -22.9224 O   0  0  0  0  0  0  0  0  0  0  0  0
   -1.3587   21.3115  -21.4387 H   0  0  0  0  0  0  0  0  0  0  0  0
    1.0166   20.0331  -21.0371 C   0  0  0  0  0  0  0  0  0  0  0  0
    2.2274   20.1232  -20.3922 C   0  0  0  0  0  0  0  0  0  0  0  0
    2.6099   19.2553  -19.4277 N   0  0  0  0  0  0  0  0  0  0  0  0
    1.7817   18.2509  -19.0685 C   0  0  0  0  0  0  0  0  0  0  0  0
    0.5639   18.1427  -19.7020 C   0  0  0  0  0  0  0  0  0  0  0  0
    0.2071   19.0216  -20.6606 N   0  0  0  0  0  0  0  0  0  0  0  0
   -1.3914   21.6689  -24.3532 C   0  0  0  0  0  0  0  0  0  0  0  0
   -1.1958   22.1811  -25.7016 C   0  0  0  0  0  0  0  0  0  0  0  0
    0.0693   22.3827  -26.2100 C   0  0  0  0  0  0  0  0  0  0  0  0
    0.3015   22.8229  -27.4907 C   0  0  0  0  0  0  0  0  0  0  0  0
   -0.7545   23.0815  -28.3229 C   0  0  0  0  0  0  0  0  0  0  0  0
   -2.0340   22.8921  -27.8507 C   0  0  0  0  0  0  0  0  0  0  0  0
   -2.2540   22.4432  -26.5432 C   0  0  0  0  0  0  0  0  0  0  0  0
 13 14  1  0  0  0
 14 15  1  0  0  0
 14 12  1  0  0  0
 12  6  1  0  0  0
  6  2  1  0  0  0
  2  3  1  0  0  0
  3  4  2  0  0  0
  3  1  1  0  0  0
  1 26  1  0  0  0
 26 27  1  0  0  0
 27 28  2  0  0  0
 28 29  1  0  0  0
 29 30  2  0  0  0
 30 31  1  0  0  0
 31 32  2  0  0  0
  1 16  1  0  0  0
 16 17  1  0  0  0
 17 18  2  0  0  0
 17 20  1  0  0  0
 20 21  2  0  0  0
 21 22  1  0  0  0
 22 23  2  0  0  0
 23 24  1  0  0  0
 24 25  2  0  0  0
  6  7  1  0  0  0
  7  8  1  0  0  0
  7  9  1  0  0  0
 32 27  1  0  0  0
 25 20  1  0  0  0
  2  5  1  0  0  0
 16 19  1  0  0  0
  8 10  1  0  0  0
  9 11  1  0  0  0
M  END
> <minimizedAffinity>
-7.19968

> <CNNscore>
0.1840809137

> <CNNaffinity>
5.6385879517

> <CNN_VS>
1.0379564762

> <CNNaffinity_variance>
0.0981862694

$$$$
[H]OB(O[H])[C@@]([H])(N([H])C(=O)[C@@]([H])(N([H])C(=O)c1nc([H])c([H])nc1[H])C([H])([H])c1c([H])c([H])c([H])c([H])c1[H])C([H])([H])C([H])(C([H])([H])[H])C([H])([H])[H]


 32 33  0  0  0  0  0  0  0  0999 V2000
   -2.9963   22.9149  -23.9241 C   0  0  0  0  0  0  0  0  0  0  0  0
   -4.7122   24.5788  -24.8961 N   0  0  0  0  0  0  0  0  0  0  0  0
   -4.3554   23.3935  -24.2112 C   0  0  0  0  0  0  0  0  0  0  0  0
   -5.3298   22.6760  -23.7986 O   0  0  0  0  0  0  0  0  0  0  0  0
   -3.9707   25.2094  -25.2452 H   0  0  0  0  0  0  0  0  0  0  0  0
   -6.1183   24.9372  -25.1053 C   0  0  0  0  0  0  0  0  0  0  0  0
   -6.2683   25.2016  -26.6546 B   0  0  0  0  0  0  0  0  0  0  0  0
   -5.5869   26.4070  -27.1784 O   0  0  0  0  0  0  0  0  0  0  0  0
   -6.5617   24.0924  -27.5671 O   0  0  0  0  0  0  0  0  0  0  0  0
   -5.3543   26.2628  -28.1262 H   0  0  0  0  0  0  0  0  0  0  0  0
   -7.4103   23.6415  -27.3630 H   0  0  0  0  0  0  0  0  0  0  0  0
   -6.4663   26.1460  -24.3028 C   0  0  0  0  0  0  0  0  0  0  0  0
   -6.6986   25.2797  -21.9283 C   0  0  0  0  0  0  0  0  0  0  0  0
   -7.3458   25.8887  -23.1404 C   0  0  0  0  0  0  0  0  0  0  0  0
   -8.5134   24.9590  -23.5308 C   0  0  0  0  0  0  0  0  0  0  0  0
   -3.0015   22.2738  -22.5914 N   0  0  0  0  0  0  0  0  0  0  0  0
   -2.4192   22.9516  -21.5025 C   0  0  0  0  0  0  0  0  0  0  0  0
   -1.8891   24.1062  -21.6479 O   0  0  0  0  0  0  0  0  0  0  0  0
   -3.4262   21.3449  -22.4668 H   0  0  0  0  0  0  0  0  0  0  0  0
   -2.3889   22.3815  -20.1674 C   0  0  0  0  0  0  0  0  0  0  0  0
   -1.7067   21.2153  -19.9131 C   0  0  0  0  0  0  0  0  0  0  0  0
   -1.6534   20.6508  -18.6849 N   0  0  0  0  0  0  0  0  0  0  0  0
   -2.2906   21.2422  -17.6515 C   0  0  0  0  0  0  0  0  0  0  0  0
   -2.9799   22.4112  -17.8847 C   0  0  0  0  0  0  0  0  0  0  0  0
   -3.0171   22.9530  -19.1191 N   0  0  0  0  0  0  0  0  0  0  0  0
   -2.5008   21.8431  -24.8462 C   0  0  0  0  0  0  0  0  0  0  0  0
   -1.6978   22.2485  -25.9906 C   0  0  0  0  0  0  0  0  0  0  0  0
   -0.3214   22.1889  -25.9514 C   0  0  0  0  0  0  0  0  0  0  0  0
    0.4743   22.5199  -27.0215 C   0  0  0  0  0  0  0  0  0  0  0  0
   -0.0999   22.9316  -28.1943 C   0  0  0  0  0  0  0  0  0  0  0  0
   -1.4726   23.0041  -28.2720 C   0  0  0  0  0  0  0  0  0  0  0  0
   -2.2696   22.6636  -27.1728 C   0  0  0  0  0  0  0  0  0  0  0  0
 13 14  1  0  0  0
 14 15  1  0  0  0
 14 12  1  0  0  0
 12  6  1  0  0  0
  6  2  1  0  0  0
  2  3  1  0  0  0
  3  4  2  0  0  0
  3  1  1  0  0  0
  1 26  1  0  0  0
 26 27  1  0  0  0
 27 28  2  0  0  0
 28 29  1  0  0  0
 29 30  2  0  0  0
 30 31  1  0  0  0
 31 32  2  0  0  0
  1 16  1  0  0  0
 16 17  1  0  0  0
 17 18  2  0  0  0
 17 20  1  0  0  0
 20 21  2  0  0  0
 21 22  1  0  0  0
 22 23  2  0  0  0
 23 24  1  0  0  0
 24 25  2  0  0  0
  6  7  1  0  0  0
  7  8  1  0  0  0
  7  9  1  0  0  0
 32 27  1  0  0  0
 25 20  1  0  0  0
  2  5  1  0  0  0
 16 19  1  0  0  0
  8 10  1  0  0  0
  9 11  1  0  0  0
M  END
> <minimizedAffinity>
-7.40842

> <CNNscore>
0.1771061271

> <CNNaffinity>
5.5549254417

> <CNN_VS>
0.9838113189

> <CNNaffinity_variance>
0.2731220126

$$$$
[H]c1c([H])c(C#N)c([H])c(N2C([H])([H])N([H])C(=O)C23C([H])([H])C([H])([H])N(C(=O)c2c([H])c([H])c(N(C([H])([H])[H])C([H])([H])[H])c([H])c2[H])C([H])([H])C3([H])[H])c1[H]


 31 34  0  0  0  0  0  0  0  0999 V2000
   -0.6877   22.6294  -20.3351 C   0  0  0  0  0  0  0  0  0  0  0  0
   -1.1108   23.7421  -19.7835 O   0  0  0  0  0  0  0  0  0  0  0  0
   -1.3880   22.3595  -21.5231 N   0  0  0  0  0  0  0  0  0  0  0  0
   -2.4290   23.2775  -22.0030 C   0  0  0  0  0  0  0  0  0  0  0  0
   -2.1844   23.6822  -23.4279 C   0  0  0  0  0  0  0  0  0  0  0  0
   -1.9331   22.4645  -24.2920 C   0  0  0  0  0  0  0  0  0  0  0  0
   -2.1393   21.2024  -23.4823 C   0  0  0  0  0  0  0  0  0  0  0  0
   -1.1653   21.2144  -22.3242 C   0  0  0  0  0  0  0  0  0  0  0  0
   -2.6032   22.4633  -25.5265 N   0  0  0  0  0  0  0  0  0  0  0  0
   -1.7978   21.8463  -26.5388 C   0  0  0  0  0  0  0  0  0  0  0  0
   -0.5440   21.5692  -25.8602 N   0  0  0  0  0  0  0  0  0  0  0  0
   -0.4983   22.4316  -24.7200 C   0  0  0  0  0  0  0  0  0  0  0  0
    0.4998   23.0064  -24.2221 O   0  0  0  0  0  0  0  0  0  0  0  0
    0.1935   20.8846  -26.1349 H   0  0  0  0  0  0  0  0  0  0  0  0
    2.2442   20.6089  -18.0783 C   0  0  0  0  0  0  0  0  0  0  0  0
    2.5745   21.0073  -19.3329 C   0  0  0  0  0  0  0  0  0  0  0  0
    1.6227   21.6796  -20.0915 C   0  0  0  0  0  0  0  0  0  0  0  0
    0.3541   21.9624  -19.6302 C   0  0  0  0  0  0  0  0  0  0  0  0
    0.0665   21.5252  -18.3205 C   0  0  0  0  0  0  0  0  0  0  0  0
    0.9954   20.8640  -17.5673 C   0  0  0  0  0  0  0  0  0  0  0  0
    4.0858   18.9048  -17.8840 C   0  0  0  0  0  0  0  0  0  0  0  0
    3.2151   19.9210  -17.2992 N   0  0  0  0  0  0  0  0  0  0  0  0
    3.3479   20.2332  -15.8872 C   0  0  0  0  0  0  0  0  0  0  0  0
   -3.9074   22.9412  -25.7927 C   0  0  0  0  0  0  0  0  0  0  0  0
   -4.9773   22.5361  -24.9647 C   0  0  0  0  0  0  0  0  0  0  0  0
   -6.2541   22.9487  -25.1021 C   0  0  0  0  0  0  0  0  0  0  0  0
   -6.5762   23.8301  -26.1134 C   0  0  0  0  0  0  0  0  0  0  0  0
   -5.5636   24.2609  -26.9567 C   0  0  0  0  0  0  0  0  0  0  0  0
   -4.2716   23.8129  -26.7791 C   0  0  0  0  0  0  0  0  0  0  0  0
   -5.9222   25.1707  -27.9929 C   0  0  0  0  0  0  0  0  0  0  0  0
   -6.2046   25.9181  -28.8351 N   0  0  0  0  0  0  0  0  0  0  0  0
 21 22  1  0  0  0
 22 23  1  0  0  0
 22 15  1  0  0  0
 15 16  2  0  0  0
 16 17  1  0  0  0
 17 18  2  0  0  0
 18 19  1  0  0  0
 19 20  2  0  0  0
 18  1  1  0  0  0
  1  2  2  0  0  0
  1  3  1  0  0  0
  3  4  1  0  0  0
  4  5  1  0  0  0
  5  6  1  0  0  0
  6  7  1  0  0  0
  7  8  1  0  0  0
  6  9  1  0  0  0
  9 10  1  0  0  0
 10 11  1  0  0  0
 11 12  1  0  0  0
 12 13  2  0  0  0
  9 24  1  0  0  0
 24 25  2  0  0  0
 25 26  1  0  0  0
 26 27  2  0  0  0
 27 28  1  0  0  0
 28 29  2  0  0  0
 28 30  1  0  0  0
 30 31  3  0  0  0
 20 15  1  0  0  0
  8  3  1  0  0  0
 29 24  1  0  0  0
 12  6  1  0  0  0
 11 14  1  0  0  0
M  END
> <minimizedAffinity>
-7.11836

> <CNNscore>
0.3740575612

> <CNNaffinity>
6.3211469650

> <CNN_VS>
2.3644728661

> <CNNaffinity_variance>
0.5074744225

$$$$
[H]c1c([H])c(C#N)c([H])c(N2C([H])([H])N([H])C(=O)C23C([H])([H])C([H])([H])N(C(=O)c2c([H])c([H])c(N(C([H])([H])[H])C([H])([H])[H])c([H])c2[H])C([H])([H])C3([H])[H])c1[H]


 31 34  0  0  0  0  0  0  0  0999 V2000
   -5.7675   24.0637  -19.4541 C   0  0  0  0  0  0  0  0  0  0  0  0
   -6.0662   25.2738  -19.8636 O   0  0  0  0  0  0  0  0  0  0  0  0
   -5.1149   23.3377  -20.4648 N   0  0  0  0  0  0  0  0  0  0  0  0
   -4.8385   23.9538  -21.7689 C   0  0  0  0  0  0  0  0  0  0  0  0
   -3.3888   23.8240  -22.1369 C   0  0  0  0  0  0  0  0  0  0  0  0
   -2.9240   22.3921  -21.9751 C   0  0  0  0  0  0  0  0  0  0  0  0
   -4.0970   21.5029  -21.6220 C   0  0  0  0  0  0  0  0  0  0  0  0
   -4.6933   21.9946  -20.3209 C   0  0  0  0  0  0  0  0  0  0  0  0
   -2.1355   21.9006  -23.0284 N   0  0  0  0  0  0  0  0  0  0  0  0
   -1.1314   21.0054  -22.5336 C   0  0  0  0  0  0  0  0  0  0  0  0
   -1.2924   21.0700  -21.0918 N   0  0  0  0  0  0  0  0  0  0  0  0
   -1.9847   22.2902  -20.8131 C   0  0  0  0  0  0  0  0  0  0  0  0
   -1.8285   23.0651  -19.8386 O   0  0  0  0  0  0  0  0  0  0  0  0
   -0.9708   20.3773  -20.3813 H   0  0  0  0  0  0  0  0  0  0  0  0
   -6.8020   23.3576  -15.4287 C   0  0  0  0  0  0  0  0  0  0  0  0
   -7.4028   22.5977  -16.3792 C   0  0  0  0  0  0  0  0  0  0  0  0
   -7.0714   22.8121  -17.7125 C   0  0  0  0  0  0  0  0  0  0  0  0
   -6.1587   23.7630  -18.1185 C   0  0  0  0  0  0  0  0  0  0  0  0
   -5.5658   24.5227  -17.0886 C   0  0  0  0  0  0  0  0  0  0  0  0
   -5.8850   24.3192  -15.7756 C   0  0  0  0  0  0  0  0  0  0  0  0
   -6.1146   22.8846  -13.0545 C   0  0  0  0  0  0  0  0  0  0  0  0
   -7.1384   23.1413  -14.0639 N   0  0  0  0  0  0  0  0  0  0  0  0
   -8.5325   23.1757  -13.6589 C   0  0  0  0  0  0  0  0  0  0  0  0
   -2.2866   22.1701  -24.4085 C   0  0  0  0  0  0  0  0  0  0  0  0
   -3.5836   22.2745  -24.9572 C   0  0  0  0  0  0  0  0  0  0  0  0
   -3.8512   22.5574  -26.2485 C   0  0  0  0  0  0  0  0  0  0  0  0
   -2.8079   22.7660  -27.1267 C   0  0  0  0  0  0  0  0  0  0  0  0
   -1.5125   22.6756  -26.6411 C   0  0  0  0  0  0  0  0  0  0  0  0
   -1.2854   22.3841  -25.3126 C   0  0  0  0  0  0  0  0  0  0  0  0
   -0.4529   22.8951  -27.5681 C   0  0  0  0  0  0  0  0  0  0  0  0
    0.4078   23.0639  -28.3287 N   0  0  0  0  0  0  0  0  0  0  0  0
 21 22  1  0  0  0
 22 23  1  0  0  0
 22 15  1  0  0  0
 15 16  2  0  0  0
 16 17  1  0  0  0
 17 18  2  0  0  0
 18 19  1  0  0  0
 19 20  2  0  0  0
 18  1  1  0  0  0
  1  2  2  0  0  0
  1  3  1  0  0  0
  3  4  1  0  0  0
  4  5  1  0  0  0
  5  6  1  0  0  0
  6  7  1  0  0  0
  7  8  1  0  0  0
  6  9  1  0  0  0
  9 10  1  0  0  0
 10 11  1  0  0  0
 11 12  1  0  0  0
 12 13  2  0  0  0
  9 24  1  0  0  0
 24 25  2  0  0  0
 25 26  1  0  0  0
 26 27  2  0  0  0
 27 28  1  0  0  0
 28 29  2  0  0  0
 28 30  1  0  0  0
 30 31  3  0  0  0
 20 15  1  0  0  0
  8  3  1  0  0  0
 29 24  1  0  0  0
 12  6  1  0  0  0
 11 14  1  0  0  0
M  END
> <minimizedAffinity>
-7.85827

> <CNNscore>
0.3210405707

> <CNNaffinity>
5.9218382835

> <CNN_VS>
1.9011503458

> <CNNaffinity_variance>
0.3156832457

$$$$
[H]c1c([H])c(C#N)c([H])c(N2C([H])([H])N([H])C(=O)C23C([H])([H])C([H])([H])N(C(=O)c2c([H])c([H])c(N(C([H])([H])[H])C([H])([H])[H])c([H])c2[H])C([H])([H])C3([H])[H])c1[H]


 31 34  0  0  0  0  0  0  0  0999 V2000
   -7.5216   22.2821  -21.3981 C   0  0  0  0  0  0  0  0  0  0  0  0
   -8.3730   21.2866  -21.4718 O   0  0  0  0  0  0  0  0  0  0  0  0
   -7.2139   22.5824  -20.0604 N   0  0  0  0  0  0  0  0  0  0  0  0
   -7.8117   21.8101  -18.9637 C   0  0  0  0  0  0  0  0  0  0  0  0
   -6.7596   21.2826  -18.0315 C   0  0  0  0  0  0  0  0  0  0  0  0
   -5.8126   22.3887  -17.6161 C   0  0  0  0  0  0  0  0  0  0  0  0
   -6.2957   23.7163  -18.1595 C   0  0  0  0  0  0  0  0  0  0  0  0
   -6.3410   23.6254  -19.6694 C   0  0  0  0  0  0  0  0  0  0  0  0
   -5.4950   22.4165  -16.2482 N   0  0  0  0  0  0  0  0  0  0  0  0
   -4.1381   22.8344  -16.0523 C   0  0  0  0  0  0  0  0  0  0  0  0
   -3.6161   22.9543  -17.4023 N   0  0  0  0  0  0  0  0  0  0  0  0
   -4.4690   22.1694  -18.2404 C   0  0  0  0  0  0  0  0  0  0  0  0
   -4.1524   21.4782  -19.2386 O   0  0  0  0  0  0  0  0  0  0  0  0
   -2.7833   23.4962  -17.7195 H   0  0  0  0  0  0  0  0  0  0  0  0
   -6.2113   23.6716  -25.1564 C   0  0  0  0  0  0  0  0  0  0  0  0
   -7.0046   24.4905  -24.4203 C   0  0  0  0  0  0  0  0  0  0  0  0
   -7.4433   24.0523  -23.1758 C   0  0  0  0  0  0  0  0  0  0  0  0
   -7.1110   22.8212  -22.6503 C   0  0  0  0  0  0  0  0  0  0  0  0
   -6.2847   22.0128  -23.4583 C   0  0  0  0  0  0  0  0  0  0  0  0
   -5.8484   22.4348  -24.6826 C   0  0  0  0  0  0  0  0  0  0  0  0
   -6.2306   25.3697  -27.0136 C   0  0  0  0  0  0  0  0  0  0  0  0
   -5.7605   24.1163  -26.4299 N   0  0  0  0  0  0  0  0  0  0  0  0
   -4.8093   23.3079  -27.1719 C   0  0  0  0  0  0  0  0  0  0  0  0
   -6.3570   22.1327  -15.1635 C   0  0  0  0  0  0  0  0  0  0  0  0
   -7.3191   23.0898  -14.7730 C   0  0  0  0  0  0  0  0  0  0  0  0
   -8.2122   22.9193  -13.7767 C   0  0  0  0  0  0  0  0  0  0  0  0
   -8.2161   21.7373  -13.0653 C   0  0  0  0  0  0  0  0  0  0  0  0
   -7.2920   20.7619  -13.4068 C   0  0  0  0  0  0  0  0  0  0  0  0
   -6.3971   20.9792  -14.4332 C   0  0  0  0  0  0  0  0  0  0  0  0
   -7.3167   19.5506  -12.6570 C   0  0  0  0  0  0  0  0  0  0  0  0
   -7.3287   18.5591  -12.0531 N   0  0  0  0  0  0  0  0  0  0  0  0
 21 22  1  0  0  0
 22 23  1  0  0  0
 22 15  1  0  0  0
 15 16  2  0  0  0
 16 17  1  0  0  0
 17 18  2  0  0  0
 18 19  1  0  0  0
 19 20  2  0  0  0
 18  1  1  0  0  0
  1  2  2  0  0  0
  1  3  1  0  0  0
  3  4  1  0  0  0
  4  5  1  0  0  0
  5  6  1  0  0  0
  6  7  1  0  0  0
  7  8  1  0  0  0
  6  9  1  0  0  0
  9 10  1  0  0  0
 10 11  1  0  0  0
 11 12  1  0  0  0
 12 13  2  0  0  0
  9 24  1  0  0  0
 24 25  2  0  0  0
 25 26  1  0  0  0
 26 27  2  0  0  0
 27 28  1  0  0  0
 28 29  2  0  0  0
 28 30  1  0  0  0
 30 31  3  0  0  0
 20 15  1  0  0  0
  8  3  1  0  0  0
 29 24  1  0  0  0
 12  6  1  0  0  0
 11 14  1  0  0  0
M  END
> <minimizedAffinity>
-5.77281

> <CNNscore>
0.2495616823

> <CNNaffinity>
5.1715598106

> <CNN_VS>
1.2906231880

> <CNNaffinity_variance>
0.1218768805

$$$$
[H]c1c([H])c(C#N)c([H])c(N2C([H])([H])N([H])C(=O)C23C([H])([H])C([H])([H])N(C(=O)c2c([H])c([H])c(N(C([H])([H])[H])C([H])([H])[H])c([H])c2[H])C([H])([H])C3([H])[H])c1[H]


 31 34  0  0  0  0  0  0  0  0999 V2000
   -1.2972   22.5256  -26.1228 C   0  0  0  0  0  0  0  0  0  0  0  0
   -0.0951   22.5912  -26.6441 O   0  0  0  0  0  0  0  0  0  0  0  0
   -1.2589   21.9484  -24.8422 N   0  0  0  0  0  0  0  0  0  0  0  0
    0.0163   21.5224  -24.2515 C   0  0  0  0  0  0  0  0  0  0  0  0
    0.2104   22.1167  -22.8865 C   0  0  0  0  0  0  0  0  0  0  0  0
   -1.0176   21.8945  -22.0290 C   0  0  0  0  0  0  0  0  0  0  0  0
   -2.0129   21.0230  -22.7645 C   0  0  0  0  0  0  0  0  0  0  0  0
   -2.4070   21.7259  -24.0454 C   0  0  0  0  0  0  0  0  0  0  0  0
   -0.7564   21.4736  -20.7147 N   0  0  0  0  0  0  0  0  0  0  0  0
   -1.7114   22.0341  -19.8047 C   0  0  0  0  0  0  0  0  0  0  0  0
   -2.5083   22.9146  -20.6407 N   0  0  0  0  0  0  0  0  0  0  0  0
   -1.7218   23.1965  -21.8017 C   0  0  0  0  0  0  0  0  0  0  0  0
   -1.6519   24.2691  -22.4491 O   0  0  0  0  0  0  0  0  0  0  0  0
   -3.4648   23.2842  -20.4497 H   0  0  0  0  0  0  0  0  0  0  0  0
   -4.4443   24.1880  -28.3822 C   0  0  0  0  0  0  0  0  0  0  0  0
   -3.6296   23.2922  -28.9951 C   0  0  0  0  0  0  0  0  0  0  0  0
   -2.5886   22.7290  -28.2653 C   0  0  0  0  0  0  0  0  0  0  0  0
   -2.3419   23.0372  -26.9439 C   0  0  0  0  0  0  0  0  0  0  0  0
   -3.2196   23.9733  -26.3586 C   0  0  0  0  0  0  0  0  0  0  0  0
   -4.2455   24.5320  -27.0677 C   0  0  0  0  0  0  0  0  0  0  0  0
   -5.7375   24.4279  -30.5276 C   0  0  0  0  0  0  0  0  0  0  0  0
   -5.5101   24.7662  -29.1253 N   0  0  0  0  0  0  0  0  0  0  0  0
   -6.3971   25.7168  -28.4783 C   0  0  0  0  0  0  0  0  0  0  0  0
    0.2571   20.5852  -20.2860 C   0  0  0  0  0  0  0  0  0  0  0  0
    1.1968   21.0167  -19.3242 C   0  0  0  0  0  0  0  0  0  0  0  0
    2.1857   20.2513  -18.8188 C   0  0  0  0  0  0  0  0  0  0  0  0
    2.3203   18.9473  -19.2487 C   0  0  0  0  0  0  0  0  0  0  0  0
    1.4239   18.4711  -20.1930 C   0  0  0  0  0  0  0  0  0  0  0  0
    0.4276   19.2893  -20.6824 C   0  0  0  0  0  0  0  0  0  0  0  0
    1.5844   17.1215  -20.6205 C   0  0  0  0  0  0  0  0  0  0  0  0
    1.7237   16.0251  -20.9761 N   0  0  0  0  0  0  0  0  0  0  0  0
 21 22  1  0  0  0
 22 23  1  0  0  0
 22 15  1  0  0  0
 15 16  2  0  0  0
 16 17  1  0  0  0
 17 18  2  0  0  0
 18 19  1  0  0  0
 19 20  2  0  0  0
 18  1  1  0  0  0
  1  2  2  0  0  0
  1  3  1  0  0  0
  3  4  1  0  0  0
  4  5  1  0  0  0
  5  6  1  0  0  0
  6  7  1  0  0  0
  7  8  1  0  0  0
  6  9  1  0  0  0
  9 10  1  0  0  0
 10 11  1  0  0  0
 11 12  1  0  0  0
 12 13  2  0  0  0
  9 24  1  0  0  0
 24 25  2  0  0  0
 25 26  1  0  0  0
 26 27  2  0  0  0
 27 28  1  0  0  0
 28 29  2  0  0  0
 28 30  1  0  0  0
 30 31  3  0  0  0
 20 15  1  0  0  0
  8  3  1  0  0  0
 29 24  1  0  0  0
 12  6  1  0  0  0
 11 14  1  0  0  0
M  END
> <minimizedAffinity>
-7.35806

> <CNNscore>
0.2384934127

> <CNNaffinity>
6.0615720749

> <CNN_VS>
1.4456449747

> <CNNaffinity_variance>
0.2062898576

$$$$
[H]c1c([H])c(C#N)c([H])c(N2C([H])([H])N([H])C(=O)C23C([H])([H])C([H])([H])N(C(=O)c2c([H])c([H])c(N(C([H])([H])[H])C([H])([H])[H])c([H])c2[H])C([H])([H])C3([H])[H])c1[H]


 31 34  0  0  0  0  0  0  0  0999 V2000
   -2.1276   22.9422  -20.8738 C   0  0  0  0  0  0  0  0  0  0  0  0
   -1.0790   23.6118  -20.4573 O   0  0  0  0  0  0  0  0  0  0  0  0
   -2.8903   22.4771  -19.7893 N   0  0  0  0  0  0  0  0  0  0  0  0
   -2.4851   22.7715  -18.4088 C   0  0  0  0  0  0  0  0  0  0  0  0
   -3.6094   23.3922  -17.6311 C   0  0  0  0  0  0  0  0  0  0  0  0
   -4.8766   22.5777  -17.7843 C   0  0  0  0  0  0  0  0  0  0  0  0
   -4.5890   21.3128  -18.5642 C   0  0  0  0  0  0  0  0  0  0  0  0
   -4.0666   21.7029  -19.9298 C   0  0  0  0  0  0  0  0  0  0  0  0
   -5.5915   22.3616  -16.5948 N   0  0  0  0  0  0  0  0  0  0  0  0
   -7.0026   22.3592  -16.8459 C   0  0  0  0  0  0  0  0  0  0  0  0
   -7.1025   22.6985  -18.2544 N   0  0  0  0  0  0  0  0  0  0  0  0
   -5.8716   23.3349  -18.6088 C   0  0  0  0  0  0  0  0  0  0  0  0
   -5.6922   24.2857  -19.4077 O   0  0  0  0  0  0  0  0  0  0  0  0
   -7.9051   22.5257  -18.8979 H   0  0  0  0  0  0  0  0  0  0  0  0
   -2.6379   22.8272  -25.0570 C   0  0  0  0  0  0  0  0  0  0  0  0
   -1.7887   21.9282  -24.4981 C   0  0  0  0  0  0  0  0  0  0  0  0
   -1.6104   21.9469  -23.1192 C   0  0  0  0  0  0  0  0  0  0  0  0
   -2.2564   22.8378  -22.2880 C   0  0  0  0  0  0  0  0  0  0  0  0
   -3.1265   23.7483  -22.9231 C   0  0  0  0  0  0  0  0  0  0  0  0
   -3.3083   23.7375  -24.2774 C   0  0  0  0  0  0  0  0  0  0  0  0
   -4.1418   22.9890  -27.0682 C   0  0  0  0  0  0  0  0  0  0  0  0
   -2.8228   22.8113  -26.4670 N   0  0  0  0  0  0  0  0  0  0  0  0
   -1.6752   22.6139  -27.3346 C   0  0  0  0  0  0  0  0  0  0  0  0
   -5.0579   22.1235  -15.3068 C   0  0  0  0  0  0  0  0  0  0  0  0
   -4.5830   20.8344  -14.9799 C   0  0  0  0  0  0  0  0  0  0  0  0
   -4.0272   20.4970  -13.7982 C   0  0  0  0  0  0  0  0  0  0  0  0
   -3.8966   21.4541  -12.8132 C   0  0  0  0  0  0  0  0  0  0  0  0
   -4.3466   22.7378  -13.0806 C   0  0  0  0  0  0  0  0  0  0  0  0
   -4.9086   23.0382  -14.3036 C   0  0  0  0  0  0  0  0  0  0  0  0
   -4.2004   23.7075  -12.0470 C   0  0  0  0  0  0  0  0  0  0  0  0
   -4.0790   24.4890  -11.1971 N   0  0  0  0  0  0  0  0  0  0  0  0
 21 22  1  0  0  0
 22 23  1  0  0  0
 22 15  1  0  0  0
 15 16  2  0  0  0
 16 17  1  0  0  0
 17 18  2  0  0  0
 18 19  1  0  0  0
 19 20  2  0  0  0
 18  1  1  0  0  0
  1  2  2  0  0  0
  1  3  1  0  0  0
  3  4  1  0  0  0
  4  5  1  0  0  0
  5  6  1  0  0  0
  6  7  1  0  0  0
  7  8  1  0  0  0
  6  9  1  0  0  0
  9 10  1  0  0  0
 10 11  1  0  0  0
 11 12  1  0  0  0
 12 13  2  0  0  0
  9 24  1  0  0  0
 24 25  2  0  0  0
 25 26  1  0  0  0
 26 27  2  0  0  0
 27 28  1  0  0  0
 28 29  2  0  0  0
 28 30  1  0  0  0
 30 31  3  0  0  0
 20 15  1  0  0  0
  8  3  1  0  0  0
 29 24  1  0  0  0
 12  6  1  0  0  0
 11 14  1  0  0  0
M  END
> <minimizedAffinity>
-6.20540

> <CNNscore>
0.2217663080

> <CNNaffinity>
5.2197632790

> <CNN_VS>
1.1575676203

> <CNNaffinity_variance>
0.0449758023

$$$$
[H]c1c([H])c(C#N)c([H])c(N2C([H])([H])N([H])C(=O)C23C([H])([H])C([H])([H])N(C(=O)c2c([H])c([H])c(N(C([H])([H])[H])C([H])([H])[H])c([H])c2[H])C([H])([H])C3([H])[H])c1[H]


 31 34  0  0  0  0  0  0  0  0999 V2000
   -7.4037   22.1557  -21.4661 C   0  0  0  0  0  0  0  0  0  0  0  0
   -8.3503   21.2473  -21.4678 O   0  0  0  0  0  0  0  0  0  0  0  0
   -7.0457   22.5063  -20.1533 N   0  0  0  0  0  0  0  0  0  0  0  0
   -7.6987   21.8668  -19.0038 C   0  0  0  0  0  0  0  0  0  0  0  0
   -6.6886   21.2960  -18.0510 C   0  0  0  0  0  0  0  0  0  0  0  0
   -5.6303   22.3259  -17.7163 C   0  0  0  0  0  0  0  0  0  0  0  0
   -5.9888   23.6587  -18.3376 C   0  0  0  0  0  0  0  0  0  0  0  0
   -6.0678   23.4793  -19.8382 C   0  0  0  0  0  0  0  0  0  0  0  0
   -5.2889   22.4066  -16.3562 N   0  0  0  0  0  0  0  0  0  0  0  0
   -3.8943   22.6987  -16.2012 C   0  0  0  0  0  0  0  0  0  0  0  0
   -3.3854   22.6820  -17.5613 N   0  0  0  0  0  0  0  0  0  0  0  0
   -4.3254   21.9355  -18.3391 C   0  0  0  0  0  0  0  0  0  0  0  0
   -4.0951   21.1557  -19.2948 O   0  0  0  0  0  0  0  0  0  0  0  0
   -2.5085   23.1176  -17.9208 H   0  0  0  0  0  0  0  0  0  0  0  0
   -6.1910   23.5990  -25.2369 C   0  0  0  0  0  0  0  0  0  0  0  0
   -5.7621   22.3669  -24.8630 C   0  0  0  0  0  0  0  0  0  0  0  0
   -6.1552   21.8711  -23.6248 C   0  0  0  0  0  0  0  0  0  0  0  0
   -6.9625   22.5726  -22.7541 C   0  0  0  0  0  0  0  0  0  0  0  0
   -7.3781   23.8463  -23.1948 C   0  0  0  0  0  0  0  0  0  0  0  0
   -6.9970   24.3420  -24.4099 C   0  0  0  0  0  0  0  0  0  0  0  0
   -4.8880   23.3664  -27.3773 C   0  0  0  0  0  0  0  0  0  0  0  0
   -5.7910   24.1096  -26.5026 N   0  0  0  0  0  0  0  0  0  0  0  0
   -6.2902   25.4010  -26.9407 C   0  0  0  0  0  0  0  0  0  0  0  0
   -6.1567   22.2779  -15.2469 C   0  0  0  0  0  0  0  0  0  0  0  0
   -5.9527   21.2282  -14.3245 C   0  0  0  0  0  0  0  0  0  0  0  0
   -6.6944   21.0239  -13.2166 C   0  0  0  0  0  0  0  0  0  0  0  0
   -7.7363   21.8818  -12.9311 C   0  0  0  0  0  0  0  0  0  0  0  0
   -7.9816   22.9308  -13.8037 C   0  0  0  0  0  0  0  0  0  0  0  0
   -7.1973   23.1019  -14.9249 C   0  0  0  0  0  0  0  0  0  0  0  0
   -9.0632   23.8023  -13.4863 C   0  0  0  0  0  0  0  0  0  0  0  0
   -9.9474   24.5128  -13.2391 N   0  0  0  0  0  0  0  0  0  0  0  0
 21 22  1  0  0  0
 22 23  1  0  0  0
 22 15  1  0  0  0
 15 16  2  0  0  0
 16 17  1  0  0  0
 17 18  2  0  0  0
 18 19  1  0  0  0
 19 20  2  0  0  0
 18  1  1  0  0  0
  1  2  2  0  0  0
  1  3  1  0  0  0
  3  4  1  0  0  0
  4  5  1  0  0  0
  5  6  1  0  0  0
  6  7  1  0  0  0
  7  8  1  0  0  0
  6  9  1  0  0  0
  9 10  1  0  0  0
 10 11  1  0  0  0
 11 12  1  0  0  0
 12 13  2  0  0  0
  9 24  1  0  0  0
 24 25  2  0  0  0
 25 26  1  0  0  0
 26 27  2  0  0  0
 27 28  1  0  0  0
 28 29  2  0  0  0
 28 30  1  0  0  0
 30 31  3  0  0  0
 20 15  1  0  0  0
  8  3  1  0  0  0
 29 24  1  0  0  0
 12  6  1  0  0  0
 11 14  1  0  0  0
M  END
> <minimizedAffinity>
-6.13855

> <CNNscore>
0.2192594260

> <CNNaffinity>
5.1262826920

> <CNN_VS>
1.1239857674

> <CNNaffinity_variance>
0.0828265622

$$$$
[H]c1c([H])c(C#N)c([H])c(N2C([H])([H])N([H])C(=O)C23C([H])([H])C([H])([H])N(C(=O)c2c([H])c([H])c(N(C([H])([H])[H])C([H])([H])[H])c([H])c2[H])C([H])([H])C3([H])[H])c1[H]


 31 34  0  0  0  0  0  0  0  0999 V2000
   -5.7655   23.7012  -21.1722 C   0  0  0  0  0  0  0  0  0  0  0  0
   -6.2268   24.8062  -21.7084 O   0  0  0  0  0  0  0  0  0  0  0  0
   -4.7925   23.1107  -21.9964 N   0  0  0  0  0  0  0  0  0  0  0  0
   -4.4054   23.7398  -23.2656 C   0  0  0  0  0  0  0  0  0  0  0  0
   -2.9176   23.9212  -23.3528 C   0  0  0  0  0  0  0  0  0  0  0  0
   -2.2027   22.6299  -23.0146 C   0  0  0  0  0  0  0  0  0  0  0  0
   -3.2084   21.5148  -22.8242 C   0  0  0  0  0  0  0  0  0  0  0  0
   -4.1342   21.8963  -21.6895 C   0  0  0  0  0  0  0  0  0  0  0  0
   -1.1405   22.2969  -23.8711 N   0  0  0  0  0  0  0  0  0  0  0  0
   -0.0856   21.6555  -23.1431 C   0  0  0  0  0  0  0  0  0  0  0  0
   -0.5316   21.7190  -21.7625 N   0  0  0  0  0  0  0  0  0  0  0  0
   -1.5051   22.7648  -21.6962 C   0  0  0  0  0  0  0  0  0  0  0  0
   -1.7061   23.5790  -20.7629 O   0  0  0  0  0  0  0  0  0  0  0  0
   -0.2150   21.1312  -20.9610 H   0  0  0  0  0  0  0  0  0  0  0  0
   -7.5854   22.5222  -17.5570 C   0  0  0  0  0  0  0  0  0  0  0  0
   -6.5401   23.3850  -17.4874 C   0  0  0  0  0  0  0  0  0  0  0  0
   -5.9294   23.7895  -18.6692 C   0  0  0  0  0  0  0  0  0  0  0  0
   -6.3349   23.3554  -19.9139 C   0  0  0  0  0  0  0  0  0  0  0  0
   -7.4252   22.4608  -19.9258 C   0  0  0  0  0  0  0  0  0  0  0  0
   -8.0319   22.0576  -18.7696 C   0  0  0  0  0  0  0  0  0  0  0  0
   -9.4797   21.3797  -16.3572 C   0  0  0  0  0  0  0  0  0  0  0  0
   -8.2127   22.1061  -16.3503 N   0  0  0  0  0  0  0  0  0  0  0  0
   -7.5820   22.4082  -15.0777 C   0  0  0  0  0  0  0  0  0  0  0  0
   -1.0757   22.4926  -25.2703 C   0  0  0  0  0  0  0  0  0  0  0  0
    0.1840   22.5368  -25.9072 C   0  0  0  0  0  0  0  0  0  0  0  0
    0.3690   22.6873  -27.2347 C   0  0  0  0  0  0  0  0  0  0  0  0
   -0.7282   22.8103  -28.0620 C   0  0  0  0  0  0  0  0  0  0  0  0
   -1.9902   22.7736  -27.4893 C   0  0  0  0  0  0  0  0  0  0  0  0
   -2.1324   22.6178  -26.1266 C   0  0  0  0  0  0  0  0  0  0  0  0
   -3.1065   22.9027  -28.3652 C   0  0  0  0  0  0  0  0  0  0  0  0
   -4.0191   23.0179  -29.0736 N   0  0  0  0  0  0  0  0  0  0  0  0
 21 22  1  0  0  0
 22 23  1  0  0  0
 22 15  1  0  0  0
 15 16  2  0  0  0
 16 17  1  0  0  0
 17 18  2  0  0  0
 18 19  1  0  0  0
 19 20  2  0  0  0
 18  1  1  0  0  0
  1  2  2  0  0  0
  1  3  1  0  0  0
  3  4  1  0  0  0
  4  5  1  0  0  0
  5  6  1  0  0  0
  6  7  1  0  0  0
  7  8  1  0  0  0
  6  9  1  0  0  0
  9 10  1  0  0  0
 10 11  1  0  0  0
 11 12  1  0  0  0
 12 13  2  0  0  0
  9 24  1  0  0  0
 24 25  2  0  0  0
 25 26  1  0  0  0
 26 27  2  0  0  0
 27 28  1  0  0  0
 28 29  2  0  0  0
 28 30  1  0  0  0
 30 31  3  0  0  0
 20 15  1  0  0  0
  8  3  1  0  0  0
 29 24  1  0  0  0
 12  6  1  0  0  0
 11 14  1  0  0  0
M  END
> <minimizedAffinity>
-8.20439

> <CNNscore>
0.2099010497

> <CNNaffinity>
5.7414236069

> <CNN_VS>
1.2051308155

> <CNNaffinity_variance>
0.0450058207

$$$$
[H]c1c([H])c(C#N)c([H])c(N2C([H])([H])N([H])C(=O)C23C([H])([H])C([H])([H])N(C(=O)c2c([H])c([H])c(N(C([H])([H])[H])C([H])([H])[H])c([H])c2[H])C([H])([H])C3([H])[H])c1[H]


 31 34  0  0  0  0  0  0  0  0999 V2000
   -0.0854   21.1894  -20.1517 C   0  0  0  0  0  0  0  0  0  0  0  0
    0.4274   20.0832  -20.6362 O   0  0  0  0  0  0  0  0  0  0  0  0
   -0.7504   21.9163  -21.1536 N   0  0  0  0  0  0  0  0  0  0  0  0
   -0.8163   21.4060  -22.5291 C   0  0  0  0  0  0  0  0  0  0  0  0
   -2.2316   21.3659  -23.0285 C   0  0  0  0  0  0  0  0  0  0  0  0
   -2.9200   22.6925  -22.7862 C   0  0  0  0  0  0  0  0  0  0  0  0
   -1.9302   23.6979  -22.2378 C   0  0  0  0  0  0  0  0  0  0  0  0
   -1.3813   23.1635  -20.9328 C   0  0  0  0  0  0  0  0  0  0  0  0
   -3.6796   23.1737  -23.8652 N   0  0  0  0  0  0  0  0  0  0  0  0
   -4.8467   23.8606  -23.3959 C   0  0  0  0  0  0  0  0  0  0  0  0
   -4.8033   23.6701  -21.9569 N   0  0  0  0  0  0  0  0  0  0  0  0
   -3.9610   22.5384  -21.7206 C   0  0  0  0  0  0  0  0  0  0  0  0
   -4.0819   21.6521  -20.8407 O   0  0  0  0  0  0  0  0  0  0  0  0
   -5.2864   24.2324  -21.2230 H   0  0  0  0  0  0  0  0  0  0  0  0
    0.7727   21.9340  -16.0919 C   0  0  0  0  0  0  0  0  0  0  0  0
   -0.4216   21.3636  -16.3920 C   0  0  0  0  0  0  0  0  0  0  0  0
   -0.7213   21.1056  -17.7251 C   0  0  0  0  0  0  0  0  0  0  0  0
    0.1385   21.4022  -18.7617 C   0  0  0  0  0  0  0  0  0  0  0  0
    1.3644   21.9932  -18.3913 C   0  0  0  0  0  0  0  0  0  0  0  0
    1.6679   22.2504  -17.0840 C   0  0  0  0  0  0  0  0  0  0  0  0
    2.1717   23.0970  -14.3532 C   0  0  0  0  0  0  0  0  0  0  0  0
    1.0829   22.1995  -14.7296 N   0  0  0  0  0  0  0  0  0  0  0  0
    0.3007   21.5652  -13.6833 C   0  0  0  0  0  0  0  0  0  0  0  0
   -3.3705   23.0733  -25.2417 C   0  0  0  0  0  0  0  0  0  0  0  0
   -4.4149   23.1053  -26.1916 C   0  0  0  0  0  0  0  0  0  0  0  0
   -4.2404   23.0484  -27.5278 C   0  0  0  0  0  0  0  0  0  0  0  0
   -2.9634   22.9514  -28.0407 C   0  0  0  0  0  0  0  0  0  0  0  0
   -1.8996   22.9161  -27.1525 C   0  0  0  0  0  0  0  0  0  0  0  0
   -2.1247   22.9771  -25.7934 C   0  0  0  0  0  0  0  0  0  0  0  0
   -0.5911   22.8157  -27.7074 C   0  0  0  0  0  0  0  0  0  0  0  0
    0.4794   22.7321  -28.1488 N   0  0  0  0  0  0  0  0  0  0  0  0
 21 22  1  0  0  0
 22 23  1  0  0  0
 22 15  1  0  0  0
 15 16  2  0  0  0
 16 17  1  0  0  0
 17 18  2  0  0  0
 18 19  1  0  0  0
 19 20  2  0  0  0
 18  1  1  0  0  0
  1  2  2  0  0  0
  1  3  1  0  0  0
  3  4  1  0  0  0
  4  5  1  0  0  0
  5  6  1  0  0  0
  6  7  1  0  0  0
  7  8  1  0  0  0
  6  9  1  0  0  0
  9 10  1  0  0  0
 10 11  1  0  0  0
 11 12  1  0  0  0
 12 13  2  0  0  0
  9 24  1  0  0  0
 24 25  2  0  0  0
 25 26  1  0  0  0
 26 27  2  0  0  0
 27 28  1  0  0  0
 28 29  2  0  0  0
 28 30  1  0  0  0
 30 31  3  0  0  0
 20 15  1  0  0  0
  8  3  1  0  0  0
 29 24  1  0  0  0
 12  6  1  0  0  0
 11 14  1  0  0  0
M  END
> <minimizedAffinity>
-7.89336

> <CNNscore>
0.1941762120

> <CNNaffinity>
5.8604240417

> <CNN_VS>
1.1379549503

> <CNNaffinity_variance>
0.2721113265

$$$$
[H]c1c([H])c(C#N)c([H])c(N2C([H])([H])N([H])C(=O)C23C([H])([H])C([H])([H])N(C(=O)c2c([H])c([H])c(N(C([H])([H])[H])C([H])([H])[H])c([H])c2[H])C([H])([H])C3([H])[H])c1[H]


 31 34  0  0  0  0  0  0  0  0999 V2000
   -7.4470   20.6399  -18.2826 C   0  0  0  0  0  0  0  0  0  0  0  0
   -7.9285   19.5610  -18.8529 O   0  0  0  0  0  0  0  0  0  0  0  0
   -7.1125   21.6095  -19.2431 N   0  0  0  0  0  0  0  0  0  0  0  0
   -7.3286   21.3521  -20.6726 C   0  0  0  0  0  0  0  0  0  0  0  0
   -8.1266   22.4524  -21.3102 C   0  0  0  0  0  0  0  0  0  0  0  0
   -7.5380   23.8048  -20.9678 C   0  0  0  0  0  0  0  0  0  0  0  0
   -6.2460   23.6286  -20.1993 C   0  0  0  0  0  0  0  0  0  0  0  0
   -6.5483   22.8680  -18.9264 C   0  0  0  0  0  0  0  0  0  0  0  0
   -7.4404   24.7005  -22.0453 N   0  0  0  0  0  0  0  0  0  0  0  0
   -7.6769   26.0450  -21.6087 C   0  0  0  0  0  0  0  0  0  0  0  0
   -8.0342   25.8949  -20.2091 N   0  0  0  0  0  0  0  0  0  0  0  0
   -8.4555   24.5386  -20.0390 C   0  0  0  0  0  0  0  0  0  0  0  0
   -9.3659   24.0968  -19.2971 O   0  0  0  0  0  0  0  0  0  0  0  0
   -8.0018   26.6202  -19.4601 H   0  0  0  0  0  0  0  0  0  0  0  0
   -7.4570   20.4848  -14.0697 C   0  0  0  0  0  0  0  0  0  0  0  0
   -6.2582   20.4207  -14.7026 C   0  0  0  0  0  0  0  0  0  0  0  0
   -6.2335   20.4750  -16.0918 C   0  0  0  0  0  0  0  0  0  0  0  0
   -7.3718   20.5912  -16.8616 C   0  0  0  0  0  0  0  0  0  0  0  0
   -8.5886   20.6538  -16.1510 C   0  0  0  0  0  0  0  0  0  0  0  0
   -8.6229   20.6012  -14.7860 C   0  0  0  0  0  0  0  0  0  0  0  0
   -8.6044   20.9758  -11.8845 C   0  0  0  0  0  0  0  0  0  0  0  0
   -7.4864   20.4295  -12.6489 N   0  0  0  0  0  0  0  0  0  0  0  0
   -6.3802   19.8156  -11.9361 C   0  0  0  0  0  0  0  0  0  0  0  0
   -7.1103   24.3938  -23.3859 C   0  0  0  0  0  0  0  0  0  0  0  0
   -7.9541   24.8383  -24.4274 C   0  0  0  0  0  0  0  0  0  0  0  0
   -7.7269   24.6332  -25.7410 C   0  0  0  0  0  0  0  0  0  0  0  0
   -6.5987   23.9432  -26.1337 C   0  0  0  0  0  0  0  0  0  0  0  0
   -5.7347   23.4835  -25.1518 C   0  0  0  0  0  0  0  0  0  0  0  0
   -6.0067   23.7163  -23.8201 C   0  0  0  0  0  0  0  0  0  0  0  0
   -4.5770   22.7739  -25.5835 C   0  0  0  0  0  0  0  0  0  0  0  0
   -3.6302   22.2052  -25.9412 N   0  0  0  0  0  0  0  0  0  0  0  0
 21 22  1  0  0  0
 22 23  1  0  0  0
 22 15  1  0  0  0
 15 16  2  0  0  0
 16 17  1  0  0  0
 17 18  2  0  0  0
 18 19  1  0  0  0
 19 20  2  0  0  0
 18  1  1  0  0  0
  1  2  2  0  0  0
  1  3  1  0  0  0
  3  4  1  0  0  0
  4  5  1  0  0  0
  5  6  1  0  0  0
  6  7  1  0  0  0
  7  8  1  0  0  0
  6  9  1  0  0  0
  9 10  1  0  0  0
 10 11  1  0  0  0
 11 12  1  0  0  0
 12 13  2  0  0  0
  9 24  1  0  0  0
 24 25  2  0  0  0
 25 26  1  0  0  0
 26 27  2  0  0  0
 27 28  1  0  0  0
 28 29  2  0  0  0
 28 30  1  0  0  0
 30 31  3  0  0  0
 20 15  1  0  0  0
  8  3  1  0  0  0
 29 24  1  0  0  0
 12  6  1  0  0  0
 11 14  1  0  0  0
M  END
> <minimizedAffinity>
-6.11909

> <CNNscore>
0.1880263388

> <CNNaffinity>
5.0754799843

> <CNN_VS>
0.9543239474

> <CNNaffinity_variance>
0.0906980783

$$$$
[H]OC(=O)[C@@]([H])(N([H])C(=O)[C@@]([H])(N([H])C(=O)[C@@]([H])(N([H])C(=O)[C@@]([H])(N([H])C(=O)[C@@]([H])(N([H])C(=O)[C@@]([H])(N([H])C(=O)[C@@]([H])(N([H])C(=O)C([H])([H])[H])C([H])([H])O[H])C([H])(C([H])([H])[H])C([H])([H])[H])C([H])([H])C([H])([H])C([H])([H])N=C(N([H])[H])N([H])[H])C([H])([H])O[H])C([H])([H])O[H])C([H])([H])O[H])C([H])([H])O[H]


 69 68  0  0  0  0  0  0  0  0999 V2000
   -2.2199   22.9523  -22.7378 C   0  0  0  0  0  0  0  0  0  0  0  0
   -1.5972   23.8789  -22.1650 O   0  0  0  0  0  0  0  0  0  0  0  0
   -3.6464   23.0288  -22.7592 N   0  0  0  0  0  0  0  0  0  0  0  0
   -4.1154   22.1983  -23.2391 H   0  0  0  0  0  0  0  0  0  0  0  0
   -1.4231   21.8862  -23.3421 C   0  0  0  0  0  0  0  0  0  0  0  0
   -2.1415   21.9218  -25.7513 C   0  0  0  0  0  0  0  0  0  0  0  0
   -3.0825   21.1013  -25.3711 O   0  0  0  0  0  0  0  0  0  0  0  0
   -1.2944   22.3477  -24.7802 N   0  0  0  0  0  0  0  0  0  0  0  0
   -0.5228   23.0093  -24.8780 H   0  0  0  0  0  0  0  0  0  0  0  0
   -2.1676   22.2491  -27.1818 C   0  0  0  0  0  0  0  0  0  0  0  0
   -3.9102   23.9971  -26.6818 C   0  0  0  0  0  0  0  0  0  0  0  0
   -3.1926   24.3777  -25.7276 O   0  0  0  0  0  0  0  0  0  0  0  0
   -3.4547   22.9140  -27.4702 N   0  0  0  0  0  0  0  0  0  0  0  0
   -4.0137   22.5577  -28.2729 H   0  0  0  0  0  0  0  0  0  0  0  0
   -5.1856   24.6827  -26.9436 C   0  0  0  0  0  0  0  0  0  0  0  0
   -5.6585   25.1367  -30.7553 C   0  0  0  0  0  0  0  0  0  0  0  0
   -5.6220   24.5374  -29.4114 C   0  0  0  0  0  0  0  0  0  0  0  0
   -5.9526   23.3385  -29.2660 O   0  0  0  0  0  0  0  0  0  0  0  0
   -5.2233   25.2715  -28.2684 N   0  0  0  0  0  0  0  0  0  0  0  0
   -4.9490   26.2841  -28.4296 H   0  0  0  0  0  0  0  0  0  0  0  0
   -6.3777   23.7667  -26.7274 C   0  0  0  0  0  0  0  0  0  0  0  0
   -7.5712   24.4427  -26.6020 O   0  0  0  0  0  0  0  0  0  0  0  0
   -7.4334   25.3668  -26.3200 H   0  0  0  0  0  0  0  0  0  0  0  0
   -1.0166   23.0430  -27.6344 C   0  0  0  0  0  0  0  0  0  0  0  0
   -1.2019   23.5035  -29.0978 C   0  0  0  0  0  0  0  0  0  0  0  0
    0.2513   22.1680  -27.6396 C   0  0  0  0  0  0  0  0  0  0  0  0
   -0.0567   21.6180  -22.8808 C   0  0  0  0  0  0  0  0  0  0  0  0
    0.2311   20.8716  -21.6650 C   0  0  0  0  0  0  0  0  0  0  0  0
    1.6225   20.8412  -21.1416 C   0  0  0  0  0  0  0  0  0  0  0  0
    2.3121   19.5976  -21.5167 N   0  0  0  0  0  0  0  0  0  0  0  0
    3.2146   19.5222  -22.4084 C   0  0  0  0  0  0  0  0  0  0  0  0
    3.8101   18.2729  -22.6867 N   0  0  0  0  0  0  0  0  0  0  0  0
    3.6017   20.6892  -23.1007 N   0  0  0  0  0  0  0  0  0  0  0  0
    4.2819   18.0988  -23.6137 H   0  0  0  0  0  0  0  0  0  0  0  0
    3.8199   17.4758  -22.0204 H   0  0  0  0  0  0  0  0  0  0  0  0
    4.2038   21.4203  -22.6606 H   0  0  0  0  0  0  0  0  0  0  0  0
    3.2899   20.8474  -24.0838 H   0  0  0  0  0  0  0  0  0  0  0  0
   -4.4678   24.0523  -22.2255 C   0  0  0  0  0  0  0  0  0  0  0  0
   -4.9628   23.8042  -20.8530 C   0  0  0  0  0  0  0  0  0  0  0  0
   -4.2217   23.2591  -20.0237 O   0  0  0  0  0  0  0  0  0  0  0  0
   -6.2545   24.1813  -20.4956 N   0  0  0  0  0  0  0  0  0  0  0  0
   -6.8655   24.6534  -21.2268 H   0  0  0  0  0  0  0  0  0  0  0  0
   -6.8962   24.0141  -19.2184 C   0  0  0  0  0  0  0  0  0  0  0  0
   -6.0407   24.2935  -18.0753 C   0  0  0  0  0  0  0  0  0  0  0  0
   -5.6942   25.4567  -17.7607 O   0  0  0  0  0  0  0  0  0  0  0  0
   -5.5657   23.2329  -17.2701 N   0  0  0  0  0  0  0  0  0  0  0  0
   -5.8359   22.2538  -17.5039 H   0  0  0  0  0  0  0  0  0  0  0  0
   -4.7218   23.4053  -16.1224 C   0  0  0  0  0  0  0  0  0  0  0  0
   -3.4539   22.6277  -16.3792 C   0  0  0  0  0  0  0  0  0  0  0  0
   -3.0085   21.8517  -15.4773 O   0  0  0  0  0  0  0  0  0  0  0  0
   -2.7480   22.7305  -17.5823 N   0  0  0  0  0  0  0  0  0  0  0  0
   -3.0896   23.3636  -18.3303 H   0  0  0  0  0  0  0  0  0  0  0  0
   -1.5498   21.9718  -17.8051 C   0  0  0  0  0  0  0  0  0  0  0  0
   -0.5846   22.8143  -18.5633 C   0  0  0  0  0  0  0  0  0  0  0  0
   -1.1256   23.6970  -19.5084 O   0  0  0  0  0  0  0  0  0  0  0  0
    0.6364   22.7220  -18.3515 O   0  0  0  0  0  0  0  0  0  0  0  0
   -0.4706   24.1946  -20.0933 H   0  0  0  0  0  0  0  0  0  0  0  0
   -1.8056   20.7114  -18.5889 C   0  0  0  0  0  0  0  0  0  0  0  0
   -2.2475   19.7092  -17.7061 O   0  0  0  0  0  0  0  0  0  0  0  0
   -1.5264   19.4432  -17.0645 H   0  0  0  0  0  0  0  0  0  0  0  0
   -5.3281   23.0217  -14.8177 C   0  0  0  0  0  0  0  0  0  0  0  0
   -4.6350   23.6056  -13.7345 O   0  0  0  0  0  0  0  0  0  0  0  0
   -4.2729   22.9330  -13.1168 H   0  0  0  0  0  0  0  0  0  0  0  0
   -7.5707   22.6754  -19.0764 C   0  0  0  0  0  0  0  0  0  0  0  0
   -8.4747   22.8062  -18.0080 O   0  0  0  0  0  0  0  0  0  0  0  0
   -9.4145   22.7674  -18.3055 H   0  0  0  0  0  0  0  0  0  0  0  0
   -5.4968   24.4999  -23.2001 C   0  0  0  0  0  0  0  0  0  0  0  0
   -5.9011   25.8078  -23.0283 O   0  0  0  0  0  0  0  0  0  0  0  0
   -6.5347   25.7997  -22.2487 H   0  0  0  0  0  0  0  0  0  0  0  0
 16 17  1  0  0  0
 17 18  2  0  0  0
 17 19  1  0  0  0
 19 15  1  0  0  0
 15 21  1  0  0  0
 21 22  1  0  0  0
 15 11  1  0  0  0
 11 12  2  0  0  0
 11 13  1  0  0  0
 13 10  1  0  0  0
 10 24  1  0  0  0
 24 25  1  0  0  0
 24 26  1  0  0  0
 10  6  1  0  0  0
  6  7  2  0  0  0
  6  8  1  0  0  0
  8  5  1  0  0  0
  5 27  1  0  0  0
 27 28  1  0  0  0
 28 29  1  0  0  0
 29 30  1  0  0  0
 30 31  2  0  0  0
 31 32  1  0  0  0
 31 33  1  0  0  0
  5  1  1  0  0  0
  1  2  2  0  0  0
  1  3  1  0  0  0
  3 38  1  0  0  0
 38 67  1  0  0  0
 67 68  1  0  0  0
 38 39  1  0  0  0
 39 40  2  0  0  0
 39 41  1  0  0  0
 41 43  1  0  0  0
 43 64  1  0  0  0
 64 65  1  0  0  0
 43 44  1  0  0  0
 44 45  2  0  0  0
 44 46  1  0  0  0
 46 48  1  0  0  0
 48 61  1  0  0  0
 61 62  1  0  0  0
 48 49  1  0  0  0
 49 50  2  0  0  0
 49 51  1  0  0  0
 51 53  1  0  0  0
 53 58  1  0  0  0
 58 59  1  0  0  0
 53 54  1  0  0  0
 54 55  1  0  0  0
 54 56  2  0  0  0
 19 20  1  0  0  0
 22 23  1  0  0  0
 13 14  1  0  0  0
  8  9  1  0  0  0
 32 34  1  0  0  0
 32 35  1  0  0  0
 33 36  1  0  0  0
 33 37  1  0  0  0
  3  4  1  0  0  0
 68 69  1  0  0  0
 41 42  1  0  0  0
 65 66  1  0  0  0
 46 47  1  0  0  0
 62 63  1  0  0  0
 51 52  1  0  0  0
 59 60  1  0  0  0
 55 57  1  0  0  0
M  END
> <minimizedAffinity>
-7.46211

> <CNNscore>
0.2598640919

> <CNNaffinity>
6.1041440964

> <CNN_VS>
1.5862479210

> <CNNaffinity_variance>
0.9571703672

$$$$
[H]OC(=O)[C@@]([H])(N([H])C(=O)[C@@]([H])(N([H])C(=O)[C@@]([H])(N([H])C(=O)[C@@]([H])(N([H])C(=O)[C@@]([H])(N([H])C(=O)[C@@]([H])(N([H])C(=O)[C@@]([H])(N([H])C(=O)C([H])([H])[H])C([H])([H])O[H])C([H])(C([H])([H])[H])C([H])([H])[H])C([H])([H])C([H])([H])C([H])([H])N=C(N([H])[H])N([H])[H])C([H])([H])O[H])C([H])([H])O[H])C([H])([H])O[H])C([H])([H])O[H]


 69 68  0  0  0  0  0  0  0  0999 V2000
   -3.2660   23.0060  -21.8183 C   0  0  0  0  0  0  0  0  0  0  0  0
   -3.8534   24.1147  -21.8303 O   0  0  0  0  0  0  0  0  0  0  0  0
   -3.9977   21.8753  -21.3416 N   0  0  0  0  0  0  0  0  0  0  0  0
   -3.4336   20.9688  -21.3339 H   0  0  0  0  0  0  0  0  0  0  0  0
   -1.8889   22.9745  -22.3074 C   0  0  0  0  0  0  0  0  0  0  0  0
   -0.5132   22.0070  -20.4383 C   0  0  0  0  0  0  0  0  0  0  0  0
   -0.3191   23.2476  -20.0830 O   0  0  0  0  0  0  0  0  0  0  0  0
   -1.2922   21.8159  -21.5332 N   0  0  0  0  0  0  0  0  0  0  0  0
   -1.5795   20.9249  -21.9409 H   0  0  0  0  0  0  0  0  0  0  0  0
    0.1498   21.0213  -19.5764 C   0  0  0  0  0  0  0  0  0  0  0  0
   -0.8703   20.1761  -17.4347 C   0  0  0  0  0  0  0  0  0  0  0  0
    0.0723   20.7263  -16.8190 O   0  0  0  0  0  0  0  0  0  0  0  0
   -0.8991   20.2815  -18.8454 N   0  0  0  0  0  0  0  0  0  0  0  0
   -1.6588   19.8410  -19.4044 H   0  0  0  0  0  0  0  0  0  0  0  0
   -1.9004   19.4490  -16.6761 C   0  0  0  0  0  0  0  0  0  0  0  0
   -3.9365   22.5115  -15.4786 C   0  0  0  0  0  0  0  0  0  0  0  0
   -3.1259   21.6095  -16.3127 C   0  0  0  0  0  0  0  0  0  0  0  0
   -2.7974   21.9710  -17.4656 O   0  0  0  0  0  0  0  0  0  0  0  0
   -2.7000   20.3387  -15.8562 N   0  0  0  0  0  0  0  0  0  0  0  0
   -2.9961   20.0663  -14.8741 H   0  0  0  0  0  0  0  0  0  0  0  0
   -2.7856   18.6096  -17.5810 C   0  0  0  0  0  0  0  0  0  0  0  0
   -3.5154   19.3572  -18.4786 O   0  0  0  0  0  0  0  0  0  0  0  0
   -3.6270   20.2774  -18.1735 H   0  0  0  0  0  0  0  0  0  0  0  0
    1.0689   20.1245  -20.2912 C   0  0  0  0  0  0  0  0  0  0  0  0
    1.5919   20.7848  -21.5867 C   0  0  0  0  0  0  0  0  0  0  0  0
    0.3141   18.8631  -20.7523 C   0  0  0  0  0  0  0  0  0  0  0  0
   -1.6010   22.7062  -23.7204 C   0  0  0  0  0  0  0  0  0  0  0  0
   -0.2661   22.8253  -24.2879 C   0  0  0  0  0  0  0  0  0  0  0  0
    0.1618   21.8743  -25.3479 C   0  0  0  0  0  0  0  0  0  0  0  0
    0.3585   22.5563  -26.6359 N   0  0  0  0  0  0  0  0  0  0  0  0
   -0.5359   22.6608  -27.5328 C   0  0  0  0  0  0  0  0  0  0  0  0
   -0.2358   23.3390  -28.7340 N   0  0  0  0  0  0  0  0  0  0  0  0
   -1.8095   22.0964  -27.3082 N   0  0  0  0  0  0  0  0  0  0  0  0
   -0.7955   23.1536  -29.6084 H   0  0  0  0  0  0  0  0  0  0  0  0
    0.5277   24.0373  -28.8284 H   0  0  0  0  0  0  0  0  0  0  0  0
   -2.5065   22.5390  -26.6686 H   0  0  0  0  0  0  0  0  0  0  0  0
   -2.0859   21.2110  -27.7860 H   0  0  0  0  0  0  0  0  0  0  0  0
   -5.3408   21.8385  -20.8923 C   0  0  0  0  0  0  0  0  0  0  0  0
   -6.3367   22.3564  -21.8569 C   0  0  0  0  0  0  0  0  0  0  0  0
   -6.6399   21.6781  -22.8478 O   0  0  0  0  0  0  0  0  0  0  0  0
   -6.9298   23.5992  -21.6518 N   0  0  0  0  0  0  0  0  0  0  0  0
   -6.6548   24.1560  -20.7885 H   0  0  0  0  0  0  0  0  0  0  0  0
   -7.9055   24.2541  -22.4824 C   0  0  0  0  0  0  0  0  0  0  0  0
   -7.3520   25.2479  -23.3894 C   0  0  0  0  0  0  0  0  0  0  0  0
   -7.4787   26.4805  -23.1979 O   0  0  0  0  0  0  0  0  0  0  0  0
   -6.6395   24.8380  -24.5397 N   0  0  0  0  0  0  0  0  0  0  0  0
   -6.5154   23.8204  -24.7278 H   0  0  0  0  0  0  0  0  0  0  0  0
   -6.0541   25.7389  -25.4911 C   0  0  0  0  0  0  0  0  0  0  0  0
   -6.2642   25.1407  -26.8607 C   0  0  0  0  0  0  0  0  0  0  0  0
   -7.1615   24.2555  -27.0203 O   0  0  0  0  0  0  0  0  0  0  0  0
   -5.5025   25.5289  -27.9678 N   0  0  0  0  0  0  0  0  0  0  0  0
   -4.7594   26.2452  -27.8592 H   0  0  0  0  0  0  0  0  0  0  0  0
   -5.7296   24.9513  -29.2623 C   0  0  0  0  0  0  0  0  0  0  0  0
   -4.8033   23.7998  -29.4410 C   0  0  0  0  0  0  0  0  0  0  0  0
   -3.4928   23.9665  -28.9718 O   0  0  0  0  0  0  0  0  0  0  0  0
   -5.1950   22.7522  -29.9826 O   0  0  0  0  0  0  0  0  0  0  0  0
   -2.8372   23.2284  -29.1817 H   0  0  0  0  0  0  0  0  0  0  0  0
   -5.4944   25.9343  -30.3790 C   0  0  0  0  0  0  0  0  0  0  0  0
   -5.9984   25.3919  -31.5753 O   0  0  0  0  0  0  0  0  0  0  0  0
   -5.4769   24.5859  -31.8595 H   0  0  0  0  0  0  0  0  0  0  0  0
   -4.6191   26.0653  -25.2656 C   0  0  0  0  0  0  0  0  0  0  0  0
   -3.7922   24.9432  -25.4931 O   0  0  0  0  0  0  0  0  0  0  0  0
   -3.2724   24.6949  -24.6973 H   0  0  0  0  0  0  0  0  0  0  0  0
   -9.0556   24.8212  -21.6932 C   0  0  0  0  0  0  0  0  0  0  0  0
   -9.9445   25.3652  -22.6365 O   0  0  0  0  0  0  0  0  0  0  0  0
  -10.7900   24.8595  -22.6898 H   0  0  0  0  0  0  0  0  0  0  0  0
   -5.4738   22.3539  -19.5046 C   0  0  0  0  0  0  0  0  0  0  0  0
   -5.2747   23.7143  -19.3897 O   0  0  0  0  0  0  0  0  0  0  0  0
   -4.2800   23.8506  -19.4253 H   0  0  0  0  0  0  0  0  0  0  0  0
 16 17  1  0  0  0
 17 18  2  0  0  0
 17 19  1  0  0  0
 19 15  1  0  0  0
 15 21  1  0  0  0
 21 22  1  0  0  0
 15 11  1  0  0  0
 11 12  2  0  0  0
 11 13  1  0  0  0
 13 10  1  0  0  0
 10 24  1  0  0  0
 24 25  1  0  0  0
 24 26  1  0  0  0
 10  6  1  0  0  0
  6  7  2  0  0  0
  6  8  1  0  0  0
  8  5  1  0  0  0
  5 27  1  0  0  0
 27 28  1  0  0  0
 28 29  1  0  0  0
 29 30  1  0  0  0
 30 31  2  0  0  0
 31 32  1  0  0  0
 31 33  1  0  0  0
  5  1  1  0  0  0
  1  2  2  0  0  0
  1  3  1  0  0  0
  3 38  1  0  0  0
 38 67  1  0  0  0
 67 68  1  0  0  0
 38 39  1  0  0  0
 39 40  2  0  0  0
 39 41  1  0  0  0
 41 43  1  0  0  0
 43 64  1  0  0  0
 64 65  1  0  0  0
 43 44  1  0  0  0
 44 45  2  0  0  0
 44 46  1  0  0  0
 46 48  1  0  0  0
 48 61  1  0  0  0
 61 62  1  0  0  0
 48 49  1  0  0  0
 49 50  2  0  0  0
 49 51  1  0  0  0
 51 53  1  0  0  0
 53 58  1  0  0  0
 58 59  1  0  0  0
 53 54  1  0  0  0
 54 55  1  0  0  0
 54 56  2  0  0  0
 19 20  1  0  0  0
 22 23  1  0  0  0
 13 14  1  0  0  0
  8  9  1  0  0  0
 32 34  1  0  0  0
 32 35  1  0  0  0
 33 36  1  0  0  0
 33 37  1  0  0  0
  3  4  1  0  0  0
 68 69  1  0  0  0
 41 42  1  0  0  0
 65 66  1  0  0  0
 46 47  1  0  0  0
 62 63  1  0  0  0
 51 52  1  0  0  0
 59 60  1  0  0  0
 55 57  1  0  0  0
M  END
> <minimizedAffinity>
-6.76033

> <CNNscore>
0.1759111434

> <CNNaffinity>
6.1565923691

> <CNN_VS>
1.0830131769

> <CNNaffinity_variance>
1.3488079309

$$$$
[H]OC(=O)[C@@]([H])(N([H])C(=O)[C@@]([H])(N([H])C(=O)[C@@]([H])(N([H])C(=O)[C@@]([H])(N([H])C(=O)[C@@]([H])(N([H])C(=O)[C@@]([H])(N([H])C(=O)[C@@]([H])(N([H])C(=O)C([H])([H])[H])C([H])([H])O[H])C([H])(C([H])([H])[H])C([H])([H])[H])C([H])([H])C([H])([H])C([H])([H])N=C(N([H])[H])N([H])[H])C([H])([H])O[H])C([H])([H])O[H])C([H])([H])O[H])C([H])([H])O[H]


 69 68  0  0  0  0  0  0  0  0999 V2000
   -3.3346   23.2667  -21.8370 C   0  0  0  0  0  0  0  0  0  0  0  0
   -3.8730   24.3999  -21.8177 O   0  0  0  0  0  0  0  0  0  0  0  0
   -4.1401   22.1456  -21.4689 N   0  0  0  0  0  0  0  0  0  0  0  0
   -3.6161   21.2154  -21.4820 H   0  0  0  0  0  0  0  0  0  0  0  0
   -1.9335   23.2000  -22.2485 C   0  0  0  0  0  0  0  0  0  0  0  0
   -0.7663   22.5213  -20.1274 C   0  0  0  0  0  0  0  0  0  0  0  0
   -0.7292   23.7994  -19.8658 O   0  0  0  0  0  0  0  0  0  0  0  0
   -1.3605   22.1695  -21.2957 N   0  0  0  0  0  0  0  0  0  0  0  0
   -1.5110   21.2253  -21.6542 H   0  0  0  0  0  0  0  0  0  0  0  0
   -0.1549   21.6758  -19.0951 C   0  0  0  0  0  0  0  0  0  0  0  0
    1.5522   20.1664  -20.1671 C   0  0  0  0  0  0  0  0  0  0  0  0
    0.6298   19.3449  -20.3785 O   0  0  0  0  0  0  0  0  0  0  0  0
    1.2301   21.3799  -19.5146 N   0  0  0  0  0  0  0  0  0  0  0  0
    1.9594   22.0949  -19.3134 H   0  0  0  0  0  0  0  0  0  0  0  0
    2.9207   19.8418  -20.6000 C   0  0  0  0  0  0  0  0  0  0  0  0
    3.3492   16.5208  -22.5354 C   0  0  0  0  0  0  0  0  0  0  0  0
    3.3356   17.5174  -21.4523 C   0  0  0  0  0  0  0  0  0  0  0  0
    3.6903   17.1759  -20.3011 O   0  0  0  0  0  0  0  0  0  0  0  0
    2.9338   18.8581  -21.6655 N   0  0  0  0  0  0  0  0  0  0  0  0
    2.6409   19.1117  -22.6536 H   0  0  0  0  0  0  0  0  0  0  0  0
    3.6982   21.0827  -21.0030 C   0  0  0  0  0  0  0  0  0  0  0  0
    5.0434   21.0018  -20.7177 O   0  0  0  0  0  0  0  0  0  0  0  0
    5.2229   20.3536  -20.0107 H   0  0  0  0  0  0  0  0  0  0  0  0
   -0.2176   22.2453  -17.7418 C   0  0  0  0  0  0  0  0  0  0  0  0
    1.1699   22.2135  -17.0622 C   0  0  0  0  0  0  0  0  0  0  0  0
   -1.1275   21.3773  -16.8519 C   0  0  0  0  0  0  0  0  0  0  0  0
   -1.5685   22.7502  -23.5960 C   0  0  0  0  0  0  0  0  0  0  0  0
   -0.1954   22.7445  -24.0787 C   0  0  0  0  0  0  0  0  0  0  0  0
    0.1978   21.7847  -25.1441 C   0  0  0  0  0  0  0  0  0  0  0  0
    0.4776   22.4735  -26.4130 N   0  0  0  0  0  0  0  0  0  0  0  0
   -0.3571   22.5839  -27.3651 C   0  0  0  0  0  0  0  0  0  0  0  0
    0.0203   23.2683  -28.5407 N   0  0  0  0  0  0  0  0  0  0  0  0
   -1.6429   22.0196  -27.2262 N   0  0  0  0  0  0  0  0  0  0  0  0
   -0.4820   23.0882  -29.4504 H   0  0  0  0  0  0  0  0  0  0  0  0
    0.7888   23.9663  -28.5819 H   0  0  0  0  0  0  0  0  0  0  0  0
   -2.3794   22.4594  -26.6304 H   0  0  0  0  0  0  0  0  0  0  0  0
   -1.8886   21.1371  -27.7257 H   0  0  0  0  0  0  0  0  0  0  0  0
   -5.5077   22.1449  -21.0991 C   0  0  0  0  0  0  0  0  0  0  0  0
   -6.4210   22.7695  -22.0821 C   0  0  0  0  0  0  0  0  0  0  0  0
   -6.8488   22.1000  -23.0323 O   0  0  0  0  0  0  0  0  0  0  0  0
   -6.7975   24.1023  -21.9398 N   0  0  0  0  0  0  0  0  0  0  0  0
   -6.4197   24.6502  -21.1103 H   0  0  0  0  0  0  0  0  0  0  0  0
   -7.6660   24.8655  -22.7966 C   0  0  0  0  0  0  0  0  0  0  0  0
   -6.9854   25.5510  -23.8845 C   0  0  0  0  0  0  0  0  0  0  0  0
   -7.0010   26.7984  -24.0101 O   0  0  0  0  0  0  0  0  0  0  0  0
   -6.2714   24.8084  -24.8529 N   0  0  0  0  0  0  0  0  0  0  0  0
   -6.2380   23.7694  -24.7770 H   0  0  0  0  0  0  0  0  0  0  0  0
   -5.5663   25.3905  -25.9589 C   0  0  0  0  0  0  0  0  0  0  0  0
   -5.9681   24.6264  -27.1969 C   0  0  0  0  0  0  0  0  0  0  0  0
   -6.9238   23.7921  -27.1282 O   0  0  0  0  0  0  0  0  0  0  0  0
   -5.3230   24.8058  -28.4249 N   0  0  0  0  0  0  0  0  0  0  0  0
   -4.5352   25.4769  -28.5025 H   0  0  0  0  0  0  0  0  0  0  0  0
   -5.7318   24.0736  -29.5901 C   0  0  0  0  0  0  0  0  0  0  0  0
   -4.8828   22.8569  -29.7123 C   0  0  0  0  0  0  0  0  0  0  0  0
   -3.7289   22.8113  -28.9175 O   0  0  0  0  0  0  0  0  0  0  0  0
   -5.2015   21.9396  -30.4877 O   0  0  0  0  0  0  0  0  0  0  0  0
   -3.1005   22.0367  -29.0721 H   0  0  0  0  0  0  0  0  0  0  0  0
   -5.5962   24.8824  -30.8535 C   0  0  0  0  0  0  0  0  0  0  0  0
   -6.4563   24.3474  -31.8299 O   0  0  0  0  0  0  0  0  0  0  0  0
   -6.1681   23.4297  -32.1076 H   0  0  0  0  0  0  0  0  0  0  0  0
   -4.0847   25.4400  -25.8197 C   0  0  0  0  0  0  0  0  0  0  0  0
   -3.4840   24.2409  -26.2624 O   0  0  0  0  0  0  0  0  0  0  0  0
   -2.9658   23.7992  -25.5542 H   0  0  0  0  0  0  0  0  0  0  0  0
   -8.5547   25.8105  -22.0321 C   0  0  0  0  0  0  0  0  0  0  0  0
   -7.6962   26.7233  -21.3953 O   0  0  0  0  0  0  0  0  0  0  0  0
   -7.7735   27.6333  -21.7683 H   0  0  0  0  0  0  0  0  0  0  0  0
   -5.6997   22.5778  -19.6903 C   0  0  0  0  0  0  0  0  0  0  0  0
   -7.0121   22.8449  -19.3592 O   0  0  0  0  0  0  0  0  0  0  0  0
   -7.2140   23.7507  -19.7440 H   0  0  0  0  0  0  0  0  0  0  0  0
 16 17  1  0  0  0
 17 18  2  0  0  0
 17 19  1  0  0  0
 19 15  1  0  0  0
 15 21  1  0  0  0
 21 22  1  0  0  0
 15 11  1  0  0  0
 11 12  2  0  0  0
 11 13  1  0  0  0
 13 10  1  0  0  0
 10 24  1  0  0  0
 24 25  1  0  0  0
 24 26  1  0  0  0
 10  6  1  0  0  0
  6  7  2  0  0  0
  6  8  1  0  0  0
  8  5  1  0  0  0
  5 27  1  0  0  0
 27 28  1  0  0  0
 28 29  1  0  0  0
 29 30  1  0  0  0
 30 31  2  0  0  0
 31 32  1  0  0  0
 31 33  1  0  0  0
  5  1  1  0  0  0
  1  2  2  0  0  0
  1  3  1  0  0  0
  3 38  1  0  0  0
 38 67  1  0  0  0
 67 68  1  0  0  0
 38 39  1  0  0  0
 39 40  2  0  0  0
 39 41  1  0  0  0
 41 43  1  0  0  0
 43 64  1  0  0  0
 64 65  1  0  0  0
 43 44  1  0  0  0
 44 45  2  0  0  0
 44 46  1  0  0  0
 46 48  1  0  0  0
 48 61  1  0  0  0
 61 62  1  0  0  0
 48 49  1  0  0  0
 49 50  2  0  0  0
 49 51  1  0  0  0
 51 53  1  0  0  0
 53 58  1  0  0  0
 58 59  1  0  0  0
 53 54  1  0  0  0
 54 55  1  0  0  0
 54 56  2  0  0  0
 19 20  1  0  0  0
 22 23  1  0  0  0
 13 14  1  0  0  0
  8  9  1  0  0  0
 32 34  1  0  0  0
 32 35  1  0  0  0
 33 36  1  0  0  0
 33 37  1  0  0  0
  3  4  1  0  0  0
 68 69  1  0  0  0
 41 42  1  0  0  0
 65 66  1  0  0  0
 46 47  1  0  0  0
 62 63  1  0  0  0
 51 52  1  0  0  0
 59 60  1  0  0  0
 55 57  1  0  0  0
M  END
> <minimizedAffinity>
-7.24870

> <CNNscore>
0.1581793427

> <CNNaffinity>
6.1520514488

> <CNN_VS>
0.9731274843

> <CNNaffinity_variance>
0.9288298488

$$$$
[H]OC(=O)[C@@]([H])(N([H])C(=O)[C@@]([H])(N([H])C(=O)[C@@]([H])(N([H])C(=O)[C@@]([H])(N([H])C(=O)[C@@]([H])(N([H])C(=O)[C@@]([H])(N([H])C(=O)[C@@]([H])(N([H])C(=O)C([H])([H])[H])C([H])([H])O[H])C([H])(C([H])([H])[H])C([H])([H])[H])C([H])([H])C([H])([H])C([H])([H])N=C(N([H])[H])N([H])[H])C([H])([H])O[H])C([H])([H])O[H])C([H])([H])O[H])C([H])([H])O[H]


 69 68  0  0  0  0  0  0  0  0999 V2000
   -7.1341   24.2633  -20.2235 C   0  0  0  0  0  0  0  0  0  0  0  0
   -7.8414   24.2854  -19.1873 O   0  0  0  0  0  0  0  0  0  0  0  0
   -6.0373   23.3483  -20.2560 N   0  0  0  0  0  0  0  0  0  0  0  0
   -5.4618   23.3970  -21.1540 H   0  0  0  0  0  0  0  0  0  0  0  0
   -7.5092   25.1694  -21.3075 C   0  0  0  0  0  0  0  0  0  0  0  0
   -6.5612   24.1270  -23.3898 C   0  0  0  0  0  0  0  0  0  0  0  0
   -5.5073   24.8572  -23.1464 O   0  0  0  0  0  0  0  0  0  0  0  0
   -7.5817   24.2394  -22.5023 N   0  0  0  0  0  0  0  0  0  0  0  0
   -8.4665   23.7296  -22.5081 H   0  0  0  0  0  0  0  0  0  0  0  0
   -6.4546   23.2961  -24.5950 C   0  0  0  0  0  0  0  0  0  0  0  0
   -5.6148   23.9901  -26.8655 C   0  0  0  0  0  0  0  0  0  0  0  0
   -6.6849   23.5513  -27.3478 O   0  0  0  0  0  0  0  0  0  0  0  0
   -5.4230   23.8940  -25.4668 N   0  0  0  0  0  0  0  0  0  0  0  0
   -4.5513   24.2414  -25.0162 H   0  0  0  0  0  0  0  0  0  0  0  0
   -4.6088   24.5820  -27.7615 C   0  0  0  0  0  0  0  0  0  0  0  0
   -1.5475   22.2236  -27.6023 C   0  0  0  0  0  0  0  0  0  0  0  0
   -2.5883   23.1930  -27.2233 C   0  0  0  0  0  0  0  0  0  0  0  0
   -2.6006   23.6551  -26.0597 O   0  0  0  0  0  0  0  0  0  0  0  0
   -3.5832   23.6263  -28.1327 N   0  0  0  0  0  0  0  0  0  0  0  0
   -3.5411   23.2144  -29.1100 H   0  0  0  0  0  0  0  0  0  0  0  0
   -5.2415   25.1999  -28.9964 C   0  0  0  0  0  0  0  0  0  0  0  0
   -6.3827   25.9212  -28.7234 O   0  0  0  0  0  0  0  0  0  0  0  0
   -6.7940   25.6400  -27.8843 H   0  0  0  0  0  0  0  0  0  0  0  0
   -6.1972   21.8754  -24.3207 C   0  0  0  0  0  0  0  0  0  0  0  0
   -6.8572   21.4387  -22.9934 C   0  0  0  0  0  0  0  0  0  0  0  0
   -4.6868   21.6481  -24.1192 C   0  0  0  0  0  0  0  0  0  0  0  0
   -8.7884   25.8865  -21.2764 C   0  0  0  0  0  0  0  0  0  0  0  0
   -8.9920   27.0992  -20.4979 C   0  0  0  0  0  0  0  0  0  0  0  0
  -10.2968   27.8074  -20.5812 C   0  0  0  0  0  0  0  0  0  0  0  0
  -10.9044   27.6621  -21.9126 N   0  0  0  0  0  0  0  0  0  0  0  0
  -11.4718   28.6068  -22.5458 C   0  0  0  0  0  0  0  0  0  0  0  0
  -12.0219   28.3530  -23.8209 N   0  0  0  0  0  0  0  0  0  0  0  0
  -11.5396   29.8888  -21.9602 N   0  0  0  0  0  0  0  0  0  0  0  0
  -12.7769   28.9765  -24.2126 H   0  0  0  0  0  0  0  0  0  0  0  0
  -11.7285   27.5645  -24.4306 H   0  0  0  0  0  0  0  0  0  0  0  0
  -10.7094   30.5207  -21.9130 H   0  0  0  0  0  0  0  0  0  0  0  0
  -12.4364   30.2379  -21.5569 H   0  0  0  0  0  0  0  0  0  0  0  0
   -5.6499   22.4235  -19.2551 C   0  0  0  0  0  0  0  0  0  0  0  0
   -4.9330   23.0138  -18.1028 C   0  0  0  0  0  0  0  0  0  0  0  0
   -3.6958   23.0710  -18.1152 O   0  0  0  0  0  0  0  0  0  0  0  0
   -5.6450   23.5025  -17.0107 N   0  0  0  0  0  0  0  0  0  0  0  0
   -6.7067   23.4460  -17.0312 H   0  0  0  0  0  0  0  0  0  0  0  0
   -5.1153   24.0998  -15.8134 C   0  0  0  0  0  0  0  0  0  0  0  0
   -5.5298   23.4456  -14.5818 C   0  0  0  0  0  0  0  0  0  0  0  0
   -4.7986   23.3980  -13.5644 O   0  0  0  0  0  0  0  0  0  0  0  0
   -6.8002   22.8305  -14.4995 N   0  0  0  0  0  0  0  0  0  0  0  0
   -7.4329   22.8528  -15.3274 H   0  0  0  0  0  0  0  0  0  0  0  0
   -7.3010   22.1643  -13.3314 C   0  0  0  0  0  0  0  0  0  0  0  0
   -7.9734   23.2093  -12.4748 C   0  0  0  0  0  0  0  0  0  0  0  0
   -8.9942   22.8876  -11.7903 O   0  0  0  0  0  0  0  0  0  0  0  0
   -7.5095   24.5271  -12.4061 N   0  0  0  0  0  0  0  0  0  0  0  0
   -6.6814   24.8139  -12.9621 H   0  0  0  0  0  0  0  0  0  0  0  0
   -8.1615   25.4994  -11.5752 C   0  0  0  0  0  0  0  0  0  0  0  0
   -9.0711   26.3188  -12.4220 C   0  0  0  0  0  0  0  0  0  0  0  0
   -8.6583   26.5598  -13.7399 O   0  0  0  0  0  0  0  0  0  0  0  0
  -10.1388   26.7570  -11.9615 O   0  0  0  0  0  0  0  0  0  0  0  0
   -9.2215   27.1970  -14.2836 H   0  0  0  0  0  0  0  0  0  0  0  0
   -7.1837   26.4190  -10.8919 C   0  0  0  0  0  0  0  0  0  0  0  0
   -6.3458   26.9948  -11.8643 O   0  0  0  0  0  0  0  0  0  0  0  0
   -5.7588   26.3073  -12.2944 H   0  0  0  0  0  0  0  0  0  0  0  0
   -6.2919   21.4001  -12.5474 C   0  0  0  0  0  0  0  0  0  0  0  0
   -6.0731   21.9832  -11.2798 O   0  0  0  0  0  0  0  0  0  0  0  0
   -5.1367   22.2498  -11.1480 H   0  0  0  0  0  0  0  0  0  0  0  0
   -5.3578   25.5844  -15.7469 C   0  0  0  0  0  0  0  0  0  0  0  0
   -6.0187   25.8168  -14.5283 O   0  0  0  0  0  0  0  0  0  0  0  0
   -5.4576   26.3131  -13.8863 H   0  0  0  0  0  0  0  0  0  0  0  0
   -5.0228   21.2086  -19.8380 C   0  0  0  0  0  0  0  0  0  0  0  0
   -3.8889   21.4640  -20.5813 O   0  0  0  0  0  0  0  0  0  0  0  0
   -4.2129   21.8129  -21.4660 H   0  0  0  0  0  0  0  0  0  0  0  0
 16 17  1  0  0  0
 17 18  2  0  0  0
 17 19  1  0  0  0
 19 15  1  0  0  0
 15 21  1  0  0  0
 21 22  1  0  0  0
 15 11  1  0  0  0
 11 12  2  0  0  0
 11 13  1  0  0  0
 13 10  1  0  0  0
 10 24  1  0  0  0
 24 25  1  0  0  0
 24 26  1  0  0  0
 10  6  1  0  0  0
  6  7  2  0  0  0
  6  8  1  0  0  0
  8  5  1  0  0  0
  5 27  1  0  0  0
 27 28  1  0  0  0
 28 29  1  0  0  0
 29 30  1  0  0  0
 30 31  2  0  0  0
 31 32  1  0  0  0
 31 33  1  0  0  0
  5  1  1  0  0  0
  1  2  2  0  0  0
  1  3  1  0  0  0
  3 38  1  0  0  0
 38 67  1  0  0  0
 67 68  1  0  0  0
 38 39  1  0  0  0
 39 40  2  0  0  0
 39 41  1  0  0  0
 41 43  1  0  0  0
 43 64  1  0  0  0
 64 65  1  0  0  0
 43 44  1  0  0  0
 44 45  2  0  0  0
 44 46  1  0  0  0
 46 48  1  0  0  0
 48 61  1  0  0  0
 61 62  1  0  0  0
 48 49  1  0  0  0
 49 50  2  0  0  0
 49 51  1  0  0  0
 51 53  1  0  0  0
 53 58  1  0  0  0
 58 59  1  0  0  0
 53 54  1  0  0  0
 54 55  1  0  0  0
 54 56  2  0  0  0
 19 20  1  0  0  0
 22 23  1  0  0  0
 13 14  1  0  0  0
  8  9  1  0  0  0
 32 34  1  0  0  0
 32 35  1  0  0  0
 33 36  1  0  0  0
 33 37  1  0  0  0
  3  4  1  0  0  0
 68 69  1  0  0  0
 41 42  1  0  0  0
 65 66  1  0  0  0
 46 47  1  0  0  0
 62 63  1  0  0  0
 51 52  1  0  0  0
 59 60  1  0  0  0
 55 57  1  0  0  0
M  END
> <minimizedAffinity>
-6.86851

> <CNNscore>
0.1553409100

> <CNNaffinity>
5.4991917610

> <CNN_VS>
0.8542494774

> <CNNaffinity_variance>
0.4435551763

$$$$
[H]OC(=O)[C@@]([H])(N([H])C(=O)[C@@]([H])(N([H])C(=O)[C@@]([H])(N([H])C(=O)[C@@]([H])(N([H])C(=O)[C@@]([H])(N([H])C(=O)[C@@]([H])(N([H])C(=O)[C@@]([H])(N([H])C(=O)C([H])([H])[H])C([H])([H])O[H])C([H])(C([H])([H])[H])C([H])([H])[H])C([H])([H])C([H])([H])C([H])([H])N=C(N([H])[H])N([H])[H])C([H])([H])O[H])C([H])([H])O[H])C([H])([H])O[H])C([H])([H])O[H]


 69 68  0  0  0  0  0  0  0  0999 V2000
   -6.9954   25.2326  -22.2749 C   0  0  0  0  0  0  0  0  0  0  0  0
   -6.2087   25.3946  -21.3109 O   0  0  0  0  0  0  0  0  0  0  0  0
   -8.3966   25.2830  -22.0004 N   0  0  0  0  0  0  0  0  0  0  0  0
   -9.0101   25.1131  -22.8576 H   0  0  0  0  0  0  0  0  0  0  0  0
   -6.4011   25.0202  -23.5934 C   0  0  0  0  0  0  0  0  0  0  0  0
   -4.1744   23.8616  -23.7399 C   0  0  0  0  0  0  0  0  0  0  0  0
   -3.7653   24.9542  -24.3247 O   0  0  0  0  0  0  0  0  0  0  0  0
   -5.4744   23.8455  -23.3501 N   0  0  0  0  0  0  0  0  0  0  0  0
   -5.9629   23.0986  -22.8540 H   0  0  0  0  0  0  0  0  0  0  0  0
   -3.1411   22.8288  -23.5991 C   0  0  0  0  0  0  0  0  0  0  0  0
   -2.1660   22.8861  -21.2779 C   0  0  0  0  0  0  0  0  0  0  0  0
   -1.3192   23.7075  -21.7004 O   0  0  0  0  0  0  0  0  0  0  0  0
   -3.1289   22.3905  -22.1886 N   0  0  0  0  0  0  0  0  0  0  0  0
   -3.8528   21.7049  -21.8891 H   0  0  0  0  0  0  0  0  0  0  0  0
   -2.1277   22.4720  -19.8664 C   0  0  0  0  0  0  0  0  0  0  0  0
   -3.2632   19.1287  -18.2876 C   0  0  0  0  0  0  0  0  0  0  0  0
   -2.8998   20.5453  -18.4544 C   0  0  0  0  0  0  0  0  0  0  0  0
   -2.9542   21.3123  -17.4663 O   0  0  0  0  0  0  0  0  0  0  0  0
   -2.4872   21.0769  -19.7001 N   0  0  0  0  0  0  0  0  0  0  0  0
   -2.4520   20.3976  -20.5149 H   0  0  0  0  0  0  0  0  0  0  0  0
   -0.7812   22.7612  -19.2260 C   0  0  0  0  0  0  0  0  0  0  0  0
   -0.5143   24.1064  -19.0977 O   0  0  0  0  0  0  0  0  0  0  0  0
   -1.0326   24.6380  -19.7310 H   0  0  0  0  0  0  0  0  0  0  0  0
   -3.2907   21.7026  -24.5313 C   0  0  0  0  0  0  0  0  0  0  0  0
   -3.2914   22.1926  -25.9969 C   0  0  0  0  0  0  0  0  0  0  0  0
   -4.6624   21.0326  -24.3246 C   0  0  0  0  0  0  0  0  0  0  0  0
   -7.2353   24.6450  -24.7401 C   0  0  0  0  0  0  0  0  0  0  0  0
   -6.9666   25.1078  -26.0935 C   0  0  0  0  0  0  0  0  0  0  0  0
   -6.2547   24.2107  -27.0419 C   0  0  0  0  0  0  0  0  0  0  0  0
   -6.3197   24.7224  -28.4192 N   0  0  0  0  0  0  0  0  0  0  0  0
   -5.7838   24.1506  -29.4197 C   0  0  0  0  0  0  0  0  0  0  0  0
   -5.9105   24.7327  -30.6995 N   0  0  0  0  0  0  0  0  0  0  0  0
   -5.0738   22.9461  -29.2293 N   0  0  0  0  0  0  0  0  0  0  0  0
   -5.2207   24.5028  -31.4634 H   0  0  0  0  0  0  0  0  0  0  0  0
   -6.6632   25.4000  -30.9592 H   0  0  0  0  0  0  0  0  0  0  0  0
   -5.5600   22.0364  -29.0657 H   0  0  0  0  0  0  0  0  0  0  0  0
   -4.0306   22.9398  -29.2498 H   0  0  0  0  0  0  0  0  0  0  0  0
   -9.0279   25.5220  -20.7548 C   0  0  0  0  0  0  0  0  0  0  0  0
   -9.1732   24.3303  -19.8893 C   0  0  0  0  0  0  0  0  0  0  0  0
  -10.2137   24.1704  -19.2368 O   0  0  0  0  0  0  0  0  0  0  0  0
   -8.1460   23.3939  -19.8087 N   0  0  0  0  0  0  0  0  0  0  0  0
   -7.2671   23.5544  -20.3855 H   0  0  0  0  0  0  0  0  0  0  0  0
   -8.1155   22.1898  -19.0212 C   0  0  0  0  0  0  0  0  0  0  0  0
   -7.0413   22.1401  -18.0414 C   0  0  0  0  0  0  0  0  0  0  0  0
   -6.4596   21.0733  -17.7319 O   0  0  0  0  0  0  0  0  0  0  0  0
   -6.6157   23.3241  -17.3964 N   0  0  0  0  0  0  0  0  0  0  0  0
   -7.0780   24.2281  -17.6315 H   0  0  0  0  0  0  0  0  0  0  0  0
   -5.5650   23.3794  -16.4204 C   0  0  0  0  0  0  0  0  0  0  0  0
   -6.1629   23.9363  -15.1514 C   0  0  0  0  0  0  0  0  0  0  0  0
   -7.4204   24.1019  -15.0786 O   0  0  0  0  0  0  0  0  0  0  0  0
   -5.3776   24.2776  -14.0454 N   0  0  0  0  0  0  0  0  0  0  0  0
   -4.3475   24.1572  -14.0852 H   0  0  0  0  0  0  0  0  0  0  0  0
   -5.9727   24.7959  -12.8463 C   0  0  0  0  0  0  0  0  0  0  0  0
   -6.0275   26.2804  -12.9430 C   0  0  0  0  0  0  0  0  0  0  0  0
   -5.8890   26.8340  -14.2234 O   0  0  0  0  0  0  0  0  0  0  0  0
   -6.1890   26.9742  -11.9247 O   0  0  0  0  0  0  0  0  0  0  0  0
   -5.8244   27.8398  -14.2796 H   0  0  0  0  0  0  0  0  0  0  0  0
   -5.1942   24.4239  -11.6116 C   0  0  0  0  0  0  0  0  0  0  0  0
   -3.8225   24.4182  -11.9240 O   0  0  0  0  0  0  0  0  0  0  0  0
   -3.5979   23.6879  -12.5709 H   0  0  0  0  0  0  0  0  0  0  0  0
   -4.3560   24.1493  -16.8234 C   0  0  0  0  0  0  0  0  0  0  0  0
   -4.5149   25.5297  -16.5711 O   0  0  0  0  0  0  0  0  0  0  0  0
   -4.4328   26.0704  -17.3872 H   0  0  0  0  0  0  0  0  0  0  0  0
   -8.1390   20.9421  -19.8639 C   0  0  0  0  0  0  0  0  0  0  0  0
   -8.6091   19.9156  -19.0266 O   0  0  0  0  0  0  0  0  0  0  0  0
   -9.5039   19.5958  -19.2920 H   0  0  0  0  0  0  0  0  0  0  0  0
  -10.2530   26.3498  -20.9059 C   0  0  0  0  0  0  0  0  0  0  0  0
  -10.0878   27.4541  -21.7163 O   0  0  0  0  0  0  0  0  0  0  0  0
   -9.6052   28.1355  -21.1576 H   0  0  0  0  0  0  0  0  0  0  0  0
 16 17  1  0  0  0
 17 18  2  0  0  0
 17 19  1  0  0  0
 19 15  1  0  0  0
 15 21  1  0  0  0
 21 22  1  0  0  0
 15 11  1  0  0  0
 11 12  2  0  0  0
 11 13  1  0  0  0
 13 10  1  0  0  0
 10 24  1  0  0  0
 24 25  1  0  0  0
 24 26  1  0  0  0
 10  6  1  0  0  0
  6  7  2  0  0  0
  6  8  1  0  0  0
  8  5  1  0  0  0
  5 27  1  0  0  0
 27 28  1  0  0  0
 28 29  1  0  0  0
 29 30  1  0  0  0
 30 31  2  0  0  0
 31 32  1  0  0  0
 31 33  1  0  0  0
  5  1  1  0  0  0
  1  2  2  0  0  0
  1  3  1  0  0  0
  3 38  1  0  0  0
 38 67  1  0  0  0
 67 68  1  0  0  0
 38 39  1  0  0  0
 39 40  2  0  0  0
 39 41  1  0  0  0
 41 43  1  0  0  0
 43 64  1  0  0  0
 64 65  1  0  0  0
 43 44  1  0  0  0
 44 45  2  0  0  0
 44 46  1  0  0  0
 46 48  1  0  0  0
 48 61  1  0  0  0
 61 62  1  0  0  0
 48 49  1  0  0  0
 49 50  2  0  0  0
 49 51  1  0  0  0
 51 53  1  0  0  0
 53 58  1  0  0  0
 58 59  1  0  0  0
 53 54  1  0  0  0
 54 55  1  0  0  0
 54 56  2  0  0  0
 19 20  1  0  0  0
 22 23  1  0  0  0
 13 14  1  0  0  0
  8  9  1  0  0  0
 32 34  1  0  0  0
 32 35  1  0  0  0
 33 36  1  0  0  0
 33 37  1  0  0  0
  3  4  1  0  0  0
 68 69  1  0  0  0
 41 42  1  0  0  0
 65 66  1  0  0  0
 46 47  1  0  0  0
 62 63  1  0  0  0
 51 52  1  0  0  0
 59 60  1  0  0  0
 55 57  1  0  0  0
M  END
> <minimizedAffinity>
-7.43660

> <CNNscore>
0.1549455076

> <CNNaffinity>
5.6116762161

> <CNN_VS>
0.8695040345

> <CNNaffinity_variance>
1.3185632229

$$$$
[H]OC(=O)[C@@]([H])(N([H])C(=O)[C@@]([H])(N([H])C(=O)[C@@]([H])(N([H])C(=O)[C@@]([H])(N([H])C(=O)[C@@]([H])(N([H])C(=O)[C@@]([H])(N([H])C(=O)[C@@]([H])(N([H])C(=O)C([H])([H])[H])C([H])([H])O[H])C([H])(C([H])([H])[H])C([H])([H])[H])C([H])([H])C([H])([H])C([H])([H])N=C(N([H])[H])N([H])[H])C([H])([H])O[H])C([H])([H])O[H])C([H])([H])O[H])C([H])([H])O[H]


 69 68  0  0  0  0  0  0  0  0999 V2000
   -7.7463   24.4894  -20.2308 C   0  0  0  0  0  0  0  0  0  0  0  0
   -7.5522   25.1760  -19.1986 O   0  0  0  0  0  0  0  0  0  0  0  0
   -8.0754   23.1102  -20.0552 N   0  0  0  0  0  0  0  0  0  0  0  0
   -8.2032   22.5775  -20.9717 H   0  0  0  0  0  0  0  0  0  0  0  0
   -7.6299   25.1717  -21.5183 C   0  0  0  0  0  0  0  0  0  0  0  0
   -5.4875   24.1696  -22.3716 C   0  0  0  0  0  0  0  0  0  0  0  0
   -4.8979   25.0648  -21.6271 O   0  0  0  0  0  0  0  0  0  0  0  0
   -6.8445   24.1751  -22.3477 N   0  0  0  0  0  0  0  0  0  0  0  0
   -7.4750   23.5369  -22.8353 H   0  0  0  0  0  0  0  0  0  0  0  0
   -4.5668   23.2977  -23.1106 C   0  0  0  0  0  0  0  0  0  0  0  0
   -4.8483   23.8750  -25.5457 C   0  0  0  0  0  0  0  0  0  0  0  0
   -5.8465   23.1178  -25.5654 O   0  0  0  0  0  0  0  0  0  0  0  0
   -4.1414   24.0176  -24.3282 N   0  0  0  0  0  0  0  0  0  0  0  0
   -3.3043   24.6325  -24.2587 H   0  0  0  0  0  0  0  0  0  0  0  0
   -4.4526   24.5794  -26.7755 C   0  0  0  0  0  0  0  0  0  0  0  0
   -5.1664   22.6285  -30.0379 C   0  0  0  0  0  0  0  0  0  0  0  0
   -4.4834   23.1666  -28.8503 C   0  0  0  0  0  0  0  0  0  0  0  0
   -3.2957   22.8398  -28.6258 O   0  0  0  0  0  0  0  0  0  0  0  0
   -5.1241   24.0473  -27.9456 N   0  0  0  0  0  0  0  0  0  0  0  0
   -6.1298   24.3032  -28.1682 H   0  0  0  0  0  0  0  0  0  0  0  0
   -4.6689   26.0788  -26.6658 C   0  0  0  0  0  0  0  0  0  0  0  0
   -4.1941   26.6152  -25.4893 O   0  0  0  0  0  0  0  0  0  0  0  0
   -4.1262   25.9402  -24.7877 H   0  0  0  0  0  0  0  0  0  0  0  0
   -3.4250   22.8237  -22.3160 C   0  0  0  0  0  0  0  0  0  0  0  0
   -2.4005   22.0831  -23.2047 C   0  0  0  0  0  0  0  0  0  0  0  0
   -3.9021   21.7806  -21.2875 C   0  0  0  0  0  0  0  0  0  0  0  0
   -8.8243   25.4981  -22.3045 C   0  0  0  0  0  0  0  0  0  0  0  0
  -10.1748   25.2331  -21.8309 C   0  0  0  0  0  0  0  0  0  0  0  0
  -11.3035   26.0454  -22.3573 C   0  0  0  0  0  0  0  0  0  0  0  0
  -11.2294   27.4376  -21.8891 N   0  0  0  0  0  0  0  0  0  0  0  0
  -11.5748   28.4443  -22.5839 C   0  0  0  0  0  0  0  0  0  0  0  0
  -11.4610   29.7385  -22.0316 N   0  0  0  0  0  0  0  0  0  0  0  0
  -12.0645   28.2461  -23.8923 N   0  0  0  0  0  0  0  0  0  0  0  0
  -11.3987   30.5848  -22.6578 H   0  0  0  0  0  0  0  0  0  0  0  0
  -11.4318   29.9310  -21.0111 H   0  0  0  0  0  0  0  0  0  0  0  0
  -13.0275   27.8852  -24.0745 H   0  0  0  0  0  0  0  0  0  0  0  0
  -11.4646   28.4612  -24.7184 H   0  0  0  0  0  0  0  0  0  0  0  0
   -8.2384   22.4062  -18.8367 C   0  0  0  0  0  0  0  0  0  0  0  0
   -7.0141   22.2910  -18.0131 C   0  0  0  0  0  0  0  0  0  0  0  0
   -6.2032   21.3839  -18.2446 O   0  0  0  0  0  0  0  0  0  0  0  0
   -6.7748   23.1974  -16.9836 N   0  0  0  0  0  0  0  0  0  0  0  0
   -7.4855   23.9697  -16.8127 H   0  0  0  0  0  0  0  0  0  0  0  0
   -5.6488   23.2316  -16.0881 C   0  0  0  0  0  0  0  0  0  0  0  0
   -6.0028   23.3639  -14.6832 C   0  0  0  0  0  0  0  0  0  0  0  0
   -5.8241   22.4415  -13.8529 O   0  0  0  0  0  0  0  0  0  0  0  0
   -6.5726   24.5670  -14.2067 N   0  0  0  0  0  0  0  0  0  0  0  0
   -6.7336   25.3538  -14.8709 H   0  0  0  0  0  0  0  0  0  0  0  0
   -6.9519   24.7961  -12.8418 C   0  0  0  0  0  0  0  0  0  0  0  0
   -8.4542   24.9383  -12.8134 C   0  0  0  0  0  0  0  0  0  0  0  0
   -9.1767   23.8933  -12.8267 O   0  0  0  0  0  0  0  0  0  0  0  0
   -9.0835   26.1867  -12.7716 N   0  0  0  0  0  0  0  0  0  0  0  0
   -8.5132   27.0538  -12.7672 H   0  0  0  0  0  0  0  0  0  0  0  0
  -10.5146   26.2938  -12.7349 C   0  0  0  0  0  0  0  0  0  0  0  0
  -10.9452   27.2939  -13.7501 C   0  0  0  0  0  0  0  0  0  0  0  0
  -12.0723   26.9678  -14.5172 O   0  0  0  0  0  0  0  0  0  0  0  0
  -10.3205   28.3586  -13.8925 O   0  0  0  0  0  0  0  0  0  0  0  0
  -12.3057   27.5954  -15.2725 H   0  0  0  0  0  0  0  0  0  0  0  0
  -11.0234   26.7297  -11.3859 C   0  0  0  0  0  0  0  0  0  0  0  0
  -12.2365   27.4207  -11.5595 O   0  0  0  0  0  0  0  0  0  0  0  0
  -12.0989   28.2839  -12.0476 H   0  0  0  0  0  0  0  0  0  0  0  0
   -6.2934   25.9559  -12.1798 C   0  0  0  0  0  0  0  0  0  0  0  0
   -5.6991   26.8209  -13.1248 O   0  0  0  0  0  0  0  0  0  0  0  0
   -4.7318   26.9196  -12.9842 H   0  0  0  0  0  0  0  0  0  0  0  0
   -4.6188   24.2550  -16.4865 C   0  0  0  0  0  0  0  0  0  0  0  0
   -5.3321   25.3249  -17.0542 O   0  0  0  0  0  0  0  0  0  0  0  0
   -5.2978   26.1369  -16.4948 H   0  0  0  0  0  0  0  0  0  0  0  0
   -8.9973   21.1423  -19.0257 C   0  0  0  0  0  0  0  0  0  0  0  0
   -8.2335   20.0942  -19.4964 O   0  0  0  0  0  0  0  0  0  0  0  0
   -8.1166   20.2593  -20.4805 H   0  0  0  0  0  0  0  0  0  0  0  0
 16 17  1  0  0  0
 17 18  2  0  0  0
 17 19  1  0  0  0
 19 15  1  0  0  0
 15 21  1  0  0  0
 21 22  1  0  0  0
 15 11  1  0  0  0
 11 12  2  0  0  0
 11 13  1  0  0  0
 13 10  1  0  0  0
 10 24  1  0  0  0
 24 25  1  0  0  0
 24 26  1  0  0  0
 10  6  1  0  0  0
  6  7  2  0  0  0
  6  8  1  0  0  0
  8  5  1  0  0  0
  5 27  1  0  0  0
 27 28  1  0  0  0
 28 29  1  0  0  0
 29 30  1  0  0  0
 30 31  2  0  0  0
 31 32  1  0  0  0
 31 33  1  0  0  0
  5  1  1  0  0  0
  1  2  2  0  0  0
  1  3  1  0  0  0
  3 38  1  0  0  0
 38 67  1  0  0  0
 67 68  1  0  0  0
 38 39  1  0  0  0
 39 40  2  0  0  0
 39 41  1  0  0  0
 41 43  1  0  0  0
 43 64  1  0  0  0
 64 65  1  0  0  0
 43 44  1  0  0  0
 44 45  2  0  0  0
 44 46  1  0  0  0
 46 48  1  0  0  0
 48 61  1  0  0  0
 61 62  1  0  0  0
 48 49  1  0  0  0
 49 50  2  0  0  0
 49 51  1  0  0  0
 51 53  1  0  0  0
 53 58  1  0  0  0
 58 59  1  0  0  0
 53 54  1  0  0  0
 54 55  1  0  0  0
 54 56  2  0  0  0
 19 20  1  0  0  0
 22 23  1  0  0  0
 13 14  1  0  0  0
  8  9  1  0  0  0
 32 34  1  0  0  0
 32 35  1  0  0  0
 33 36  1  0  0  0
 33 37  1  0  0  0
  3  4  1  0  0  0
 68 69  1  0  0  0
 41 42  1  0  0  0
 65 66  1  0  0  0
 46 47  1  0  0  0
 62 63  1  0  0  0
 51 52  1  0  0  0
 59 60  1  0  0  0
 55 57  1  0  0  0
M  END
> <minimizedAffinity>
-7.55733

> <CNNscore>
0.1399756968

> <CNNaffinity>
5.3180742264

> <CNN_VS>
0.7444011569

> <CNNaffinity_variance>
1.1388902664

$$$$
[H]OC(=O)[C@@]([H])(N([H])C(=O)[C@@]([H])(N([H])C(=O)[C@@]([H])(N([H])C(=O)[C@@]([H])(N([H])C(=O)[C@@]([H])(N([H])C(=O)[C@@]([H])(N([H])C(=O)[C@@]([H])(N([H])C(=O)C([H])([H])[H])C([H])([H])O[H])C([H])(C([H])([H])[H])C([H])([H])[H])C([H])([H])C([H])([H])C([H])([H])N=C(N([H])[H])N([H])[H])C([H])([H])O[H])C([H])([H])O[H])C([H])([H])O[H])C([H])([H])O[H]


 69 68  0  0  0  0  0  0  0  0999 V2000
   -3.1251   22.6131  -21.7063 C   0  0  0  0  0  0  0  0  0  0  0  0
   -3.2332   23.6908  -21.0728 O   0  0  0  0  0  0  0  0  0  0  0  0
   -3.2170   21.3968  -20.9623 N   0  0  0  0  0  0  0  0  0  0  0  0
   -3.0921   20.5180  -21.5558 H   0  0  0  0  0  0  0  0  0  0  0  0
   -2.9280   22.7050  -23.1517 C   0  0  0  0  0  0  0  0  0  0  0  0
   -4.6495   24.0347  -24.4128 C   0  0  0  0  0  0  0  0  0  0  0  0
   -4.9685   22.8958  -24.9646 O   0  0  0  0  0  0  0  0  0  0  0  0
   -3.6464   23.9937  -23.4995 N   0  0  0  0  0  0  0  0  0  0  0  0
   -3.2815   24.7698  -22.9452 H   0  0  0  0  0  0  0  0  0  0  0  0
   -5.4462   25.1757  -24.8792 C   0  0  0  0  0  0  0  0  0  0  0  0
   -7.1053   25.2418  -22.9857 C   0  0  0  0  0  0  0  0  0  0  0  0
   -7.5494   24.1433  -23.3937 O   0  0  0  0  0  0  0  0  0  0  0  0
   -6.0320   25.8331  -23.6933 N   0  0  0  0  0  0  0  0  0  0  0  0
   -5.6278   26.7456  -23.3973 H   0  0  0  0  0  0  0  0  0  0  0  0
   -7.7098   25.8688  -21.7997 C   0  0  0  0  0  0  0  0  0  0  0  0
  -11.5651   25.7009  -21.5398 C   0  0  0  0  0  0  0  0  0  0  0  0
  -10.1993   26.1911  -21.7865 C   0  0  0  0  0  0  0  0  0  0  0  0
  -10.0344   27.3570  -22.2122 O   0  0  0  0  0  0  0  0  0  0  0  0
   -9.0563   25.3874  -21.5582 N   0  0  0  0  0  0  0  0  0  0  0  0
   -9.2342   24.4055  -21.1966 H   0  0  0  0  0  0  0  0  0  0  0  0
   -6.8457   25.6950  -20.5628 C   0  0  0  0  0  0  0  0  0  0  0  0
   -5.4949   25.7343  -20.8293 O   0  0  0  0  0  0  0  0  0  0  0  0
   -5.3054   25.5129  -21.7606 H   0  0  0  0  0  0  0  0  0  0  0  0
   -4.7023   26.1171  -25.7277 C   0  0  0  0  0  0  0  0  0  0  0  0
   -5.1853   27.5675  -25.5020 C   0  0  0  0  0  0  0  0  0  0  0  0
   -4.9868   25.8189  -27.2121 C   0  0  0  0  0  0  0  0  0  0  0  0
   -1.5807   22.8289  -23.7183 C   0  0  0  0  0  0  0  0  0  0  0  0
   -1.1155   22.0104  -24.8283 C   0  0  0  0  0  0  0  0  0  0  0  0
   -1.7971   22.1151  -26.1457 C   0  0  0  0  0  0  0  0  0  0  0  0
   -0.8754   22.5791  -27.1935 N   0  0  0  0  0  0  0  0  0  0  0  0
   -1.2463   23.0364  -28.3199 C   0  0  0  0  0  0  0  0  0  0  0  0
   -0.2721   23.4543  -29.2521 N   0  0  0  0  0  0  0  0  0  0  0  0
   -2.6241   23.1163  -28.6139 N   0  0  0  0  0  0  0  0  0  0  0  0
   -0.5006   23.5032  -30.2805 H   0  0  0  0  0  0  0  0  0  0  0  0
    0.6958   23.7290  -28.9930 H   0  0  0  0  0  0  0  0  0  0  0  0
   -3.2373   23.8525  -28.1982 H   0  0  0  0  0  0  0  0  0  0  0  0
   -3.0653   22.4306  -29.2648 H   0  0  0  0  0  0  0  0  0  0  0  0
   -3.4439   21.2460  -19.5720 C   0  0  0  0  0  0  0  0  0  0  0  0
   -2.3208   20.6467  -18.8171 C   0  0  0  0  0  0  0  0  0  0  0  0
   -2.4538   20.4060  -17.6095 O   0  0  0  0  0  0  0  0  0  0  0  0
   -1.1212   20.3547  -19.4606 N   0  0  0  0  0  0  0  0  0  0  0  0
   -1.0386   20.5662  -20.4995 H   0  0  0  0  0  0  0  0  0  0  0  0
    0.0662   19.7797  -18.8858 C   0  0  0  0  0  0  0  0  0  0  0  0
    1.3042   20.4262  -19.2930 C   0  0  0  0  0  0  0  0  0  0  0  0
    1.4572   21.6703  -19.2623 O   0  0  0  0  0  0  0  0  0  0  0  0
    2.3940   19.6476  -19.7461 N   0  0  0  0  0  0  0  0  0  0  0  0
    2.2999   18.6103  -19.7831 H   0  0  0  0  0  0  0  0  0  0  0  0
    3.6548   20.1894  -20.1655 C   0  0  0  0  0  0  0  0  0  0  0  0
    4.2117   20.9760  -19.0040 C   0  0  0  0  0  0  0  0  0  0  0  0
    4.5362   20.3640  -17.9390 O   0  0  0  0  0  0  0  0  0  0  0  0
    4.3855   22.3628  -19.0586 N   0  0  0  0  0  0  0  0  0  0  0  0
    4.1206   22.8841  -19.9160 H   0  0  0  0  0  0  0  0  0  0  0  0
    4.9270   23.0858  -17.9429 C   0  0  0  0  0  0  0  0  0  0  0  0
    3.8871   24.0177  -17.4271 C   0  0  0  0  0  0  0  0  0  0  0  0
    2.8747   24.3902  -18.3224 O   0  0  0  0  0  0  0  0  0  0  0  0
    3.9348   24.4320  -16.2564 O   0  0  0  0  0  0  0  0  0  0  0  0
    2.2277   25.0984  -18.0084 H   0  0  0  0  0  0  0  0  0  0  0  0
    6.1471   23.8867  -18.3152 C   0  0  0  0  0  0  0  0  0  0  0  0
    5.8453   25.2557  -18.1972 O   0  0  0  0  0  0  0  0  0  0  0  0
    5.1639   25.5395  -18.8736 H   0  0  0  0  0  0  0  0  0  0  0  0
    3.6168   21.0182  -21.4019 C   0  0  0  0  0  0  0  0  0  0  0  0
    4.0393   20.2817  -22.5305 O   0  0  0  0  0  0  0  0  0  0  0  0
    4.8216   20.6844  -22.9677 H   0  0  0  0  0  0  0  0  0  0  0  0
    0.1438   18.2886  -19.0799 C   0  0  0  0  0  0  0  0  0  0  0  0
   -0.2099   18.0513  -20.4194 O   0  0  0  0  0  0  0  0  0  0  0  0
    0.5522   17.7294  -20.9569 H   0  0  0  0  0  0  0  0  0  0  0  0
   -4.7813   20.6619  -19.2903 C   0  0  0  0  0  0  0  0  0  0  0  0
   -5.8229   21.3194  -19.9117 O   0  0  0  0  0  0  0  0  0  0  0  0
   -5.9875   22.1487  -19.3689 H   0  0  0  0  0  0  0  0  0  0  0  0
 16 17  1  0  0  0
 17 18  2  0  0  0
 17 19  1  0  0  0
 19 15  1  0  0  0
 15 21  1  0  0  0
 21 22  1  0  0  0
 15 11  1  0  0  0
 11 12  2  0  0  0
 11 13  1  0  0  0
 13 10  1  0  0  0
 10 24  1  0  0  0
 24 25  1  0  0  0
 24 26  1  0  0  0
 10  6  1  0  0  0
  6  7  2  0  0  0
  6  8  1  0  0  0
  8  5  1  0  0  0
  5 27  1  0  0  0
 27 28  1  0  0  0
 28 29  1  0  0  0
 29 30  1  0  0  0
 30 31  2  0  0  0
 31 32  1  0  0  0
 31 33  1  0  0  0
  5  1  1  0  0  0
  1  2  2  0  0  0
  1  3  1  0  0  0
  3 38  1  0  0  0
 38 67  1  0  0  0
 67 68  1  0  0  0
 38 39  1  0  0  0
 39 40  2  0  0  0
 39 41  1  0  0  0
 41 43  1  0  0  0
 43 64  1  0  0  0
 64 65  1  0  0  0
 43 44  1  0  0  0
 44 45  2  0  0  0
 44 46  1  0  0  0
 46 48  1  0  0  0
 48 61  1  0  0  0
 61 62  1  0  0  0
 48 49  1  0  0  0
 49 50  2  0  0  0
 49 51  1  0  0  0
 51 53  1  0  0  0
 53 58  1  0  0  0
 58 59  1  0  0  0
 53 54  1  0  0  0
 54 55  1  0  0  0
 54 56  2  0  0  0
 19 20  1  0  0  0
 22 23  1  0  0  0
 13 14  1  0  0  0
  8  9  1  0  0  0
 32 34  1  0  0  0
 32 35  1  0  0  0
 33 36  1  0  0  0
 33 37  1  0  0  0
  3  4  1  0  0  0
 68 69  1  0  0  0
 41 42  1  0  0  0
 65 66  1  0  0  0
 46 47  1  0  0  0
 62 63  1  0  0  0
 51 52  1  0  0  0
 59 60  1  0  0  0
 55 57  1  0  0  0
M  END
> <minimizedAffinity>
-7.26003

> <CNNscore>
0.1349706650

> <CNNaffinity>
5.9489893913

> <CNN_VS>
0.8029390574

> <CNNaffinity_variance>
1.0525084734

$$$$
[H]OC(=O)[C@@]([H])(N([H])C(=O)[C@@]([H])(N([H])C(=O)[C@@]([H])(N([H])C(=O)[C@@]([H])(N([H])C(=O)[C@@]([H])(N([H])C(=O)[C@@]([H])(N([H])C(=O)[C@@]([H])(N([H])C(=O)C([H])([H])[H])C([H])([H])O[H])C([H])(C([H])([H])[H])C([H])([H])[H])C([H])([H])C([H])([H])C([H])([H])N=C(N([H])[H])N([H])[H])C([H])([H])O[H])C([H])([H])O[H])C([H])([H])O[H])C([H])([H])O[H]


 69 68  0  0  0  0  0  0  0  0999 V2000
   -5.4428   23.4676  -20.2046 C   0  0  0  0  0  0  0  0  0  0  0  0
   -5.6751   24.0975  -19.1446 O   0  0  0  0  0  0  0  0  0  0  0  0
   -6.1524   22.2458  -20.4167 N   0  0  0  0  0  0  0  0  0  0  0  0
   -5.8909   21.7474  -21.3240 H   0  0  0  0  0  0  0  0  0  0  0  0
   -4.4748   24.0526  -21.1306 C   0  0  0  0  0  0  0  0  0  0  0  0
   -2.3453   22.8029  -21.6056 C   0  0  0  0  0  0  0  0  0  0  0  0
   -1.7448   23.8708  -21.1559 O   0  0  0  0  0  0  0  0  0  0  0  0
   -3.7020   22.8388  -21.6075 N   0  0  0  0  0  0  0  0  0  0  0  0
   -4.3408   22.0941  -21.8904 H   0  0  0  0  0  0  0  0  0  0  0  0
   -1.4356   21.7329  -22.0316 C   0  0  0  0  0  0  0  0  0  0  0  0
   -1.7613   21.9123  -24.5223 C   0  0  0  0  0  0  0  0  0  0  0  0
   -2.9235   21.4732  -24.3585 O   0  0  0  0  0  0  0  0  0  0  0  0
   -0.9398   22.0712  -23.3812 N   0  0  0  0  0  0  0  0  0  0  0  0
    0.0340   22.4301  -23.4627 H   0  0  0  0  0  0  0  0  0  0  0  0
   -1.2993   22.2422  -25.8799 C   0  0  0  0  0  0  0  0  0  0  0  0
   -3.4093   24.0961  -28.5387 C   0  0  0  0  0  0  0  0  0  0  0  0
   -2.5360   23.1074  -27.8857 C   0  0  0  0  0  0  0  0  0  0  0  0
   -2.1063   22.1365  -28.5493 O   0  0  0  0  0  0  0  0  0  0  0  0
   -2.1605   23.2146  -26.5248 N   0  0  0  0  0  0  0  0  0  0  0  0
   -2.5425   24.0505  -25.9941 H   0  0  0  0  0  0  0  0  0  0  0  0
    0.1451   22.7115  -25.8899 C   0  0  0  0  0  0  0  0  0  0  0  0
    0.7814   22.4973  -27.0926 O   0  0  0  0  0  0  0  0  0  0  0  0
    0.3509   21.7879  -27.6061 H   0  0  0  0  0  0  0  0  0  0  0  0
   -0.3418   21.4668  -21.0867 C   0  0  0  0  0  0  0  0  0  0  0  0
    0.8507   20.7869  -21.7964 C   0  0  0  0  0  0  0  0  0  0  0  0
   -0.8086   20.4599  -20.0182 C   0  0  0  0  0  0  0  0  0  0  0  0
   -4.9219   24.7477  -22.3424 C   0  0  0  0  0  0  0  0  0  0  0  0
   -6.3186   25.0697  -22.5948 C   0  0  0  0  0  0  0  0  0  0  0  0
   -7.1839   24.0718  -23.2778 C   0  0  0  0  0  0  0  0  0  0  0  0
   -6.6139   23.6590  -24.5691 N   0  0  0  0  0  0  0  0  0  0  0  0
   -7.0502   24.0450  -25.6987 C   0  0  0  0  0  0  0  0  0  0  0  0
   -6.4241   23.5839  -26.8770 N   0  0  0  0  0  0  0  0  0  0  0  0
   -8.1510   24.9262  -25.7503 N   0  0  0  0  0  0  0  0  0  0  0  0
   -6.9417   23.5884  -27.7958 H   0  0  0  0  0  0  0  0  0  0  0  0
   -5.4501   23.2239  -26.9113 H   0  0  0  0  0  0  0  0  0  0  0  0
   -8.0589   25.9415  -25.5238 H   0  0  0  0  0  0  0  0  0  0  0  0
   -9.0954   24.5753  -26.0218 H   0  0  0  0  0  0  0  0  0  0  0  0
   -7.1256   21.6514  -19.5761 C   0  0  0  0  0  0  0  0  0  0  0  0
   -6.7043   20.3894  -18.9279 C   0  0  0  0  0  0  0  0  0  0  0  0
   -7.3060   19.3379  -19.1855 O   0  0  0  0  0  0  0  0  0  0  0  0
   -5.6374   20.3836  -18.0334 N   0  0  0  0  0  0  0  0  0  0  0  0
   -5.1356   21.3004  -17.8369 H   0  0  0  0  0  0  0  0  0  0  0  0
   -5.1005   19.2586  -17.3145 C   0  0  0  0  0  0  0  0  0  0  0  0
   -4.6611   19.5646  -15.9617 C   0  0  0  0  0  0  0  0  0  0  0  0
   -4.5585   18.6877  -15.0714 O   0  0  0  0  0  0  0  0  0  0  0  0
   -4.3310   20.8930  -15.6078 N   0  0  0  0  0  0  0  0  0  0  0  0
   -4.4048   21.6458  -16.3248 H   0  0  0  0  0  0  0  0  0  0  0  0
   -3.8857   21.2948  -14.3041 C   0  0  0  0  0  0  0  0  0  0  0  0
   -4.9460   22.2025  -13.7299 C   0  0  0  0  0  0  0  0  0  0  0  0
   -5.9158   21.6939  -13.0857 O   0  0  0  0  0  0  0  0  0  0  0  0
   -4.8984   23.5922  -13.8813 N   0  0  0  0  0  0  0  0  0  0  0  0
   -4.1192   24.0288  -14.4097 H   0  0  0  0  0  0  0  0  0  0  0  0
   -5.9148   24.4340  -13.3162 C   0  0  0  0  0  0  0  0  0  0  0  0
   -6.3288   25.4348  -14.3374 C   0  0  0  0  0  0  0  0  0  0  0  0
   -5.5344   25.5258  -15.4889 O   0  0  0  0  0  0  0  0  0  0  0  0
   -7.3331   26.1439  -14.1561 O   0  0  0  0  0  0  0  0  0  0  0  0
   -5.7526   26.2704  -16.1344 H   0  0  0  0  0  0  0  0  0  0  0  0
   -5.4367   25.1681  -12.0909 C   0  0  0  0  0  0  0  0  0  0  0  0
   -5.0355   26.4635  -12.4652 O   0  0  0  0  0  0  0  0  0  0  0  0
   -4.2263   26.4398  -13.0542 H   0  0  0  0  0  0  0  0  0  0  0  0
   -2.5457   21.9421  -14.2559 C   0  0  0  0  0  0  0  0  0  0  0  0
   -1.6531   21.3509  -15.1769 O   0  0  0  0  0  0  0  0  0  0  0  0
   -0.8578   20.9763  -14.7383 H   0  0  0  0  0  0  0  0  0  0  0  0
   -4.0264   18.5353  -18.0828 C   0  0  0  0  0  0  0  0  0  0  0  0
   -2.8085   18.8894  -17.4768 O   0  0  0  0  0  0  0  0  0  0  0  0
   -2.3873   18.1292  -17.0099 H   0  0  0  0  0  0  0  0  0  0  0  0
   -8.4653   21.6183  -20.2188 C   0  0  0  0  0  0  0  0  0  0  0  0
   -8.4579   21.1229  -21.5064 O   0  0  0  0  0  0  0  0  0  0  0  0
   -8.1151   21.8685  -22.0860 H   0  0  0  0  0  0  0  0  0  0  0  0
 16 17  1  0  0  0
 17 18  2  0  0  0
 17 19  1  0  0  0
 19 15  1  0  0  0
 15 21  1  0  0  0
 21 22  1  0  0  0
 15 11  1  0  0  0
 11 12  2  0  0  0
 11 13  1  0  0  0
 13 10  1  0  0  0
 10 24  1  0  0  0
 24 25  1  0  0  0
 24 26  1  0  0  0
 10  6  1  0  0  0
  6  7  2  0  0  0
  6  8  1  0  0  0
  8  5  1  0  0  0
  5 27  1  0  0  0
 27 28  1  0  0  0
 28 29  1  0  0  0
 29 30  1  0  0  0
 30 31  2  0  0  0
 31 32  1  0  0  0
 31 33  1  0  0  0
  5  1  1  0  0  0
  1  2  2  0  0  0
  1  3  1  0  0  0
  3 38  1  0  0  0
 38 67  1  0  0  0
 67 68  1  0  0  0
 38 39  1  0  0  0
 39 40  2  0  0  0
 39 41  1  0  0  0
 41 43  1  0  0  0
 43 64  1  0  0  0
 64 65  1  0  0  0
 43 44  1  0  0  0
 44 45  2  0  0  0
 44 46  1  0  0  0
 46 48  1  0  0  0
 48 61  1  0  0  0
 61 62  1  0  0  0
 48 49  1  0  0  0
 49 50  2  0  0  0
 49 51  1  0  0  0
 51 53  1  0  0  0
 53 58  1  0  0  0
 58 59  1  0  0  0
 53 54  1  0  0  0
 54 55  1  0  0  0
 54 56  2  0  0  0
 19 20  1  0  0  0
 22 23  1  0  0  0
 13 14  1  0  0  0
  8  9  1  0  0  0
 32 34  1  0  0  0
 32 35  1  0  0  0
 33 36  1  0  0  0
 33 37  1  0  0  0
  3  4  1  0  0  0
 68 69  1  0  0  0
 41 42  1  0  0  0
 65 66  1  0  0  0
 46 47  1  0  0  0
 62 63  1  0  0  0
 51 52  1  0  0  0
 59 60  1  0  0  0
 55 57  1  0  0  0
M  END
> <minimizedAffinity>
-6.33913

> <CNNscore>
0.1291483194

> <CNNaffinity>
5.4187445641

> <CNN_VS>
0.6998217702

> <CNNaffinity_variance>
1.1159476042

$$$$
[H]OC(=O)[C@@]([H])(N([H])C(=O)[C@@]([H])(N([H])C(=O)[C@@]([H])(N([H])C(=O)[C@@]([H])(N([H])C(=O)[C@@]([H])(N([H])C(=O)[C@@]([H])(N([H])C(=O)[C@@]([H])(N([H])C(=O)C([H])([H])[H])C([H])([H])O[H])C([H])(C([H])([H])[H])C([H])([H])[H])C([H])([H])C([H])([H])C([H])([H])N=C(N([H])[H])N([H])[H])C([H])([H])O[H])C([H])([H])O[H])C([H])([H])O[H])C([H])([H])O[H]


 69 68  0  0  0  0  0  0  0  0999 V2000
   -0.6447   22.6145  -22.1486 C   0  0  0  0  0  0  0  0  0  0  0  0
   -1.3341   23.6620  -22.1941 O   0  0  0  0  0  0  0  0  0  0  0  0
   -0.2615   22.0208  -23.3904 N   0  0  0  0  0  0  0  0  0  0  0  0
    0.3015   21.1201  -23.2819 H   0  0  0  0  0  0  0  0  0  0  0  0
   -0.2871   22.1074  -20.8251 C   0  0  0  0  0  0  0  0  0  0  0  0
   -2.3206   21.9672  -19.3529 C   0  0  0  0  0  0  0  0  0  0  0  0
   -1.8693   23.0639  -18.8080 O   0  0  0  0  0  0  0  0  0  0  0  0
   -1.5755   21.4546  -20.3649 N   0  0  0  0  0  0  0  0  0  0  0  0
   -1.7814   20.6284  -20.9285 H   0  0  0  0  0  0  0  0  0  0  0  0
   -3.5756   21.4763  -18.7714 C   0  0  0  0  0  0  0  0  0  0  0  0
   -5.4517   22.9070  -19.6519 C   0  0  0  0  0  0  0  0  0  0  0  0
   -5.2150   23.7137  -18.7227 O   0  0  0  0  0  0  0  0  0  0  0  0
   -4.6573   21.7395  -19.7422 N   0  0  0  0  0  0  0  0  0  0  0  0
   -4.8141   21.0364  -20.4937 H   0  0  0  0  0  0  0  0  0  0  0  0
   -6.5349   23.2004  -20.6036 C   0  0  0  0  0  0  0  0  0  0  0  0
  -10.1394   22.3938  -19.4565 C   0  0  0  0  0  0  0  0  0  0  0  0
   -8.8299   22.3041  -20.1226 C   0  0  0  0  0  0  0  0  0  0  0  0
   -8.5888   21.3299  -20.8712 O   0  0  0  0  0  0  0  0  0  0  0  0
   -7.8253   23.2863  -19.9475 N   0  0  0  0  0  0  0  0  0  0  0  0
   -8.0652   24.0980  -19.3070 H   0  0  0  0  0  0  0  0  0  0  0  0
   -6.2567   24.4562  -21.4113 C   0  0  0  0  0  0  0  0  0  0  0  0
   -5.8694   25.5287  -20.6386 O   0  0  0  0  0  0  0  0  0  0  0  0
   -6.1681   25.4329  -19.7145 H   0  0  0  0  0  0  0  0  0  0  0  0
   -3.5307   20.0674  -18.3555 C   0  0  0  0  0  0  0  0  0  0  0  0
   -4.9216   19.5830  -17.8879 C   0  0  0  0  0  0  0  0  0  0  0  0
   -2.6118   19.9145  -17.1285 C   0  0  0  0  0  0  0  0  0  0  0  0
    0.7583   21.0904  -20.6693 C   0  0  0  0  0  0  0  0  0  0  0  0
    0.5077   19.6691  -20.8571 C   0  0  0  0  0  0  0  0  0  0  0  0
    1.6593   18.7336  -20.9554 C   0  0  0  0  0  0  0  0  0  0  0  0
    2.9027   19.4434  -21.2917 N   0  0  0  0  0  0  0  0  0  0  0  0
    3.7739   19.0102  -22.1093 C   0  0  0  0  0  0  0  0  0  0  0  0
    4.9328   19.7773  -22.3571 N   0  0  0  0  0  0  0  0  0  0  0  0
    3.5636   17.7715  -22.7517 N   0  0  0  0  0  0  0  0  0  0  0  0
    5.8070   19.3218  -22.7319 H   0  0  0  0  0  0  0  0  0  0  0  0
    4.9948   20.8010  -22.1911 H   0  0  0  0  0  0  0  0  0  0  0  0
    2.8831   17.6631  -23.5365 H   0  0  0  0  0  0  0  0  0  0  0  0
    4.0939   16.9246  -22.4512 H   0  0  0  0  0  0  0  0  0  0  0  0
   -0.5457   22.4861  -24.6980 C   0  0  0  0  0  0  0  0  0  0  0  0
   -1.8699   22.0909  -25.2277 C   0  0  0  0  0  0  0  0  0  0  0  0
   -1.9593   21.6370  -26.3766 O   0  0  0  0  0  0  0  0  0  0  0  0
   -3.0091   22.2284  -24.4392 N   0  0  0  0  0  0  0  0  0  0  0  0
   -2.9005   22.6148  -23.4544 H   0  0  0  0  0  0  0  0  0  0  0  0
   -4.3655   21.9015  -24.7917 C   0  0  0  0  0  0  0  0  0  0  0  0
   -5.0770   22.9619  -25.4887 C   0  0  0  0  0  0  0  0  0  0  0  0
   -5.4811   22.8399  -26.6693 O   0  0  0  0  0  0  0  0  0  0  0  0
   -5.3369   24.1886  -24.8354 N   0  0  0  0  0  0  0  0  0  0  0  0
   -5.0151   24.3222  -23.8532 H   0  0  0  0  0  0  0  0  0  0  0  0
   -6.0323   25.2915  -25.4348 C   0  0  0  0  0  0  0  0  0  0  0  0
   -5.2218   25.7355  -26.6280 C   0  0  0  0  0  0  0  0  0  0  0  0
   -4.1731   26.4284  -26.4427 O   0  0  0  0  0  0  0  0  0  0  0  0
   -5.5852   25.4085  -27.9385 N   0  0  0  0  0  0  0  0  0  0  0  0
   -6.4417   24.8493  -28.1139 H   0  0  0  0  0  0  0  0  0  0  0  0
   -4.7907   25.8349  -29.0556 C   0  0  0  0  0  0  0  0  0  0  0  0
   -5.6789   25.9987  -30.2390 C   0  0  0  0  0  0  0  0  0  0  0  0
   -6.4289   24.8786  -30.6239 O   0  0  0  0  0  0  0  0  0  0  0  0
   -5.7361   27.0847  -30.8403 O   0  0  0  0  0  0  0  0  0  0  0  0
   -6.9532   24.9555  -31.4829 H   0  0  0  0  0  0  0  0  0  0  0  0
   -3.7083   24.8462  -29.4012 C   0  0  0  0  0  0  0  0  0  0  0  0
   -4.1938   23.5447  -29.1787 O   0  0  0  0  0  0  0  0  0  0  0  0
   -4.3607   23.3781  -28.2057 H   0  0  0  0  0  0  0  0  0  0  0  0
   -6.3189   26.4373  -24.5281 C   0  0  0  0  0  0  0  0  0  0  0  0
   -7.6338   26.3748  -24.0165 O   0  0  0  0  0  0  0  0  0  0  0  0
   -8.1648   27.1666  -24.2537 H   0  0  0  0  0  0  0  0  0  0  0  0
   -5.1641   21.3906  -23.6219 C   0  0  0  0  0  0  0  0  0  0  0  0
   -6.5153   21.5753  -23.9625 O   0  0  0  0  0  0  0  0  0  0  0  0
   -6.9856   20.7201  -24.1070 H   0  0  0  0  0  0  0  0  0  0  0  0
    0.5979   22.2700  -25.6223 C   0  0  0  0  0  0  0  0  0  0  0  0
    0.6494   23.1657  -26.6704 O   0  0  0  0  0  0  0  0  0  0  0  0
   -0.0408   22.8556  -27.3313 H   0  0  0  0  0  0  0  0  0  0  0  0
 16 17  1  0  0  0
 17 18  2  0  0  0
 17 19  1  0  0  0
 19 15  1  0  0  0
 15 21  1  0  0  0
 21 22  1  0  0  0
 15 11  1  0  0  0
 11 12  2  0  0  0
 11 13  1  0  0  0
 13 10  1  0  0  0
 10 24  1  0  0  0
 24 25  1  0  0  0
 24 26  1  0  0  0
 10  6  1  0  0  0
  6  7  2  0  0  0
  6  8  1  0  0  0
  8  5  1  0  0  0
  5 27  1  0  0  0
 27 28  1  0  0  0
 28 29  1  0  0  0
 29 30  1  0  0  0
 30 31  2  0  0  0
 31 32  1  0  0  0
 31 33  1  0  0  0
  5  1  1  0  0  0
  1  2  2  0  0  0
  1  3  1  0  0  0
  3 38  1  0  0  0
 38 67  1  0  0  0
 67 68  1  0  0  0
 38 39  1  0  0  0
 39 40  2  0  0  0
 39 41  1  0  0  0
 41 43  1  0  0  0
 43 64  1  0  0  0
 64 65  1  0  0  0
 43 44  1  0  0  0
 44 45  2  0  0  0
 44 46  1  0  0  0
 46 48  1  0  0  0
 48 61  1  0  0  0
 61 62  1  0  0  0
 48 49  1  0  0  0
 49 50  2  0  0  0
 49 51  1  0  0  0
 51 53  1  0  0  0
 53 58  1  0  0  0
 58 59  1  0  0  0
 53 54  1  0  0  0
 54 55  1  0  0  0
 54 56  2  0  0  0
 19 20  1  0  0  0
 22 23  1  0  0  0
 13 14  1  0  0  0
  8  9  1  0  0  0
 32 34  1  0  0  0
 32 35  1  0  0  0
 33 36  1  0  0  0
 33 37  1  0  0  0
  3  4  1  0  0  0
 68 69  1  0  0  0
 41 42  1  0  0  0
 65 66  1  0  0  0
 46 47  1  0  0  0
 62 63  1  0  0  0
 51 52  1  0  0  0
 59 60  1  0  0  0
 55 57  1  0  0  0
M  END
> <minimizedAffinity>
-7.28913

> <CNNscore>
0.1249588355

> <CNNaffinity>
5.6571607590

> <CNN_VS>
0.7069122195

> <CNNaffinity_variance>
1.6042064428

$$$$
[H]Oc1c([H])c([H])c(C([H])([H])[C@@]2([H])C(=O)N([H])[C@@]([H])(C([H])([H])C([H])(C([H])([H])[H])C([H])([H])[H])C(=O)N([H])[C@@]([H])(C([H])([H])c3c([H])c([H])c([H])c([H])c3[H])C(=O)N([H])[C@@]([H])([C@@]([H])(C([H])([H])[H])C([H])([H])C([H])([H])[H])C(=O)N([H])[C@@]([H])(C([H])(C([H])([H])[H])C([H])([H])[H])C(=O)N2[H])c([H])c1[H]


 52 54  0  0  0  0  0  0  0  0999 V2000
   -5.7065   17.5501  -15.7909 C   0  0  0  0  0  0  0  0  0  0  0  0
   -5.9615   17.6028  -17.1931 N   0  0  0  0  0  0  0  0  0  0  0  0
   -7.0470   18.0999  -17.9182 C   0  0  0  0  0  0  0  0  0  0  0  0
   -7.3366   17.4582  -18.9928 O   0  0  0  0  0  0  0  0  0  0  0  0
   -7.9043   19.2480  -17.6325 C   0  0  0  0  0  0  0  0  0  0  0  0
   -8.4800   19.8368  -18.8529 N   0  0  0  0  0  0  0  0  0  0  0  0
   -8.5727   21.1886  -19.1658 C   0  0  0  0  0  0  0  0  0  0  0  0
   -9.7407   21.6999  -19.3509 O   0  0  0  0  0  0  0  0  0  0  0  0
   -7.4630   22.1723  -19.3234 C   0  0  0  0  0  0  0  0  0  0  0  0
   -6.2170   21.5755  -19.7288 N   0  0  0  0  0  0  0  0  0  0  0  0
   -4.9130   21.8717  -19.3104 C   0  0  0  0  0  0  0  0  0  0  0  0
   -4.0845   22.3340  -20.1734 O   0  0  0  0  0  0  0  0  0  0  0  0
   -4.3129   21.7233  -17.9608 C   0  0  0  0  0  0  0  0  0  0  0  0
   -3.1609   20.8135  -18.0399 N   0  0  0  0  0  0  0  0  0  0  0  0
   -2.8483   19.7495  -17.1751 C   0  0  0  0  0  0  0  0  0  0  0  0
   -2.6337   18.6357  -17.7945 O   0  0  0  0  0  0  0  0  0  0  0  0
   -2.7299   19.7081  -15.7413 C   0  0  0  0  0  0  0  0  0  0  0  0
   -3.7640   19.1170  -14.9420 N   0  0  0  0  0  0  0  0  0  0  0  0
   -5.0701   18.7020  -15.1562 C   0  0  0  0  0  0  0  0  0  0  0  0
   -5.9489   19.5464  -14.6689 O   0  0  0  0  0  0  0  0  0  0  0  0
   -5.1764   17.1838  -17.7891 H   0  0  0  0  0  0  0  0  0  0  0  0
   -8.8637   19.1314  -19.5309 H   0  0  0  0  0  0  0  0  0  0  0  0
   -6.3264   20.7946  -20.4566 H   0  0  0  0  0  0  0  0  0  0  0  0
   -2.5273   21.0349  -18.8723 H   0  0  0  0  0  0  0  0  0  0  0  0
   -3.3900   19.0044  -13.9154 H   0  0  0  0  0  0  0  0  0  0  0  0
   -1.3671   19.0784  -15.3653 C   0  0  0  0  0  0  0  0  0  0  0  0
   -1.4679   18.2530  -14.1329 C   0  0  0  0  0  0  0  0  0  0  0  0
   -0.3769   20.1919  -15.1146 C   0  0  0  0  0  0  0  0  0  0  0  0
   -5.1585   16.1906  -15.3841 C   0  0  0  0  0  0  0  0  0  0  0  0
   -5.2767   15.9654  -13.8796 C   0  0  0  0  0  0  0  0  0  0  0  0
   -4.6494   14.1990  -16.7048 C   0  0  0  0  0  0  0  0  0  0  0  0
   -5.7719   15.0272  -16.0673 C   0  0  0  0  0  0  0  0  0  0  0  0
   -9.0969   18.9433  -16.7516 C   0  0  0  0  0  0  0  0  0  0  0  0
   -9.0867   19.6593  -15.4838 C   0  0  0  0  0  0  0  0  0  0  0  0
   -9.3409   19.0330  -14.2997 C   0  0  0  0  0  0  0  0  0  0  0  0
   -9.3287   19.7264  -13.1150 C   0  0  0  0  0  0  0  0  0  0  0  0
   -9.0584   21.0695  -13.1036 C   0  0  0  0  0  0  0  0  0  0  0  0
   -8.7961   21.7389  -14.2823 C   0  0  0  0  0  0  0  0  0  0  0  0
   -8.8164   21.0059  -15.4668 C   0  0  0  0  0  0  0  0  0  0  0  0
   -7.8733   23.3135  -20.2119 C   0  0  0  0  0  0  0  0  0  0  0  0
   -7.8383   24.6791  -19.6425 C   0  0  0  0  0  0  0  0  0  0  0  0
   -8.7393   25.6992  -20.2903 C   0  0  0  0  0  0  0  0  0  0  0  0
   -6.4215   25.2854  -19.7495 C   0  0  0  0  0  0  0  0  0  0  0  0
   -3.7752   23.0089  -17.3853 C   0  0  0  0  0  0  0  0  0  0  0  0
   -4.4910   23.5094  -16.2053 C   0  0  0  0  0  0  0  0  0  0  0  0
   -4.3479   22.8815  -14.9645 C   0  0  0  0  0  0  0  0  0  0  0  0
   -5.0045   23.3643  -13.8557 C   0  0  0  0  0  0  0  0  0  0  0  0
   -5.8147   24.4674  -13.9290 C   0  0  0  0  0  0  0  0  0  0  0  0
   -6.4892   24.9695  -12.8071 O   0  0  0  0  0  0  0  0  0  0  0  0
   -5.9574   25.0848  -15.1430 C   0  0  0  0  0  0  0  0  0  0  0  0
   -5.2942   24.5996  -16.2677 C   0  0  0  0  0  0  0  0  0  0  0  0
   -6.0291   25.6753  -12.2225 H   0  0  0  0  0  0  0  0  0  0  0  0
 31 32  1  0  0  0
 32 29  1  0  0  0
 29 30  1  0  0  0
 29  1  1  0  0  0
  1  2  1  0  0  0
  2  3  1  0  0  0
  3  4  2  0  0  0
  3  5  1  0  0  0
  5 33  1  0  0  0
 33 34  1  0  0  0
 34 35  2  0  0  0
 35 36  1  0  0  0
 36 37  2  0  0  0
 37 38  1  0  0  0
 38 39  2  0  0  0
  5  6  1  0  0  0
  6  7  1  0  0  0
  7  8  2  0  0  0
  7  9  1  0  0  0
  9 40  1  0  0  0
 40 41  1  0  0  0
 41 42  1  0  0  0
 41 43  1  0  0  0
  9 10  1  0  0  0
 10 11  1  0  0  0
 11 12  2  0  0  0
 11 13  1  0  0  0
 13 44  1  0  0  0
 44 45  1  0  0  0
 45 46  2  0  0  0
 46 47  1  0  0  0
 47 48  2  0  0  0
 48 49  1  0  0  0
 48 50  1  0  0  0
 50 51  2  0  0  0
 13 14  1  0  0  0
 14 15  1  0  0  0
 15 16  2  0  0  0
 15 17  1  0  0  0
 17 18  1  0  0  0
 18 19  1  0  0  0
 19 20  2  0  0  0
 17 26  1  0  0  0
 26 27  1  0  0  0
 26 28  1  0  0  0
 19  1  1  0  0  0
 39 34  1  0  0  0
 51 45  1  0  0  0
  2 21  1  0  0  0
  6 22  1  0  0  0
 10 23  1  0  0  0
 49 52  1  0  0  0
 14 24  1  0  0  0
 18 25  1  0  0  0
M  END
> <minimizedAffinity>
-4.89133

> <CNNscore>
0.3602415025

> <CNNaffinity>
5.7927160263

> <CNN_VS>
2.0867767334

> <CNNaffinity_variance>
1.5473381281

$$$$
[H]Oc1c([H])c([H])c(C([H])([H])[C@@]2([H])C(=O)N([H])[C@@]([H])(C([H])([H])C([H])(C([H])([H])[H])C([H])([H])[H])C(=O)N([H])[C@@]([H])(C([H])([H])c3c([H])c([H])c([H])c([H])c3[H])C(=O)N([H])[C@@]([H])([C@@]([H])(C([H])([H])[H])C([H])([H])C([H])([H])[H])C(=O)N([H])[C@@]([H])(C([H])(C([H])([H])[H])C([H])([H])[H])C(=O)N2[H])c([H])c1[H]


 52 54  0  0  0  0  0  0  0  0999 V2000
    2.6614   21.7212  -17.6179 C   0  0  0  0  0  0  0  0  0  0  0  0
    1.6566   22.7219  -17.7695 N   0  0  0  0  0  0  0  0  0  0  0  0
    0.6890   22.9194  -18.7574 C   0  0  0  0  0  0  0  0  0  0  0  0
    0.4101   24.1449  -19.0232 O   0  0  0  0  0  0  0  0  0  0  0  0
   -0.0560   21.9321  -19.5352 C   0  0  0  0  0  0  0  0  0  0  0  0
   -1.3676   22.4362  -19.9742 N   0  0  0  0  0  0  0  0  0  0  0  0
   -2.5807   21.7575  -19.9335 C   0  0  0  0  0  0  0  0  0  0  0  0
   -3.2062   21.5458  -21.0398 O   0  0  0  0  0  0  0  0  0  0  0  0
   -3.2899   21.2164  -18.7384 C   0  0  0  0  0  0  0  0  0  0  0  0
   -2.9884   21.9227  -17.5205 N   0  0  0  0  0  0  0  0  0  0  0  0
   -2.7858   21.4189  -16.2289 C   0  0  0  0  0  0  0  0  0  0  0  0
   -3.6142   21.7493  -15.3072 O   0  0  0  0  0  0  0  0  0  0  0  0
   -1.7087   20.5229  -15.7384 C   0  0  0  0  0  0  0  0  0  0  0  0
   -0.9690   21.1982  -14.6624 N   0  0  0  0  0  0  0  0  0  0  0  0
    0.4257   21.2759  -14.4992 C   0  0  0  0  0  0  0  0  0  0  0  0
    0.8529   22.4844  -14.3343 O   0  0  0  0  0  0  0  0  0  0  0  0
    1.4287   20.2436  -14.4847 C   0  0  0  0  0  0  0  0  0  0  0  0
    2.2869   20.0463  -15.6169 N   0  0  0  0  0  0  0  0  0  0  0  0
    2.3080   20.4790  -16.9347 C   0  0  0  0  0  0  0  0  0  0  0  0
    1.9190   19.5469  -17.7728 O   0  0  0  0  0  0  0  0  0  0  0  0
    1.6500   23.4477  -16.9819 H   0  0  0  0  0  0  0  0  0  0  0  0
   -1.3443   23.4109  -20.3665 H   0  0  0  0  0  0  0  0  0  0  0  0
   -2.9135   22.9861  -17.6429 H   0  0  0  0  0  0  0  0  0  0  0  0
   -1.6207   21.6673  -13.9564 H   0  0  0  0  0  0  0  0  0  0  0  0
    3.0972   19.3643  -15.3258 H   0  0  0  0  0  0  0  0  0  0  0  0
    2.2899   20.3946  -13.2077 C   0  0  0  0  0  0  0  0  0  0  0  0
    3.7424   20.3229  -13.5165 C   0  0  0  0  0  0  0  0  0  0  0  0
    1.9466   19.2677  -12.2614 C   0  0  0  0  0  0  0  0  0  0  0  0
    3.9920   22.3374  -17.2131 C   0  0  0  0  0  0  0  0  0  0  0  0
    3.8441   23.2384  -15.9905 C   0  0  0  0  0  0  0  0  0  0  0  0
    5.9998   21.3213  -18.1649 C   0  0  0  0  0  0  0  0  0  0  0  0
    5.0821   21.3721  -16.9370 C   0  0  0  0  0  0  0  0  0  0  0  0
    0.6294   21.4810  -20.8072 C   0  0  0  0  0  0  0  0  0  0  0  0
    0.9306   20.0568  -20.8367 C   0  0  0  0  0  0  0  0  0  0  0  0
   -0.0208   19.1130  -20.5859 C   0  0  0  0  0  0  0  0  0  0  0  0
    0.2839   17.7748  -20.6164 C   0  0  0  0  0  0  0  0  0  0  0  0
    1.5591   17.3632  -20.9017 C   0  0  0  0  0  0  0  0  0  0  0  0
    2.5500   18.2889  -21.1610 C   0  0  0  0  0  0  0  0  0  0  0  0
    2.2076   19.6387  -21.1221 C   0  0  0  0  0  0  0  0  0  0  0  0
   -4.7677   21.1038  -18.9907 C   0  0  0  0  0  0  0  0  0  0  0  0
   -5.4674   19.9070  -18.4730 C   0  0  0  0  0  0  0  0  0  0  0  0
   -6.1837   20.0661  -17.1562 C   0  0  0  0  0  0  0  0  0  0  0  0
   -4.4758   18.7456  -18.2403 C   0  0  0  0  0  0  0  0  0  0  0  0
   -2.2106   19.2341  -15.1382 C   0  0  0  0  0  0  0  0  0  0  0  0
   -1.4035   18.0477  -15.4487 C   0  0  0  0  0  0  0  0  0  0  0  0
   -1.0499   17.7506  -16.7681 C   0  0  0  0  0  0  0  0  0  0  0  0
   -0.2768   16.6489  -17.0547 C   0  0  0  0  0  0  0  0  0  0  0  0
    0.1689   15.8118  -16.0651 C   0  0  0  0  0  0  0  0  0  0  0  0
    0.9570   14.6862  -16.3434 O   0  0  0  0  0  0  0  0  0  0  0  0
   -0.1759   16.0997  -14.7714 C   0  0  0  0  0  0  0  0  0  0  0  0
   -0.9579   17.2141  -14.4770 C   0  0  0  0  0  0  0  0  0  0  0  0
    1.9779   14.7822  -16.3552 H   0  0  0  0  0  0  0  0  0  0  0  0
 31 32  1  0  0  0
 32 29  1  0  0  0
 29 30  1  0  0  0
 29  1  1  0  0  0
  1  2  1  0  0  0
  2  3  1  0  0  0
  3  4  2  0  0  0
  3  5  1  0  0  0
  5 33  1  0  0  0
 33 34  1  0  0  0
 34 35  2  0  0  0
 35 36  1  0  0  0
 36 37  2  0  0  0
 37 38  1  0  0  0
 38 39  2  0  0  0
  5  6  1  0  0  0
  6  7  1  0  0  0
  7  8  2  0  0  0
  7  9  1  0  0  0
  9 40  1  0  0  0
 40 41  1  0  0  0
 41 42  1  0  0  0
 41 43  1  0  0  0
  9 10  1  0  0  0
 10 11  1  0  0  0
 11 12  2  0  0  0
 11 13  1  0  0  0
 13 44  1  0  0  0
 44 45  1  0  0  0
 45 46  2  0  0  0
 46 47  1  0  0  0
 47 48  2  0  0  0
 48 49  1  0  0  0
 48 50  1  0  0  0
 50 51  2  0  0  0
 13 14  1  0  0  0
 14 15  1  0  0  0
 15 16  2  0  0  0
 15 17  1  0  0  0
 17 18  1  0  0  0
 18 19  1  0  0  0
 19 20  2  0  0  0
 17 26  1  0  0  0
 26 27  1  0  0  0
 26 28  1  0  0  0
 19  1  1  0  0  0
 39 34  1  0  0  0
 51 45  1  0  0  0
  2 21  1  0  0  0
  6 22  1  0  0  0
 10 23  1  0  0  0
 49 52  1  0  0  0
 14 24  1  0  0  0
 18 25  1  0  0  0
M  END
> <minimizedAffinity>
-4.33126

> <CNNscore>
0.2876827121

> <CNNaffinity>
5.5362901688

> <CNN_VS>
1.5926949978

> <CNNaffinity_variance>
0.9432585835

$$$$
[H]Oc1c([H])c([H])c(C([H])([H])[C@@]2([H])C(=O)N([H])[C@@]([H])(C([H])([H])C([H])(C([H])([H])[H])C([H])([H])[H])C(=O)N([H])[C@@]([H])(C([H])([H])c3c([H])c([H])c([H])c([H])c3[H])C(=O)N([H])[C@@]([H])([C@@]([H])(C([H])([H])[H])C([H])([H])C([H])([H])[H])C(=O)N([H])[C@@]([H])(C([H])(C([H])([H])[H])C([H])([H])[H])C(=O)N2[H])c([H])c1[H]


 52 54  0  0  0  0  0  0  0  0999 V2000
   -8.2030   15.5786  -15.7306 C   0  0  0  0  0  0  0  0  0  0  0  0
   -8.9990   16.0099  -16.8326 N   0  0  0  0  0  0  0  0  0  0  0  0
  -10.0303   16.9481  -16.9181 C   0  0  0  0  0  0  0  0  0  0  0  0
  -10.9641   16.6709  -17.7557 O   0  0  0  0  0  0  0  0  0  0  0  0
  -10.2027   18.2041  -16.1919 C   0  0  0  0  0  0  0  0  0  0  0  0
  -10.9926   19.1879  -16.9506 N   0  0  0  0  0  0  0  0  0  0  0  0
  -10.7168   20.5423  -17.1040 C   0  0  0  0  0  0  0  0  0  0  0  0
  -11.5787   21.3993  -16.6765 O   0  0  0  0  0  0  0  0  0  0  0  0
   -9.5121   21.1696  -17.7197 C   0  0  0  0  0  0  0  0  0  0  0  0
   -8.8709   20.3399  -18.7064 N   0  0  0  0  0  0  0  0  0  0  0  0
   -7.5050   20.1441  -18.9498 C   0  0  0  0  0  0  0  0  0  0  0  0
   -7.0247   20.5227  -20.0771 O   0  0  0  0  0  0  0  0  0  0  0  0
   -6.4807   19.5348  -18.0649 C   0  0  0  0  0  0  0  0  0  0  0  0
   -5.8895   18.3695  -18.7385 N   0  0  0  0  0  0  0  0  0  0  0  0
   -5.6418   17.0979  -18.1914 C   0  0  0  0  0  0  0  0  0  0  0  0
   -6.1325   16.1342  -18.8992 O   0  0  0  0  0  0  0  0  0  0  0  0
   -4.9411   16.7101  -16.9955 C   0  0  0  0  0  0  0  0  0  0  0  0
   -5.6653   16.2855  -15.8324 N   0  0  0  0  0  0  0  0  0  0  0  0
   -6.9879   16.3265  -15.4160 C   0  0  0  0  0  0  0  0  0  0  0  0
   -7.2007   17.2617  -14.5200 O   0  0  0  0  0  0  0  0  0  0  0  0
   -8.7571   15.5219  -17.7549 H   0  0  0  0  0  0  0  0  0  0  0  0
  -11.8563   18.7918  -17.3994 H   0  0  0  0  0  0  0  0  0  0  0  0
   -9.5564   19.8045  -19.3348 H   0  0  0  0  0  0  0  0  0  0  0  0
   -5.6441   18.5739  -19.7590 H   0  0  0  0  0  0  0  0  0  0  0  0
   -4.9543   15.8463  -15.1198 H   0  0  0  0  0  0  0  0  0  0  0  0
   -3.8785   15.6442  -17.3562 C   0  0  0  0  0  0  0  0  0  0  0  0
   -3.8358   14.5521  -16.3483 C   0  0  0  0  0  0  0  0  0  0  0  0
   -2.5234   16.3116  -17.3948 C   0  0  0  0  0  0  0  0  0  0  0  0
   -8.0643   14.0639  -15.7141 C   0  0  0  0  0  0  0  0  0  0  0  0
   -7.5012   13.5377  -17.0310 C   0  0  0  0  0  0  0  0  0  0  0  0
   -8.1800   12.9752  -13.5298 C   0  0  0  0  0  0  0  0  0  0  0  0
   -7.2379   13.5129  -14.6142 C   0  0  0  0  0  0  0  0  0  0  0  0
  -10.9198   18.0744  -14.8651 C   0  0  0  0  0  0  0  0  0  0  0  0
  -10.3373   18.8825  -13.8032 C   0  0  0  0  0  0  0  0  0  0  0  0
   -9.3588   19.7996  -14.0489 C   0  0  0  0  0  0  0  0  0  0  0  0
   -8.8207   20.5503  -13.0333 C   0  0  0  0  0  0  0  0  0  0  0  0
   -9.2622   20.3887  -11.7465 C   0  0  0  0  0  0  0  0  0  0  0  0
  -10.2515   19.4700  -11.4579 C   0  0  0  0  0  0  0  0  0  0  0  0
  -10.7762   18.7244  -12.5113 C   0  0  0  0  0  0  0  0  0  0  0  0
   -9.8229   22.5468  -18.2363 C   0  0  0  0  0  0  0  0  0  0  0  0
   -9.4297   22.8680  -19.6264 C   0  0  0  0  0  0  0  0  0  0  0  0
   -8.2488   23.7900  -19.7933 C   0  0  0  0  0  0  0  0  0  0  0  0
  -10.5826   23.5700  -20.3777 C   0  0  0  0  0  0  0  0  0  0  0  0
   -5.3245   20.4489  -17.7473 C   0  0  0  0  0  0  0  0  0  0  0  0
   -5.6795   21.6667  -17.0081 C   0  0  0  0  0  0  0  0  0  0  0  0
   -5.3861   22.9296  -17.5307 C   0  0  0  0  0  0  0  0  0  0  0  0
   -5.7375   24.0699  -16.8453 C   0  0  0  0  0  0  0  0  0  0  0  0
   -6.3812   24.0073  -15.6368 C   0  0  0  0  0  0  0  0  0  0  0  0
   -6.7447   25.1612  -14.9282 O   0  0  0  0  0  0  0  0  0  0  0  0
   -6.6699   22.7717  -15.1217 C   0  0  0  0  0  0  0  0  0  0  0  0
   -6.3164   21.6151  -15.8125 C   0  0  0  0  0  0  0  0  0  0  0  0
   -7.6650   25.5810  -15.0963 H   0  0  0  0  0  0  0  0  0  0  0  0
 31 32  1  0  0  0
 32 29  1  0  0  0
 29 30  1  0  0  0
 29  1  1  0  0  0
  1  2  1  0  0  0
  2  3  1  0  0  0
  3  4  2  0  0  0
  3  5  1  0  0  0
  5 33  1  0  0  0
 33 34  1  0  0  0
 34 35  2  0  0  0
 35 36  1  0  0  0
 36 37  2  0  0  0
 37 38  1  0  0  0
 38 39  2  0  0  0
  5  6  1  0  0  0
  6  7  1  0  0  0
  7  8  2  0  0  0
  7  9  1  0  0  0
  9 40  1  0  0  0
 40 41  1  0  0  0
 41 42  1  0  0  0
 41 43  1  0  0  0
  9 10  1  0  0  0
 10 11  1  0  0  0
 11 12  2  0  0  0
 11 13  1  0  0  0
 13 44  1  0  0  0
 44 45  1  0  0  0
 45 46  2  0  0  0
 46 47  1  0  0  0
 47 48  2  0  0  0
 48 49  1  0  0  0
 48 50  1  0  0  0
 50 51  2  0  0  0
 13 14  1  0  0  0
 14 15  1  0  0  0
 15 16  2  0  0  0
 15 17  1  0  0  0
 17 18  1  0  0  0
 18 19  1  0  0  0
 19 20  2  0  0  0
 17 26  1  0  0  0
 26 27  1  0  0  0
 26 28  1  0  0  0
 19  1  1  0  0  0
 39 34  1  0  0  0
 51 45  1  0  0  0
  2 21  1  0  0  0
  6 22  1  0  0  0
 10 23  1  0  0  0
 49 52  1  0  0  0
 14 24  1  0  0  0
 18 25  1  0  0  0
M  END
> <minimizedAffinity>
-4.89279

> <CNNscore>
0.2804200053

> <CNNaffinity>
5.6959028244

> <CNN_VS>
1.5972450972

> <CNNaffinity_variance>
0.9912799597

$$$$
[H]Oc1c([H])c([H])c(C([H])([H])[C@@]2([H])C(=O)N([H])[C@@]([H])(C([H])([H])C([H])(C([H])([H])[H])C([H])([H])[H])C(=O)N([H])[C@@]([H])(C([H])([H])c3c([H])c([H])c([H])c([H])c3[H])C(=O)N([H])[C@@]([H])([C@@]([H])(C([H])([H])[H])C([H])([H])C([H])([H])[H])C(=O)N([H])[C@@]([H])(C([H])(C([H])([H])[H])C([H])([H])[H])C(=O)N2[H])c([H])c1[H]


 52 54  0  0  0  0  0  0  0  0999 V2000
   -5.3282   18.5050  -17.1319 C   0  0  0  0  0  0  0  0  0  0  0  0
   -5.0704   19.0616  -18.4195 N   0  0  0  0  0  0  0  0  0  0  0  0
   -4.5802   20.3112  -18.8062 C   0  0  0  0  0  0  0  0  0  0  0  0
   -5.0613   20.7810  -19.9008 O   0  0  0  0  0  0  0  0  0  0  0  0
   -3.5958   21.1651  -18.1456 C   0  0  0  0  0  0  0  0  0  0  0  0
   -2.8778   22.0324  -19.0941 N   0  0  0  0  0  0  0  0  0  0  0  0
   -1.5109   22.2865  -19.1251 C   0  0  0  0  0  0  0  0  0  0  0  0
   -1.1057   23.5000  -18.9732 O   0  0  0  0  0  0  0  0  0  0  0  0
   -0.4001   21.3101  -19.3169 C   0  0  0  0  0  0  0  0  0  0  0  0
   -0.7821   20.1428  -20.0682 N   0  0  0  0  0  0  0  0  0  0  0  0
   -0.4199   18.8034  -19.8730 C   0  0  0  0  0  0  0  0  0  0  0  0
    0.2670   18.2171  -20.7836 O   0  0  0  0  0  0  0  0  0  0  0  0
   -0.7253   17.9155  -18.7232 C   0  0  0  0  0  0  0  0  0  0  0  0
   -1.4786   16.7467  -19.2001 N   0  0  0  0  0  0  0  0  0  0  0  0
   -2.6316   16.1791  -18.6290 C   0  0  0  0  0  0  0  0  0  0  0  0
   -3.5966   16.0257  -19.4749 O   0  0  0  0  0  0  0  0  0  0  0  0
   -2.8983   15.7494  -17.2815 C   0  0  0  0  0  0  0  0  0  0  0  0
   -3.7232   16.5406  -16.4147 N   0  0  0  0  0  0  0  0  0  0  0  0
   -4.2360   17.8293  -16.4353 C   0  0  0  0  0  0  0  0  0  0  0  0
   -3.5852   18.6388  -15.6330 O   0  0  0  0  0  0  0  0  0  0  0  0
   -5.2963   18.3970  -19.2284 H   0  0  0  0  0  0  0  0  0  0  0  0
   -3.4976   22.5033  -19.8001 H   0  0  0  0  0  0  0  0  0  0  0  0
   -1.4379   20.3521  -20.8914 H   0  0  0  0  0  0  0  0  0  0  0  0
   -1.0540   16.3264  -20.0869 H   0  0  0  0  0  0  0  0  0  0  0  0
   -3.9641   15.9455  -15.5235 H   0  0  0  0  0  0  0  0  0  0  0  0
   -3.4302   14.2963  -17.3109 C   0  0  0  0  0  0  0  0  0  0  0  0
   -4.4150   14.0527  -16.2242 C   0  0  0  0  0  0  0  0  0  0  0  0
   -2.2642   13.3547  -17.1188 C   0  0  0  0  0  0  0  0  0  0  0  0
   -6.6688   17.7868  -17.1036 C   0  0  0  0  0  0  0  0  0  0  0  0
   -7.7688   18.6745  -16.5290 C   0  0  0  0  0  0  0  0  0  0  0  0
   -6.9661   15.7435  -18.4100 C   0  0  0  0  0  0  0  0  0  0  0  0
   -7.1397   17.2674  -18.4093 C   0  0  0  0  0  0  0  0  0  0  0  0
   -4.1707   22.1132  -17.1152 C   0  0  0  0  0  0  0  0  0  0  0  0
   -3.5219   22.0280  -15.8145 C   0  0  0  0  0  0  0  0  0  0  0  0
   -4.1586   22.3935  -14.6656 C   0  0  0  0  0  0  0  0  0  0  0  0
   -3.5286   22.3078  -13.4489 C   0  0  0  0  0  0  0  0  0  0  0  0
   -2.2398   21.8498  -13.3692 C   0  0  0  0  0  0  0  0  0  0  0  0
   -1.5619   21.4704  -14.5106 C   0  0  0  0  0  0  0  0  0  0  0  0
   -2.2299   21.5697  -15.7290 C   0  0  0  0  0  0  0  0  0  0  0  0
    0.8220   21.9834  -19.8767 C   0  0  0  0  0  0  0  0  0  0  0  0
    2.1428   21.5504  -19.3688 C   0  0  0  0  0  0  0  0  0  0  0  0
    3.0432   22.6339  -18.8324 C   0  0  0  0  0  0  0  0  0  0  0  0
    2.9685   20.8735  -20.4852 C   0  0  0  0  0  0  0  0  0  0  0  0
    0.4971   17.3582  -18.0389 C   0  0  0  0  0  0  0  0  0  0  0  0
    1.3188   18.3476  -17.3309 C   0  0  0  0  0  0  0  0  0  0  0  0
    2.7079   18.3642  -17.4868 C   0  0  0  0  0  0  0  0  0  0  0  0
    3.4741   19.3049  -16.8376 C   0  0  0  0  0  0  0  0  0  0  0  0
    2.9069   20.2495  -16.0223 C   0  0  0  0  0  0  0  0  0  0  0  0
    3.6759   21.2134  -15.3551 O   0  0  0  0  0  0  0  0  0  0  0  0
    1.5463   20.2359  -15.8671 C   0  0  0  0  0  0  0  0  0  0  0  0
    0.7670   19.2857  -16.5228 C   0  0  0  0  0  0  0  0  0  0  0  0
    3.8638   22.1094  -15.8172 H   0  0  0  0  0  0  0  0  0  0  0  0
 31 32  1  0  0  0
 32 29  1  0  0  0
 29 30  1  0  0  0
 29  1  1  0  0  0
  1  2  1  0  0  0
  2  3  1  0  0  0
  3  4  2  0  0  0
  3  5  1  0  0  0
  5 33  1  0  0  0
 33 34  1  0  0  0
 34 35  2  0  0  0
 35 36  1  0  0  0
 36 37  2  0  0  0
 37 38  1  0  0  0
 38 39  2  0  0  0
  5  6  1  0  0  0
  6  7  1  0  0  0
  7  8  2  0  0  0
  7  9  1  0  0  0
  9 40  1  0  0  0
 40 41  1  0  0  0
 41 42  1  0  0  0
 41 43  1  0  0  0
  9 10  1  0  0  0
 10 11  1  0  0  0
 11 12  2  0  0  0
 11 13  1  0  0  0
 13 44  1  0  0  0
 44 45  1  0  0  0
 45 46  2  0  0  0
 46 47  1  0  0  0
 47 48  2  0  0  0
 48 49  1  0  0  0
 48 50  1  0  0  0
 50 51  2  0  0  0
 13 14  1  0  0  0
 14 15  1  0  0  0
 15 16  2  0  0  0
 15 17  1  0  0  0
 17 18  1  0  0  0
 18 19  1  0  0  0
 19 20  2  0  0  0
 17 26  1  0  0  0
 26 27  1  0  0  0
 26 28  1  0  0  0
 19  1  1  0  0  0
 39 34  1  0  0  0
 51 45  1  0  0  0
  2 21  1  0  0  0
  6 22  1  0  0  0
 10 23  1  0  0  0
 49 52  1  0  0  0
 14 24  1  0  0  0
 18 25  1  0  0  0
M  END
> <minimizedAffinity>
-4.57200

> <CNNscore>
0.2419209629

> <CNNaffinity>
5.7611455917

> <CNN_VS>
1.3937418461

> <CNNaffinity_variance>
0.9555186033

$$$$
[H]Oc1c([H])c([H])c(C([H])([H])[C@@]2([H])C(=O)N([H])[C@@]([H])(C([H])([H])C([H])(C([H])([H])[H])C([H])([H])[H])C(=O)N([H])[C@@]([H])(C([H])([H])c3c([H])c([H])c([H])c([H])c3[H])C(=O)N([H])[C@@]([H])([C@@]([H])(C([H])([H])[H])C([H])([H])C([H])([H])[H])C(=O)N([H])[C@@]([H])(C([H])(C([H])([H])[H])C([H])([H])[H])C(=O)N2[H])c([H])c1[H]


 52 54  0  0  0  0  0  0  0  0999 V2000
   -2.9050   22.2886  -17.2732 C   0  0  0  0  0  0  0  0  0  0  0  0
   -3.3218   21.1058  -16.5939 N   0  0  0  0  0  0  0  0  0  0  0  0
   -3.9192   20.9175  -15.3454 C   0  0  0  0  0  0  0  0  0  0  0  0
   -3.5778   19.8467  -14.7232 O   0  0  0  0  0  0  0  0  0  0  0  0
   -4.8801   21.7632  -14.6411 C   0  0  0  0  0  0  0  0  0  0  0  0
   -5.7380   20.9953  -13.7237 N   0  0  0  0  0  0  0  0  0  0  0  0
   -7.1135   21.1215  -13.5623 C   0  0  0  0  0  0  0  0  0  0  0  0
   -7.5705   21.4534  -12.4043 O   0  0  0  0  0  0  0  0  0  0  0  0
   -8.1799   20.9186  -14.5848 C   0  0  0  0  0  0  0  0  0  0  0  0
   -7.8085   20.0017  -15.6309 N   0  0  0  0  0  0  0  0  0  0  0  0
   -8.0718   20.0691  -17.0055 C   0  0  0  0  0  0  0  0  0  0  0  0
   -8.8115   19.1627  -17.5311 O   0  0  0  0  0  0  0  0  0  0  0  0
   -7.6025   21.0718  -17.9943 C   0  0  0  0  0  0  0  0  0  0  0  0
   -6.8347   20.3916  -19.0473 N   0  0  0  0  0  0  0  0  0  0  0  0
   -5.5997   20.7819  -19.5952 C   0  0  0  0  0  0  0  0  0  0  0  0
   -4.7169   19.8380  -19.5855 O   0  0  0  0  0  0  0  0  0  0  0  0
   -5.1752   22.0382  -20.1547 C   0  0  0  0  0  0  0  0  0  0  0  0
   -4.3147   22.9127  -19.4116 N   0  0  0  0  0  0  0  0  0  0  0  0
   -3.8814   22.9981  -18.0966 C   0  0  0  0  0  0  0  0  0  0  0  0
   -4.4942   23.9478  -17.4294 O   0  0  0  0  0  0  0  0  0  0  0  0
   -3.1401   20.2061  -17.1460 H   0  0  0  0  0  0  0  0  0  0  0  0
   -5.2200   20.2958  -13.1348 H   0  0  0  0  0  0  0  0  0  0  0  0
   -7.2515   19.1520  -15.2856 H   0  0  0  0  0  0  0  0  0  0  0  0
   -7.3210   19.5043  -19.3931 H   0  0  0  0  0  0  0  0  0  0  0  0
   -3.9520   23.7006  -20.0854 H   0  0  0  0  0  0  0  0  0  0  0  0
   -4.5664   21.7870  -21.5553 C   0  0  0  0  0  0  0  0  0  0  0  0
   -3.5527   22.8174  -21.9033 C   0  0  0  0  0  0  0  0  0  0  0  0
   -5.6767   21.8447  -22.5785 C   0  0  0  0  0  0  0  0  0  0  0  0
   -1.5293   22.1069  -17.8962 C   0  0  0  0  0  0  0  0  0  0  0  0
   -0.4951   21.6812  -16.8582 C   0  0  0  0  0  0  0  0  0  0  0  0
   -0.1840   21.4309  -19.8206 C   0  0  0  0  0  0  0  0  0  0  0  0
   -1.4633   21.1471  -19.0235 C   0  0  0  0  0  0  0  0  0  0  0  0
   -4.2604   22.8414  -13.7780 C   0  0  0  0  0  0  0  0  0  0  0  0
   -5.2011   23.8727  -13.3639 C   0  0  0  0  0  0  0  0  0  0  0  0
   -5.9960   24.5254  -14.2589 C   0  0  0  0  0  0  0  0  0  0  0  0
   -6.8751   25.4966  -13.8486 C   0  0  0  0  0  0  0  0  0  0  0  0
   -6.9685   25.8280  -12.5225 C   0  0  0  0  0  0  0  0  0  0  0  0
   -6.1802   25.1894  -11.5861 C   0  0  0  0  0  0  0  0  0  0  0  0
   -5.2987   24.2089  -12.0356 C   0  0  0  0  0  0  0  0  0  0  0  0
   -9.4885   20.5585  -13.9382 C   0  0  0  0  0  0  0  0  0  0  0  0
   -9.8324   19.1233  -13.8277 C   0  0  0  0  0  0  0  0  0  0  0  0
  -11.0021   18.6486  -14.6515 C   0  0  0  0  0  0  0  0  0  0  0  0
  -10.2033   18.7552  -12.3741 C   0  0  0  0  0  0  0  0  0  0  0  0
   -8.7162   21.7953  -18.7079 C   0  0  0  0  0  0  0  0  0  0  0  0
   -8.3031   22.9891  -19.4560 C   0  0  0  0  0  0  0  0  0  0  0  0
   -7.5537   23.9945  -18.8381 C   0  0  0  0  0  0  0  0  0  0  0  0
   -7.1509   25.1033  -19.5466 C   0  0  0  0  0  0  0  0  0  0  0  0
   -7.4682   25.2591  -20.8709 C   0  0  0  0  0  0  0  0  0  0  0  0
   -7.0643   26.3837  -21.6042 O   0  0  0  0  0  0  0  0  0  0  0  0
   -8.2026   24.2762  -21.4793 C   0  0  0  0  0  0  0  0  0  0  0  0
   -8.6118   23.1521  -20.7659 C   0  0  0  0  0  0  0  0  0  0  0  0
   -6.1648   26.3619  -22.0963 H   0  0  0  0  0  0  0  0  0  0  0  0
 31 32  1  0  0  0
 32 29  1  0  0  0
 29 30  1  0  0  0
 29  1  1  0  0  0
  1  2  1  0  0  0
  2  3  1  0  0  0
  3  4  2  0  0  0
  3  5  1  0  0  0
  5 33  1  0  0  0
 33 34  1  0  0  0
 34 35  2  0  0  0
 35 36  1  0  0  0
 36 37  2  0  0  0
 37 38  1  0  0  0
 38 39  2  0  0  0
  5  6  1  0  0  0
  6  7  1  0  0  0
  7  8  2  0  0  0
  7  9  1  0  0  0
  9 40  1  0  0  0
 40 41  1  0  0  0
 41 42  1  0  0  0
 41 43  1  0  0  0
  9 10  1  0  0  0
 10 11  1  0  0  0
 11 12  2  0  0  0
 11 13  1  0  0  0
 13 44  1  0  0  0
 44 45  1  0  0  0
 45 46  2  0  0  0
 46 47  1  0  0  0
 47 48  2  0  0  0
 48 49  1  0  0  0
 48 50  1  0  0  0
 50 51  2  0  0  0
 13 14  1  0  0  0
 14 15  1  0  0  0
 15 16  2  0  0  0
 15 17  1  0  0  0
 17 18  1  0  0  0
 18 19  1  0  0  0
 19 20  2  0  0  0
 17 26  1  0  0  0
 26 27  1  0  0  0
 26 28  1  0  0  0
 19  1  1  0  0  0
 39 34  1  0  0  0
 51 45  1  0  0  0
  2 21  1  0  0  0
  6 22  1  0  0  0
 10 23  1  0  0  0
 49 52  1  0  0  0
 14 24  1  0  0  0
 18 25  1  0  0  0
M  END
> <minimizedAffinity>
-5.19393

> <CNNscore>
0.2129532099

> <CNNaffinity>
5.7158150673

> <CNN_VS>
1.2172011137

> <CNNaffinity_variance>
0.7750920057

$$$$
[H]Oc1c([H])c([H])c(C([H])([H])[C@@]2([H])C(=O)N([H])[C@@]([H])(C([H])([H])C([H])(C([H])([H])[H])C([H])([H])[H])C(=O)N([H])[C@@]([H])(C([H])([H])c3c([H])c([H])c([H])c([H])c3[H])C(=O)N([H])[C@@]([H])([C@@]([H])(C([H])([H])[H])C([H])([H])C([H])([H])[H])C(=O)N([H])[C@@]([H])(C([H])(C([H])([H])[H])C([H])([H])[H])C(=O)N2[H])c([H])c1[H]


 52 54  0  0  0  0  0  0  0  0999 V2000
   -2.7931   21.1554  -18.9848 C   0  0  0  0  0  0  0  0  0  0  0  0
   -2.4239   22.4489  -19.4589 N   0  0  0  0  0  0  0  0  0  0  0  0
   -2.2567   22.9471  -20.7531 C   0  0  0  0  0  0  0  0  0  0  0  0
   -1.3319   23.8278  -20.8931 O   0  0  0  0  0  0  0  0  0  0  0  0
   -2.9830   22.6123  -21.9758 C   0  0  0  0  0  0  0  0  0  0  0  0
   -2.9964   23.7221  -22.9431 N   0  0  0  0  0  0  0  0  0  0  0  0
   -4.0844   24.1744  -23.6818 C   0  0  0  0  0  0  0  0  0  0  0  0
   -4.0156   24.1352  -24.9678 O   0  0  0  0  0  0  0  0  0  0  0  0
   -5.3752   24.7214  -23.1735 C   0  0  0  0  0  0  0  0  0  0  0  0
   -5.2696   25.3363  -21.8759 N   0  0  0  0  0  0  0  0  0  0  0  0
   -6.1602   25.2879  -20.7953 C   0  0  0  0  0  0  0  0  0  0  0  0
   -6.7181   26.3780  -20.4140 O   0  0  0  0  0  0  0  0  0  0  0  0
   -6.5748   24.1164  -19.9835 C   0  0  0  0  0  0  0  0  0  0  0  0
   -6.2262   24.3546  -18.5754 N   0  0  0  0  0  0  0  0  0  0  0  0
   -5.6055   23.4619  -17.6834 C   0  0  0  0  0  0  0  0  0  0  0  0
   -4.5714   23.9662  -17.0948 O   0  0  0  0  0  0  0  0  0  0  0  0
   -5.9356   22.1064  -17.3294 C   0  0  0  0  0  0  0  0  0  0  0  0
   -5.1652   21.0112  -17.8439 N   0  0  0  0  0  0  0  0  0  0  0  0
   -4.2140   20.8474  -18.8402 C   0  0  0  0  0  0  0  0  0  0  0  0
   -4.7076   20.2745  -19.9129 O   0  0  0  0  0  0  0  0  0  0  0  0
   -2.2439   23.1583  -18.6770 H   0  0  0  0  0  0  0  0  0  0  0  0
   -2.0647   24.1904  -23.0732 H   0  0  0  0  0  0  0  0  0  0  0  0
   -4.3727   25.9093  -21.7391 H   0  0  0  0  0  0  0  0  0  0  0  0
   -6.4977   25.3370  -18.2523 H   0  0  0  0  0  0  0  0  0  0  0  0
   -5.4470   20.1001  -17.2990 H   0  0  0  0  0  0  0  0  0  0  0  0
   -6.0221   21.9940  -15.7883 C   0  0  0  0  0  0  0  0  0  0  0  0
   -5.6753   20.6263  -15.3197 C   0  0  0  0  0  0  0  0  0  0  0  0
   -7.4398   22.2990  -15.3638 C   0  0  0  0  0  0  0  0  0  0  0  0
   -1.9063   20.7222  -17.8273 C   0  0  0  0  0  0  0  0  0  0  0  0
   -1.5066   19.2544  -17.9457 C   0  0  0  0  0  0  0  0  0  0  0  0
    0.5091   20.7050  -18.1954 C   0  0  0  0  0  0  0  0  0  0  0  0
   -0.6690   21.5166  -17.6421 C   0  0  0  0  0  0  0  0  0  0  0  0
   -2.4189   21.4370  -22.7451 C   0  0  0  0  0  0  0  0  0  0  0  0
   -1.5550   21.8220  -23.8521 C   0  0  0  0  0  0  0  0  0  0  0  0
   -1.9886   21.8062  -25.1447 C   0  0  0  0  0  0  0  0  0  0  0  0
   -1.1578   22.1708  -26.1749 C   0  0  0  0  0  0  0  0  0  0  0  0
    0.1307   22.5597  -25.9183 C   0  0  0  0  0  0  0  0  0  0  0  0
    0.6064   22.5886  -24.6226 C   0  0  0  0  0  0  0  0  0  0  0  0
   -0.2624   22.2126  -23.6005 C   0  0  0  0  0  0  0  0  0  0  0  0
   -6.0189   25.6231  -24.1898 C   0  0  0  0  0  0  0  0  0  0  0  0
   -7.0244   25.0310  -25.1000 C   0  0  0  0  0  0  0  0  0  0  0  0
   -7.1276   23.5271  -25.0981 C   0  0  0  0  0  0  0  0  0  0  0  0
   -6.7235   25.4000  -26.5695 C   0  0  0  0  0  0  0  0  0  0  0  0
   -8.0603   23.8586  -19.9951 C   0  0  0  0  0  0  0  0  0  0  0  0
   -8.8498   24.8073  -20.7901 C   0  0  0  0  0  0  0  0  0  0  0  0
   -9.4598   25.9104  -20.1856 C   0  0  0  0  0  0  0  0  0  0  0  0
  -10.1829   26.8091  -20.9360 C   0  0  0  0  0  0  0  0  0  0  0  0
  -10.3293   26.6547  -22.2901 C   0  0  0  0  0  0  0  0  0  0  0  0
  -11.0633   27.5627  -23.0662 O   0  0  0  0  0  0  0  0  0  0  0  0
   -9.7333   25.5750  -22.8855 C   0  0  0  0  0  0  0  0  0  0  0  0
   -9.0001   24.6633  -22.1296 C   0  0  0  0  0  0  0  0  0  0  0  0
  -10.5829   28.3697  -23.4781 H   0  0  0  0  0  0  0  0  0  0  0  0
 31 32  1  0  0  0
 32 29  1  0  0  0
 29 30  1  0  0  0
 29  1  1  0  0  0
  1  2  1  0  0  0
  2  3  1  0  0  0
  3  4  2  0  0  0
  3  5  1  0  0  0
  5 33  1  0  0  0
 33 34  1  0  0  0
 34 35  2  0  0  0
 35 36  1  0  0  0
 36 37  2  0  0  0
 37 38  1  0  0  0
 38 39  2  0  0  0
  5  6  1  0  0  0
  6  7  1  0  0  0
  7  8  2  0  0  0
  7  9  1  0  0  0
  9 40  1  0  0  0
 40 41  1  0  0  0
 41 42  1  0  0  0
 41 43  1  0  0  0
  9 10  1  0  0  0
 10 11  1  0  0  0
 11 12  2  0  0  0
 11 13  1  0  0  0
 13 44  1  0  0  0
 44 45  1  0  0  0
 45 46  2  0  0  0
 46 47  1  0  0  0
 47 48  2  0  0  0
 48 49  1  0  0  0
 48 50  1  0  0  0
 50 51  2  0  0  0
 13 14  1  0  0  0
 14 15  1  0  0  0
 15 16  2  0  0  0
 15 17  1  0  0  0
 17 18  1  0  0  0
 18 19  1  0  0  0
 19 20  2  0  0  0
 17 26  1  0  0  0
 26 27  1  0  0  0
 26 28  1  0  0  0
 19  1  1  0  0  0
 39 34  1  0  0  0
 51 45  1  0  0  0
  2 21  1  0  0  0
  6 22  1  0  0  0
 10 23  1  0  0  0
 49 52  1  0  0  0
 14 24  1  0  0  0
 18 25  1  0  0  0
M  END
> <minimizedAffinity>
-8.80895

> <CNNscore>
0.2113882005

> <CNNaffinity>
6.4127149582

> <CNN_VS>
1.3555722237

> <CNNaffinity_variance>
0.8890396357

$$$$
[H]Oc1c([H])c([H])c(C([H])([H])[C@@]2([H])C(=O)N([H])[C@@]([H])(C([H])([H])C([H])(C([H])([H])[H])C([H])([H])[H])C(=O)N([H])[C@@]([H])(C([H])([H])c3c([H])c([H])c([H])c([H])c3[H])C(=O)N([H])[C@@]([H])([C@@]([H])(C([H])([H])[H])C([H])([H])C([H])([H])[H])C(=O)N([H])[C@@]([H])(C([H])(C([H])([H])[H])C([H])([H])[H])C(=O)N2[H])c([H])c1[H]


 52 54  0  0  0  0  0  0  0  0999 V2000
   -2.8086   21.5410  -15.2477 C   0  0  0  0  0  0  0  0  0  0  0  0
   -3.2132   20.1951  -15.0049 N   0  0  0  0  0  0  0  0  0  0  0  0
   -4.2482   19.6653  -14.2309 C   0  0  0  0  0  0  0  0  0  0  0  0
   -3.9949   18.5430  -13.6596 O   0  0  0  0  0  0  0  0  0  0  0  0
   -5.5827   20.2027  -13.9756 C   0  0  0  0  0  0  0  0  0  0  0  0
   -6.5675   19.1474  -13.6862 N   0  0  0  0  0  0  0  0  0  0  0  0
   -7.8596   19.0482  -14.1907 C   0  0  0  0  0  0  0  0  0  0  0  0
   -8.8472   19.0601  -13.3634 O   0  0  0  0  0  0  0  0  0  0  0  0
   -8.2814   18.9253  -15.6158 C   0  0  0  0  0  0  0  0  0  0  0  0
   -7.2891   18.3120  -16.4598 N   0  0  0  0  0  0  0  0  0  0  0  0
   -6.9168   18.6348  -17.7714 C   0  0  0  0  0  0  0  0  0  0  0  0
   -7.1228   17.7696  -18.6956 O   0  0  0  0  0  0  0  0  0  0  0  0
   -6.2886   19.8797  -18.2803 C   0  0  0  0  0  0  0  0  0  0  0  0
   -5.0019   19.5507  -18.9106 N   0  0  0  0  0  0  0  0  0  0  0  0
   -3.7723   20.2129  -18.7449 C   0  0  0  0  0  0  0  0  0  0  0  0
   -2.8036   19.4176  -18.4299 O   0  0  0  0  0  0  0  0  0  0  0  0
   -3.4310   21.6055  -18.8710 C   0  0  0  0  0  0  0  0  0  0  0  0
   -3.2107   22.4098  -17.7040 N   0  0  0  0  0  0  0  0  0  0  0  0
   -3.4426   22.2705  -16.3434 C   0  0  0  0  0  0  0  0  0  0  0  0
   -4.4816   22.9637  -15.9403 O   0  0  0  0  0  0  0  0  0  0  0  0
   -2.6102   19.4672  -15.5087 H   0  0  0  0  0  0  0  0  0  0  0  0
   -6.2280   18.4154  -13.0129 H   0  0  0  0  0  0  0  0  0  0  0  0
   -6.7737   17.4919  -15.9979 H   0  0  0  0  0  0  0  0  0  0  0  0
   -5.0730   18.7000  -19.5545 H   0  0  0  0  0  0  0  0  0  0  0  0
   -2.7684   23.3652  -18.0172 H   0  0  0  0  0  0  0  0  0  0  0  0
   -2.2211   21.7441  -19.8261 C   0  0  0  0  0  0  0  0  0  0  0  0
   -1.3778   22.9165  -19.4732 C   0  0  0  0  0  0  0  0  0  0  0  0
   -2.7394   21.9346  -21.2326 C   0  0  0  0  0  0  0  0  0  0  0  0
   -1.2974   21.6852  -15.1508 C   0  0  0  0  0  0  0  0  0  0  0  0
   -0.8025   21.4586  -13.7253 C   0  0  0  0  0  0  0  0  0  0  0  0
    0.6472   21.6181  -16.6287 C   0  0  0  0  0  0  0  0  0  0  0  0
   -0.5155   20.8028  -16.0489 C   0  0  0  0  0  0  0  0  0  0  0  0
   -5.6696   21.1457  -12.7947 C   0  0  0  0  0  0  0  0  0  0  0  0
   -6.1297   22.4820  -13.1450 C   0  0  0  0  0  0  0  0  0  0  0  0
   -7.2455   22.6853  -13.9017 C   0  0  0  0  0  0  0  0  0  0  0  0
   -7.6618   23.9533  -14.2231 C   0  0  0  0  0  0  0  0  0  0  0  0
   -6.9570   25.0434  -13.7848 C   0  0  0  0  0  0  0  0  0  0  0  0
   -5.8219   24.8781  -13.0165 C   0  0  0  0  0  0  0  0  0  0  0  0
   -5.4268   23.5783  -12.7083 C   0  0  0  0  0  0  0  0  0  0  0  0
   -9.6255   18.2612  -15.7273 C   0  0  0  0  0  0  0  0  0  0  0  0
   -9.6566   16.8021  -15.9731 C   0  0  0  0  0  0  0  0  0  0  0  0
  -10.2976   16.3526  -17.2613 C   0  0  0  0  0  0  0  0  0  0  0  0
  -10.4504   16.0730  -14.8666 C   0  0  0  0  0  0  0  0  0  0  0  0
   -7.0938   20.5807  -19.3448 C   0  0  0  0  0  0  0  0  0  0  0  0
   -6.7630   21.9973  -19.5429 C   0  0  0  0  0  0  0  0  0  0  0  0
   -6.3848   22.4725  -20.8020 C   0  0  0  0  0  0  0  0  0  0  0  0
   -6.0943   23.8044  -20.9894 C   0  0  0  0  0  0  0  0  0  0  0  0
   -6.1647   24.7032  -19.9571 C   0  0  0  0  0  0  0  0  0  0  0  0
   -5.8714   26.0627  -20.1344 O   0  0  0  0  0  0  0  0  0  0  0  0
   -6.5346   24.2411  -18.7221 C   0  0  0  0  0  0  0  0  0  0  0  0
   -6.8299   22.8938  -18.5282 C   0  0  0  0  0  0  0  0  0  0  0  0
   -6.6261   26.7063  -20.3947 H   0  0  0  0  0  0  0  0  0  0  0  0
 31 32  1  0  0  0
 32 29  1  0  0  0
 29 30  1  0  0  0
 29  1  1  0  0  0
  1  2  1  0  0  0
  2  3  1  0  0  0
  3  4  2  0  0  0
  3  5  1  0  0  0
  5 33  1  0  0  0
 33 34  1  0  0  0
 34 35  2  0  0  0
 35 36  1  0  0  0
 36 37  2  0  0  0
 37 38  1  0  0  0
 38 39  2  0  0  0
  5  6  1  0  0  0
  6  7  1  0  0  0
  7  8  2  0  0  0
  7  9  1  0  0  0
  9 40  1  0  0  0
 40 41  1  0  0  0
 41 42  1  0  0  0
 41 43  1  0  0  0
  9 10  1  0  0  0
 10 11  1  0  0  0
 11 12  2  0  0  0
 11 13  1  0  0  0
 13 44  1  0  0  0
 44 45  1  0  0  0
 45 46  2  0  0  0
 46 47  1  0  0  0
 47 48  2  0  0  0
 48 49  1  0  0  0
 48 50  1  0  0  0
 50 51  2  0  0  0
 13 14  1  0  0  0
 14 15  1  0  0  0
 15 16  2  0  0  0
 15 17  1  0  0  0
 17 18  1  0  0  0
 18 19  1  0  0  0
 19 20  2  0  0  0
 17 26  1  0  0  0
 26 27  1  0  0  0
 26 28  1  0  0  0
 19  1  1  0  0  0
 39 34  1  0  0  0
 51 45  1  0  0  0
  2 21  1  0  0  0
  6 22  1  0  0  0
 10 23  1  0  0  0
 49 52  1  0  0  0
 14 24  1  0  0  0
 18 25  1  0  0  0
M  END
> <minimizedAffinity>
-4.74954

> <CNNscore>
0.2031355202

> <CNNaffinity>
5.4889173508

> <CNN_VS>
1.1149940491

> <CNNaffinity_variance>
1.2223352194

$$$$
[H]Oc1c([H])c([H])c(C([H])([H])[C@@]2([H])C(=O)N([H])[C@@]([H])(C([H])([H])C([H])(C([H])([H])[H])C([H])([H])[H])C(=O)N([H])[C@@]([H])(C([H])([H])c3c([H])c([H])c([H])c([H])c3[H])C(=O)N([H])[C@@]([H])([C@@]([H])(C([H])([H])[H])C([H])([H])C([H])([H])[H])C(=O)N([H])[C@@]([H])(C([H])(C([H])([H])[H])C([H])([H])[H])C(=O)N2[H])c([H])c1[H]


 52 54  0  0  0  0  0  0  0  0999 V2000
   -2.5716   21.1484  -19.1003 C   0  0  0  0  0  0  0  0  0  0  0  0
   -2.2546   22.4466  -19.5984 N   0  0  0  0  0  0  0  0  0  0  0  0
   -2.2276   22.9579  -20.8980 C   0  0  0  0  0  0  0  0  0  0  0  0
   -1.3226   23.8401  -21.1282 O   0  0  0  0  0  0  0  0  0  0  0  0
   -3.0822   22.6355  -22.0384 C   0  0  0  0  0  0  0  0  0  0  0  0
   -3.1990   23.7551  -22.9872 N   0  0  0  0  0  0  0  0  0  0  0  0
   -4.3599   24.2147  -23.5995 C   0  0  0  0  0  0  0  0  0  0  0  0
   -4.4305   24.1886  -24.8857 O   0  0  0  0  0  0  0  0  0  0  0  0
   -5.5877   24.7564  -22.9491 C   0  0  0  0  0  0  0  0  0  0  0  0
   -5.3419   25.3581  -21.6644 N   0  0  0  0  0  0  0  0  0  0  0  0
   -6.1105   25.2987  -20.4944 C   0  0  0  0  0  0  0  0  0  0  0  0
   -6.6228   26.3848  -20.0440 O   0  0  0  0  0  0  0  0  0  0  0  0
   -6.4361   24.1190  -19.6544 C   0  0  0  0  0  0  0  0  0  0  0  0
   -5.9371   24.3429  -18.2899 N   0  0  0  0  0  0  0  0  0  0  0  0
   -5.2245   23.4412  -17.4793 C   0  0  0  0  0  0  0  0  0  0  0  0
   -4.1324   23.9397  -17.0008 O   0  0  0  0  0  0  0  0  0  0  0  0
   -5.5158   22.0822  -17.1054 C   0  0  0  0  0  0  0  0  0  0  0  0
   -4.8067   20.9923  -17.7112 N   0  0  0  0  0  0  0  0  0  0  0  0
   -3.9689   20.8388  -18.8060 C   0  0  0  0  0  0  0  0  0  0  0  0
   -4.5761   20.2767  -19.8248 O   0  0  0  0  0  0  0  0  0  0  0  0
   -1.9904   23.1481  -18.8334 H   0  0  0  0  0  0  0  0  0  0  0  0
   -2.2863   24.2248  -23.2125 H   0  0  0  0  0  0  0  0  0  0  0  0
   -4.4348   25.9298  -21.6195 H   0  0  0  0  0  0  0  0  0  0  0  0
   -6.1711   25.3220  -17.9294 H   0  0  0  0  0  0  0  0  0  0  0  0
   -5.0288   20.0758  -17.1482 H   0  0  0  0  0  0  0  0  0  0  0  0
   -5.4354   21.9541  -15.5651 C   0  0  0  0  0  0  0  0  0  0  0  0
   -5.4816   20.5328  -15.1318 C   0  0  0  0  0  0  0  0  0  0  0  0
   -6.6174   22.6762  -14.9613 C   0  0  0  0  0  0  0  0  0  0  0  0
   -1.5654   20.7035  -18.0498 C   0  0  0  0  0  0  0  0  0  0  0  0
   -0.2559   20.2459  -18.6855 C   0  0  0  0  0  0  0  0  0  0  0  0
   -1.7836   21.2118  -15.6699 C   0  0  0  0  0  0  0  0  0  0  0  0
   -1.2395   21.7120  -17.0139 C   0  0  0  0  0  0  0  0  0  0  0  0
   -2.6057   21.4682  -22.8759 C   0  0  0  0  0  0  0  0  0  0  0  0
   -1.6969   21.8489  -23.9479 C   0  0  0  0  0  0  0  0  0  0  0  0
   -0.3967   22.1812  -23.7072 C   0  0  0  0  0  0  0  0  0  0  0  0
    0.4440   22.5396  -24.7316 C   0  0  0  0  0  0  0  0  0  0  0  0
   -0.0140   22.5691  -26.0225 C   0  0  0  0  0  0  0  0  0  0  0  0
   -1.3243   22.2392  -26.3062 C   0  0  0  0  0  0  0  0  0  0  0  0
   -2.1509   21.8802  -25.2439 C   0  0  0  0  0  0  0  0  0  0  0  0
   -6.3365   25.6683  -23.8807 C   0  0  0  0  0  0  0  0  0  0  0  0
   -7.7573   25.3591  -24.1559 C   0  0  0  0  0  0  0  0  0  0  0  0
   -8.4867   24.5639  -23.1033 C   0  0  0  0  0  0  0  0  0  0  0  0
   -7.8999   24.5221  -25.4464 C   0  0  0  0  0  0  0  0  0  0  0  0
   -7.9144   23.8612  -19.5080 C   0  0  0  0  0  0  0  0  0  0  0  0
   -8.2652   22.5406  -18.9710 C   0  0  0  0  0  0  0  0  0  0  0  0
   -7.7962   21.3742  -19.5823 C   0  0  0  0  0  0  0  0  0  0  0  0
   -8.1101   20.1380  -19.0657 C   0  0  0  0  0  0  0  0  0  0  0  0
   -8.8870   20.0088  -17.9439 C   0  0  0  0  0  0  0  0  0  0  0  0
   -9.2142   18.7555  -17.4072 O   0  0  0  0  0  0  0  0  0  0  0  0
   -9.3484   21.1494  -17.3426 C   0  0  0  0  0  0  0  0  0  0  0  0
   -9.0326   22.4026  -17.8621 C   0  0  0  0  0  0  0  0  0  0  0  0
   -8.5963   18.3370  -16.7040 H   0  0  0  0  0  0  0  0  0  0  0  0
 31 32  1  0  0  0
 32 29  1  0  0  0
 29 30  1  0  0  0
 29  1  1  0  0  0
  1  2  1  0  0  0
  2  3  1  0  0  0
  3  4  2  0  0  0
  3  5  1  0  0  0
  5 33  1  0  0  0
 33 34  1  0  0  0
 34 35  2  0  0  0
 35 36  1  0  0  0
 36 37  2  0  0  0
 37 38  1  0  0  0
 38 39  2  0  0  0
  5  6  1  0  0  0
  6  7  1  0  0  0
  7  8  2  0  0  0
  7  9  1  0  0  0
  9 40  1  0  0  0
 40 41  1  0  0  0
 41 42  1  0  0  0
 41 43  1  0  0  0
  9 10  1  0  0  0
 10 11  1  0  0  0
 11 12  2  0  0  0
 11 13  1  0  0  0
 13 44  1  0  0  0
 44 45  1  0  0  0
 45 46  2  0  0  0
 46 47  1  0  0  0
 47 48  2  0  0  0
 48 49  1  0  0  0
 48 50  1  0  0  0
 50 51  2  0  0  0
 13 14  1  0  0  0
 14 15  1  0  0  0
 15 16  2  0  0  0
 15 17  1  0  0  0
 17 18  1  0  0  0
 18 19  1  0  0  0
 19 20  2  0  0  0
 17 26  1  0  0  0
 26 27  1  0  0  0
 26 28  1  0  0  0
 19  1  1  0  0  0
 39 34  1  0  0  0
 51 45  1  0  0  0
  2 21  1  0  0  0
  6 22  1  0  0  0
 10 23  1  0  0  0
 49 52  1  0  0  0
 14 24  1  0  0  0
 18 25  1  0  0  0
M  END
> <minimizedAffinity>
-8.11637

> <CNNscore>
0.1965179592

> <CNNaffinity>
6.2049312592

> <CNN_VS>
1.2193803787

> <CNNaffinity_variance>
0.9230387807

$$$$
[H]Oc1c([H])c([H])c(C([H])([H])[C@@]2([H])C(=O)N([H])[C@@]([H])(C([H])([H])C([H])(C([H])([H])[H])C([H])([H])[H])C(=O)N([H])[C@@]([H])(C([H])([H])c3c([H])c([H])c([H])c([H])c3[H])C(=O)N([H])[C@@]([H])([C@@]([H])(C([H])([H])[H])C([H])([H])C([H])([H])[H])C(=O)N([H])[C@@]([H])(C([H])(C([H])([H])[H])C([H])([H])[H])C(=O)N2[H])c([H])c1[H]


 52 54  0  0  0  0  0  0  0  0999 V2000
   -2.2664   22.8228  -25.5037 C   0  0  0  0  0  0  0  0  0  0  0  0
   -2.8134   24.1112  -25.2306 N   0  0  0  0  0  0  0  0  0  0  0  0
   -4.0512   24.6767  -25.5455 C   0  0  0  0  0  0  0  0  0  0  0  0
   -4.0375   25.9364  -25.7972 O   0  0  0  0  0  0  0  0  0  0  0  0
   -5.3648   24.0427  -25.6301 C   0  0  0  0  0  0  0  0  0  0  0  0
   -6.4620   24.9839  -25.3512 N   0  0  0  0  0  0  0  0  0  0  0  0
   -7.5771   24.7553  -24.5524 C   0  0  0  0  0  0  0  0  0  0  0  0
   -8.7458   24.8266  -25.0899 O   0  0  0  0  0  0  0  0  0  0  0  0
   -7.6123   24.4245  -23.0986 C   0  0  0  0  0  0  0  0  0  0  0  0
   -6.4765   24.9216  -22.3667 N   0  0  0  0  0  0  0  0  0  0  0  0
   -5.7473   24.3117  -21.3373 C   0  0  0  0  0  0  0  0  0  0  0  0
   -5.7598   24.8543  -20.1753 O   0  0  0  0  0  0  0  0  0  0  0  0
   -4.9214   23.0793  -21.3866 C   0  0  0  0  0  0  0  0  0  0  0  0
   -3.5396   23.4063  -21.0063 N   0  0  0  0  0  0  0  0  0  0  0  0
   -2.3554   22.9980  -21.6457 C   0  0  0  0  0  0  0  0  0  0  0  0
   -1.5630   23.9798  -21.9258 O   0  0  0  0  0  0  0  0  0  0  0  0
   -1.8969   21.6877  -22.0259 C   0  0  0  0  0  0  0  0  0  0  0  0
   -1.9395   21.2710  -23.3978 N   0  0  0  0  0  0  0  0  0  0  0  0
   -2.5339   21.7397  -24.5602 C   0  0  0  0  0  0  0  0  0  0  0  0
   -3.5920   21.0401  -24.8974 O   0  0  0  0  0  0  0  0  0  0  0  0
   -2.1503   24.7538  -24.6878 H   0  0  0  0  0  0  0  0  0  0  0  0
   -6.3654   25.9122  -25.8343 H   0  0  0  0  0  0  0  0  0  0  0  0
   -6.1606   25.9016  -22.6690 H   0  0  0  0  0  0  0  0  0  0  0  0
   -3.4958   24.0306  -20.1394 H   0  0  0  0  0  0  0  0  0  0  0  0
   -1.3646   20.3405  -23.4977 H   0  0  0  0  0  0  0  0  0  0  0  0
   -0.4700   21.4705  -21.4674 C   0  0  0  0  0  0  0  0  0  0  0  0
    0.1078   20.1813  -21.9306 C   0  0  0  0  0  0  0  0  0  0  0  0
   -0.5441   21.4458  -19.9584 C   0  0  0  0  0  0  0  0  0  0  0  0
   -0.8291   22.9293  -25.9903 C   0  0  0  0  0  0  0  0  0  0  0  0
    0.1636   22.5541  -24.8940 C   0  0  0  0  0  0  0  0  0  0  0  0
   -0.1050   23.0885  -28.3185 C   0  0  0  0  0  0  0  0  0  0  0  0
   -0.5034   22.1262  -27.1926 C   0  0  0  0  0  0  0  0  0  0  0  0
   -5.6969   23.4536  -26.9844 C   0  0  0  0  0  0  0  0  0  0  0  0
   -5.1339   24.1990  -28.1013 C   0  0  0  0  0  0  0  0  0  0  0  0
   -3.9047   23.9095  -28.6152 C   0  0  0  0  0  0  0  0  0  0  0  0
   -3.3905   24.6257  -29.6674 C   0  0  0  0  0  0  0  0  0  0  0  0
   -4.1102   25.6510  -30.2223 C   0  0  0  0  0  0  0  0  0  0  0  0
   -5.3587   25.9743  -29.7294 C   0  0  0  0  0  0  0  0  0  0  0  0
   -5.8513   25.2280  -28.6612 C   0  0  0  0  0  0  0  0  0  0  0  0
   -8.9211   24.8328  -22.4820 C   0  0  0  0  0  0  0  0  0  0  0  0
   -8.9417   26.0594  -21.6543 C   0  0  0  0  0  0  0  0  0  0  0  0
   -8.9727   25.8601  -20.1604 C   0  0  0  0  0  0  0  0  0  0  0  0
  -10.1937   26.9109  -21.9607 C   0  0  0  0  0  0  0  0  0  0  0  0
   -5.3639   22.0072  -20.4232 C   0  0  0  0  0  0  0  0  0  0  0  0
   -6.7770   22.0695  -20.0297 C   0  0  0  0  0  0  0  0  0  0  0  0
   -7.1428   22.4919  -18.7483 C   0  0  0  0  0  0  0  0  0  0  0  0
   -8.4687   22.5683  -18.3882 C   0  0  0  0  0  0  0  0  0  0  0  0
   -9.4677   22.2353  -19.2655 C   0  0  0  0  0  0  0  0  0  0  0  0
  -10.8223   22.3086  -18.9115 O   0  0  0  0  0  0  0  0  0  0  0  0
   -9.1129   21.8208  -20.5216 C   0  0  0  0  0  0  0  0  0  0  0  0
   -7.7720   21.7425  -20.8903 C   0  0  0  0  0  0  0  0  0  0  0  0
  -11.3341   23.1822  -19.0739 H   0  0  0  0  0  0  0  0  0  0  0  0
 31 32  1  0  0  0
 32 29  1  0  0  0
 29 30  1  0  0  0
 29  1  1  0  0  0
  1  2  1  0  0  0
  2  3  1  0  0  0
  3  4  2  0  0  0
  3  5  1  0  0  0
  5 33  1  0  0  0
 33 34  1  0  0  0
 34 35  2  0  0  0
 35 36  1  0  0  0
 36 37  2  0  0  0
 37 38  1  0  0  0
 38 39  2  0  0  0
  5  6  1  0  0  0
  6  7  1  0  0  0
  7  8  2  0  0  0
  7  9  1  0  0  0
  9 40  1  0  0  0
 40 41  1  0  0  0
 41 42  1  0  0  0
 41 43  1  0  0  0
  9 10  1  0  0  0
 10 11  1  0  0  0
 11 12  2  0  0  0
 11 13  1  0  0  0
 13 44  1  0  0  0
 44 45  1  0  0  0
 45 46  2  0  0  0
 46 47  1  0  0  0
 47 48  2  0  0  0
 48 49  1  0  0  0
 48 50  1  0  0  0
 50 51  2  0  0  0
 13 14  1  0  0  0
 14 15  1  0  0  0
 15 16  2  0  0  0
 15 17  1  0  0  0
 17 18  1  0  0  0
 18 19  1  0  0  0
 19 20  2  0  0  0
 17 26  1  0  0  0
 26 27  1  0  0  0
 26 28  1  0  0  0
 19  1  1  0  0  0
 39 34  1  0  0  0
 51 45  1  0  0  0
  2 21  1  0  0  0
  6 22  1  0  0  0
 10 23  1  0  0  0
 49 52  1  0  0  0
 14 24  1  0  0  0
 18 25  1  0  0  0
M  END
> <minimizedAffinity>
-9.78833

> <CNNscore>
0.1457478553

> <CNNaffinity>
6.6521635056

> <CNN_VS>
0.9695385695

> <CNNaffinity_variance>
1.1617500782

$$$$
[H]c1nc(N([H])[H])c(C(=O)N([H])c2nc([H])c([H])c([H])c2N2C([H])([H])C([H])([H])C(N([H])[H])(C([H])([H])[H])C([H])([H])C2([H])[H])nc1-c1nc(N2C([H])([H])C([H])([H])OC([H])([H])C2([H])[H])nc([H])c1C(F)(F)F


 45 49  0  0  0  0  0  0  0  0999 V2000
   -2.6349   21.6710  -24.7499 C   0  0  0  0  0  0  0  0  0  0  0  0
   -1.9447   21.4114  -23.6631 N   0  0  0  0  0  0  0  0  0  0  0  0
   -0.5833   21.5086  -23.5332 C   0  0  0  0  0  0  0  0  0  0  0  0
    0.0516   21.9064  -24.6509 C   0  0  0  0  0  0  0  0  0  0  0  0
   -0.6383   22.1879  -25.8061 N   0  0  0  0  0  0  0  0  0  0  0  0
   -1.9485   22.0910  -25.9075 C   0  0  0  0  0  0  0  0  0  0  0  0
   -2.6465   22.3846  -27.1260 N   0  0  0  0  0  0  0  0  0  0  0  0
   -2.7659   23.3682  -27.4045 H   0  0  0  0  0  0  0  0  0  0  0  0
   -3.0341   21.6397  -27.7379 H   0  0  0  0  0  0  0  0  0  0  0  0
   -0.0482   21.2837  -22.1812 C   0  0  0  0  0  0  0  0  0  0  0  0
   -0.9790   21.3775  -21.1574 N   0  0  0  0  0  0  0  0  0  0  0  0
   -0.6977   21.1735  -19.8897 C   0  0  0  0  0  0  0  0  0  0  0  0
    0.5669   20.8436  -19.4980 N   0  0  0  0  0  0  0  0  0  0  0  0
    1.4719   20.7472  -20.4535 C   0  0  0  0  0  0  0  0  0  0  0  0
    1.2109   20.9628  -21.8274 C   0  0  0  0  0  0  0  0  0  0  0  0
   -1.6252   21.3269  -18.8304 N   0  0  0  0  0  0  0  0  0  0  0  0
   -2.7659   20.4034  -18.6960 C   0  0  0  0  0  0  0  0  0  0  0  0
   -3.7561   21.1065  -17.8093 C   0  0  0  0  0  0  0  0  0  0  0  0
   -3.2611   21.4160  -16.5599 O   0  0  0  0  0  0  0  0  0  0  0  0
   -1.9153   21.6709  -16.5046 C   0  0  0  0  0  0  0  0  0  0  0  0
   -1.5274   22.3338  -17.8228 C   0  0  0  0  0  0  0  0  0  0  0  0
    2.3514   20.8810  -22.7333 C   0  0  0  0  0  0  0  0  0  0  0  0
    2.4457   21.8514  -23.6809 F   0  0  0  0  0  0  0  0  0  0  0  0
    2.6773   19.5798  -23.1381 F   0  0  0  0  0  0  0  0  0  0  0  0
    3.5027   21.1673  -21.9328 F   0  0  0  0  0  0  0  0  0  0  0  0
   -5.0286   22.6311  -25.0955 N   0  0  0  0  0  0  0  0  0  0  0  0
   -4.0583   21.6738  -24.7828 C   0  0  0  0  0  0  0  0  0  0  0  0
   -4.5768   20.4918  -24.4317 O   0  0  0  0  0  0  0  0  0  0  0  0
   -6.0528   22.2751  -25.0483 H   0  0  0  0  0  0  0  0  0  0  0  0
   -4.9652   24.8369  -24.1477 C   0  0  0  0  0  0  0  0  0  0  0  0
   -4.7065   26.2053  -24.3284 C   0  0  0  0  0  0  0  0  0  0  0  0
   -4.3957   26.7494  -25.5507 C   0  0  0  0  0  0  0  0  0  0  0  0
   -4.3508   25.8738  -26.6124 C   0  0  0  0  0  0  0  0  0  0  0  0
   -4.5918   24.5748  -26.4721 N   0  0  0  0  0  0  0  0  0  0  0  0
   -4.8999   24.0257  -25.2533 C   0  0  0  0  0  0  0  0  0  0  0  0
   -6.7554   21.8189  -19.7766 C   0  0  0  0  0  0  0  0  0  0  0  0
   -6.2724   23.0120  -20.5283 C   0  0  0  0  0  0  0  0  0  0  0  0
   -6.3620   24.1901  -19.6895 N   0  0  0  0  0  0  0  0  0  0  0  0
   -4.8771   22.7850  -21.0110 C   0  0  0  0  0  0  0  0  0  0  0  0
   -4.3207   23.8712  -21.8844 C   0  0  0  0  0  0  0  0  0  0  0  0
   -5.2620   24.3449  -22.8493 N   0  0  0  0  0  0  0  0  0  0  0  0
   -6.6684   24.3575  -22.4967 C   0  0  0  0  0  0  0  0  0  0  0  0
   -7.1340   23.1303  -21.7792 C   0  0  0  0  0  0  0  0  0  0  0  0
   -6.4593   23.8724  -18.6777 H   0  0  0  0  0  0  0  0  0  0  0  0
   -7.2221   24.7512  -19.9439 H   0  0  0  0  0  0  0  0  0  0  0  0
 36 37  1  0  0  0
 37 38  1  0  0  0
 37 39  1  0  0  0
 39 40  1  0  0  0
 40 41  1  0  0  0
 41 42  1  0  0  0
 42 43  1  0  0  0
 41 30  1  0  0  0
 30 31  2  0  0  0
 31 32  1  0  0  0
 32 33  2  0  0  0
 33 34  1  0  0  0
 34 35  2  0  0  0
 35 26  1  0  0  0
 26 27  1  0  0  0
 27 28  2  0  0  0
 27  1  1  0  0  0
  1  2  2  0  0  0
  2  3  1  0  0  0
  3  4  2  0  0  0
  4  5  1  0  0  0
  5  6  2  0  0  0
  6  7  1  0  0  0
  3 10  1  0  0  0
 10 11  2  0  0  0
 11 12  1  0  0  0
 12 13  2  0  0  0
 13 14  1  0  0  0
 14 15  2  0  0  0
 15 22  1  0  0  0
 22 23  1  0  0  0
 22 24  1  0  0  0
 22 25  1  0  0  0
 12 16  1  0  0  0
 16 17  1  0  0  0
 17 18  1  0  0  0
 18 19  1  0  0  0
 19 20  1  0  0  0
 20 21  1  0  0  0
 43 37  1  0  0  0
 35 30  1  0  0  0
  6  1  1  0  0  0
 15 10  1  0  0  0
 21 16  1  0  0  0
 38 44  1  0  0  0
 38 45  1  0  0  0
 26 29  1  0  0  0
  7  8  1  0  0  0
  7  9  1  0  0  0
M  END
> <minimizedAffinity>
-8.20492

> <CNNscore>
0.1578657329

> <CNNaffinity>
7.0324239731

> <CNN_VS>
1.1101787090

> <CNNaffinity_variance>
0.1852314472

$$$$
[H]c1nc(N([H])[H])c(C(=O)N([H])c2nc([H])c([H])c([H])c2N2C([H])([H])C([H])([H])C(N([H])[H])(C([H])([H])[H])C([H])([H])C2([H])[H])nc1-c1nc(N2C([H])([H])C([H])([H])OC([H])([H])C2([H])[H])nc([H])c1C(F)(F)F


 45 49  0  0  0  0  0  0  0  0999 V2000
   -5.9840   24.7113  -24.7479 C   0  0  0  0  0  0  0  0  0  0  0  0
   -4.8150   24.1645  -24.9915 N   0  0  0  0  0  0  0  0  0  0  0  0
   -4.5226   23.3233  -26.0338 C   0  0  0  0  0  0  0  0  0  0  0  0
   -5.5642   23.0669  -26.8461 C   0  0  0  0  0  0  0  0  0  0  0  0
   -6.8016   23.6225  -26.6227 N   0  0  0  0  0  0  0  0  0  0  0  0
   -7.0595   24.4320  -25.6156 C   0  0  0  0  0  0  0  0  0  0  0  0
   -8.3611   24.9954  -25.3991 N   0  0  0  0  0  0  0  0  0  0  0  0
   -8.6768   25.7627  -26.0081 H   0  0  0  0  0  0  0  0  0  0  0  0
   -8.9966   24.6551  -24.6509 H   0  0  0  0  0  0  0  0  0  0  0  0
   -3.1101   22.9342  -26.1700 C   0  0  0  0  0  0  0  0  0  0  0  0
   -2.5015   22.5105  -24.9982 N   0  0  0  0  0  0  0  0  0  0  0  0
   -1.2579   22.0903  -24.9282 C   0  0  0  0  0  0  0  0  0  0  0  0
   -0.4719   22.0426  -26.0424 N   0  0  0  0  0  0  0  0  0  0  0  0
   -1.0277   22.4399  -27.1713 C   0  0  0  0  0  0  0  0  0  0  0  0
   -2.3599   22.9027  -27.2878 C   0  0  0  0  0  0  0  0  0  0  0  0
   -0.6076   21.7142  -23.7277 N   0  0  0  0  0  0  0  0  0  0  0  0
    0.8597   21.7958  -23.6150 C   0  0  0  0  0  0  0  0  0  0  0  0
    1.2280   20.9149  -22.4534 C   0  0  0  0  0  0  0  0  0  0  0  0
    0.6501   21.2971  -21.2611 O   0  0  0  0  0  0  0  0  0  0  0  0
   -0.5771   21.8991  -21.3661 C   0  0  0  0  0  0  0  0  0  0  0  0
   -1.2899   21.2650  -22.5566 C   0  0  0  0  0  0  0  0  0  0  0  0
   -2.7809   23.3674  -28.6050 C   0  0  0  0  0  0  0  0  0  0  0  0
   -3.2725   24.6331  -28.6743 F   0  0  0  0  0  0  0  0  0  0  0  0
   -3.4363   22.4002  -29.3782 F   0  0  0  0  0  0  0  0  0  0  0  0
   -1.5793   23.4981  -29.3714 F   0  0  0  0  0  0  0  0  0  0  0  0
   -5.9664   25.7030  -22.3423 N   0  0  0  0  0  0  0  0  0  0  0  0
   -6.1902   25.6772  -23.7225 C   0  0  0  0  0  0  0  0  0  0  0  0
   -6.7202   26.8119  -24.1926 O   0  0  0  0  0  0  0  0  0  0  0  0
   -6.2142   26.6418  -21.8572 H   0  0  0  0  0  0  0  0  0  0  0  0
   -6.6839   24.0992  -20.7050 C   0  0  0  0  0  0  0  0  0  0  0  0
   -6.3797   22.9673  -19.9315 C   0  0  0  0  0  0  0  0  0  0  0  0
   -5.1297   22.3988  -19.9029 C   0  0  0  0  0  0  0  0  0  0  0  0
   -4.1687   23.0036  -20.6818 C   0  0  0  0  0  0  0  0  0  0  0  0
   -4.4268   24.0757  -21.4230 N   0  0  0  0  0  0  0  0  0  0  0  0
   -5.6741   24.6457  -21.4573 C   0  0  0  0  0  0  0  0  0  0  0  0
  -11.2843   27.2134  -21.4523 C   0  0  0  0  0  0  0  0  0  0  0  0
  -10.3917   26.1908  -20.8364 C   0  0  0  0  0  0  0  0  0  0  0  0
  -10.9856   25.6944  -19.6115 N   0  0  0  0  0  0  0  0  0  0  0  0
  -10.1289   25.0864  -21.8073 C   0  0  0  0  0  0  0  0  0  0  0  0
   -9.1456   24.0516  -21.3440 C   0  0  0  0  0  0  0  0  0  0  0  0
   -8.0052   24.6193  -20.6972 N   0  0  0  0  0  0  0  0  0  0  0  0
   -8.1786   25.8380  -19.9310 C   0  0  0  0  0  0  0  0  0  0  0  0
   -9.0461   26.8621  -20.5916 C   0  0  0  0  0  0  0  0  0  0  0  0
  -12.0193   25.9508  -19.6143 H   0  0  0  0  0  0  0  0  0  0  0  0
  -10.5325   26.1581  -18.7754 H   0  0  0  0  0  0  0  0  0  0  0  0
 36 37  1  0  0  0
 37 38  1  0  0  0
 37 39  1  0  0  0
 39 40  1  0  0  0
 40 41  1  0  0  0
 41 42  1  0  0  0
 42 43  1  0  0  0
 41 30  1  0  0  0
 30 31  2  0  0  0
 31 32  1  0  0  0
 32 33  2  0  0  0
 33 34  1  0  0  0
 34 35  2  0  0  0
 35 26  1  0  0  0
 26 27  1  0  0  0
 27 28  2  0  0  0
 27  1  1  0  0  0
  1  2  2  0  0  0
  2  3  1  0  0  0
  3  4  2  0  0  0
  4  5  1  0  0  0
  5  6  2  0  0  0
  6  7  1  0  0  0
  3 10  1  0  0  0
 10 11  2  0  0  0
 11 12  1  0  0  0
 12 13  2  0  0  0
 13 14  1  0  0  0
 14 15  2  0  0  0
 15 22  1  0  0  0
 22 23  1  0  0  0
 22 24  1  0  0  0
 22 25  1  0  0  0
 12 16  1  0  0  0
 16 17  1  0  0  0
 17 18  1  0  0  0
 18 19  1  0  0  0
 19 20  1  0  0  0
 20 21  1  0  0  0
 43 37  1  0  0  0
 35 30  1  0  0  0
  6  1  1  0  0  0
 15 10  1  0  0  0
 21 16  1  0  0  0
 38 44  1  0  0  0
 38 45  1  0  0  0
 26 29  1  0  0  0
  7  8  1  0  0  0
  7  9  1  0  0  0
M  END
> <minimizedAffinity>
-10.30300

> <CNNscore>
0.1299012303

> <CNNaffinity>
6.9237403870

> <CNN_VS>
0.8994023800

> <CNNaffinity_variance>
0.2377962172

$$$$
[H]c1nc(N([H])[H])c(C(=O)N([H])c2nc([H])c([H])c([H])c2N2C([H])([H])C([H])([H])C(N([H])[H])(C([H])([H])[H])C([H])([H])C2([H])[H])nc1-c1nc(N2C([H])([H])C([H])([H])OC([H])([H])C2([H])[H])nc([H])c1C(F)(F)F


 45 49  0  0  0  0  0  0  0  0999 V2000
   -2.7316   21.5978  -24.3288 C   0  0  0  0  0  0  0  0  0  0  0  0
   -2.2081   21.2463  -23.1767 N   0  0  0  0  0  0  0  0  0  0  0  0
   -0.8872   21.3571  -22.8268 C   0  0  0  0  0  0  0  0  0  0  0  0
   -0.1021   21.8754  -23.7890 C   0  0  0  0  0  0  0  0  0  0  0  0
   -0.6155   22.2555  -25.0062 N   0  0  0  0  0  0  0  0  0  0  0  0
   -1.8903   22.1431  -25.3201 C   0  0  0  0  0  0  0  0  0  0  0  0
   -2.4023   22.5412  -26.5997 N   0  0  0  0  0  0  0  0  0  0  0  0
   -2.5116   23.5449  -26.7997 H   0  0  0  0  0  0  0  0  0  0  0  0
   -2.6650   21.8526  -27.3320 H   0  0  0  0  0  0  0  0  0  0  0  0
   -0.5589   21.0110  -21.4349 C   0  0  0  0  0  0  0  0  0  0  0  0
   -0.0839   19.7219  -21.2460 N   0  0  0  0  0  0  0  0  0  0  0  0
    0.2945   19.2431  -20.0818 C   0  0  0  0  0  0  0  0  0  0  0  0
    0.2427   20.0147  -18.9578 N   0  0  0  0  0  0  0  0  0  0  0  0
   -0.2051   21.2465  -19.1105 C   0  0  0  0  0  0  0  0  0  0  0  0
   -0.6257   21.7978  -20.3440 C   0  0  0  0  0  0  0  0  0  0  0  0
    0.7224   17.9103  -19.8666 N   0  0  0  0  0  0  0  0  0  0  0  0
    1.9503   17.6340  -19.0997 C   0  0  0  0  0  0  0  0  0  0  0  0
    2.3463   16.2285  -19.4585 C   0  0  0  0  0  0  0  0  0  0  0  0
    1.3873   15.2858  -19.1525 O   0  0  0  0  0  0  0  0  0  0  0  0
    0.0892   15.7222  -19.2161 C   0  0  0  0  0  0  0  0  0  0  0  0
    0.0165   16.7598  -20.3321 C   0  0  0  0  0  0  0  0  0  0  0  0
   -1.1577   23.1557  -20.3092 C   0  0  0  0  0  0  0  0  0  0  0  0
   -1.4844   23.7112  -21.5063 F   0  0  0  0  0  0  0  0  0  0  0  0
   -0.5341   23.9983  -19.3796 F   0  0  0  0  0  0  0  0  0  0  0  0
   -2.4463   23.0508  -19.6953 F   0  0  0  0  0  0  0  0  0  0  0  0
   -5.0687   22.5316  -24.9897 N   0  0  0  0  0  0  0  0  0  0  0  0
   -4.1321   21.5757  -24.5837 C   0  0  0  0  0  0  0  0  0  0  0  0
   -4.6655   20.3652  -24.3852 O   0  0  0  0  0  0  0  0  0  0  0  0
   -6.0775   22.1541  -25.1234 H   0  0  0  0  0  0  0  0  0  0  0  0
   -5.1971   24.6761  -23.9162 C   0  0  0  0  0  0  0  0  0  0  0  0
   -4.9520   26.0574  -23.9789 C   0  0  0  0  0  0  0  0  0  0  0  0
   -4.4878   26.6808  -25.1114 C   0  0  0  0  0  0  0  0  0  0  0  0
   -4.2715   25.8727  -26.2050 C   0  0  0  0  0  0  0  0  0  0  0  0
   -4.4953   24.5634  -26.1758 N   0  0  0  0  0  0  0  0  0  0  0  0
   -4.9562   23.9353  -25.0467 C   0  0  0  0  0  0  0  0  0  0  0  0
   -7.3872   21.3067  -20.0085 C   0  0  0  0  0  0  0  0  0  0  0  0
   -6.9090   22.5734  -20.6318 C   0  0  0  0  0  0  0  0  0  0  0  0
   -7.2630   23.6988  -19.7905 N   0  0  0  0  0  0  0  0  0  0  0  0
   -5.4356   22.5055  -20.8685 C   0  0  0  0  0  0  0  0  0  0  0  0
   -4.8536   23.6785  -21.6017 C   0  0  0  0  0  0  0  0  0  0  0  0
   -5.6595   24.1003  -22.7034 N   0  0  0  0  0  0  0  0  0  0  0  0
   -7.0990   23.9599  -22.6025 C   0  0  0  0  0  0  0  0  0  0  0  0
   -7.5508   22.6624  -22.0107 C   0  0  0  0  0  0  0  0  0  0  0  0
   -7.4989   23.3285  -18.8202 H   0  0  0  0  0  0  0  0  0  0  0  0
   -8.1203   24.1839  -20.1765 H   0  0  0  0  0  0  0  0  0  0  0  0
 36 37  1  0  0  0
 37 38  1  0  0  0
 37 39  1  0  0  0
 39 40  1  0  0  0
 40 41  1  0  0  0
 41 42  1  0  0  0
 42 43  1  0  0  0
 41 30  1  0  0  0
 30 31  2  0  0  0
 31 32  1  0  0  0
 32 33  2  0  0  0
 33 34  1  0  0  0
 34 35  2  0  0  0
 35 26  1  0  0  0
 26 27  1  0  0  0
 27 28  2  0  0  0
 27  1  1  0  0  0
  1  2  2  0  0  0
  2  3  1  0  0  0
  3  4  2  0  0  0
  4  5  1  0  0  0
  5  6  2  0  0  0
  6  7  1  0  0  0
  3 10  1  0  0  0
 10 11  2  0  0  0
 11 12  1  0  0  0
 12 13  2  0  0  0
 13 14  1  0  0  0
 14 15  2  0  0  0
 15 22  1  0  0  0
 22 23  1  0  0  0
 22 24  1  0  0  0
 22 25  1  0  0  0
 12 16  1  0  0  0
 16 17  1  0  0  0
 17 18  1  0  0  0
 18 19  1  0  0  0
 19 20  1  0  0  0
 20 21  1  0  0  0
 43 37  1  0  0  0
 35 30  1  0  0  0
  6  1  1  0  0  0
 15 10  1  0  0  0
 21 16  1  0  0  0
 38 44  1  0  0  0
 38 45  1  0  0  0
 26 29  1  0  0  0
  7  8  1  0  0  0
  7  9  1  0  0  0
M  END
> <minimizedAffinity>
-8.14592

> <CNNscore>
0.1203843132

> <CNNaffinity>
6.9629325867

> <CNN_VS>
0.8382278681

> <CNNaffinity_variance>
0.0690555647

$$$$
[H]c1nc(N([H])[H])c(C(=O)N([H])c2nc([H])c([H])c([H])c2N2C([H])([H])C([H])([H])C(N([H])[H])(C([H])([H])[H])C([H])([H])C2([H])[H])nc1-c1nc(N2C([H])([H])C([H])([H])OC([H])([H])C2([H])[H])nc([H])c1C(F)(F)F


 45 49  0  0  0  0  0  0  0  0999 V2000
   -6.5063   22.6875  -22.0043 C   0  0  0  0  0  0  0  0  0  0  0  0
   -5.3363   22.4099  -22.5323 N   0  0  0  0  0  0  0  0  0  0  0  0
   -4.5663   23.2667  -23.2757 C   0  0  0  0  0  0  0  0  0  0  0  0
   -5.1080   24.4859  -23.4511 C   0  0  0  0  0  0  0  0  0  0  0  0
   -6.3298   24.8120  -22.9122 N   0  0  0  0  0  0  0  0  0  0  0  0
   -7.0519   23.9731  -22.1973 C   0  0  0  0  0  0  0  0  0  0  0  0
   -8.3278   24.3343  -21.6497 N   0  0  0  0  0  0  0  0  0  0  0  0
   -8.3574   24.9535  -20.8281 H   0  0  0  0  0  0  0  0  0  0  0  0
   -9.2225   23.9946  -22.0540 H   0  0  0  0  0  0  0  0  0  0  0  0
   -3.2354   22.7689  -23.6577 C   0  0  0  0  0  0  0  0  0  0  0  0
   -2.4168   22.4067  -22.5986 N   0  0  0  0  0  0  0  0  0  0  0  0
   -1.2093   21.9078  -22.7423 C   0  0  0  0  0  0  0  0  0  0  0  0
   -0.6779   21.7085  -23.9830 N   0  0  0  0  0  0  0  0  0  0  0  0
   -1.4372   22.0443  -25.0086 C   0  0  0  0  0  0  0  0  0  0  0  0
   -2.7389   22.5877  -24.8964 C   0  0  0  0  0  0  0  0  0  0  0  0
   -0.3416   21.5925  -21.6683 N   0  0  0  0  0  0  0  0  0  0  0  0
   -0.6395   22.0630  -20.3038 C   0  0  0  0  0  0  0  0  0  0  0  0
    0.6578   21.9698  -19.5491 C   0  0  0  0  0  0  0  0  0  0  0  0
    1.1790   20.6942  -19.4956 O   0  0  0  0  0  0  0  0  0  0  0  0
    0.8976   19.8958  -20.5740 C   0  0  0  0  0  0  0  0  0  0  0  0
    0.8387   20.8000  -21.8013 C   0  0  0  0  0  0  0  0  0  0  0  0
   -3.4027   22.9648  -26.1395 C   0  0  0  0  0  0  0  0  0  0  0  0
   -3.3686   24.2829  -26.4710 F   0  0  0  0  0  0  0  0  0  0  0  0
   -4.6078   22.2919  -26.3797 F   0  0  0  0  0  0  0  0  0  0  0  0
   -2.6107   22.3982  -27.1883 F   0  0  0  0  0  0  0  0  0  0  0  0
   -7.0839   21.4634  -19.7820 N   0  0  0  0  0  0  0  0  0  0  0  0
   -7.1969   21.7955  -21.1357 C   0  0  0  0  0  0  0  0  0  0  0  0
   -8.1696   21.1259  -21.7641 O   0  0  0  0  0  0  0  0  0  0  0  0
   -7.8169   20.7469  -19.4251 H   0  0  0  0  0  0  0  0  0  0  0  0
   -6.2185   21.4371  -17.5419 C   0  0  0  0  0  0  0  0  0  0  0  0
   -5.1197   21.6164  -16.6859 C   0  0  0  0  0  0  0  0  0  0  0  0
   -3.9035   22.0818  -17.1228 C   0  0  0  0  0  0  0  0  0  0  0  0
   -3.8102   22.3722  -18.4655 C   0  0  0  0  0  0  0  0  0  0  0  0
   -4.8327   22.2135  -19.2990 N   0  0  0  0  0  0  0  0  0  0  0  0
   -6.0486   21.7465  -18.8685 C   0  0  0  0  0  0  0  0  0  0  0  0
  -11.5758   20.0161  -16.7055 C   0  0  0  0  0  0  0  0  0  0  0  0
  -10.1533   20.3064  -16.3680 C   0  0  0  0  0  0  0  0  0  0  0  0
   -9.9835   20.3225  -14.9290 N   0  0  0  0  0  0  0  0  0  0  0  0
   -9.2563   19.3033  -17.0166 C   0  0  0  0  0  0  0  0  0  0  0  0
   -7.7872   19.5591  -16.8472 C   0  0  0  0  0  0  0  0  0  0  0  0
   -7.4393   20.9341  -17.0197 N   0  0  0  0  0  0  0  0  0  0  0  0
   -8.3951   21.9464  -16.6148 C   0  0  0  0  0  0  0  0  0  0  0  0
   -9.8088   21.6481  -17.0023 C   0  0  0  0  0  0  0  0  0  0  0  0
  -10.8232   19.8374  -14.4888 H   0  0  0  0  0  0  0  0  0  0  0  0
   -9.9573   21.3204  -14.5786 H   0  0  0  0  0  0  0  0  0  0  0  0
 36 37  1  0  0  0
 37 38  1  0  0  0
 37 39  1  0  0  0
 39 40  1  0  0  0
 40 41  1  0  0  0
 41 42  1  0  0  0
 42 43  1  0  0  0
 41 30  1  0  0  0
 30 31  2  0  0  0
 31 32  1  0  0  0
 32 33  2  0  0  0
 33 34  1  0  0  0
 34 35  2  0  0  0
 35 26  1  0  0  0
 26 27  1  0  0  0
 27 28  2  0  0  0
 27  1  1  0  0  0
  1  2  2  0  0  0
  2  3  1  0  0  0
  3  4  2  0  0  0
  4  5  1  0  0  0
  5  6  2  0  0  0
  6  7  1  0  0  0
  3 10  1  0  0  0
 10 11  2  0  0  0
 11 12  1  0  0  0
 12 13  2  0  0  0
 13 14  1  0  0  0
 14 15  2  0  0  0
 15 22  1  0  0  0
 22 23  1  0  0  0
 22 24  1  0  0  0
 22 25  1  0  0  0
 12 16  1  0  0  0
 16 17  1  0  0  0
 17 18  1  0  0  0
 18 19  1  0  0  0
 19 20  1  0  0  0
 20 21  1  0  0  0
 43 37  1  0  0  0
 35 30  1  0  0  0
  6  1  1  0  0  0
 15 10  1  0  0  0
 21 16  1  0  0  0
 38 44  1  0  0  0
 38 45  1  0  0  0
 26 29  1  0  0  0
  7  8  1  0  0  0
  7  9  1  0  0  0
M  END
> <minimizedAffinity>
-7.78447

> <CNNscore>
0.0671077520

> <CNNaffinity>
6.1089148521

> <CNN_VS>
0.4099555314

> <CNNaffinity_variance>
0.1818203479

$$$$
[H]c1nc(N([H])[H])c(C(=O)N([H])c2nc([H])c([H])c([H])c2N2C([H])([H])C([H])([H])C(N([H])[H])(C([H])([H])[H])C([H])([H])C2([H])[H])nc1-c1nc(N2C([H])([H])C([H])([H])OC([H])([H])C2([H])[H])nc([H])c1C(F)(F)F


 45 49  0  0  0  0  0  0  0  0999 V2000
   -2.1783   22.8925  -24.9616 C   0  0  0  0  0  0  0  0  0  0  0  0
   -3.2051   23.6313  -24.6088 N   0  0  0  0  0  0  0  0  0  0  0  0
   -4.3121   23.8879  -25.3758 C   0  0  0  0  0  0  0  0  0  0  0  0
   -4.2895   23.3085  -26.5901 C   0  0  0  0  0  0  0  0  0  0  0  0
   -3.2322   22.5278  -26.9927 N   0  0  0  0  0  0  0  0  0  0  0  0
   -2.1790   22.2915  -26.2369 C   0  0  0  0  0  0  0  0  0  0  0  0
   -1.0841   21.4777  -26.6811 N   0  0  0  0  0  0  0  0  0  0  0  0
   -1.2062   20.4562  -26.7121 H   0  0  0  0  0  0  0  0  0  0  0  0
   -0.1734   21.8830  -26.9740 H   0  0  0  0  0  0  0  0  0  0  0  0
   -5.3893   24.6443  -24.7184 C   0  0  0  0  0  0  0  0  0  0  0  0
   -6.0620   23.9598  -23.7173 N   0  0  0  0  0  0  0  0  0  0  0  0
   -7.0282   24.4810  -22.9943 C   0  0  0  0  0  0  0  0  0  0  0  0
   -7.4338   25.7685  -23.1927 N   0  0  0  0  0  0  0  0  0  0  0  0
   -6.8090   26.4424  -24.1395 C   0  0  0  0  0  0  0  0  0  0  0  0
   -5.7684   25.9171  -24.9418 C   0  0  0  0  0  0  0  0  0  0  0  0
   -7.7632   23.7727  -22.0126 N   0  0  0  0  0  0  0  0  0  0  0  0
   -7.4316   22.3717  -21.6968 C   0  0  0  0  0  0  0  0  0  0  0  0
   -8.6448   21.8123  -21.0066 C   0  0  0  0  0  0  0  0  0  0  0  0
   -8.9827   22.4806  -19.8485 O   0  0  0  0  0  0  0  0  0  0  0  0
   -8.6761   23.8166  -19.8271 C   0  0  0  0  0  0  0  0  0  0  0  0
   -8.8316   24.3378  -21.2524 C   0  0  0  0  0  0  0  0  0  0  0  0
   -5.2425   26.7872  -25.9878 C   0  0  0  0  0  0  0  0  0  0  0  0
   -5.4487   28.1216  -25.8291 F   0  0  0  0  0  0  0  0  0  0  0  0
   -5.3875   26.2837  -27.2872 F   0  0  0  0  0  0  0  0  0  0  0  0
   -3.8178   26.7147  -25.8715 F   0  0  0  0  0  0  0  0  0  0  0  0
   -1.0522   21.9695  -22.8050 N   0  0  0  0  0  0  0  0  0  0  0  0
   -1.1185   22.5607  -24.0706 C   0  0  0  0  0  0  0  0  0  0  0  0
    0.0804   22.8954  -24.5603 O   0  0  0  0  0  0  0  0  0  0  0  0
   -0.0477   21.8307  -22.4181 H   0  0  0  0  0  0  0  0  0  0  0  0
   -1.7606   21.5803  -20.5435 C   0  0  0  0  0  0  0  0  0  0  0  0
   -2.8203   21.4624  -19.6295 C   0  0  0  0  0  0  0  0  0  0  0  0
   -4.1394   21.4845  -20.0117 C   0  0  0  0  0  0  0  0  0  0  0  0
   -4.3795   21.6284  -21.3598 C   0  0  0  0  0  0  0  0  0  0  0  0
   -3.3977   21.7413  -22.2478 N   0  0  0  0  0  0  0  0  0  0  0  0
   -2.0787   21.7226  -21.8713 C   0  0  0  0  0  0  0  0  0  0  0  0
    2.8669   21.5305  -17.3808 C   0  0  0  0  0  0  0  0  0  0  0  0
    2.0227   21.7284  -18.5931 C   0  0  0  0  0  0  0  0  0  0  0  0
    2.7950   22.3873  -19.6271 N   0  0  0  0  0  0  0  0  0  0  0  0
    1.4812   20.4175  -19.0619 C   0  0  0  0  0  0  0  0  0  0  0  0
    0.5180   20.5001  -20.2097 C   0  0  0  0  0  0  0  0  0  0  0  0
   -0.4219   21.5671  -20.0704 N   0  0  0  0  0  0  0  0  0  0  0  0
    0.0029   22.7814  -19.4016 C   0  0  0  0  0  0  0  0  0  0  0  0
    0.8141   22.5518  -18.1659 C   0  0  0  0  0  0  0  0  0  0  0  0
    3.8273   22.2945  -19.3823 H   0  0  0  0  0  0  0  0  0  0  0  0
    2.5540   23.4170  -19.6584 H   0  0  0  0  0  0  0  0  0  0  0  0
 36 37  1  0  0  0
 37 38  1  0  0  0
 37 39  1  0  0  0
 39 40  1  0  0  0
 40 41  1  0  0  0
 41 42  1  0  0  0
 42 43  1  0  0  0
 41 30  1  0  0  0
 30 31  2  0  0  0
 31 32  1  0  0  0
 32 33  2  0  0  0
 33 34  1  0  0  0
 34 35  2  0  0  0
 35 26  1  0  0  0
 26 27  1  0  0  0
 27 28  2  0  0  0
 27  1  1  0  0  0
  1  2  2  0  0  0
  2  3  1  0  0  0
  3  4  2  0  0  0
  4  5  1  0  0  0
  5  6  2  0  0  0
  6  7  1  0  0  0
  3 10  1  0  0  0
 10 11  2  0  0  0
 11 12  1  0  0  0
 12 13  2  0  0  0
 13 14  1  0  0  0
 14 15  2  0  0  0
 15 22  1  0  0  0
 22 23  1  0  0  0
 22 24  1  0  0  0
 22 25  1  0  0  0
 12 16  1  0  0  0
 16 17  1  0  0  0
 17 18  1  0  0  0
 18 19  1  0  0  0
 19 20  1  0  0  0
 20 21  1  0  0  0
 43 37  1  0  0  0
 35 30  1  0  0  0
  6  1  1  0  0  0
 15 10  1  0  0  0
 21 16  1  0  0  0
 38 44  1  0  0  0
 38 45  1  0  0  0
 26 29  1  0  0  0
  7  8  1  0  0  0
  7  9  1  0  0  0
M  END
> <minimizedAffinity>
-8.21022

> <CNNscore>
0.0480883494

> <CNNaffinity>
6.4110250473

> <CNN_VS>
0.3082956076

> <CNNaffinity_variance>
0.2428320646

$$$$
[H]c1nc(N([H])[H])c(C(=O)N([H])c2nc([H])c([H])c([H])c2N2C([H])([H])C([H])([H])C(N([H])[H])(C([H])([H])[H])C([H])([H])C2([H])[H])nc1-c1nc(N2C([H])([H])C([H])([H])OC([H])([H])C2([H])[H])nc([H])c1C(F)(F)F


 45 49  0  0  0  0  0  0  0  0999 V2000
   -5.0778   22.6424  -20.9926 C   0  0  0  0  0  0  0  0  0  0  0  0
   -4.1522   22.3621  -21.8812 N   0  0  0  0  0  0  0  0  0  0  0  0
   -3.5590   23.2572  -22.7336 C   0  0  0  0  0  0  0  0  0  0  0  0
   -4.0056   24.5202  -22.6071 C   0  0  0  0  0  0  0  0  0  0  0  0
   -4.9722   24.8504  -21.6872 N   0  0  0  0  0  0  0  0  0  0  0  0
   -5.5266   23.9737  -20.8747 C   0  0  0  0  0  0  0  0  0  0  0  0
   -6.5385   24.3408  -19.9263 N   0  0  0  0  0  0  0  0  0  0  0  0
   -6.2601   24.8504  -19.0765 H   0  0  0  0  0  0  0  0  0  0  0  0
   -7.5421   24.1121  -20.0677 H   0  0  0  0  0  0  0  0  0  0  0  0
   -2.4590   22.7302  -23.5564 C   0  0  0  0  0  0  0  0  0  0  0  0
   -1.3789   22.2310  -22.8441 N   0  0  0  0  0  0  0  0  0  0  0  0
   -0.3205   21.6872  -23.4025 C   0  0  0  0  0  0  0  0  0  0  0  0
   -0.2241   21.5766  -24.7589 N   0  0  0  0  0  0  0  0  0  0  0  0
   -1.2395   22.0436  -25.4604 C   0  0  0  0  0  0  0  0  0  0  0  0
   -2.3935   22.6394  -24.8984 C   0  0  0  0  0  0  0  0  0  0  0  0
    0.8143   21.2307  -22.6885 N   0  0  0  0  0  0  0  0  0  0  0  0
    2.1488   21.2513  -23.3136 C   0  0  0  0  0  0  0  0  0  0  0  0
    2.9912   20.3035  -22.5055 C   0  0  0  0  0  0  0  0  0  0  0  0
    3.0975   20.6509  -21.1751 O   0  0  0  0  0  0  0  0  0  0  0  0
    2.0136   21.3032  -20.6469 C   0  0  0  0  0  0  0  0  0  0  0  0
    0.7728   20.7531  -21.3435 C   0  0  0  0  0  0  0  0  0  0  0  0
   -3.3838   23.1626  -25.8330 C   0  0  0  0  0  0  0  0  0  0  0  0
   -4.6869   22.9004  -25.5476 F   0  0  0  0  0  0  0  0  0  0  0  0
   -3.0106   23.0764  -27.1807 F   0  0  0  0  0  0  0  0  0  0  0  0
   -3.3501   24.5848  -25.6764 F   0  0  0  0  0  0  0  0  0  0  0  0
   -5.0570   21.1407  -18.8677 N   0  0  0  0  0  0  0  0  0  0  0  0
   -5.5616   21.6914  -20.0499 C   0  0  0  0  0  0  0  0  0  0  0  0
   -6.7705   21.2216  -20.3772 O   0  0  0  0  0  0  0  0  0  0  0  0
   -5.7243   20.4471  -18.3661 H   0  0  0  0  0  0  0  0  0  0  0  0
   -3.5095   21.8839  -17.1882 C   0  0  0  0  0  0  0  0  0  0  0  0
   -2.2251   21.7951  -16.6273 C   0  0  0  0  0  0  0  0  0  0  0  0
   -1.2202   21.0416  -17.1832 C   0  0  0  0  0  0  0  0  0  0  0  0
   -1.5361   20.3655  -18.3402 C   0  0  0  0  0  0  0  0  0  0  0  0
   -2.7419   20.4312  -18.8944 N   0  0  0  0  0  0  0  0  0  0  0  0
   -3.7499   21.1799  -18.3419 C   0  0  0  0  0  0  0  0  0  0  0  0
   -6.3860   25.1479  -13.6538 C   0  0  0  0  0  0  0  0  0  0  0  0
   -6.1532   24.1709  -14.7552 C   0  0  0  0  0  0  0  0  0  0  0  0
   -7.4171   23.6122  -15.1912 N   0  0  0  0  0  0  0  0  0  0  0  0
   -5.4254   24.8297  -15.8812 C   0  0  0  0  0  0  0  0  0  0  0  0
   -5.0279   23.9163  -17.0036 C   0  0  0  0  0  0  0  0  0  0  0  0
   -4.5026   22.6692  -16.5453 N   0  0  0  0  0  0  0  0  0  0  0  0
   -5.0245   22.1082  -15.3144 C   0  0  0  0  0  0  0  0  0  0  0  0
   -5.2096   23.1043  -14.2140 C   0  0  0  0  0  0  0  0  0  0  0  0
   -8.1997   24.2423  -14.8380 H   0  0  0  0  0  0  0  0  0  0  0  0
   -7.5521   22.6506  -14.7710 H   0  0  0  0  0  0  0  0  0  0  0  0
 36 37  1  0  0  0
 37 38  1  0  0  0
 37 39  1  0  0  0
 39 40  1  0  0  0
 40 41  1  0  0  0
 41 42  1  0  0  0
 42 43  1  0  0  0
 41 30  1  0  0  0
 30 31  2  0  0  0
 31 32  1  0  0  0
 32 33  2  0  0  0
 33 34  1  0  0  0
 34 35  2  0  0  0
 35 26  1  0  0  0
 26 27  1  0  0  0
 27 28  2  0  0  0
 27  1  1  0  0  0
  1  2  2  0  0  0
  2  3  1  0  0  0
  3  4  2  0  0  0
  4  5  1  0  0  0
  5  6  2  0  0  0
  6  7  1  0  0  0
  3 10  1  0  0  0
 10 11  2  0  0  0
 11 12  1  0  0  0
 12 13  2  0  0  0
 13 14  1  0  0  0
 14 15  2  0  0  0
 15 22  1  0  0  0
 22 23  1  0  0  0
 22 24  1  0  0  0
 22 25  1  0  0  0
 12 16  1  0  0  0
 16 17  1  0  0  0
 17 18  1  0  0  0
 18 19  1  0  0  0
 19 20  1  0  0  0
 20 21  1  0  0  0
 43 37  1  0  0  0
 35 30  1  0  0  0
  6  1  1  0  0  0
 15 10  1  0  0  0
 21 16  1  0  0  0
 38 44  1  0  0  0
 38 45  1  0  0  0
 26 29  1  0  0  0
  7  8  1  0  0  0
  7  9  1  0  0  0
M  END
> <minimizedAffinity>
-7.70597

> <CNNscore>
0.0458671823

> <CNNaffinity>
6.1102628708

> <CNN_VS>
0.2802605331

> <CNNaffinity_variance>
0.1185115352

$$$$
[H]c1nc(N([H])[H])c(C(=O)N([H])c2nc([H])c([H])c([H])c2N2C([H])([H])C([H])([H])C(N([H])[H])(C([H])([H])[H])C([H])([H])C2([H])[H])nc1-c1nc(N2C([H])([H])C([H])([H])OC([H])([H])C2([H])[H])nc([H])c1C(F)(F)F


 45 49  0  0  0  0  0  0  0  0999 V2000
   -0.8645   22.3722  -23.2742 C   0  0  0  0  0  0  0  0  0  0  0  0
   -0.1277   21.3860  -22.8164 N   0  0  0  0  0  0  0  0  0  0  0  0
    0.1806   21.1568  -21.5004 C   0  0  0  0  0  0  0  0  0  0  0  0
   -0.3418   22.0552  -20.6457 C   0  0  0  0  0  0  0  0  0  0  0  0
   -1.1185   23.0992  -21.0888 N   0  0  0  0  0  0  0  0  0  0  0  0
   -1.4053   23.2986  -22.3593 C   0  0  0  0  0  0  0  0  0  0  0  0
   -2.2136   24.3993  -22.7989 N   0  0  0  0  0  0  0  0  0  0  0  0
   -3.2307   24.3599  -22.6458 H   0  0  0  0  0  0  0  0  0  0  0  0
   -1.8087   25.2352  -23.2645 H   0  0  0  0  0  0  0  0  0  0  0  0
    0.9215   19.9169  -21.2195 C   0  0  0  0  0  0  0  0  0  0  0  0
    0.1803   18.9137  -20.6135 N   0  0  0  0  0  0  0  0  0  0  0  0
    0.6582   17.7252  -20.3184 C   0  0  0  0  0  0  0  0  0  0  0  0
    1.9520   17.4007  -20.6051 N   0  0  0  0  0  0  0  0  0  0  0  0
    2.6790   18.3380  -21.1830 C   0  0  0  0  0  0  0  0  0  0  0  0
    2.2040   19.6295  -21.5126 C   0  0  0  0  0  0  0  0  0  0  0  0
   -0.0708   16.7154  -19.6443 N   0  0  0  0  0  0  0  0  0  0  0  0
    0.3642   15.3088  -19.7106 C   0  0  0  0  0  0  0  0  0  0  0  0
   -0.8351   14.4930  -19.3139 C   0  0  0  0  0  0  0  0  0  0  0  0
   -1.3037   14.7736  -18.0476 O   0  0  0  0  0  0  0  0  0  0  0  0
   -1.1199   16.0640  -17.6227 C   0  0  0  0  0  0  0  0  0  0  0  0
   -1.2313   16.9631  -18.8501 C   0  0  0  0  0  0  0  0  0  0  0  0
    3.1720   20.5592  -22.0844 C   0  0  0  0  0  0  0  0  0  0  0  0
    3.5906   21.5719  -21.2797 F   0  0  0  0  0  0  0  0  0  0  0  0
    2.9390   20.8846  -23.4271 F   0  0  0  0  0  0  0  0  0  0  0  0
    4.3830   19.8118  -22.2364 F   0  0  0  0  0  0  0  0  0  0  0  0
   -2.4787   22.6008  -25.3022 N   0  0  0  0  0  0  0  0  0  0  0  0
   -1.2530   22.4814  -24.6395 C   0  0  0  0  0  0  0  0  0  0  0  0
   -0.2040   22.4621  -25.4693 O   0  0  0  0  0  0  0  0  0  0  0  0
   -2.4067   22.6993  -26.3807 H   0  0  0  0  0  0  0  0  0  0  0  0
   -4.8481   22.9332  -25.5092 C   0  0  0  0  0  0  0  0  0  0  0  0
   -6.1409   22.6077  -25.0676 C   0  0  0  0  0  0  0  0  0  0  0  0
   -6.3756   21.7912  -23.9883 C   0  0  0  0  0  0  0  0  0  0  0  0
   -5.2624   21.2983  -23.3452 C   0  0  0  0  0  0  0  0  0  0  0  0
   -4.0275   21.5896  -23.7394 N   0  0  0  0  0  0  0  0  0  0  0  0
   -3.7873   22.4022  -24.8182 C   0  0  0  0  0  0  0  0  0  0  0  0
   -5.5978   25.8897  -30.2120 C   0  0  0  0  0  0  0  0  0  0  0  0
   -4.8623   25.1741  -29.1309 C   0  0  0  0  0  0  0  0  0  0  0  0
   -3.4587   25.0727  -29.4761 N   0  0  0  0  0  0  0  0  0  0  0  0
   -5.0587   25.8736  -27.8257 C   0  0  0  0  0  0  0  0  0  0  0  0
   -4.4619   25.1808  -26.6357 C   0  0  0  0  0  0  0  0  0  0  0  0
   -4.6850   23.7697  -26.6449 N   0  0  0  0  0  0  0  0  0  0  0  0
   -4.7375   23.0850  -27.9219 C   0  0  0  0  0  0  0  0  0  0  0  0
   -5.5161   23.8068  -28.9756 C   0  0  0  0  0  0  0  0  0  0  0  0
   -3.2529   25.7786  -30.2465 H   0  0  0  0  0  0  0  0  0  0  0  0
   -3.2464   24.1056  -29.8489 H   0  0  0  0  0  0  0  0  0  0  0  0
 36 37  1  0  0  0
 37 38  1  0  0  0
 37 39  1  0  0  0
 39 40  1  0  0  0
 40 41  1  0  0  0
 41 42  1  0  0  0
 42 43  1  0  0  0
 41 30  1  0  0  0
 30 31  2  0  0  0
 31 32  1  0  0  0
 32 33  2  0  0  0
 33 34  1  0  0  0
 34 35  2  0  0  0
 35 26  1  0  0  0
 26 27  1  0  0  0
 27 28  2  0  0  0
 27  1  1  0  0  0
  1  2  2  0  0  0
  2  3  1  0  0  0
  3  4  2  0  0  0
  4  5  1  0  0  0
  5  6  2  0  0  0
  6  7  1  0  0  0
  3 10  1  0  0  0
 10 11  2  0  0  0
 11 12  1  0  0  0
 12 13  2  0  0  0
 13 14  1  0  0  0
 14 15  2  0  0  0
 15 22  1  0  0  0
 22 23  1  0  0  0
 22 24  1  0  0  0
 22 25  1  0  0  0
 12 16  1  0  0  0
 16 17  1  0  0  0
 17 18  1  0  0  0
 18 19  1  0  0  0
 19 20  1  0  0  0
 20 21  1  0  0  0
 43 37  1  0  0  0
 35 30  1  0  0  0
  6  1  1  0  0  0
 15 10  1  0  0  0
 21 16  1  0  0  0
 38 44  1  0  0  0
 38 45  1  0  0  0
 26 29  1  0  0  0
  7  8  1  0  0  0
  7  9  1  0  0  0
M  END
> <minimizedAffinity>
-8.83451

> <CNNscore>
0.0426302962

> <CNNaffinity>
6.8976488113

> <CNN_VS>
0.2940488160

> <CNNaffinity_variance>
0.1636989266

$$$$
[H]c1nc(N([H])[H])c(C(=O)N([H])c2nc([H])c([H])c([H])c2N2C([H])([H])C([H])([H])C(N([H])[H])(C([H])([H])[H])C([H])([H])C2([H])[H])nc1-c1nc(N2C([H])([H])C([H])([H])OC([H])([H])C2([H])[H])nc([H])c1C(F)(F)F


 45 49  0  0  0  0  0  0  0  0999 V2000
   -5.9691   22.9143  -21.7865 C   0  0  0  0  0  0  0  0  0  0  0  0
   -5.3529   22.8501  -22.9445 N   0  0  0  0  0  0  0  0  0  0  0  0
   -4.5210   23.8067  -23.4664 C   0  0  0  0  0  0  0  0  0  0  0  0
   -4.3603   24.8876  -22.6812 C   0  0  0  0  0  0  0  0  0  0  0  0
   -4.9886   24.9885  -21.4626 N   0  0  0  0  0  0  0  0  0  0  0  0
   -5.7819   24.0545  -20.9786 C   0  0  0  0  0  0  0  0  0  0  0  0
   -6.4317   24.1847  -19.7062 N   0  0  0  0  0  0  0  0  0  0  0  0
   -5.8746   24.0596  -18.8498 H   0  0  0  0  0  0  0  0  0  0  0  0
   -7.4438   24.4023  -19.6187 H   0  0  0  0  0  0  0  0  0  0  0  0
   -3.8487   23.4564  -24.7274 C   0  0  0  0  0  0  0  0  0  0  0  0
   -4.4899   23.8935  -25.8767 N   0  0  0  0  0  0  0  0  0  0  0  0
   -4.0244   23.7078  -27.0919 C   0  0  0  0  0  0  0  0  0  0  0  0
   -2.8433   23.0562  -27.2965 N   0  0  0  0  0  0  0  0  0  0  0  0
   -2.2124   22.6304  -26.2187 C   0  0  0  0  0  0  0  0  0  0  0  0
   -2.6814   22.8062  -24.8952 C   0  0  0  0  0  0  0  0  0  0  0  0
   -4.7005   24.0949  -28.2746 N   0  0  0  0  0  0  0  0  0  0  0  0
   -4.3685   25.3655  -28.9436 C   0  0  0  0  0  0  0  0  0  0  0  0
   -5.5394   25.6737  -29.8353 C   0  0  0  0  0  0  0  0  0  0  0  0
   -5.7871   24.7025  -30.7826 O   0  0  0  0  0  0  0  0  0  0  0  0
   -5.4603   23.4228  -30.4154 C   0  0  0  0  0  0  0  0  0  0  0  0
   -5.7057   23.3078  -28.9141 C   0  0  0  0  0  0  0  0  0  0  0  0
   -1.8844   22.2061  -23.8309 C   0  0  0  0  0  0  0  0  0  0  0  0
   -2.4467   21.1625  -23.1653 F   0  0  0  0  0  0  0  0  0  0  0  0
   -1.1664   23.1264  -23.0559 F   0  0  0  0  0  0  0  0  0  0  0  0
   -0.7909   21.5556  -24.4862 F   0  0  0  0  0  0  0  0  0  0  0  0
   -6.6277   21.0644  -20.0792 N   0  0  0  0  0  0  0  0  0  0  0  0
   -6.7181   21.8312  -21.2451 C   0  0  0  0  0  0  0  0  0  0  0  0
   -7.7336   21.4697  -22.0372 O   0  0  0  0  0  0  0  0  0  0  0  0
   -7.4072   20.3183  -19.9620 H   0  0  0  0  0  0  0  0  0  0  0  0
   -5.8672   20.7230  -17.8269 C   0  0  0  0  0  0  0  0  0  0  0  0
   -4.7907   20.5035  -16.9522 C   0  0  0  0  0  0  0  0  0  0  0  0
   -3.4806   20.5208  -17.3645 C   0  0  0  0  0  0  0  0  0  0  0  0
   -3.2673   20.7705  -18.7017 C   0  0  0  0  0  0  0  0  0  0  0  0
   -4.2655   20.9828  -19.5525 N   0  0  0  0  0  0  0  0  0  0  0  0
   -5.5758   20.9638  -19.1466 C   0  0  0  0  0  0  0  0  0  0  0  0
  -11.4344   20.9490  -17.2143 C   0  0  0  0  0  0  0  0  0  0  0  0
   -9.9992   20.9183  -16.8130 C   0  0  0  0  0  0  0  0  0  0  0  0
   -9.8811   21.1757  -15.3919 N   0  0  0  0  0  0  0  0  0  0  0  0
   -9.3890   19.6072  -17.1872 C   0  0  0  0  0  0  0  0  0  0  0  0
   -7.9127   19.4981  -16.9402 C   0  0  0  0  0  0  0  0  0  0  0  0
   -7.1963   20.6713  -17.3298 N   0  0  0  0  0  0  0  0  0  0  0  0
   -7.8521   21.9580  -17.2012 C   0  0  0  0  0  0  0  0  0  0  0  0
   -9.2793   21.9689  -17.6491 C   0  0  0  0  0  0  0  0  0  0  0  0
  -10.8360   21.0249  -14.9452 H   0  0  0  0  0  0  0  0  0  0  0  0
   -9.5950   22.1811  -15.2286 H   0  0  0  0  0  0  0  0  0  0  0  0
 36 37  1  0  0  0
 37 38  1  0  0  0
 37 39  1  0  0  0
 39 40  1  0  0  0
 40 41  1  0  0  0
 41 42  1  0  0  0
 42 43  1  0  0  0
 41 30  1  0  0  0
 30 31  2  0  0  0
 31 32  1  0  0  0
 32 33  2  0  0  0
 33 34  1  0  0  0
 34 35  2  0  0  0
 35 26  1  0  0  0
 26 27  1  0  0  0
 27 28  2  0  0  0
 27  1  1  0  0  0
  1  2  2  0  0  0
  2  3  1  0  0  0
  3  4  2  0  0  0
  4  5  1  0  0  0
  5  6  2  0  0  0
  6  7  1  0  0  0
  3 10  1  0  0  0
 10 11  2  0  0  0
 11 12  1  0  0  0
 12 13  2  0  0  0
 13 14  1  0  0  0
 14 15  2  0  0  0
 15 22  1  0  0  0
 22 23  1  0  0  0
 22 24  1  0  0  0
 22 25  1  0  0  0
 12 16  1  0  0  0
 16 17  1  0  0  0
 17 18  1  0  0  0
 18 19  1  0  0  0
 19 20  1  0  0  0
 20 21  1  0  0  0
 43 37  1  0  0  0
 35 30  1  0  0  0
  6  1  1  0  0  0
 15 10  1  0  0  0
 21 16  1  0  0  0
 38 44  1  0  0  0
 38 45  1  0  0  0
 26 29  1  0  0  0
  7  8  1  0  0  0
  7  9  1  0  0  0
M  END
> <minimizedAffinity>
-8.81567

> <CNNscore>
0.0408101864

> <CNNaffinity>
6.1496706009

> <CNN_VS>
0.2509692013

> <CNNaffinity_variance>
0.2629417479

$$$$
[H]c1nc(N([H])[H])c(C(=O)N([H])c2nc([H])c([H])c([H])c2N2C([H])([H])C([H])([H])C(N([H])[H])(C([H])([H])[H])C([H])([H])C2([H])[H])nc1-c1nc(N2C([H])([H])C([H])([H])OC([H])([H])C2([H])[H])nc([H])c1C(F)(F)F


 45 49  0  0  0  0  0  0  0  0999 V2000
   -6.5772   22.7806  -21.4942 C   0  0  0  0  0  0  0  0  0  0  0  0
   -5.8423   22.7589  -22.5824 N   0  0  0  0  0  0  0  0  0  0  0  0
   -5.2096   23.8363  -23.1467 C   0  0  0  0  0  0  0  0  0  0  0  0
   -5.3953   24.9943  -22.4869 C   0  0  0  0  0  0  0  0  0  0  0  0
   -6.1570   25.0544  -21.3442 N   0  0  0  0  0  0  0  0  0  0  0  0
   -6.7537   24.0045  -20.8170 C   0  0  0  0  0  0  0  0  0  0  0  0
   -7.5490   24.0928  -19.6262 N   0  0  0  0  0  0  0  0  0  0  0  0
   -7.0737   24.1932  -18.7188 H   0  0  0  0  0  0  0  0  0  0  0  0
   -8.5872   24.0606  -19.6476 H   0  0  0  0  0  0  0  0  0  0  0  0
   -4.3416   23.5425  -24.2979 C   0  0  0  0  0  0  0  0  0  0  0  0
   -4.6411   24.2463  -25.4547 N   0  0  0  0  0  0  0  0  0  0  0  0
   -3.9567   24.1453  -26.5724 C   0  0  0  0  0  0  0  0  0  0  0  0
   -2.8756   23.3175  -26.6583 N   0  0  0  0  0  0  0  0  0  0  0  0
   -2.5687   22.6366  -25.5705 C   0  0  0  0  0  0  0  0  0  0  0  0
   -3.2815   22.7137  -24.3506 C   0  0  0  0  0  0  0  0  0  0  0  0
   -4.2901   24.8116  -27.7768 N   0  0  0  0  0  0  0  0  0  0  0  0
   -3.6462   24.4286  -29.0460 C   0  0  0  0  0  0  0  0  0  0  0  0
   -3.8578   25.5908  -29.9764 C   0  0  0  0  0  0  0  0  0  0  0  0
   -5.1856   25.8874  -30.2018 O   0  0  0  0  0  0  0  0  0  0  0  0
   -6.0361   25.6148  -29.1618 C   0  0  0  0  0  0  0  0  0  0  0  0
   -5.2606   25.8549  -27.8702 C   0  0  0  0  0  0  0  0  0  0  0  0
   -2.8390   21.8338  -23.2745 C   0  0  0  0  0  0  0  0  0  0  0  0
   -1.5938   21.3020  -23.3976 F   0  0  0  0  0  0  0  0  0  0  0  0
   -3.8342   20.9832  -22.7756 F   0  0  0  0  0  0  0  0  0  0  0  0
   -2.6645   22.6776  -22.1317 F   0  0  0  0  0  0  0  0  0  0  0  0
   -6.6660   20.7478  -19.8723 N   0  0  0  0  0  0  0  0  0  0  0  0
   -7.1019   21.6037  -20.8886 C   0  0  0  0  0  0  0  0  0  0  0  0
   -8.2750   21.2396  -21.4185 O   0  0  0  0  0  0  0  0  0  0  0  0
   -7.3498   19.9401  -19.6313 H   0  0  0  0  0  0  0  0  0  0  0  0
   -5.1911   19.6876  -18.3012 C   0  0  0  0  0  0  0  0  0  0  0  0
   -3.8845   19.5307  -17.8110 C   0  0  0  0  0  0  0  0  0  0  0  0
   -2.8268   20.2864  -18.2547 C   0  0  0  0  0  0  0  0  0  0  0  0
   -3.1131   21.2253  -19.2203 C   0  0  0  0  0  0  0  0  0  0  0  0
   -4.3393   21.3971  -19.7022 N   0  0  0  0  0  0  0  0  0  0  0  0
   -5.3986   20.6433  -19.2646 C   0  0  0  0  0  0  0  0  0  0  0  0
  -10.1287   17.5080  -16.7882 C   0  0  0  0  0  0  0  0  0  0  0  0
   -8.6504   17.6973  -16.8142 C   0  0  0  0  0  0  0  0  0  0  0  0
   -8.0359   16.9090  -15.7652 N   0  0  0  0  0  0  0  0  0  0  0  0
   -8.1101   17.3389  -18.1600 C   0  0  0  0  0  0  0  0  0  0  0  0
   -6.6443   17.6005  -18.3481 C   0  0  0  0  0  0  0  0  0  0  0  0
   -6.2302   18.8560  -17.8064 N   0  0  0  0  0  0  0  0  0  0  0  0
   -6.9018   19.3547  -16.6221 C   0  0  0  0  0  0  0  0  0  0  0  0
   -8.3882   19.1881  -16.6413 C   0  0  0  0  0  0  0  0  0  0  0  0
   -8.7392   16.1773  -15.4424 H   0  0  0  0  0  0  0  0  0  0  0  0
   -7.7992   17.5267  -14.9394 H   0  0  0  0  0  0  0  0  0  0  0  0
 36 37  1  0  0  0
 37 38  1  0  0  0
 37 39  1  0  0  0
 39 40  1  0  0  0
 40 41  1  0  0  0
 41 42  1  0  0  0
 42 43  1  0  0  0
 41 30  1  0  0  0
 30 31  2  0  0  0
 31 32  1  0  0  0
 32 33  2  0  0  0
 33 34  1  0  0  0
 34 35  2  0  0  0
 35 26  1  0  0  0
 26 27  1  0  0  0
 27 28  2  0  0  0
 27  1  1  0  0  0
  1  2  2  0  0  0
  2  3  1  0  0  0
  3  4  2  0  0  0
  4  5  1  0  0  0
  5  6  2  0  0  0
  6  7  1  0  0  0
  3 10  1  0  0  0
 10 11  2  0  0  0
 11 12  1  0  0  0
 12 13  2  0  0  0
 13 14  1  0  0  0
 14 15  2  0  0  0
 15 22  1  0  0  0
 22 23  1  0  0  0
 22 24  1  0  0  0
 22 25  1  0  0  0
 12 16  1  0  0  0
 16 17  1  0  0  0
 17 18  1  0  0  0
 18 19  1  0  0  0
 19 20  1  0  0  0
 20 21  1  0  0  0
 43 37  1  0  0  0
 35 30  1  0  0  0
  6  1  1  0  0  0
 15 10  1  0  0  0
 21 16  1  0  0  0
 38 44  1  0  0  0
 38 45  1  0  0  0
 26 29  1  0  0  0
  7  8  1  0  0  0
  7  9  1  0  0  0
M  END
> <minimizedAffinity>
-7.90955

> <CNNscore>
0.0404641777

> <CNNaffinity>
6.0667428970

> <CNN_VS>
0.2454857677

> <CNNaffinity_variance>
0.1593373716

$$$$
[H]c1c([H])c([H])c(Oc2c([H])c([H])c(-c3nn(C4([H])C([H])([H])N(C#N)C([H])([H])C([H])([H])C4([H])[H])c(N([H])[H])c3C(=O)N([H])[H])c([H])c2[H])c([H])c1[H]


 34 37  0  0  0  0  0  0  0  0999 V2000
   -1.2046   22.6734  -26.3906 C   0  0  0  0  0  0  0  0  0  0  0  0
   -2.3292   23.2495  -26.9648 C   0  0  0  0  0  0  0  0  0  0  0  0
   -2.4125   23.6274  -28.3344 N   0  0  0  0  0  0  0  0  0  0  0  0
   -3.2658   23.3721  -26.0298 N   0  0  0  0  0  0  0  0  0  0  0  0
   -2.7686   22.8979  -24.9118 N   0  0  0  0  0  0  0  0  0  0  0  0
   -1.4984   22.4502  -25.0741 C   0  0  0  0  0  0  0  0  0  0  0  0
   -2.2284   24.5874  -28.6881 H   0  0  0  0  0  0  0  0  0  0  0  0
   -2.6746   22.9190  -29.0727 H   0  0  0  0  0  0  0  0  0  0  0  0
   -0.6545   21.8863  -24.0217 C   0  0  0  0  0  0  0  0  0  0  0  0
   -1.2537   21.3062  -22.8932 C   0  0  0  0  0  0  0  0  0  0  0  0
   -0.5215   20.7053  -21.8933 C   0  0  0  0  0  0  0  0  0  0  0  0
    0.8541   20.6477  -21.9604 C   0  0  0  0  0  0  0  0  0  0  0  0
    1.4611   21.2108  -23.0599 C   0  0  0  0  0  0  0  0  0  0  0  0
    0.7143   21.8199  -24.0738 C   0  0  0  0  0  0  0  0  0  0  0  0
    1.5991   20.0441  -20.9561 O   0  0  0  0  0  0  0  0  0  0  0  0
    1.9979   18.7354  -20.9862 C   0  0  0  0  0  0  0  0  0  0  0  0
    1.0972   17.7106  -20.7113 C   0  0  0  0  0  0  0  0  0  0  0  0
    1.5405   16.4075  -20.7527 C   0  0  0  0  0  0  0  0  0  0  0  0
    2.8575   16.1357  -21.0627 C   0  0  0  0  0  0  0  0  0  0  0  0
    3.7462   17.1550  -21.3343 C   0  0  0  0  0  0  0  0  0  0  0  0
    3.2983   18.4428  -21.2910 C   0  0  0  0  0  0  0  0  0  0  0  0
   -4.5992   23.9390  -26.2458 C   0  0  0  0  0  0  0  0  0  0  0  0
   -4.4760   25.4275  -26.1722 C   0  0  0  0  0  0  0  0  0  0  0  0
   -5.7146   26.1589  -26.5921 C   0  0  0  0  0  0  0  0  0  0  0  0
   -6.2844   25.6964  -27.8929 C   0  0  0  0  0  0  0  0  0  0  0  0
   -5.7539   24.4522  -28.3583 N   0  0  0  0  0  0  0  0  0  0  0  0
   -5.2446   23.4329  -27.4940 C   0  0  0  0  0  0  0  0  0  0  0  0
   -5.7254   24.2022  -29.7503 C   0  0  0  0  0  0  0  0  0  0  0  0
   -5.7133   24.0109  -30.8914 N   0  0  0  0  0  0  0  0  0  0  0  0
    0.5247   21.1377  -27.4697 N   0  0  0  0  0  0  0  0  0  0  0  0
    0.0442   22.4132  -27.1184 C   0  0  0  0  0  0  0  0  0  0  0  0
    0.7809   23.4030  -27.4736 O   0  0  0  0  0  0  0  0  0  0  0  0
    0.6001   20.8188  -28.4628 H   0  0  0  0  0  0  0  0  0  0  0  0
    0.8262   20.4578  -26.7371 H   0  0  0  0  0  0  0  0  0  0  0  0
 30 31  1  0  0  0
 31 32  2  0  0  0
 31  1  1  0  0  0
  1  2  2  0  0  0
  2  3  1  0  0  0
  2  4  1  0  0  0
  4  5  1  0  0  0
  5  6  2  0  0  0
  6  9  1  0  0  0
  9 10  2  0  0  0
 10 11  1  0  0  0
 11 12  2  0  0  0
 12 15  1  0  0  0
 15 16  1  0  0  0
 16 17  2  0  0  0
 17 18  1  0  0  0
 18 19  2  0  0  0
 19 20  1  0  0  0
 20 21  2  0  0  0
 12 13  1  0  0  0
 13 14  2  0  0  0
  4 22  1  0  0  0
 22 23  1  0  0  0
 23 24  1  0  0  0
 24 25  1  0  0  0
 25 26  1  0  0  0
 26 27  1  0  0  0
 26 28  1  0  0  0
 28 29  3  0  0  0
  6  1  1  0  0  0
 14  9  1  0  0  0
 27 22  1  0  0  0
 21 16  1  0  0  0
 30 33  1  0  0  0
 30 34  1  0  0  0
  3  7  1  0  0  0
  3  8  1  0  0  0
M  END
> <minimizedAffinity>
-7.58194

> <CNNscore>
0.6102367043

> <CNNaffinity>
6.8375868797

> <CNN_VS>
4.1725463867

> <CNNaffinity_variance>
0.2075121403

$$$$
[H]c1c([H])c([H])c(Oc2c([H])c([H])c(-c3nn(C4([H])C([H])([H])N(C#N)C([H])([H])C([H])([H])C4([H])[H])c(N([H])[H])c3C(=O)N([H])[H])c([H])c2[H])c([H])c1[H]


 34 37  0  0  0  0  0  0  0  0999 V2000
   -0.9993   22.4300  -25.6761 C   0  0  0  0  0  0  0  0  0  0  0  0
   -2.3343   22.7158  -25.9262 C   0  0  0  0  0  0  0  0  0  0  0  0
   -2.8185   23.2049  -27.1720 N   0  0  0  0  0  0  0  0  0  0  0  0
   -3.0356   22.4551  -24.8278 N   0  0  0  0  0  0  0  0  0  0  0  0
   -2.1941   22.0229  -23.9183 N   0  0  0  0  0  0  0  0  0  0  0  0
   -0.9213   21.9845  -24.3859 C   0  0  0  0  0  0  0  0  0  0  0  0
   -2.9749   24.2105  -27.3840 H   0  0  0  0  0  0  0  0  0  0  0  0
   -3.0462   22.5387  -27.9594 H   0  0  0  0  0  0  0  0  0  0  0  0
    0.2544   21.5751  -23.6191 C   0  0  0  0  0  0  0  0  0  0  0  0
    0.1058   21.2021  -22.2746 C   0  0  0  0  0  0  0  0  0  0  0  0
    1.1596   20.7508  -21.5111 C   0  0  0  0  0  0  0  0  0  0  0  0
    2.4261   20.6449  -22.0451 C   0  0  0  0  0  0  0  0  0  0  0  0
    2.5925   21.0056  -23.3630 C   0  0  0  0  0  0  0  0  0  0  0  0
    1.5198   21.4631  -24.1354 C   0  0  0  0  0  0  0  0  0  0  0  0
    3.4935   20.1913  -21.2817 O   0  0  0  0  0  0  0  0  0  0  0  0
    3.8089   20.6852  -20.0451 C   0  0  0  0  0  0  0  0  0  0  0  0
    3.3903   20.0316  -18.8898 C   0  0  0  0  0  0  0  0  0  0  0  0
    3.7297   20.5630  -17.6657 C   0  0  0  0  0  0  0  0  0  0  0  0
    4.4725   21.7241  -17.5990 C   0  0  0  0  0  0  0  0  0  0  0  0
    4.8850   22.3682  -18.7470 C   0  0  0  0  0  0  0  0  0  0  0  0
    4.5441   21.8346  -19.9553 C   0  0  0  0  0  0  0  0  0  0  0  0
   -4.4838   22.6312  -24.6943 C   0  0  0  0  0  0  0  0  0  0  0  0
   -5.0476   21.3551  -24.1560 C   0  0  0  0  0  0  0  0  0  0  0  0
   -6.4884   21.4512  -23.7558 C   0  0  0  0  0  0  0  0  0  0  0  0
   -6.8033   22.6257  -22.8886 C   0  0  0  0  0  0  0  0  0  0  0  0
   -5.7725   23.6164  -22.8429 N   0  0  0  0  0  0  0  0  0  0  0  0
   -4.8456   23.8478  -23.9071 C   0  0  0  0  0  0  0  0  0  0  0  0
   -5.6516   24.4204  -21.6853 C   0  0  0  0  0  0  0  0  0  0  0  0
   -5.5493   25.0918  -20.7486 N   0  0  0  0  0  0  0  0  0  0  0  0
    0.4255   21.7151  -27.6691 N   0  0  0  0  0  0  0  0  0  0  0  0
    0.0776   22.6272  -26.6551 C   0  0  0  0  0  0  0  0  0  0  0  0
    0.7782   23.7021  -26.6086 O   0  0  0  0  0  0  0  0  0  0  0  0
    0.2987   21.9280  -28.6850 H   0  0  0  0  0  0  0  0  0  0  0  0
    0.8285   20.7809  -27.4348 H   0  0  0  0  0  0  0  0  0  0  0  0
 30 31  1  0  0  0
 31 32  2  0  0  0
 31  1  1  0  0  0
  1  2  2  0  0  0
  2  3  1  0  0  0
  2  4  1  0  0  0
  4  5  1  0  0  0
  5  6  2  0  0  0
  6  9  1  0  0  0
  9 10  2  0  0  0
 10 11  1  0  0  0
 11 12  2  0  0  0
 12 15  1  0  0  0
 15 16  1  0  0  0
 16 17  2  0  0  0
 17 18  1  0  0  0
 18 19  2  0  0  0
 19 20  1  0  0  0
 20 21  2  0  0  0
 12 13  1  0  0  0
 13 14  2  0  0  0
  4 22  1  0  0  0
 22 23  1  0  0  0
 23 24  1  0  0  0
 24 25  1  0  0  0
 25 26  1  0  0  0
 26 27  1  0  0  0
 26 28  1  0  0  0
 28 29  3  0  0  0
  6  1  1  0  0  0
 14  9  1  0  0  0
 27 22  1  0  0  0
 21 16  1  0  0  0
 30 33  1  0  0  0
 30 34  1  0  0  0
  3  7  1  0  0  0
  3  8  1  0  0  0
M  END
> <minimizedAffinity>
-7.39892

> <CNNscore>
0.4813502133

> <CNNaffinity>
6.4855132103

> <CNN_VS>
3.1218032837

> <CNNaffinity_variance>
0.1714719087

$$$$
[H]c1c([H])c([H])c(Oc2c([H])c([H])c(-c3nn(C4([H])C([H])([H])N(C#N)C([H])([H])C([H])([H])C4([H])[H])c(N([H])[H])c3C(=O)N([H])[H])c([H])c2[H])c([H])c1[H]


 34 37  0  0  0  0  0  0  0  0999 V2000
   -1.3597   22.8103  -26.5340 C   0  0  0  0  0  0  0  0  0  0  0  0
   -2.4964   23.4413  -27.0201 C   0  0  0  0  0  0  0  0  0  0  0  0
   -2.6949   23.7674  -28.3911 N   0  0  0  0  0  0  0  0  0  0  0  0
   -3.3212   23.6689  -26.0031 N   0  0  0  0  0  0  0  0  0  0  0  0
   -2.7443   23.2068  -24.9188 N   0  0  0  0  0  0  0  0  0  0  0  0
   -1.5304   22.6631  -25.1856 C   0  0  0  0  0  0  0  0  0  0  0  0
   -2.4844   24.6964  -28.8073 H   0  0  0  0  0  0  0  0  0  0  0  0
   -3.0786   23.0497  -29.0644 H   0  0  0  0  0  0  0  0  0  0  0  0
   -0.6221   22.0842  -24.1968 C   0  0  0  0  0  0  0  0  0  0  0  0
   -1.1500   21.4721  -23.0498 C   0  0  0  0  0  0  0  0  0  0  0  0
   -0.3559   20.8562  -22.1079 C   0  0  0  0  0  0  0  0  0  0  0  0
    1.0140   20.8146  -22.2551 C   0  0  0  0  0  0  0  0  0  0  0  0
    1.5514   21.4091  -23.3742 C   0  0  0  0  0  0  0  0  0  0  0  0
    0.7419   22.0333  -24.3289 C   0  0  0  0  0  0  0  0  0  0  0  0
    1.8211   20.1960  -21.3096 O   0  0  0  0  0  0  0  0  0  0  0  0
    2.1928   18.8803  -21.3700 C   0  0  0  0  0  0  0  0  0  0  0  0
    3.3520   18.4984  -22.0389 C   0  0  0  0  0  0  0  0  0  0  0  0
    3.6889   17.1637  -22.0754 C   0  0  0  0  0  0  0  0  0  0  0  0
    2.8828   16.2309  -21.4554 C   0  0  0  0  0  0  0  0  0  0  0  0
    1.7349   16.6146  -20.7938 C   0  0  0  0  0  0  0  0  0  0  0  0
    1.4089   17.9388  -20.7628 C   0  0  0  0  0  0  0  0  0  0  0  0
   -4.6288   24.3204  -26.1118 C   0  0  0  0  0  0  0  0  0  0  0  0
   -5.6390   23.2608  -26.4166 C   0  0  0  0  0  0  0  0  0  0  0  0
   -7.0576   23.7369  -26.3395 C   0  0  0  0  0  0  0  0  0  0  0  0
   -7.3804   24.4922  -25.0921 C   0  0  0  0  0  0  0  0  0  0  0  0
   -6.2351   24.9023  -24.3397 N   0  0  0  0  0  0  0  0  0  0  0  0
   -4.9541   25.1606  -24.9206 C   0  0  0  0  0  0  0  0  0  0  0  0
   -6.3625   25.0657  -22.9404 C   0  0  0  0  0  0  0  0  0  0  0  0
   -6.4811   25.2089  -21.7984 N   0  0  0  0  0  0  0  0  0  0  0  0
    0.2322   21.1135  -27.5830 N   0  0  0  0  0  0  0  0  0  0  0  0
   -0.2128   22.4318  -27.3697 C   0  0  0  0  0  0  0  0  0  0  0  0
    0.4608   23.3497  -27.9632 O   0  0  0  0  0  0  0  0  0  0  0  0
    0.1819   20.6470  -28.5175 H   0  0  0  0  0  0  0  0  0  0  0  0
    0.6335   20.5499  -26.8011 H   0  0  0  0  0  0  0  0  0  0  0  0
 30 31  1  0  0  0
 31 32  2  0  0  0
 31  1  1  0  0  0
  1  2  2  0  0  0
  2  3  1  0  0  0
  2  4  1  0  0  0
  4  5  1  0  0  0
  5  6  2  0  0  0
  6  9  1  0  0  0
  9 10  2  0  0  0
 10 11  1  0  0  0
 11 12  2  0  0  0
 12 15  1  0  0  0
 15 16  1  0  0  0
 16 17  2  0  0  0
 17 18  1  0  0  0
 18 19  2  0  0  0
 19 20  1  0  0  0
 20 21  2  0  0  0
 12 13  1  0  0  0
 13 14  2  0  0  0
  4 22  1  0  0  0
 22 23  1  0  0  0
 23 24  1  0  0  0
 24 25  1  0  0  0
 25 26  1  0  0  0
 26 27  1  0  0  0
 26 28  1  0  0  0
 28 29  3  0  0  0
  6  1  1  0  0  0
 14  9  1  0  0  0
 27 22  1  0  0  0
 21 16  1  0  0  0
 30 33  1  0  0  0
 30 34  1  0  0  0
  3  7  1  0  0  0
  3  8  1  0  0  0
M  END
> <minimizedAffinity>
-7.28541

> <CNNscore>
0.4428807795

> <CNNaffinity>
6.6331725121

> <CNN_VS>
2.9377045631

> <CNNaffinity_variance>
0.2548262179

$$$$
[H]c1c([H])c([H])c(Oc2c([H])c([H])c(-c3nn(C4([H])C([H])([H])N(C#N)C([H])([H])C([H])([H])C4([H])[H])c(N([H])[H])c3C(=O)N([H])[H])c([H])c2[H])c([H])c1[H]


 34 37  0  0  0  0  0  0  0  0999 V2000
   -1.4388   22.6527  -25.1998 C   0  0  0  0  0  0  0  0  0  0  0  0
   -2.4086   23.2076  -26.0231 C   0  0  0  0  0  0  0  0  0  0  0  0
   -2.2506   23.3790  -27.4272 N   0  0  0  0  0  0  0  0  0  0  0  0
   -3.4611   23.5306  -25.2786 N   0  0  0  0  0  0  0  0  0  0  0  0
   -3.1821   23.1993  -24.0398 N   0  0  0  0  0  0  0  0  0  0  0  0
   -1.9463   22.6505  -23.9303 C   0  0  0  0  0  0  0  0  0  0  0  0
   -1.9315   24.2606  -27.8760 H   0  0  0  0  0  0  0  0  0  0  0  0
   -2.4597   22.5858  -28.0926 H   0  0  0  0  0  0  0  0  0  0  0  0
   -1.3239   22.1982  -22.6870 C   0  0  0  0  0  0  0  0  0  0  0  0
   -1.3252   23.0437  -21.5672 C   0  0  0  0  0  0  0  0  0  0  0  0
   -0.8092   22.6595  -20.3493 C   0  0  0  0  0  0  0  0  0  0  0  0
   -0.2605   21.4067  -20.1767 C   0  0  0  0  0  0  0  0  0  0  0  0
   -0.2501   20.5620  -21.2634 C   0  0  0  0  0  0  0  0  0  0  0  0
   -0.7755   20.9555  -22.4986 C   0  0  0  0  0  0  0  0  0  0  0  0
    0.2621   21.0123  -18.9522 O   0  0  0  0  0  0  0  0  0  0  0  0
    1.2540   21.6881  -18.2948 C   0  0  0  0  0  0  0  0  0  0  0  0
    1.1601   21.9381  -16.9289 C   0  0  0  0  0  0  0  0  0  0  0  0
    2.1808   22.6216  -16.3068 C   0  0  0  0  0  0  0  0  0  0  0  0
    3.2726   23.0460  -17.0363 C   0  0  0  0  0  0  0  0  0  0  0  0
    3.3609   22.7959  -18.3899 C   0  0  0  0  0  0  0  0  0  0  0  0
    2.3451   22.1181  -18.9978 C   0  0  0  0  0  0  0  0  0  0  0  0
   -4.6914   24.1441  -25.7845 C   0  0  0  0  0  0  0  0  0  0  0  0
   -4.3893   25.5751  -26.0961 C   0  0  0  0  0  0  0  0  0  0  0  0
   -5.4890   26.2799  -26.8303 C   0  0  0  0  0  0  0  0  0  0  0  0
   -6.0060   25.5338  -28.0164 C   0  0  0  0  0  0  0  0  0  0  0  0
   -5.5998   24.1635  -28.0722 N   0  0  0  0  0  0  0  0  0  0  0  0
   -5.2929   23.3783  -26.9170 C   0  0  0  0  0  0  0  0  0  0  0  0
   -5.4912   23.5364  -29.3356 C   0  0  0  0  0  0  0  0  0  0  0  0
   -5.4195   23.0262  -30.3716 N   0  0  0  0  0  0  0  0  0  0  0  0
    1.0945   22.4186  -24.9976 N   0  0  0  0  0  0  0  0  0  0  0  0
   -0.1222   22.2049  -25.6722 C   0  0  0  0  0  0  0  0  0  0  0  0
   -0.0379   21.5699  -26.7849 O   0  0  0  0  0  0  0  0  0  0  0  0
    1.6577   21.6364  -24.5918 H   0  0  0  0  0  0  0  0  0  0  0  0
    1.4800   23.3816  -24.8790 H   0  0  0  0  0  0  0  0  0  0  0  0
 30 31  1  0  0  0
 31 32  2  0  0  0
 31  1  1  0  0  0
  1  2  2  0  0  0
  2  3  1  0  0  0
  2  4  1  0  0  0
  4  5  1  0  0  0
  5  6  2  0  0  0
  6  9  1  0  0  0
  9 10  2  0  0  0
 10 11  1  0  0  0
 11 12  2  0  0  0
 12 15  1  0  0  0
 15 16  1  0  0  0
 16 17  2  0  0  0
 17 18  1  0  0  0
 18 19  2  0  0  0
 19 20  1  0  0  0
 20 21  2  0  0  0
 12 13  1  0  0  0
 13 14  2  0  0  0
  4 22  1  0  0  0
 22 23  1  0  0  0
 23 24  1  0  0  0
 24 25  1  0  0  0
 25 26  1  0  0  0
 26 27  1  0  0  0
 26 28  1  0  0  0
 28 29  3  0  0  0
  6  1  1  0  0  0
 14  9  1  0  0  0
 27 22  1  0  0  0
 21 16  1  0  0  0
 30 33  1  0  0  0
 30 34  1  0  0  0
  3  7  1  0  0  0
  3  8  1  0  0  0
M  END
> <minimizedAffinity>
-7.53416

> <CNNscore>
0.3807419837

> <CNNaffinity>
6.4545378685

> <CNN_VS>
2.4575135708

> <CNNaffinity_variance>
0.1679047644

$$$$
[H]c1c([H])c([H])c(Oc2c([H])c([H])c(-c3nn(C4([H])C([H])([H])N(C#N)C([H])([H])C([H])([H])C4([H])[H])c(N([H])[H])c3C(=O)N([H])[H])c([H])c2[H])c([H])c1[H]


 34 37  0  0  0  0  0  0  0  0999 V2000
   -1.4666   22.6892  -25.1990 C   0  0  0  0  0  0  0  0  0  0  0  0
   -2.4328   23.2299  -26.0360 C   0  0  0  0  0  0  0  0  0  0  0  0
   -2.2571   23.4045  -27.4375 N   0  0  0  0  0  0  0  0  0  0  0  0
   -3.5006   23.5365  -25.3066 N   0  0  0  0  0  0  0  0  0  0  0  0
   -3.2346   23.2086  -24.0641 N   0  0  0  0  0  0  0  0  0  0  0  0
   -1.9923   22.6785  -23.9370 C   0  0  0  0  0  0  0  0  0  0  0  0
   -1.9448   24.2911  -27.8814 H   0  0  0  0  0  0  0  0  0  0  0  0
   -2.4446   22.6087  -28.1062 H   0  0  0  0  0  0  0  0  0  0  0  0
   -1.3812   22.2348  -22.6850 C   0  0  0  0  0  0  0  0  0  0  0  0
   -1.2689   23.1353  -21.6147 C   0  0  0  0  0  0  0  0  0  0  0  0
   -0.7578   22.7683  -20.3895 C   0  0  0  0  0  0  0  0  0  0  0  0
   -0.3279   21.4790  -20.1595 C   0  0  0  0  0  0  0  0  0  0  0  0
   -0.4302   20.5802  -21.1969 C   0  0  0  0  0  0  0  0  0  0  0  0
   -0.9501   20.9563  -22.4398 C   0  0  0  0  0  0  0  0  0  0  0  0
    0.1890   21.1016  -18.9273 O   0  0  0  0  0  0  0  0  0  0  0  0
   -0.5457   21.0632  -17.7733 C   0  0  0  0  0  0  0  0  0  0  0  0
   -1.8967   20.7299  -17.8007 C   0  0  0  0  0  0  0  0  0  0  0  0
   -2.5986   20.7032  -16.6164 C   0  0  0  0  0  0  0  0  0  0  0  0
   -1.9619   21.0037  -15.4295 C   0  0  0  0  0  0  0  0  0  0  0  0
   -0.6227   21.3334  -15.4077 C   0  0  0  0  0  0  0  0  0  0  0  0
    0.0647   21.3574  -16.5857 C   0  0  0  0  0  0  0  0  0  0  0  0
   -4.7326   24.1317  -25.8300 C   0  0  0  0  0  0  0  0  0  0  0  0
   -4.4502   25.5696  -26.1279 C   0  0  0  0  0  0  0  0  0  0  0  0
   -5.5493   26.2598  -26.8768 C   0  0  0  0  0  0  0  0  0  0  0  0
   -6.0329   25.5123  -28.0759 C   0  0  0  0  0  0  0  0  0  0  0  0
   -5.6019   24.1495  -28.1329 N   0  0  0  0  0  0  0  0  0  0  0  0
   -5.3012   23.3627  -26.9772 C   0  0  0  0  0  0  0  0  0  0  0  0
   -5.4608   23.5322  -29.3979 C   0  0  0  0  0  0  0  0  0  0  0  0
   -5.3613   23.0333  -30.4370 N   0  0  0  0  0  0  0  0  0  0  0  0
    1.0646   22.4774  -24.9516 N   0  0  0  0  0  0  0  0  0  0  0  0
   -0.1368   22.2616  -25.6525 C   0  0  0  0  0  0  0  0  0  0  0  0
   -0.0248   21.6439  -26.7725 O   0  0  0  0  0  0  0  0  0  0  0  0
    1.6279   21.6950  -24.5465 H   0  0  0  0  0  0  0  0  0  0  0  0
    1.4378   23.4424  -24.8117 H   0  0  0  0  0  0  0  0  0  0  0  0
 30 31  1  0  0  0
 31 32  2  0  0  0
 31  1  1  0  0  0
  1  2  2  0  0  0
  2  3  1  0  0  0
  2  4  1  0  0  0
  4  5  1  0  0  0
  5  6  2  0  0  0
  6  9  1  0  0  0
  9 10  2  0  0  0
 10 11  1  0  0  0
 11 12  2  0  0  0
 12 15  1  0  0  0
 15 16  1  0  0  0
 16 17  2  0  0  0
 17 18  1  0  0  0
 18 19  2  0  0  0
 19 20  1  0  0  0
 20 21  2  0  0  0
 12 13  1  0  0  0
 13 14  2  0  0  0
  4 22  1  0  0  0
 22 23  1  0  0  0
 23 24  1  0  0  0
 24 25  1  0  0  0
 25 26  1  0  0  0
 26 27  1  0  0  0
 26 28  1  0  0  0
 28 29  3  0  0  0
  6  1  1  0  0  0
 14  9  1  0  0  0
 27 22  1  0  0  0
 21 16  1  0  0  0
 30 33  1  0  0  0
 30 34  1  0  0  0
  3  7  1  0  0  0
  3  8  1  0  0  0
M  END
> <minimizedAffinity>
-6.99612

> <CNNscore>
0.3642766178

> <CNNaffinity>
6.4584436417

> <CNN_VS>
2.3526599407

> <CNNaffinity_variance>
0.2738268375

$$$$
[H]c1c([H])c([H])c(Oc2c([H])c([H])c(-c3nn(C4([H])C([H])([H])N(C#N)C([H])([H])C([H])([H])C4([H])[H])c(N([H])[H])c3C(=O)N([H])[H])c([H])c2[H])c([H])c1[H]


 34 37  0  0  0  0  0  0  0  0999 V2000
   -1.3997   22.7031  -25.3004 C   0  0  0  0  0  0  0  0  0  0  0  0
   -2.3234   23.2389  -26.1870 C   0  0  0  0  0  0  0  0  0  0  0  0
   -2.0949   23.3667  -27.5860 N   0  0  0  0  0  0  0  0  0  0  0  0
   -3.4088   23.5909  -25.5056 N   0  0  0  0  0  0  0  0  0  0  0  0
   -3.1938   23.2954  -24.2452 N   0  0  0  0  0  0  0  0  0  0  0  0
   -1.9693   22.7425  -24.0581 C   0  0  0  0  0  0  0  0  0  0  0  0
   -1.7471   24.2323  -28.0447 H   0  0  0  0  0  0  0  0  0  0  0  0
   -2.2770   22.5551  -28.2369 H   0  0  0  0  0  0  0  0  0  0  0  0
   -1.4125   22.3241  -22.7725 C   0  0  0  0  0  0  0  0  0  0  0  0
   -1.4203   23.2202  -21.6927 C   0  0  0  0  0  0  0  0  0  0  0  0
   -0.9660   22.8728  -20.4397 C   0  0  0  0  0  0  0  0  0  0  0  0
   -0.4764   21.6086  -20.1898 C   0  0  0  0  0  0  0  0  0  0  0  0
   -0.4609   20.7146  -21.2362 C   0  0  0  0  0  0  0  0  0  0  0  0
   -0.9234   21.0707  -22.5073 C   0  0  0  0  0  0  0  0  0  0  0  0
   -0.0163   21.2511  -18.9294 O   0  0  0  0  0  0  0  0  0  0  0  0
    1.0905   21.7987  -18.3397 C   0  0  0  0  0  0  0  0  0  0  0  0
    1.1110   22.0641  -16.9736 C   0  0  0  0  0  0  0  0  0  0  0  0
    2.2453   22.6156  -16.4209 C   0  0  0  0  0  0  0  0  0  0  0  0
    3.3360   22.8956  -17.2185 C   0  0  0  0  0  0  0  0  0  0  0  0
    3.3106   22.6308  -18.5719 C   0  0  0  0  0  0  0  0  0  0  0  0
    2.1828   22.0844  -19.1109 C   0  0  0  0  0  0  0  0  0  0  0  0
   -4.6078   24.1964  -26.0900 C   0  0  0  0  0  0  0  0  0  0  0  0
   -5.5853   23.0972  -26.3594 C   0  0  0  0  0  0  0  0  0  0  0  0
   -6.9474   23.5816  -26.7533 C   0  0  0  0  0  0  0  0  0  0  0  0
   -7.5049   24.6336  -25.8517 C   0  0  0  0  0  0  0  0  0  0  0  0
   -6.5450   25.2201  -24.9681 N   0  0  0  0  0  0  0  0  0  0  0  0
   -5.1489   25.3161  -25.2628 C   0  0  0  0  0  0  0  0  0  0  0  0
   -6.9879   25.7388  -23.7288 C   0  0  0  0  0  0  0  0  0  0  0  0
   -7.3336   26.1664  -22.7108 N   0  0  0  0  0  0  0  0  0  0  0  0
    1.1088   22.4064  -24.9361 N   0  0  0  0  0  0  0  0  0  0  0  0
   -0.0649   22.2330  -25.6933 C   0  0  0  0  0  0  0  0  0  0  0  0
    0.0789   21.6154  -26.8098 O   0  0  0  0  0  0  0  0  0  0  0  0
    1.6263   21.6045  -24.5088 H   0  0  0  0  0  0  0  0  0  0  0  0
    1.5068   23.3580  -24.7743 H   0  0  0  0  0  0  0  0  0  0  0  0
 30 31  1  0  0  0
 31 32  2  0  0  0
 31  1  1  0  0  0
  1  2  2  0  0  0
  2  3  1  0  0  0
  2  4  1  0  0  0
  4  5  1  0  0  0
  5  6  2  0  0  0
  6  9  1  0  0  0
  9 10  2  0  0  0
 10 11  1  0  0  0
 11 12  2  0  0  0
 12 15  1  0  0  0
 15 16  1  0  0  0
 16 17  2  0  0  0
 17 18  1  0  0  0
 18 19  2  0  0  0
 19 20  1  0  0  0
 20 21  2  0  0  0
 12 13  1  0  0  0
 13 14  2  0  0  0
  4 22  1  0  0  0
 22 23  1  0  0  0
 23 24  1  0  0  0
 24 25  1  0  0  0
 25 26  1  0  0  0
 26 27  1  0  0  0
 26 28  1  0  0  0
 28 29  3  0  0  0
  6  1  1  0  0  0
 14  9  1  0  0  0
 27 22  1  0  0  0
 21 16  1  0  0  0
 30 33  1  0  0  0
 30 34  1  0  0  0
  3  7  1  0  0  0
  3  8  1  0  0  0
M  END
> <minimizedAffinity>
-7.31644

> <CNNscore>
0.3348104358

> <CNNaffinity>
6.3969750404

> <CNN_VS>
2.1417739391

> <CNNaffinity_variance>
0.1717176139

$$$$
[H]c1c([H])c([H])c(Oc2c([H])c([H])c(-c3nn(C4([H])C([H])([H])N(C#N)C([H])([H])C([H])([H])C4([H])[H])c(N([H])[H])c3C(=O)N([H])[H])c([H])c2[H])c([H])c1[H]


 34 37  0  0  0  0  0  0  0  0999 V2000
   -1.4143   22.6981  -25.2814 C   0  0  0  0  0  0  0  0  0  0  0  0
   -2.3468   23.2530  -26.1469 C   0  0  0  0  0  0  0  0  0  0  0  0
   -2.1293   23.4183  -27.5436 N   0  0  0  0  0  0  0  0  0  0  0  0
   -3.4284   23.5826  -25.4485 N   0  0  0  0  0  0  0  0  0  0  0  0
   -3.2029   23.2552  -24.1978 N   0  0  0  0  0  0  0  0  0  0  0  0
   -1.9747   22.7026  -24.0344 C   0  0  0  0  0  0  0  0  0  0  0  0
   -1.7884   24.2970  -27.9821 H   0  0  0  0  0  0  0  0  0  0  0  0
   -2.3130   22.6232  -28.2142 H   0  0  0  0  0  0  0  0  0  0  0  0
   -1.4068   22.2532  -22.7643 C   0  0  0  0  0  0  0  0  0  0  0  0
   -1.3919   23.1276  -21.6670 C   0  0  0  0  0  0  0  0  0  0  0  0
   -0.9261   22.7508  -20.4268 C   0  0  0  0  0  0  0  0  0  0  0  0
   -0.4467   21.4769  -20.2080 C   0  0  0  0  0  0  0  0  0  0  0  0
   -0.4533   20.6038  -21.2719 C   0  0  0  0  0  0  0  0  0  0  0  0
   -0.9275   20.9898  -22.5299 C   0  0  0  0  0  0  0  0  0  0  0  0
    0.0250   21.0898  -18.9607 O   0  0  0  0  0  0  0  0  0  0  0  0
   -0.7790   20.8895  -17.8716 C   0  0  0  0  0  0  0  0  0  0  0  0
   -1.9245   20.1049  -17.9675 C   0  0  0  0  0  0  0  0  0  0  0  0
   -2.7054   19.9294  -16.8469 C   0  0  0  0  0  0  0  0  0  0  0  0
   -2.3473   20.5264  -15.6554 C   0  0  0  0  0  0  0  0  0  0  0  0
   -1.2109   21.3030  -15.5656 C   0  0  0  0  0  0  0  0  0  0  0  0
   -0.4434   21.4715  -16.6807 C   0  0  0  0  0  0  0  0  0  0  0  0
   -4.6342   24.1982  -26.0080 C   0  0  0  0  0  0  0  0  0  0  0  0
   -5.6207   23.1055  -26.2706 C   0  0  0  0  0  0  0  0  0  0  0  0
   -6.9870   23.5989  -26.6381 C   0  0  0  0  0  0  0  0  0  0  0  0
   -7.5250   24.6456  -25.7185 C   0  0  0  0  0  0  0  0  0  0  0  0
   -6.5482   25.2204  -24.8458 N   0  0  0  0  0  0  0  0  0  0  0  0
   -5.1567   25.3130  -25.1625 C   0  0  0  0  0  0  0  0  0  0  0  0
   -6.9686   25.7304  -23.5951 C   0  0  0  0  0  0  0  0  0  0  0  0
   -7.3253   26.1561  -22.5801 N   0  0  0  0  0  0  0  0  0  0  0  0
    1.1039   22.4357  -24.9607 N   0  0  0  0  0  0  0  0  0  0  0  0
   -0.0807   22.2440  -25.6963 C   0  0  0  0  0  0  0  0  0  0  0  0
    0.0514   21.6241  -26.8129 O   0  0  0  0  0  0  0  0  0  0  0  0
    1.6395   21.6422  -24.5398 H   0  0  0  0  0  0  0  0  0  0  0  0
    1.4922   23.3930  -24.8094 H   0  0  0  0  0  0  0  0  0  0  0  0
 30 31  1  0  0  0
 31 32  2  0  0  0
 31  1  1  0  0  0
  1  2  2  0  0  0
  2  3  1  0  0  0
  2  4  1  0  0  0
  4  5  1  0  0  0
  5  6  2  0  0  0
  6  9  1  0  0  0
  9 10  2  0  0  0
 10 11  1  0  0  0
 11 12  2  0  0  0
 12 15  1  0  0  0
 15 16  1  0  0  0
 16 17  2  0  0  0
 17 18  1  0  0  0
 18 19  2  0  0  0
 19 20  1  0  0  0
 20 21  2  0  0  0
 12 13  1  0  0  0
 13 14  2  0  0  0
  4 22  1  0  0  0
 22 23  1  0  0  0
 23 24  1  0  0  0
 24 25  1  0  0  0
 25 26  1  0  0  0
 26 27  1  0  0  0
 26 28  1  0  0  0
 28 29  3  0  0  0
  6  1  1  0  0  0
 14  9  1  0  0  0
 27 22  1  0  0  0
 21 16  1  0  0  0
 30 33  1  0  0  0
 30 34  1  0  0  0
  3  7  1  0  0  0
  3  8  1  0  0  0
M  END
> <minimizedAffinity>
-6.76039

> <CNNscore>
0.2708904743

> <CNNaffinity>
6.4141874313

> <CNN_VS>
1.7375422716

> <CNNaffinity_variance>
0.3958424628

$$$$
[H]c1c([H])c([H])c(Oc2c([H])c([H])c(-c3nn(C4([H])C([H])([H])N(C#N)C([H])([H])C([H])([H])C4([H])[H])c(N([H])[H])c3C(=O)N([H])[H])c([H])c2[H])c([H])c1[H]


 34 37  0  0  0  0  0  0  0  0999 V2000
   -2.5411   23.1184  -25.9795 C   0  0  0  0  0  0  0  0  0  0  0  0
   -3.6657   23.8914  -26.2327 C   0  0  0  0  0  0  0  0  0  0  0  0
   -4.0555   24.3184  -27.5332 N   0  0  0  0  0  0  0  0  0  0  0  0
   -4.2759   24.1410  -25.0787 N   0  0  0  0  0  0  0  0  0  0  0  0
   -3.5793   23.5573  -24.1321 N   0  0  0  0  0  0  0  0  0  0  0  0
   -2.4966   22.9084  -24.6292 C   0  0  0  0  0  0  0  0  0  0  0  0
   -3.8157   25.2442  -27.9406 H   0  0  0  0  0  0  0  0  0  0  0  0
   -4.6255   23.6861  -28.1584 H   0  0  0  0  0  0  0  0  0  0  0  0
   -1.5048   22.1803  -23.8394 C   0  0  0  0  0  0  0  0  0  0  0  0
   -0.1414   22.3312  -24.1347 C   0  0  0  0  0  0  0  0  0  0  0  0
    0.8477   21.7216  -23.3950 C   0  0  0  0  0  0  0  0  0  0  0  0
    0.5342   20.9241  -22.3152 C   0  0  0  0  0  0  0  0  0  0  0  0
   -0.7980   20.7638  -22.0088 C   0  0  0  0  0  0  0  0  0  0  0  0
   -1.7999   21.3848  -22.7620 C   0  0  0  0  0  0  0  0  0  0  0  0
    1.5258   20.3059  -21.5651 O   0  0  0  0  0  0  0  0  0  0  0  0
    2.3581   20.9723  -20.7072 C   0  0  0  0  0  0  0  0  0  0  0  0
    3.7370   20.9524  -20.8946 C   0  0  0  0  0  0  0  0  0  0  0  0
    4.5380   21.6366  -20.0077 C   0  0  0  0  0  0  0  0  0  0  0  0
    3.9709   22.3262  -18.9555 C   0  0  0  0  0  0  0  0  0  0  0  0
    2.6036   22.3428  -18.7741 C   0  0  0  0  0  0  0  0  0  0  0  0
    1.8179   21.6623  -19.6576 C   0  0  0  0  0  0  0  0  0  0  0  0
   -5.5017   24.9292  -24.9300 C   0  0  0  0  0  0  0  0  0  0  0  0
   -6.6581   24.0292  -25.2284 C   0  0  0  0  0  0  0  0  0  0  0  0
   -7.9920   24.6299  -24.9044 C   0  0  0  0  0  0  0  0  0  0  0  0
   -8.0742   25.2326  -23.5403 C   0  0  0  0  0  0  0  0  0  0  0  0
   -6.8077   25.4168  -22.9013 N   0  0  0  0  0  0  0  0  0  0  0  0
   -5.5831   25.6236  -23.6102 C   0  0  0  0  0  0  0  0  0  0  0  0
   -6.7486   25.3956  -21.4881 C   0  0  0  0  0  0  0  0  0  0  0  0
   -6.6850   25.3696  -20.3331 N   0  0  0  0  0  0  0  0  0  0  0  0
   -0.2638   23.0969  -27.1314 N   0  0  0  0  0  0  0  0  0  0  0  0
   -1.6018   22.6747  -27.0176 C   0  0  0  0  0  0  0  0  0  0  0  0
   -2.0000   21.8404  -27.9086 O   0  0  0  0  0  0  0  0  0  0  0  0
    0.5446   22.4489  -26.9899 H   0  0  0  0  0  0  0  0  0  0  0  0
   -0.0323   24.0879  -27.3648 H   0  0  0  0  0  0  0  0  0  0  0  0
 30 31  1  0  0  0
 31 32  2  0  0  0
 31  1  1  0  0  0
  1  2  2  0  0  0
  2  3  1  0  0  0
  2  4  1  0  0  0
  4  5  1  0  0  0
  5  6  2  0  0  0
  6  9  1  0  0  0
  9 10  2  0  0  0
 10 11  1  0  0  0
 11 12  2  0  0  0
 12 15  1  0  0  0
 15 16  1  0  0  0
 16 17  2  0  0  0
 17 18  1  0  0  0
 18 19  2  0  0  0
 19 20  1  0  0  0
 20 21  2  0  0  0
 12 13  1  0  0  0
 13 14  2  0  0  0
  4 22  1  0  0  0
 22 23  1  0  0  0
 23 24  1  0  0  0
 24 25  1  0  0  0
 25 26  1  0  0  0
 26 27  1  0  0  0
 26 28  1  0  0  0
 28 29  3  0  0  0
  6  1  1  0  0  0
 14  9  1  0  0  0
 27 22  1  0  0  0
 21 16  1  0  0  0
 30 33  1  0  0  0
 30 34  1  0  0  0
  3  7  1  0  0  0
  3  8  1  0  0  0
M  END
> <minimizedAffinity>
-7.37419

> <CNNscore>
0.2189488560

> <CNNaffinity>
6.3783006668

> <CNN_VS>
1.3965216875

> <CNNaffinity_variance>
0.2622669339

$$$$
[H]c1c([H])c([H])c(Oc2c([H])c([H])c(-c3nn(C4([H])C([H])([H])N(C#N)C([H])([H])C([H])([H])C4([H])[H])c(N([H])[H])c3C(=O)N([H])[H])c([H])c2[H])c([H])c1[H]


 34 37  0  0  0  0  0  0  0  0999 V2000
   -3.5343   22.7973  -22.5419 C   0  0  0  0  0  0  0  0  0  0  0  0
   -3.0088   22.7164  -23.8240 C   0  0  0  0  0  0  0  0  0  0  0  0
   -1.6163   22.7715  -24.1130 N   0  0  0  0  0  0  0  0  0  0  0  0
   -4.0125   22.5836  -24.6849 N   0  0  0  0  0  0  0  0  0  0  0  0
   -5.1265   22.5785  -23.9912 N   0  0  0  0  0  0  0  0  0  0  0  0
   -4.8932   22.7058  -22.6609 C   0  0  0  0  0  0  0  0  0  0  0  0
   -1.1104   23.6368  -24.3886 H   0  0  0  0  0  0  0  0  0  0  0  0
   -1.0204   21.9013  -24.0560 H   0  0  0  0  0  0  0  0  0  0  0  0
   -5.9179   22.7604  -21.6193 C   0  0  0  0  0  0  0  0  0  0  0  0
   -5.9873   23.8809  -20.7775 C   0  0  0  0  0  0  0  0  0  0  0  0
   -6.9622   24.0240  -19.8151 C   0  0  0  0  0  0  0  0  0  0  0  0
   -7.9269   23.0559  -19.6356 C   0  0  0  0  0  0  0  0  0  0  0  0
   -7.8764   21.9490  -20.4520 C   0  0  0  0  0  0  0  0  0  0  0  0
   -6.8851   21.8071  -21.4287 C   0  0  0  0  0  0  0  0  0  0  0  0
   -8.9126   23.1930  -18.6673 O   0  0  0  0  0  0  0  0  0  0  0  0
   -9.3724   22.1590  -17.8977 C   0  0  0  0  0  0  0  0  0  0  0  0
   -8.5933   21.6355  -16.8702 C   0  0  0  0  0  0  0  0  0  0  0  0
   -9.0945   20.5951  -16.1201 C   0  0  0  0  0  0  0  0  0  0  0  0
  -10.3492   20.0893  -16.3927 C   0  0  0  0  0  0  0  0  0  0  0  0
  -11.1175   20.6116  -17.4122 C   0  0  0  0  0  0  0  0  0  0  0  0
  -10.6129   21.6421  -18.1501 C   0  0  0  0  0  0  0  0  0  0  0  0
   -3.8634   22.4674  -26.1375 C   0  0  0  0  0  0  0  0  0  0  0  0
   -4.1575   23.8076  -26.7320 C   0  0  0  0  0  0  0  0  0  0  0  0
   -3.8324   23.9071  -28.1913 C   0  0  0  0  0  0  0  0  0  0  0  0
   -2.4695   23.4108  -28.5476 C   0  0  0  0  0  0  0  0  0  0  0  0
   -1.8333   22.6485  -27.5179 N   0  0  0  0  0  0  0  0  0  0  0  0
   -2.5450   21.8898  -26.5365 C   0  0  0  0  0  0  0  0  0  0  0  0
   -0.4202   22.6351  -27.4550 C   0  0  0  0  0  0  0  0  0  0  0  0
    0.7363   22.6220  -27.4208 N   0  0  0  0  0  0  0  0  0  0  0  0
   -2.7823   22.1685  -20.1856 N   0  0  0  0  0  0  0  0  0  0  0  0
   -2.7202   22.9808  -21.3334 C   0  0  0  0  0  0  0  0  0  0  0  0
   -1.8792   23.9498  -21.2849 O   0  0  0  0  0  0  0  0  0  0  0  0
   -1.9877   21.5593  -19.8837 H   0  0  0  0  0  0  0  0  0  0  0  0
   -3.6388   22.1482  -19.5888 H   0  0  0  0  0  0  0  0  0  0  0  0
 30 31  1  0  0  0
 31 32  2  0  0  0
 31  1  1  0  0  0
  1  2  2  0  0  0
  2  3  1  0  0  0
  2  4  1  0  0  0
  4  5  1  0  0  0
  5  6  2  0  0  0
  6  9  1  0  0  0
  9 10  2  0  0  0
 10 11  1  0  0  0
 11 12  2  0  0  0
 12 15  1  0  0  0
 15 16  1  0  0  0
 16 17  2  0  0  0
 17 18  1  0  0  0
 18 19  2  0  0  0
 19 20  1  0  0  0
 20 21  2  0  0  0
 12 13  1  0  0  0
 13 14  2  0  0  0
  4 22  1  0  0  0
 22 23  1  0  0  0
 23 24  1  0  0  0
 24 25  1  0  0  0
 25 26  1  0  0  0
 26 27  1  0  0  0
 26 28  1  0  0  0
 28 29  3  0  0  0
  6  1  1  0  0  0
 14  9  1  0  0  0
 27 22  1  0  0  0
 21 16  1  0  0  0
 30 33  1  0  0  0
 30 34  1  0  0  0
  3  7  1  0  0  0
  3  8  1  0  0  0
M  END
> <minimizedAffinity>
-7.03352

> <CNNscore>
0.1668840498

> <CNNaffinity>
6.1128759384

> <CNN_VS>
1.0201414824

> <CNNaffinity_variance>
0.2277764976

$$$$
[H]N=C(N([H])[H])N([H])C([H])([H])C([H])([H])C([H])([H])[C@@]1([H])C(=O)N2C([H])([H])C([H])([H])C([H])([H])[C@@]2([H])C(=O)N([H])[C@@]([H])(C([H])(C([H])([H])[H])C([H])([H])[H])C(=O)N([H])[C@@]([H])(C([H])([H])c2c([H])c([H])c([H])c([H])c2[H])C(=O)N2C([H])([H])C([H])([H])C([H])([H])[C@@]2([H])C(=O)N1[H]


 50 53  0  0  0  0  0  0  0  0999 V2000
   -5.3027   20.5314  -15.8978 C   0  0  0  0  0  0  0  0  0  0  0  0
   -4.8245   21.1332  -17.1219 N   0  0  0  0  0  0  0  0  0  0  0  0
   -3.5680   20.9220  -17.7443 C   0  0  0  0  0  0  0  0  0  0  0  0
   -3.6171   20.8724  -19.0203 O   0  0  0  0  0  0  0  0  0  0  0  0
   -2.2752   20.7642  -17.1482 C   0  0  0  0  0  0  0  0  0  0  0  0
   -1.1113   21.1200  -18.0987 C   0  0  0  0  0  0  0  0  0  0  0  0
    0.0687   20.6909  -17.2082 C   0  0  0  0  0  0  0  0  0  0  0  0
   -0.5614   20.0372  -15.9931 C   0  0  0  0  0  0  0  0  0  0  0  0
   -1.7952   19.5059  -16.6637 N   0  0  0  0  0  0  0  0  0  0  0  0
   -2.2718   18.1978  -16.7435 C   0  0  0  0  0  0  0  0  0  0  0  0
   -2.6519   17.7239  -15.5837 O   0  0  0  0  0  0  0  0  0  0  0  0
   -2.4369   17.2391  -17.8359 C   0  0  0  0  0  0  0  0  0  0  0  0
   -3.5510   17.3884  -18.7087 N   0  0  0  0  0  0  0  0  0  0  0  0
   -4.8096   16.7643  -18.6843 C   0  0  0  0  0  0  0  0  0  0  0  0
   -5.2108   16.1998  -19.7645 O   0  0  0  0  0  0  0  0  0  0  0  0
   -5.7110   16.7030  -17.5228 C   0  0  0  0  0  0  0  0  0  0  0  0
   -5.4623   15.3809  -16.7712 C   0  0  0  0  0  0  0  0  0  0  0  0
   -6.0612   14.4301  -17.7783 C   0  0  0  0  0  0  0  0  0  0  0  0
   -7.2256   15.1514  -18.3391 C   0  0  0  0  0  0  0  0  0  0  0  0
   -7.1104   16.5272  -17.8231 N   0  0  0  0  0  0  0  0  0  0  0  0
   -8.1625   17.4604  -17.6433 C   0  0  0  0  0  0  0  0  0  0  0  0
   -9.3602   16.9510  -17.5683 O   0  0  0  0  0  0  0  0  0  0  0  0
   -8.0296   18.9253  -17.5342 C   0  0  0  0  0  0  0  0  0  0  0  0
   -7.6485   19.4163  -16.2297 N   0  0  0  0  0  0  0  0  0  0  0  0
   -6.7737   20.4063  -15.8227 C   0  0  0  0  0  0  0  0  0  0  0  0
   -7.3033   21.4543  -15.2556 O   0  0  0  0  0  0  0  0  0  0  0  0
   -5.5202   21.8062  -17.5743 H   0  0  0  0  0  0  0  0  0  0  0  0
   -3.3757   18.0859  -19.5131 H   0  0  0  0  0  0  0  0  0  0  0  0
   -8.1885   18.9129  -15.4289 H   0  0  0  0  0  0  0  0  0  0  0  0
   -4.1815   22.6103  -15.1455 C   0  0  0  0  0  0  0  0  0  0  0  0
   -4.7711   21.2839  -14.6739 C   0  0  0  0  0  0  0  0  0  0  0  0
   -3.6925   20.5508  -13.9415 C   0  0  0  0  0  0  0  0  0  0  0  0
   -1.1305   17.1591  -18.6969 C   0  0  0  0  0  0  0  0  0  0  0  0
   -1.1962   15.8688  -19.4106 C   0  0  0  0  0  0  0  0  0  0  0  0
    0.0354   15.1068  -19.6640 C   0  0  0  0  0  0  0  0  0  0  0  0
    0.8042   15.5917  -20.7575 N   0  0  0  0  0  0  0  0  0  0  0  0
    0.5006   15.4740  -21.7771 H   0  0  0  0  0  0  0  0  0  0  0  0
    2.0296   16.2664  -20.5907 C   0  0  0  0  0  0  0  0  0  0  0  0
    2.4202   17.3897  -21.3784 N   0  0  0  0  0  0  0  0  0  0  0  0
    2.8465   15.8724  -19.6734 N   0  0  0  0  0  0  0  0  0  0  0  0
    1.6844   17.9720  -21.8451 H   0  0  0  0  0  0  0  0  0  0  0  0
    3.4036   17.6511  -21.5060 H   0  0  0  0  0  0  0  0  0  0  0  0
    2.5996   15.0670  -19.0675 H   0  0  0  0  0  0  0  0  0  0  0  0
   -7.4796   19.6467  -18.7092 C   0  0  0  0  0  0  0  0  0  0  0  0
   -8.3303   20.7741  -19.1623 C   0  0  0  0  0  0  0  0  0  0  0  0
   -8.0167   21.4633  -20.3406 C   0  0  0  0  0  0  0  0  0  0  0  0
   -8.8025   22.5209  -20.7756 C   0  0  0  0  0  0  0  0  0  0  0  0
   -9.9172   22.9260  -20.0605 C   0  0  0  0  0  0  0  0  0  0  0  0
  -10.2348   22.2568  -18.9025 C   0  0  0  0  0  0  0  0  0  0  0  0
   -9.4316   21.1971  -18.4836 C   0  0  0  0  0  0  0  0  0  0  0  0
 30 31  1  0  0  0
 31 32  1  0  0  0
 31  1  1  0  0  0
  1  2  1  0  0  0
  2  3  1  0  0  0
  3  4  2  0  0  0
  3  5  1  0  0  0
  5  6  1  0  0  0
  6  7  1  0  0  0
  7  8  1  0  0  0
  8  9  1  0  0  0
  9 10  1  0  0  0
 10 11  2  0  0  0
 10 12  1  0  0  0
 12 33  1  0  0  0
 33 34  1  0  0  0
 34 35  1  0  0  0
 35 36  1  0  0  0
 36 38  1  0  0  0
 38 39  1  0  0  0
 38 40  2  0  0  0
 12 13  1  0  0  0
 13 14  1  0  0  0
 14 15  2  0  0  0
 14 16  1  0  0  0
 16 17  1  0  0  0
 17 18  1  0  0  0
 18 19  1  0  0  0
 19 20  1  0  0  0
 20 21  1  0  0  0
 21 22  2  0  0  0
 21 23  1  0  0  0
 23 44  1  0  0  0
 44 45  1  0  0  0
 45 46  2  0  0  0
 46 47  1  0  0  0
 47 48  2  0  0  0
 48 49  1  0  0  0
 49 50  2  0  0  0
 23 24  1  0  0  0
 24 25  1  0  0  0
 25 26  2  0  0  0
 25  1  1  0  0  0
  9  5  1  0  0  0
 20 16  1  0  0  0
 50 45  1  0  0  0
  2 27  1  0  0  0
 36 37  1  0  0  0
 39 41  1  0  0  0
 39 42  1  0  0  0
 40 43  1  0  0  0
 13 28  1  0  0  0
 24 29  1  0  0  0
M  END
> <minimizedAffinity>
-4.91770

> <CNNscore>
0.5457757711

> <CNNaffinity>
6.0508661270

> <CNN_VS>
3.3024160862

> <CNNaffinity_variance>
0.6442565322

$$$$
[H]N=C(N([H])[H])N([H])C([H])([H])C([H])([H])C([H])([H])[C@@]1([H])C(=O)N2C([H])([H])C([H])([H])C([H])([H])[C@@]2([H])C(=O)N([H])[C@@]([H])(C([H])(C([H])([H])[H])C([H])([H])[H])C(=O)N([H])[C@@]([H])(C([H])([H])c2c([H])c([H])c([H])c([H])c2[H])C(=O)N2C([H])([H])C([H])([H])C([H])([H])[C@@]2([H])C(=O)N1[H]


 50 53  0  0  0  0  0  0  0  0999 V2000
   -5.6348   20.3087  -14.8719 C   0  0  0  0  0  0  0  0  0  0  0  0
   -6.3223   21.5764  -14.7729 N   0  0  0  0  0  0  0  0  0  0  0  0
   -6.7214   22.4182  -15.8420 C   0  0  0  0  0  0  0  0  0  0  0  0
   -7.8568   22.9793  -15.6713 O   0  0  0  0  0  0  0  0  0  0  0  0
   -6.0355   22.7225  -17.0621 C   0  0  0  0  0  0  0  0  0  0  0  0
   -6.4716   24.0614  -17.6961 C   0  0  0  0  0  0  0  0  0  0  0  0
   -5.6789   23.9755  -19.0128 C   0  0  0  0  0  0  0  0  0  0  0  0
   -5.0522   22.5942  -19.0156 C   0  0  0  0  0  0  0  0  0  0  0  0
   -6.1124   21.8872  -18.2218 N   0  0  0  0  0  0  0  0  0  0  0  0
   -6.8808   20.7729  -18.5569 C   0  0  0  0  0  0  0  0  0  0  0  0
   -6.1709   19.6773  -18.6563 O   0  0  0  0  0  0  0  0  0  0  0  0
   -8.3031   20.5601  -18.8248 C   0  0  0  0  0  0  0  0  0  0  0  0
   -9.1983   20.4818  -17.7214 N   0  0  0  0  0  0  0  0  0  0  0  0
   -9.7057   19.3594  -17.0456 C   0  0  0  0  0  0  0  0  0  0  0  0
  -10.9783   19.2816  -16.9005 O   0  0  0  0  0  0  0  0  0  0  0  0
   -8.9005   18.2616  -16.4870 C   0  0  0  0  0  0  0  0  0  0  0  0
   -8.8199   17.1269  -17.5265 C   0  0  0  0  0  0  0  0  0  0  0  0
  -10.2466   16.6422  -17.4458 C   0  0  0  0  0  0  0  0  0  0  0  0
  -10.6152   16.7756  -16.0185 C   0  0  0  0  0  0  0  0  0  0  0  0
   -9.5063   17.5272  -15.4039 N   0  0  0  0  0  0  0  0  0  0  0  0
   -9.1147   17.5057  -14.0415 C   0  0  0  0  0  0  0  0  0  0  0  0
   -9.5134   16.4700  -13.3573 O   0  0  0  0  0  0  0  0  0  0  0  0
   -8.3127   18.5261  -13.3406 C   0  0  0  0  0  0  0  0  0  0  0  0
   -6.8843   18.4333  -13.5385 N   0  0  0  0  0  0  0  0  0  0  0  0
   -5.9061   19.3872  -13.7484 C   0  0  0  0  0  0  0  0  0  0  0  0
   -5.0275   19.5394  -12.7968 O   0  0  0  0  0  0  0  0  0  0  0  0
   -6.5311   21.8787  -13.7697 H   0  0  0  0  0  0  0  0  0  0  0  0
   -9.5356   21.4458  -17.3730 H   0  0  0  0  0  0  0  0  0  0  0  0
   -6.5286   17.4056  -13.4791 H   0  0  0  0  0  0  0  0  0  0  0  0
   -3.8079   21.9791  -14.7409 C   0  0  0  0  0  0  0  0  0  0  0  0
   -4.1259   20.5158  -15.0358 C   0  0  0  0  0  0  0  0  0  0  0  0
   -3.6265   20.2192  -16.4143 C   0  0  0  0  0  0  0  0  0  0  0  0
   -8.8379   21.6349  -19.8314 C   0  0  0  0  0  0  0  0  0  0  0  0
   -8.0566   21.4515  -21.0701 C   0  0  0  0  0  0  0  0  0  0  0  0
   -7.6280   22.6235  -21.8477 C   0  0  0  0  0  0  0  0  0  0  0  0
   -8.2652   23.8369  -21.4688 N   0  0  0  0  0  0  0  0  0  0  0  0
   -8.9146   23.9107  -20.6212 H   0  0  0  0  0  0  0  0  0  0  0  0
   -8.0960   25.0427  -22.1774 C   0  0  0  0  0  0  0  0  0  0  0  0
   -8.7815   25.3418  -23.3920 N   0  0  0  0  0  0  0  0  0  0  0  0
   -7.2958   25.9409  -21.7113 N   0  0  0  0  0  0  0  0  0  0  0  0
   -9.6856   24.8566  -23.6057 H   0  0  0  0  0  0  0  0  0  0  0  0
   -8.4193   26.0205  -24.0701 H   0  0  0  0  0  0  0  0  0  0  0  0
   -6.7848   25.7727  -20.8240 H   0  0  0  0  0  0  0  0  0  0  0  0
   -8.8884   19.8906  -13.2394 C   0  0  0  0  0  0  0  0  0  0  0  0
   -9.4906   20.1816  -11.9154 C   0  0  0  0  0  0  0  0  0  0  0  0
  -10.4901   19.3479  -11.3981 C   0  0  0  0  0  0  0  0  0  0  0  0
  -11.0636   19.6089  -10.1619 C   0  0  0  0  0  0  0  0  0  0  0  0
  -10.6664   20.6980   -9.4042 C   0  0  0  0  0  0  0  0  0  0  0  0
   -9.6860   21.5232   -9.9018 C   0  0  0  0  0  0  0  0  0  0  0  0
   -9.1234   21.2426  -11.1461 C   0  0  0  0  0  0  0  0  0  0  0  0
 30 31  1  0  0  0
 31 32  1  0  0  0
 31  1  1  0  0  0
  1  2  1  0  0  0
  2  3  1  0  0  0
  3  4  2  0  0  0
  3  5  1  0  0  0
  5  6  1  0  0  0
  6  7  1  0  0  0
  7  8  1  0  0  0
  8  9  1  0  0  0
  9 10  1  0  0  0
 10 11  2  0  0  0
 10 12  1  0  0  0
 12 33  1  0  0  0
 33 34  1  0  0  0
 34 35  1  0  0  0
 35 36  1  0  0  0
 36 38  1  0  0  0
 38 39  1  0  0  0
 38 40  2  0  0  0
 12 13  1  0  0  0
 13 14  1  0  0  0
 14 15  2  0  0  0
 14 16  1  0  0  0
 16 17  1  0  0  0
 17 18  1  0  0  0
 18 19  1  0  0  0
 19 20  1  0  0  0
 20 21  1  0  0  0
 21 22  2  0  0  0
 21 23  1  0  0  0
 23 44  1  0  0  0
 44 45  1  0  0  0
 45 46  2  0  0  0
 46 47  1  0  0  0
 47 48  2  0  0  0
 48 49  1  0  0  0
 49 50  2  0  0  0
 23 24  1  0  0  0
 24 25  1  0  0  0
 25 26  2  0  0  0
 25  1  1  0  0  0
  9  5  1  0  0  0
 20 16  1  0  0  0
 50 45  1  0  0  0
  2 27  1  0  0  0
 36 37  1  0  0  0
 39 41  1  0  0  0
 39 42  1  0  0  0
 40 43  1  0  0  0
 13 28  1  0  0  0
 24 29  1  0  0  0
M  END
> <minimizedAffinity>
-5.26568

> <CNNscore>
0.4730087519

> <CNNaffinity>
5.6186537743

> <CNN_VS>
2.6576724052

> <CNNaffinity_variance>
0.3360296786

$$$$
[H]N=C(N([H])[H])N([H])C([H])([H])C([H])([H])C([H])([H])[C@@]1([H])C(=O)N2C([H])([H])C([H])([H])C([H])([H])[C@@]2([H])C(=O)N([H])[C@@]([H])(C([H])(C([H])([H])[H])C([H])([H])[H])C(=O)N([H])[C@@]([H])(C([H])([H])c2c([H])c([H])c([H])c([H])c2[H])C(=O)N2C([H])([H])C([H])([H])C([H])([H])[C@@]2([H])C(=O)N1[H]


 50 53  0  0  0  0  0  0  0  0999 V2000
   -4.8371   22.1171  -16.3944 C   0  0  0  0  0  0  0  0  0  0  0  0
   -4.5109   20.8225  -16.9484 N   0  0  0  0  0  0  0  0  0  0  0  0
   -4.6979   19.5581  -16.3343 C   0  0  0  0  0  0  0  0  0  0  0  0
   -5.0816   18.6385  -17.1345 O   0  0  0  0  0  0  0  0  0  0  0  0
   -4.5143   19.1781  -14.9655 C   0  0  0  0  0  0  0  0  0  0  0  0
   -4.2570   17.6674  -14.7752 C   0  0  0  0  0  0  0  0  0  0  0  0
   -4.2725   17.6108  -13.2370 C   0  0  0  0  0  0  0  0  0  0  0  0
   -4.6718   19.0033  -12.7874 C   0  0  0  0  0  0  0  0  0  0  0  0
   -5.5252   19.3628  -13.9692 N   0  0  0  0  0  0  0  0  0  0  0  0
   -6.8628   19.7541  -14.0152 C   0  0  0  0  0  0  0  0  0  0  0  0
   -7.0696   20.9228  -13.4623 O   0  0  0  0  0  0  0  0  0  0  0  0
   -8.0843   19.1453  -14.5416 C   0  0  0  0  0  0  0  0  0  0  0  0
   -8.3225   19.2022  -15.9435 N   0  0  0  0  0  0  0  0  0  0  0  0
   -9.0885   20.1089  -16.6953 C   0  0  0  0  0  0  0  0  0  0  0  0
   -9.9631   19.6213  -17.4977 O   0  0  0  0  0  0  0  0  0  0  0  0
   -8.9733   21.5750  -16.6421 C   0  0  0  0  0  0  0  0  0  0  0  0
  -10.0084   22.1178  -15.6379 C   0  0  0  0  0  0  0  0  0  0  0  0
  -11.2610   21.8553  -16.4374 C   0  0  0  0  0  0  0  0  0  0  0  0
  -10.8788   22.1177  -17.8431 C   0  0  0  0  0  0  0  0  0  0  0  0
   -9.4143   22.2821  -17.8189 N   0  0  0  0  0  0  0  0  0  0  0  0
   -8.6228   23.0038  -18.7477 C   0  0  0  0  0  0  0  0  0  0  0  0
   -9.2577   23.8966  -19.4546 O   0  0  0  0  0  0  0  0  0  0  0  0
   -7.1756   22.8421  -18.9826 C   0  0  0  0  0  0  0  0  0  0  0  0
   -6.3163   23.5190  -18.0384 N   0  0  0  0  0  0  0  0  0  0  0  0
   -5.1427   23.1470  -17.4097 C   0  0  0  0  0  0  0  0  0  0  0  0
   -4.0685   23.8059  -17.7449 O   0  0  0  0  0  0  0  0  0  0  0  0
   -4.0815   20.8653  -17.9258 H   0  0  0  0  0  0  0  0  0  0  0  0
   -7.8388   18.4098  -16.4936 H   0  0  0  0  0  0  0  0  0  0  0  0
   -6.6663   24.5259  -17.8151 H   0  0  0  0  0  0  0  0  0  0  0  0
   -2.5168   21.6940  -15.6310 C   0  0  0  0  0  0  0  0  0  0  0  0
   -3.7275   22.6073  -15.4588 C   0  0  0  0  0  0  0  0  0  0  0  0
   -4.1070   22.5780  -14.0122 C   0  0  0  0  0  0  0  0  0  0  0  0
   -8.2005   17.6554  -14.0716 C   0  0  0  0  0  0  0  0  0  0  0  0
   -7.7217   16.8370  -15.2027 C   0  0  0  0  0  0  0  0  0  0  0  0
   -8.3375   15.5300  -15.4754 C   0  0  0  0  0  0  0  0  0  0  0  0
   -8.6238   15.2978  -16.8487 N   0  0  0  0  0  0  0  0  0  0  0  0
   -8.4890   14.3443  -17.3159 H   0  0  0  0  0  0  0  0  0  0  0  0
   -9.1077   16.3028  -17.7092 C   0  0  0  0  0  0  0  0  0  0  0  0
   -8.2611   17.1176  -18.5180 N   0  0  0  0  0  0  0  0  0  0  0  0
  -10.3796   16.5007  -17.7951 N   0  0  0  0  0  0  0  0  0  0  0  0
   -7.3080   16.7689  -18.7795 H   0  0  0  0  0  0  0  0  0  0  0  0
   -8.5534   18.0405  -18.8565 H   0  0  0  0  0  0  0  0  0  0  0  0
  -11.0351   15.9235  -17.2347 H   0  0  0  0  0  0  0  0  0  0  0  0
   -6.7125   21.5247  -19.4859 C   0  0  0  0  0  0  0  0  0  0  0  0
   -6.1122   21.5870  -20.8409 C   0  0  0  0  0  0  0  0  0  0  0  0
   -4.7203   21.5696  -20.9957 C   0  0  0  0  0  0  0  0  0  0  0  0
   -4.1450   21.6291  -22.2569 C   0  0  0  0  0  0  0  0  0  0  0  0
   -4.9268   21.7071  -23.3974 C   0  0  0  0  0  0  0  0  0  0  0  0
   -6.2943   21.7247  -23.2576 C   0  0  0  0  0  0  0  0  0  0  0  0
   -6.8514   21.6642  -21.9811 C   0  0  0  0  0  0  0  0  0  0  0  0
 30 31  1  0  0  0
 31 32  1  0  0  0
 31  1  1  0  0  0
  1  2  1  0  0  0
  2  3  1  0  0  0
  3  4  2  0  0  0
  3  5  1  0  0  0
  5  6  1  0  0  0
  6  7  1  0  0  0
  7  8  1  0  0  0
  8  9  1  0  0  0
  9 10  1  0  0  0
 10 11  2  0  0  0
 10 12  1  0  0  0
 12 33  1  0  0  0
 33 34  1  0  0  0
 34 35  1  0  0  0
 35 36  1  0  0  0
 36 38  1  0  0  0
 38 39  1  0  0  0
 38 40  2  0  0  0
 12 13  1  0  0  0
 13 14  1  0  0  0
 14 15  2  0  0  0
 14 16  1  0  0  0
 16 17  1  0  0  0
 17 18  1  0  0  0
 18 19  1  0  0  0
 19 20  1  0  0  0
 20 21  1  0  0  0
 21 22  2  0  0  0
 21 23  1  0  0  0
 23 44  1  0  0  0
 44 45  1  0  0  0
 45 46  2  0  0  0
 46 47  1  0  0  0
 47 48  2  0  0  0
 48 49  1  0  0  0
 49 50  2  0  0  0
 23 24  1  0  0  0
 24 25  1  0  0  0
 25 26  2  0  0  0
 25  1  1  0  0  0
  9  5  1  0  0  0
 20 16  1  0  0  0
 50 45  1  0  0  0
  2 27  1  0  0  0
 36 37  1  0  0  0
 39 41  1  0  0  0
 39 42  1  0  0  0
 40 43  1  0  0  0
 13 28  1  0  0  0
 24 29  1  0  0  0
M  END
> <minimizedAffinity>
-4.84518

> <CNNscore>
0.4630056620

> <CNNaffinity>
6.0628175735

> <CNN_VS>
2.8071188927

> <CNNaffinity_variance>
1.1123912334

$$$$
[H]N=C(N([H])[H])N([H])C([H])([H])C([H])([H])C([H])([H])[C@@]1([H])C(=O)N2C([H])([H])C([H])([H])C([H])([H])[C@@]2([H])C(=O)N([H])[C@@]([H])(C([H])(C([H])([H])[H])C([H])([H])[H])C(=O)N([H])[C@@]([H])(C([H])([H])c2c([H])c([H])c([H])c([H])c2[H])C(=O)N2C([H])([H])C([H])([H])C([H])([H])[C@@]2([H])C(=O)N1[H]


 50 53  0  0  0  0  0  0  0  0999 V2000
   -6.2219   21.5424  -19.6265 C   0  0  0  0  0  0  0  0  0  0  0  0
   -5.4024   20.3629  -19.4638 N   0  0  0  0  0  0  0  0  0  0  0  0
   -4.1462   20.2780  -18.8115 C   0  0  0  0  0  0  0  0  0  0  0  0
   -3.9796   19.2083  -18.1324 O   0  0  0  0  0  0  0  0  0  0  0  0
   -3.0576   21.2090  -18.8140 C   0  0  0  0  0  0  0  0  0  0  0  0
   -1.6930   20.5615  -18.4926 C   0  0  0  0  0  0  0  0  0  0  0  0
   -0.8304   21.8347  -18.4258 C   0  0  0  0  0  0  0  0  0  0  0  0
   -1.8058   22.9887  -18.5587 C   0  0  0  0  0  0  0  0  0  0  0  0
   -2.9935   22.3267  -17.9223 N   0  0  0  0  0  0  0  0  0  0  0  0
   -3.7539   22.7276  -16.8243 C   0  0  0  0  0  0  0  0  0  0  0  0
   -4.4373   23.8211  -17.0515 O   0  0  0  0  0  0  0  0  0  0  0  0
   -3.9529   22.1977  -15.4755 C   0  0  0  0  0  0  0  0  0  0  0  0
   -4.8243   21.0858  -15.3037 N   0  0  0  0  0  0  0  0  0  0  0  0
   -6.1812   21.0469  -14.9413 C   0  0  0  0  0  0  0  0  0  0  0  0
   -6.5111   20.2821  -13.9652 O   0  0  0  0  0  0  0  0  0  0  0  0
   -7.2609   21.8099  -15.5876 C   0  0  0  0  0  0  0  0  0  0  0  0
   -7.4801   23.1191  -14.8050 C   0  0  0  0  0  0  0  0  0  0  0  0
   -8.1058   22.5388  -13.5605 C   0  0  0  0  0  0  0  0  0  0  0  0
   -8.9403   21.4148  -14.0412 C   0  0  0  0  0  0  0  0  0  0  0  0
   -8.5849   21.2526  -15.4623 N   0  0  0  0  0  0  0  0  0  0  0  0
   -9.3913   20.6886  -16.4830 C   0  0  0  0  0  0  0  0  0  0  0  0
  -10.6711   20.6568  -16.2364 O   0  0  0  0  0  0  0  0  0  0  0  0
   -8.9254   20.1463  -17.7731 C   0  0  0  0  0  0  0  0  0  0  0  0
   -8.6724   21.1291  -18.8019 N   0  0  0  0  0  0  0  0  0  0  0  0
   -7.6681   21.2597  -19.7427 C   0  0  0  0  0  0  0  0  0  0  0  0
   -8.0168   21.1140  -20.9908 O   0  0  0  0  0  0  0  0  0  0  0  0
   -5.8210   19.4813  -19.8987 H   0  0  0  0  0  0  0  0  0  0  0  0
   -4.3444   20.1342  -15.4725 H   0  0  0  0  0  0  0  0  0  0  0  0
   -9.4519   21.8886  -18.8432 H   0  0  0  0  0  0  0  0  0  0  0  0
   -4.7008   21.5721  -21.5836 C   0  0  0  0  0  0  0  0  0  0  0  0
   -5.7472   22.3784  -20.8192 C   0  0  0  0  0  0  0  0  0  0  0  0
   -5.1133   23.6754  -20.4275 C   0  0  0  0  0  0  0  0  0  0  0  0
   -2.5749   21.8647  -14.8087 C   0  0  0  0  0  0  0  0  0  0  0  0
   -2.4761   20.3920  -14.8006 C   0  0  0  0  0  0  0  0  0  0  0  0
   -1.9168   19.7005  -13.6298 C   0  0  0  0  0  0  0  0  0  0  0  0
   -2.4344   20.1534  -12.3852 N   0  0  0  0  0  0  0  0  0  0  0  0
   -1.8240   20.6152  -11.6370 H   0  0  0  0  0  0  0  0  0  0  0  0
   -3.7928   20.0314  -12.0325 C   0  0  0  0  0  0  0  0  0  0  0  0
   -4.6018   21.1363  -11.6331 N   0  0  0  0  0  0  0  0  0  0  0  0
   -4.3553   18.8716  -12.0818 N   0  0  0  0  0  0  0  0  0  0  0  0
   -4.3345   22.1046  -11.9318 H   0  0  0  0  0  0  0  0  0  0  0  0
   -5.4434   21.0171  -11.0593 H   0  0  0  0  0  0  0  0  0  0  0  0
   -3.8095   18.0406  -12.3788 H   0  0  0  0  0  0  0  0  0  0  0  0
   -8.0169   18.9733  -17.7284 C   0  0  0  0  0  0  0  0  0  0  0  0
   -8.5221   17.8661  -16.8804 C   0  0  0  0  0  0  0  0  0  0  0  0
   -9.6221   17.1058  -17.2971 C   0  0  0  0  0  0  0  0  0  0  0  0
  -10.1065   16.0683  -16.5134 C   0  0  0  0  0  0  0  0  0  0  0  0
   -9.5190   15.7538  -15.2993 C   0  0  0  0  0  0  0  0  0  0  0  0
   -8.4385   16.4932  -14.8802 C   0  0  0  0  0  0  0  0  0  0  0  0
   -7.9682   17.5313  -15.6831 C   0  0  0  0  0  0  0  0  0  0  0  0
 30 31  1  0  0  0
 31 32  1  0  0  0
 31  1  1  0  0  0
  1  2  1  0  0  0
  2  3  1  0  0  0
  3  4  2  0  0  0
  3  5  1  0  0  0
  5  6  1  0  0  0
  6  7  1  0  0  0
  7  8  1  0  0  0
  8  9  1  0  0  0
  9 10  1  0  0  0
 10 11  2  0  0  0
 10 12  1  0  0  0
 12 33  1  0  0  0
 33 34  1  0  0  0
 34 35  1  0  0  0
 35 36  1  0  0  0
 36 38  1  0  0  0
 38 39  1  0  0  0
 38 40  2  0  0  0
 12 13  1  0  0  0
 13 14  1  0  0  0
 14 15  2  0  0  0
 14 16  1  0  0  0
 16 17  1  0  0  0
 17 18  1  0  0  0
 18 19  1  0  0  0
 19 20  1  0  0  0
 20 21  1  0  0  0
 21 22  2  0  0  0
 21 23  1  0  0  0
 23 44  1  0  0  0
 44 45  1  0  0  0
 45 46  2  0  0  0
 46 47  1  0  0  0
 47 48  2  0  0  0
 48 49  1  0  0  0
 49 50  2  0  0  0
 23 24  1  0  0  0
 24 25  1  0  0  0
 25 26  2  0  0  0
 25  1  1  0  0  0
  9  5  1  0  0  0
 20 16  1  0  0  0
 50 45  1  0  0  0
  2 27  1  0  0  0
 36 37  1  0  0  0
 39 41  1  0  0  0
 39 42  1  0  0  0
 40 43  1  0  0  0
 13 28  1  0  0  0
 24 29  1  0  0  0
M  END
> <minimizedAffinity>
-4.18480

> <CNNscore>
0.4214360714

> <CNNaffinity>
5.6478662491

> <CNN_VS>
2.3802144527

> <CNNaffinity_variance>
0.8131549954

$$$$
[H]N=C(N([H])[H])N([H])C([H])([H])C([H])([H])C([H])([H])[C@@]1([H])C(=O)N2C([H])([H])C([H])([H])C([H])([H])[C@@]2([H])C(=O)N([H])[C@@]([H])(C([H])(C([H])([H])[H])C([H])([H])[H])C(=O)N([H])[C@@]([H])(C([H])([H])c2c([H])c([H])c([H])c([H])c2[H])C(=O)N2C([H])([H])C([H])([H])C([H])([H])[C@@]2([H])C(=O)N1[H]


 50 53  0  0  0  0  0  0  0  0999 V2000
   -1.6275   21.0895  -18.8645 C   0  0  0  0  0  0  0  0  0  0  0  0
   -0.8938   20.0917  -19.6096 N   0  0  0  0  0  0  0  0  0  0  0  0
    0.5117   19.9052  -19.6344 C   0  0  0  0  0  0  0  0  0  0  0  0
    0.8776   18.6810  -19.6595 O   0  0  0  0  0  0  0  0  0  0  0  0
    1.5570   20.8845  -19.6394 C   0  0  0  0  0  0  0  0  0  0  0  0
    2.8855   20.3639  -20.2299 C   0  0  0  0  0  0  0  0  0  0  0  0
    3.7775   21.5824  -19.9312 C   0  0  0  0  0  0  0  0  0  0  0  0
    2.9134   22.5222  -19.1121 C   0  0  0  0  0  0  0  0  0  0  0  0
    2.0612   21.4838  -18.4414 N   0  0  0  0  0  0  0  0  0  0  0  0
    1.8586   21.2401  -17.0835 C   0  0  0  0  0  0  0  0  0  0  0  0
    1.2155   22.2101  -16.4835 O   0  0  0  0  0  0  0  0  0  0  0  0
    2.2090   20.1421  -16.1827 C   0  0  0  0  0  0  0  0  0  0  0  0
    1.4195   18.9585  -16.2144 N   0  0  0  0  0  0  0  0  0  0  0  0
    0.3398   18.5689  -15.4040 C   0  0  0  0  0  0  0  0  0  0  0  0
    0.4003   17.4108  -14.8547 O   0  0  0  0  0  0  0  0  0  0  0  0
   -0.8592   19.3771  -15.1307 C   0  0  0  0  0  0  0  0  0  0  0  0
   -0.6448   20.1539  -13.8172 C   0  0  0  0  0  0  0  0  0  0  0  0
   -0.7278   18.9970  -12.8520 C   0  0  0  0  0  0  0  0  0  0  0  0
   -1.7581   18.0988  -13.4202 C   0  0  0  0  0  0  0  0  0  0  0  0
   -2.0421   18.6397  -14.7614 N   0  0  0  0  0  0  0  0  0  0  0  0
   -3.2367   18.4811  -15.5084 C   0  0  0  0  0  0  0  0  0  0  0  0
   -4.2945   18.1604  -14.8172 O   0  0  0  0  0  0  0  0  0  0  0  0
   -3.3904   18.6435  -16.9663 C   0  0  0  0  0  0  0  0  0  0  0  0
   -3.5284   20.0067  -17.4256 N   0  0  0  0  0  0  0  0  0  0  0  0
   -3.0044   20.6849  -18.5102 C   0  0  0  0  0  0  0  0  0  0  0  0
   -3.8525   21.0627  -19.4259 O   0  0  0  0  0  0  0  0  0  0  0  0
   -1.5124   19.4467  -20.1953 H   0  0  0  0  0  0  0  0  0  0  0  0
    1.7216   18.2614  -16.9806 H   0  0  0  0  0  0  0  0  0  0  0  0
   -4.2023   20.5850  -16.7950 H   0  0  0  0  0  0  0  0  0  0  0  0
   -1.2150   22.1773  -21.0535 C   0  0  0  0  0  0  0  0  0  0  0  0
   -1.6429   22.4276  -19.6099 C   0  0  0  0  0  0  0  0  0  0  0  0
   -0.7071   23.4440  -19.0365 C   0  0  0  0  0  0  0  0  0  0  0  0
    3.7147   19.7474  -16.3596 C   0  0  0  0  0  0  0  0  0  0  0  0
    4.3267   19.8818  -15.0232 C   0  0  0  0  0  0  0  0  0  0  0  0
    4.1877   21.1402  -14.2756 C   0  0  0  0  0  0  0  0  0  0  0  0
    4.8835   22.2383  -14.8518 N   0  0  0  0  0  0  0  0  0  0  0  0
    5.9477   22.2558  -14.9644 H   0  0  0  0  0  0  0  0  0  0  0  0
    4.2309   23.3950  -15.3216 C   0  0  0  0  0  0  0  0  0  0  0  0
    3.0050   23.8801  -14.7769 N   0  0  0  0  0  0  0  0  0  0  0  0
    4.7618   24.0720  -16.2829 N   0  0  0  0  0  0  0  0  0  0  0  0
    2.7389   23.6210  -13.7969 H   0  0  0  0  0  0  0  0  0  0  0  0
    2.3685   24.4789  -15.3137 H   0  0  0  0  0  0  0  0  0  0  0  0
    5.6597   23.7642  -16.7022 H   0  0  0  0  0  0  0  0  0  0  0  0
   -2.6250   17.7168  -17.8373 C   0  0  0  0  0  0  0  0  0  0  0  0
   -3.4813   16.7580  -18.5774 C   0  0  0  0  0  0  0  0  0  0  0  0
   -2.9023   15.6914  -19.2765 C   0  0  0  0  0  0  0  0  0  0  0  0
   -3.6908   14.7880  -19.9746 C   0  0  0  0  0  0  0  0  0  0  0  0
   -5.0698   14.9129  -20.0014 C   0  0  0  0  0  0  0  0  0  0  0  0
   -5.6493   15.9559  -19.3187 C   0  0  0  0  0  0  0  0  0  0  0  0
   -4.8383   16.8521  -18.6239 C   0  0  0  0  0  0  0  0  0  0  0  0
 30 31  1  0  0  0
 31 32  1  0  0  0
 31  1  1  0  0  0
  1  2  1  0  0  0
  2  3  1  0  0  0
  3  4  2  0  0  0
  3  5  1  0  0  0
  5  6  1  0  0  0
  6  7  1  0  0  0
  7  8  1  0  0  0
  8  9  1  0  0  0
  9 10  1  0  0  0
 10 11  2  0  0  0
 10 12  1  0  0  0
 12 33  1  0  0  0
 33 34  1  0  0  0
 34 35  1  0  0  0
 35 36  1  0  0  0
 36 38  1  0  0  0
 38 39  1  0  0  0
 38 40  2  0  0  0
 12 13  1  0  0  0
 13 14  1  0  0  0
 14 15  2  0  0  0
 14 16  1  0  0  0
 16 17  1  0  0  0
 17 18  1  0  0  0
 18 19  1  0  0  0
 19 20  1  0  0  0
 20 21  1  0  0  0
 21 22  2  0  0  0
 21 23  1  0  0  0
 23 44  1  0  0  0
 44 45  1  0  0  0
 45 46  2  0  0  0
 46 47  1  0  0  0
 47 48  2  0  0  0
 48 49  1  0  0  0
 49 50  2  0  0  0
 23 24  1  0  0  0
 24 25  1  0  0  0
 25 26  2  0  0  0
 25  1  1  0  0  0
  9  5  1  0  0  0
 20 16  1  0  0  0
 50 45  1  0  0  0
  2 27  1  0  0  0
 36 37  1  0  0  0
 39 41  1  0  0  0
 39 42  1  0  0  0
 40 43  1  0  0  0
 13 28  1  0  0  0
 24 29  1  0  0  0
M  END
> <minimizedAffinity>
-4.84298

> <CNNscore>
0.4203231037

> <CNNaffinity>
5.8068151474

> <CNN_VS>
2.4407386780

> <CNNaffinity_variance>
0.5778039694

$$$$
[H]N=C(N([H])[H])N([H])C([H])([H])C([H])([H])C([H])([H])[C@@]1([H])C(=O)N2C([H])([H])C([H])([H])C([H])([H])[C@@]2([H])C(=O)N([H])[C@@]([H])(C([H])(C([H])([H])[H])C([H])([H])[H])C(=O)N([H])[C@@]([H])(C([H])([H])c2c([H])c([H])c([H])c([H])c2[H])C(=O)N2C([H])([H])C([H])([H])C([H])([H])[C@@]2([H])C(=O)N1[H]


 50 53  0  0  0  0  0  0  0  0999 V2000
   -3.7692   18.4907  -17.6420 C   0  0  0  0  0  0  0  0  0  0  0  0
   -4.7884   18.1695  -18.6154 N   0  0  0  0  0  0  0  0  0  0  0  0
   -6.0278   17.5242  -18.3742 C   0  0  0  0  0  0  0  0  0  0  0  0
   -7.0026   17.9896  -19.0572 O   0  0  0  0  0  0  0  0  0  0  0  0
   -6.3288   16.4391  -17.4888 C   0  0  0  0  0  0  0  0  0  0  0  0
   -7.5918   15.6475  -17.8924 C   0  0  0  0  0  0  0  0  0  0  0  0
   -7.6889   14.7095  -16.6757 C   0  0  0  0  0  0  0  0  0  0  0  0
   -6.6094   15.1788  -15.7190 C   0  0  0  0  0  0  0  0  0  0  0  0
   -6.6161   16.6310  -16.0999 N   0  0  0  0  0  0  0  0  0  0  0  0
   -6.8284   17.7583  -15.3070 C   0  0  0  0  0  0  0  0  0  0  0  0
   -5.8726   17.9527  -14.4336 O   0  0  0  0  0  0  0  0  0  0  0  0
   -7.8845   18.7680  -15.2345 C   0  0  0  0  0  0  0  0  0  0  0  0
   -7.8983   19.8080  -16.2057 N   0  0  0  0  0  0  0  0  0  0  0  0
   -7.3836   21.1138  -16.1408 C   0  0  0  0  0  0  0  0  0  0  0  0
   -8.1757   22.0774  -16.4417 O   0  0  0  0  0  0  0  0  0  0  0  0
   -6.0091   21.4727  -15.7569 C   0  0  0  0  0  0  0  0  0  0  0  0
   -5.9828   21.7935  -14.2499 C   0  0  0  0  0  0  0  0  0  0  0  0
   -6.7316   23.1032  -14.2825 C   0  0  0  0  0  0  0  0  0  0  0  0
   -6.2960   23.7610  -15.5349 C   0  0  0  0  0  0  0  0  0  0  0  0
   -5.5262   22.7347  -16.2605 N   0  0  0  0  0  0  0  0  0  0  0  0
   -4.5133   22.9550  -17.2277 C   0  0  0  0  0  0  0  0  0  0  0  0
   -3.9568   24.1337  -17.2017 O   0  0  0  0  0  0  0  0  0  0  0  0
   -4.0395   21.9925  -18.2399 C   0  0  0  0  0  0  0  0  0  0  0  0
   -3.0863   21.0154  -17.7658 N   0  0  0  0  0  0  0  0  0  0  0  0
   -2.9408   19.6611  -18.0013 C   0  0  0  0  0  0  0  0  0  0  0  0
   -1.8800   19.2962  -18.6661 O   0  0  0  0  0  0  0  0  0  0  0  0
   -4.5424   18.4626  -19.6129 H   0  0  0  0  0  0  0  0  0  0  0  0
   -8.3962   19.5326  -17.1226 H   0  0  0  0  0  0  0  0  0  0  0  0
   -2.3292   21.4609  -17.1220 H   0  0  0  0  0  0  0  0  0  0  0  0
   -3.1320   16.2344  -18.4473 C   0  0  0  0  0  0  0  0  0  0  0  0
   -2.8785   17.2764  -17.3612 C   0  0  0  0  0  0  0  0  0  0  0  0
   -3.1527   16.6239  -16.0434 C   0  0  0  0  0  0  0  0  0  0  0  0
   -9.2943   18.0854  -15.2082 C   0  0  0  0  0  0  0  0  0  0  0  0
   -9.6078   17.8621  -13.7833 C   0  0  0  0  0  0  0  0  0  0  0  0
  -10.7192   18.5902  -13.1535 C   0  0  0  0  0  0  0  0  0  0  0  0
  -10.3191   19.4789  -12.1182 N   0  0  0  0  0  0  0  0  0  0  0  0
  -10.7763   19.4851  -11.1504 H   0  0  0  0  0  0  0  0  0  0  0  0
   -9.2886   20.4259  -12.2796 C   0  0  0  0  0  0  0  0  0  0  0  0
   -8.0499   20.3652  -11.5746 N   0  0  0  0  0  0  0  0  0  0  0  0
   -9.4489   21.3960  -13.1145 N   0  0  0  0  0  0  0  0  0  0  0  0
   -7.7153   19.4454  -11.2002 H   0  0  0  0  0  0  0  0  0  0  0  0
   -7.4693   21.1962  -11.4194 H   0  0  0  0  0  0  0  0  0  0  0  0
  -10.3288   21.4739  -13.6591 H   0  0  0  0  0  0  0  0  0  0  0  0
   -5.0225   21.5335  -19.2531 C   0  0  0  0  0  0  0  0  0  0  0  0
   -5.0480   22.3737  -20.4753 C   0  0  0  0  0  0  0  0  0  0  0  0
   -6.2373   22.5278  -21.1988 C   0  0  0  0  0  0  0  0  0  0  0  0
   -6.2756   23.3092  -22.3448 C   0  0  0  0  0  0  0  0  0  0  0  0
   -5.1427   23.9584  -22.8066 C   0  0  0  0  0  0  0  0  0  0  0  0
   -3.9697   23.8145  -22.1044 C   0  0  0  0  0  0  0  0  0  0  0  0
   -3.9536   23.0247  -20.9557 C   0  0  0  0  0  0  0  0  0  0  0  0
 30 31  1  0  0  0
 31 32  1  0  0  0
 31  1  1  0  0  0
  1  2  1  0  0  0
  2  3  1  0  0  0
  3  4  2  0  0  0
  3  5  1  0  0  0
  5  6  1  0  0  0
  6  7  1  0  0  0
  7  8  1  0  0  0
  8  9  1  0  0  0
  9 10  1  0  0  0
 10 11  2  0  0  0
 10 12  1  0  0  0
 12 33  1  0  0  0
 33 34  1  0  0  0
 34 35  1  0  0  0
 35 36  1  0  0  0
 36 38  1  0  0  0
 38 39  1  0  0  0
 38 40  2  0  0  0
 12 13  1  0  0  0
 13 14  1  0  0  0
 14 15  2  0  0  0
 14 16  1  0  0  0
 16 17  1  0  0  0
 17 18  1  0  0  0
 18 19  1  0  0  0
 19 20  1  0  0  0
 20 21  1  0  0  0
 21 22  2  0  0  0
 21 23  1  0  0  0
 23 44  1  0  0  0
 44 45  1  0  0  0
 45 46  2  0  0  0
 46 47  1  0  0  0
 47 48  2  0  0  0
 48 49  1  0  0  0
 49 50  2  0  0  0
 23 24  1  0  0  0
 24 25  1  0  0  0
 25 26  2  0  0  0
 25  1  1  0  0  0
  9  5  1  0  0  0
 20 16  1  0  0  0
 50 45  1  0  0  0
  2 27  1  0  0  0
 36 37  1  0  0  0
 39 41  1  0  0  0
 39 42  1  0  0  0
 40 43  1  0  0  0
 13 28  1  0  0  0
 24 29  1  0  0  0
M  END
> <minimizedAffinity>
-4.82628

> <CNNscore>
0.4093320668

> <CNNaffinity>
5.6737546921

> <CNN_VS>
2.3224496841

> <CNNaffinity_variance>
1.0803809166

$$$$
[H]N=C(N([H])[H])N([H])C([H])([H])C([H])([H])C([H])([H])[C@@]1([H])C(=O)N2C([H])([H])C([H])([H])C([H])([H])[C@@]2([H])C(=O)N([H])[C@@]([H])(C([H])(C([H])([H])[H])C([H])([H])[H])C(=O)N([H])[C@@]([H])(C([H])([H])c2c([H])c([H])c([H])c([H])c2[H])C(=O)N2C([H])([H])C([H])([H])C([H])([H])[C@@]2([H])C(=O)N1[H]


 50 53  0  0  0  0  0  0  0  0999 V2000
   -2.2834   18.4519  -17.8514 C   0  0  0  0  0  0  0  0  0  0  0  0
   -3.3094   17.8447  -18.6686 N   0  0  0  0  0  0  0  0  0  0  0  0
   -4.2735   16.8885  -18.2599 C   0  0  0  0  0  0  0  0  0  0  0  0
   -5.4295   17.0552  -18.7785 O   0  0  0  0  0  0  0  0  0  0  0  0
   -4.1288   15.7795  -17.3648 C   0  0  0  0  0  0  0  0  0  0  0  0
   -5.1718   14.6639  -17.5932 C   0  0  0  0  0  0  0  0  0  0  0  0
   -4.8241   13.7587  -16.3978 C   0  0  0  0  0  0  0  0  0  0  0  0
   -3.7840   14.5245  -15.6025 C   0  0  0  0  0  0  0  0  0  0  0  0
   -4.2459   15.9115  -15.9445 N   0  0  0  0  0  0  0  0  0  0  0  0
   -4.6379   16.9520  -15.1029 C   0  0  0  0  0  0  0  0  0  0  0  0
   -3.6522   17.4180  -14.3779 O   0  0  0  0  0  0  0  0  0  0  0  0
   -5.9071   17.6339  -14.8500 C   0  0  0  0  0  0  0  0  0  0  0  0
   -6.3513   18.6115  -15.7838 N   0  0  0  0  0  0  0  0  0  0  0  0
   -6.2109   20.0094  -15.7664 C   0  0  0  0  0  0  0  0  0  0  0  0
   -7.2728   20.7125  -15.9231 O   0  0  0  0  0  0  0  0  0  0  0  0
   -4.9462   20.7393  -15.5841 C   0  0  0  0  0  0  0  0  0  0  0  0
   -4.7831   21.0836  -14.0909 C   0  0  0  0  0  0  0  0  0  0  0  0
   -5.8585   22.1364  -13.9809 C   0  0  0  0  0  0  0  0  0  0  0  0
   -5.8132   22.8646  -15.2687 C   0  0  0  0  0  0  0  0  0  0  0  0
   -4.9093   22.0756  -16.1248 N   0  0  0  0  0  0  0  0  0  0  0  0
   -4.1528   22.5472  -17.2272 C   0  0  0  0  0  0  0  0  0  0  0  0
   -3.9437   23.8337  -17.2574 O   0  0  0  0  0  0  0  0  0  0  0  0
   -3.5907   21.7328  -18.3209 C   0  0  0  0  0  0  0  0  0  0  0  0
   -2.3460   21.0643  -18.0174 N   0  0  0  0  0  0  0  0  0  0  0  0
   -1.8716   19.7978  -18.3032 C   0  0  0  0  0  0  0  0  0  0  0  0
   -0.8636   19.7257  -19.1274 O   0  0  0  0  0  0  0  0  0  0  0  0
   -3.3059   18.1751  -19.6847 H   0  0  0  0  0  0  0  0  0  0  0  0
   -6.8862   18.1925  -16.6221 H   0  0  0  0  0  0  0  0  0  0  0  0
   -1.6525   21.7128  -17.4839 H   0  0  0  0  0  0  0  0  0  0  0  0
   -1.1817   16.4406  -18.7927 C   0  0  0  0  0  0  0  0  0  0  0  0
   -1.0621   17.5345  -17.7351 C   0  0  0  0  0  0  0  0  0  0  0  0
   -0.9441   16.8594  -16.4055 C   0  0  0  0  0  0  0  0  0  0  0  0
   -7.0550   16.5910  -14.6289 C   0  0  0  0  0  0  0  0  0  0  0  0
   -8.1535   17.0045  -15.5238 C   0  0  0  0  0  0  0  0  0  0  0  0
   -8.4344   16.2352  -16.7449 C   0  0  0  0  0  0  0  0  0  0  0  0
   -9.0716   16.9856  -17.7709 N   0  0  0  0  0  0  0  0  0  0  0  0
   -9.7557   16.5492  -18.4688 H   0  0  0  0  0  0  0  0  0  0  0  0
   -8.8554   18.3654  -17.9552 C   0  0  0  0  0  0  0  0  0  0  0  0
   -9.6907   19.3731  -17.3880 N   0  0  0  0  0  0  0  0  0  0  0  0
   -7.8465   18.7573  -18.6572 N   0  0  0  0  0  0  0  0  0  0  0  0
  -10.2593   19.1509  -16.5362 H   0  0  0  0  0  0  0  0  0  0  0  0
   -9.7557   20.3158  -17.7865 H   0  0  0  0  0  0  0  0  0  0  0  0
   -7.2040   18.0603  -19.0792 H   0  0  0  0  0  0  0  0  0  0  0  0
   -4.5505   21.0023  -19.1861 C   0  0  0  0  0  0  0  0  0  0  0  0
   -5.1080   21.8315  -20.2823 C   0  0  0  0  0  0  0  0  0  0  0  0
   -6.4161   21.6150  -20.7333 C   0  0  0  0  0  0  0  0  0  0  0  0
   -6.9501   22.3819  -21.7590 C   0  0  0  0  0  0  0  0  0  0  0  0
   -6.2083   23.3815  -22.3661 C   0  0  0  0  0  0  0  0  0  0  0  0
   -4.9231   23.6031  -21.9316 C   0  0  0  0  0  0  0  0  0  0  0  0
   -4.4064   22.8209  -20.8998 C   0  0  0  0  0  0  0  0  0  0  0  0
 30 31  1  0  0  0
 31 32  1  0  0  0
 31  1  1  0  0  0
  1  2  1  0  0  0
  2  3  1  0  0  0
  3  4  2  0  0  0
  3  5  1  0  0  0
  5  6  1  0  0  0
  6  7  1  0  0  0
  7  8  1  0  0  0
  8  9  1  0  0  0
  9 10  1  0  0  0
 10 11  2  0  0  0
 10 12  1  0  0  0
 12 33  1  0  0  0
 33 34  1  0  0  0
 34 35  1  0  0  0
 35 36  1  0  0  0
 36 38  1  0  0  0
 38 39  1  0  0  0
 38 40  2  0  0  0
 12 13  1  0  0  0
 13 14  1  0  0  0
 14 15  2  0  0  0
 14 16  1  0  0  0
 16 17  1  0  0  0
 17 18  1  0  0  0
 18 19  1  0  0  0
 19 20  1  0  0  0
 20 21  1  0  0  0
 21 22  2  0  0  0
 21 23  1  0  0  0
 23 44  1  0  0  0
 44 45  1  0  0  0
 45 46  2  0  0  0
 46 47  1  0  0  0
 47 48  2  0  0  0
 48 49  1  0  0  0
 49 50  2  0  0  0
 23 24  1  0  0  0
 24 25  1  0  0  0
 25 26  2  0  0  0
 25  1  1  0  0  0
  9  5  1  0  0  0
 20 16  1  0  0  0
 50 45  1  0  0  0
  2 27  1  0  0  0
 36 37  1  0  0  0
 39 41  1  0  0  0
 39 42  1  0  0  0
 40 43  1  0  0  0
 13 28  1  0  0  0
 24 29  1  0  0  0
M  END
> <minimizedAffinity>
-4.55007

> <CNNscore>
0.4060772359

> <CNNaffinity>
5.4974551201

> <CNN_VS>
2.2323913574

> <CNNaffinity_variance>
0.8358046412

$$$$
[H]N=C(N([H])[H])N([H])C([H])([H])C([H])([H])C([H])([H])[C@@]1([H])C(=O)N2C([H])([H])C([H])([H])C([H])([H])[C@@]2([H])C(=O)N([H])[C@@]([H])(C([H])(C([H])([H])[H])C([H])([H])[H])C(=O)N([H])[C@@]([H])(C([H])([H])c2c([H])c([H])c([H])c([H])c2[H])C(=O)N2C([H])([H])C([H])([H])C([H])([H])[C@@]2([H])C(=O)N1[H]


 50 53  0  0  0  0  0  0  0  0999 V2000
   -3.2311   21.1805  -17.4860 C   0  0  0  0  0  0  0  0  0  0  0  0
   -4.2277   20.4102  -18.1950 N   0  0  0  0  0  0  0  0  0  0  0  0
   -4.7380   19.1366  -17.8370 C   0  0  0  0  0  0  0  0  0  0  0  0
   -5.9899   18.9946  -18.0509 O   0  0  0  0  0  0  0  0  0  0  0  0
   -4.0526   18.0075  -17.2825 C   0  0  0  0  0  0  0  0  0  0  0  0
   -4.7635   16.6632  -17.5509 C   0  0  0  0  0  0  0  0  0  0  0  0
   -3.8667   15.7417  -16.7046 C   0  0  0  0  0  0  0  0  0  0  0  0
   -2.9074   16.6677  -15.9814 C   0  0  0  0  0  0  0  0  0  0  0  0
   -3.8131   17.8607  -15.8791 N   0  0  0  0  0  0  0  0  0  0  0  0
   -4.2373   18.5622  -14.7511 C   0  0  0  0  0  0  0  0  0  0  0  0
   -3.2633   19.2028  -14.1550 O   0  0  0  0  0  0  0  0  0  0  0  0
   -5.5287   18.7366  -14.0864 C   0  0  0  0  0  0  0  0  0  0  0  0
   -6.4638   19.6509  -14.6473 N   0  0  0  0  0  0  0  0  0  0  0  0
   -6.7205   20.9943  -14.3256 C   0  0  0  0  0  0  0  0  0  0  0  0
   -7.9376   21.3234  -14.0873 O   0  0  0  0  0  0  0  0  0  0  0  0
   -5.7100   22.0606  -14.2389 C   0  0  0  0  0  0  0  0  0  0  0  0
   -5.2520   22.1918  -12.7734 C   0  0  0  0  0  0  0  0  0  0  0  0
   -6.5072   22.7982  -12.1956 C   0  0  0  0  0  0  0  0  0  0  0  0
   -7.0174   23.6997  -13.2529 C   0  0  0  0  0  0  0  0  0  0  0  0
   -6.1959   23.4034  -14.4401 N   0  0  0  0  0  0  0  0  0  0  0  0
   -5.9290   24.2707  -15.5294 C   0  0  0  0  0  0  0  0  0  0  0  0
   -6.1040   25.5409  -15.2937 O   0  0  0  0  0  0  0  0  0  0  0  0
   -5.4794   23.8765  -16.8778 C   0  0  0  0  0  0  0  0  0  0  0  0
   -4.0638   23.6162  -17.0062 N   0  0  0  0  0  0  0  0  0  0  0  0
   -3.3501   22.6413  -17.6779 C   0  0  0  0  0  0  0  0  0  0  0  0
   -2.6244   23.0408  -18.6850 O   0  0  0  0  0  0  0  0  0  0  0  0
   -4.5917   20.8838  -19.0809 H   0  0  0  0  0  0  0  0  0  0  0  0
   -7.0663   19.2211  -15.4326 H   0  0  0  0  0  0  0  0  0  0  0  0
   -3.4618   24.3613  -16.4879 H   0  0  0  0  0  0  0  0  0  0  0  0
   -0.8164   21.5941  -17.1072 C   0  0  0  0  0  0  0  0  0  0  0  0
   -1.8181   20.7113  -17.8466 C   0  0  0  0  0  0  0  0  0  0  0  0
   -1.5082   20.8103  -19.3067 C   0  0  0  0  0  0  0  0  0  0  0  0
   -6.2349   17.3521  -13.8893 C   0  0  0  0  0  0  0  0  0  0  0  0
   -7.4573   17.4016  -14.7151 C   0  0  0  0  0  0  0  0  0  0  0  0
   -7.7663   16.2976  -15.6357 C   0  0  0  0  0  0  0  0  0  0  0  0
   -9.1144   16.2776  -16.0873 N   0  0  0  0  0  0  0  0  0  0  0  0
   -9.9242   15.9293  -15.4801 H   0  0  0  0  0  0  0  0  0  0  0  0
   -9.4970   16.7133  -17.3712 C   0  0  0  0  0  0  0  0  0  0  0  0
  -10.7628   16.4136  -17.9565 N   0  0  0  0  0  0  0  0  0  0  0  0
   -8.6799   17.4342  -18.0618 N   0  0  0  0  0  0  0  0  0  0  0  0
  -11.5752   16.1827  -17.3360 H   0  0  0  0  0  0  0  0  0  0  0  0
  -10.9088   16.4160  -18.9716 H   0  0  0  0  0  0  0  0  0  0  0  0
   -7.7524   17.6879  -17.6718 H   0  0  0  0  0  0  0  0  0  0  0  0
   -6.3935   23.0213  -17.6755 C   0  0  0  0  0  0  0  0  0  0  0  0
   -7.1163   23.7599  -18.7396 C   0  0  0  0  0  0  0  0  0  0  0  0
   -6.6072   24.9705  -19.2263 C   0  0  0  0  0  0  0  0  0  0  0  0
   -7.2734   25.6730  -20.2202 C   0  0  0  0  0  0  0  0  0  0  0  0
   -8.4582   25.2002  -20.7595 C   0  0  0  0  0  0  0  0  0  0  0  0
   -8.9673   24.0129  -20.2895 C   0  0  0  0  0  0  0  0  0  0  0  0
   -8.2817   23.3234  -19.2905 C   0  0  0  0  0  0  0  0  0  0  0  0
 30 31  1  0  0  0
 31 32  1  0  0  0
 31  1  1  0  0  0
  1  2  1  0  0  0
  2  3  1  0  0  0
  3  4  2  0  0  0
  3  5  1  0  0  0
  5  6  1  0  0  0
  6  7  1  0  0  0
  7  8  1  0  0  0
  8  9  1  0  0  0
  9 10  1  0  0  0
 10 11  2  0  0  0
 10 12  1  0  0  0
 12 33  1  0  0  0
 33 34  1  0  0  0
 34 35  1  0  0  0
 35 36  1  0  0  0
 36 38  1  0  0  0
 38 39  1  0  0  0
 38 40  2  0  0  0
 12 13  1  0  0  0
 13 14  1  0  0  0
 14 15  2  0  0  0
 14 16  1  0  0  0
 16 17  1  0  0  0
 17 18  1  0  0  0
 18 19  1  0  0  0
 19 20  1  0  0  0
 20 21  1  0  0  0
 21 22  2  0  0  0
 21 23  1  0  0  0
 23 44  1  0  0  0
 44 45  1  0  0  0
 45 46  2  0  0  0
 46 47  1  0  0  0
 47 48  2  0  0  0
 48 49  1  0  0  0
 49 50  2  0  0  0
 23 24  1  0  0  0
 24 25  1  0  0  0
 25 26  2  0  0  0
 25  1  1  0  0  0
  9  5  1  0  0  0
 20 16  1  0  0  0
 50 45  1  0  0  0
  2 27  1  0  0  0
 36 37  1  0  0  0
 39 41  1  0  0  0
 39 42  1  0  0  0
 40 43  1  0  0  0
 13 28  1  0  0  0
 24 29  1  0  0  0
M  END
> <minimizedAffinity>
-5.11203

> <CNNscore>
0.3744496703

> <CNNaffinity>
5.6419219971

> <CNN_VS>
2.1126158237

> <CNNaffinity_variance>
0.8317605853

$$$$
[H]N=C(N([H])[H])N([H])C([H])([H])C([H])([H])C([H])([H])[C@@]1([H])C(=O)N2C([H])([H])C([H])([H])C([H])([H])[C@@]2([H])C(=O)N([H])[C@@]([H])(C([H])(C([H])([H])[H])C([H])([H])[H])C(=O)N([H])[C@@]([H])(C([H])([H])c2c([H])c([H])c([H])c([H])c2[H])C(=O)N2C([H])([H])C([H])([H])C([H])([H])[C@@]2([H])C(=O)N1[H]


 50 53  0  0  0  0  0  0  0  0999 V2000
   -3.7286   20.0973  -16.3262 C   0  0  0  0  0  0  0  0  0  0  0  0
   -3.4592   19.0963  -17.3335 N   0  0  0  0  0  0  0  0  0  0  0  0
   -4.1720   17.8901  -17.5523 C   0  0  0  0  0  0  0  0  0  0  0  0
   -4.3177   17.5835  -18.7843 O   0  0  0  0  0  0  0  0  0  0  0  0
   -4.7364   16.9837  -16.5974 C   0  0  0  0  0  0  0  0  0  0  0  0
   -4.9206   15.5508  -17.1429 C   0  0  0  0  0  0  0  0  0  0  0  0
   -5.6678   14.9310  -15.9484 C   0  0  0  0  0  0  0  0  0  0  0  0
   -5.9304   16.0826  -14.9968 C   0  0  0  0  0  0  0  0  0  0  0  0
   -6.0327   17.1751  -16.0216 N   0  0  0  0  0  0  0  0  0  0  0  0
   -7.0769   18.0643  -16.2737 C   0  0  0  0  0  0  0  0  0  0  0  0
   -7.2697   18.9123  -15.2949 O   0  0  0  0  0  0  0  0  0  0  0  0
   -8.0049   18.2553  -17.3881 C   0  0  0  0  0  0  0  0  0  0  0  0
   -7.5394   18.9277  -18.5527 N   0  0  0  0  0  0  0  0  0  0  0  0
   -7.6543   20.2776  -18.9251 C   0  0  0  0  0  0  0  0  0  0  0  0
   -8.1299   20.5316  -20.0895 O   0  0  0  0  0  0  0  0  0  0  0  0
   -7.2741   21.4295  -18.0920 C   0  0  0  0  0  0  0  0  0  0  0  0
   -8.5201   21.9256  -17.3331 C   0  0  0  0  0  0  0  0  0  0  0  0
   -9.2743   22.5201  -18.4971 C   0  0  0  0  0  0  0  0  0  0  0  0
   -8.2317   23.1114  -19.3656 C   0  0  0  0  0  0  0  0  0  0  0  0
   -6.9524   22.6408  -18.8053 N   0  0  0  0  0  0  0  0  0  0  0  0
   -5.6865   23.2672  -18.9289 C   0  0  0  0  0  0  0  0  0  0  0  0
   -5.7129   24.5350  -19.2318 O   0  0  0  0  0  0  0  0  0  0  0  0
   -4.3685   22.6300  -18.7489 C   0  0  0  0  0  0  0  0  0  0  0  0
   -3.9331   22.4862  -17.3785 N   0  0  0  0  0  0  0  0  0  0  0  0
   -3.2990   21.4609  -16.7022 C   0  0  0  0  0  0  0  0  0  0  0  0
   -2.0824   21.6961  -16.2960 O   0  0  0  0  0  0  0  0  0  0  0  0
   -2.6230   19.3245  -17.9583 H   0  0  0  0  0  0  0  0  0  0  0  0
   -7.0318   18.2784  -19.2492 H   0  0  0  0  0  0  0  0  0  0  0  0
   -4.1277   23.3823  -16.7909 H   0  0  0  0  0  0  0  0  0  0  0  0
   -2.1413   18.5473  -15.2203 C   0  0  0  0  0  0  0  0  0  0  0  0
   -3.1134   19.6993  -14.9809 C   0  0  0  0  0  0  0  0  0  0  0  0
   -4.1192   19.2338  -13.9763 C   0  0  0  0  0  0  0  0  0  0  0  0
   -8.6366   16.8870  -17.8159 C   0  0  0  0  0  0  0  0  0  0  0  0
   -9.9131   16.7849  -17.0819 C   0  0  0  0  0  0  0  0  0  0  0  0
  -10.1425   15.6618  -16.1611 C   0  0  0  0  0  0  0  0  0  0  0  0
   -9.5619   15.8369  -14.8750 N   0  0  0  0  0  0  0  0  0  0  0  0
   -8.7739   15.2142  -14.5050 H   0  0  0  0  0  0  0  0  0  0  0  0
   -9.9756   16.8433  -13.9802 C   0  0  0  0  0  0  0  0  0  0  0  0
  -11.3447   17.1530  -13.7263 N   0  0  0  0  0  0  0  0  0  0  0  0
   -9.0853   17.5197  -13.3368 N   0  0  0  0  0  0  0  0  0  0  0  0
  -12.0783   16.4257  -13.9030 H   0  0  0  0  0  0  0  0  0  0  0  0
  -11.6404   18.0695  -13.3738 H   0  0  0  0  0  0  0  0  0  0  0  0
   -8.0769   17.3211  -13.4798 H   0  0  0  0  0  0  0  0  0  0  0  0
   -4.0102   21.5349  -19.6847 C   0  0  0  0  0  0  0  0  0  0  0  0
   -3.3670   22.0110  -20.9336 C   0  0  0  0  0  0  0  0  0  0  0  0
   -3.8111   21.5430  -22.1768 C   0  0  0  0  0  0  0  0  0  0  0  0
   -3.2177   21.9784  -23.3531 C   0  0  0  0  0  0  0  0  0  0  0  0
   -2.1718   22.8860  -23.3339 C   0  0  0  0  0  0  0  0  0  0  0  0
   -1.7277   23.3524  -22.1194 C   0  0  0  0  0  0  0  0  0  0  0  0
   -2.3380   22.9017  -20.9499 C   0  0  0  0  0  0  0  0  0  0  0  0
 30 31  1  0  0  0
 31 32  1  0  0  0
 31  1  1  0  0  0
  1  2  1  0  0  0
  2  3  1  0  0  0
  3  4  2  0  0  0
  3  5  1  0  0  0
  5  6  1  0  0  0
  6  7  1  0  0  0
  7  8  1  0  0  0
  8  9  1  0  0  0
  9 10  1  0  0  0
 10 11  2  0  0  0
 10 12  1  0  0  0
 12 33  1  0  0  0
 33 34  1  0  0  0
 34 35  1  0  0  0
 35 36  1  0  0  0
 36 38  1  0  0  0
 38 39  1  0  0  0
 38 40  2  0  0  0
 12 13  1  0  0  0
 13 14  1  0  0  0
 14 15  2  0  0  0
 14 16  1  0  0  0
 16 17  1  0  0  0
 17 18  1  0  0  0
 18 19  1  0  0  0
 19 20  1  0  0  0
 20 21  1  0  0  0
 21 22  2  0  0  0
 21 23  1  0  0  0
 23 44  1  0  0  0
 44 45  1  0  0  0
 45 46  2  0  0  0
 46 47  1  0  0  0
 47 48  2  0  0  0
 48 49  1  0  0  0
 49 50  2  0  0  0
 23 24  1  0  0  0
 24 25  1  0  0  0
 25 26  2  0  0  0
 25  1  1  0  0  0
  9  5  1  0  0  0
 20 16  1  0  0  0
 50 45  1  0  0  0
  2 27  1  0  0  0
 36 37  1  0  0  0
 39 41  1  0  0  0
 39 42  1  0  0  0
 40 43  1  0  0  0
 13 28  1  0  0  0
 24 29  1  0  0  0
M  END
> <minimizedAffinity>
-4.76026

> <CNNscore>
0.3646433949

> <CNNaffinity>
5.7233724594

> <CNN_VS>
2.0869898796

> <CNNaffinity_variance>
0.7934996486

$$$$
[H]OC(=O)c1c([H])c([H])c(-c2sc(N([H])C(=O)c3c([H])c([H])c(OC([H])([H])[H])c([H])c3[H])nc2[H])c(OC([H])([H])c2c([H])c([H])c([H])c([H])c2[H])c1[H]


 35 38  0  0  0  0  0  0  0  0999 V2000
   -2.9115   23.2959  -26.5923 C   0  0  0  0  0  0  0  0  0  0  0  0
   -2.8788   22.7655  -27.8909 C   0  0  0  0  0  0  0  0  0  0  0  0
   -3.7201   23.2762  -28.8453 C   0  0  0  0  0  0  0  0  0  0  0  0
   -4.6084   24.3076  -28.5664 C   0  0  0  0  0  0  0  0  0  0  0  0
   -4.6420   24.8273  -27.2991 C   0  0  0  0  0  0  0  0  0  0  0  0
   -3.7906   24.3107  -26.3308 C   0  0  0  0  0  0  0  0  0  0  0  0
    0.0849   21.8472  -24.2788 C   0  0  0  0  0  0  0  0  0  0  0  0
   -1.1136   21.7130  -23.7433 N   0  0  0  0  0  0  0  0  0  0  0  0
   -2.1591   22.1392  -24.3884 C   0  0  0  0  0  0  0  0  0  0  0  0
   -1.9883   22.7139  -25.6016 C   0  0  0  0  0  0  0  0  0  0  0  0
   -0.2524   22.6081  -25.7626 S   0  0  0  0  0  0  0  0  0  0  0  0
    1.3946   20.9596  -22.3858 C   0  0  0  0  0  0  0  0  0  0  0  0
    0.3442   20.8900  -21.6847 O   0  0  0  0  0  0  0  0  0  0  0  0
    1.3429   21.4315  -23.7013 N   0  0  0  0  0  0  0  0  0  0  0  0
    2.2020   21.4877  -24.2733 H   0  0  0  0  0  0  0  0  0  0  0  0
    5.1056   19.6404  -20.8468 C   0  0  0  0  0  0  0  0  0  0  0  0
    4.5452   19.0967  -21.9605 C   0  0  0  0  0  0  0  0  0  0  0  0
    3.3450   19.5167  -22.4672 C   0  0  0  0  0  0  0  0  0  0  0  0
    2.6660   20.5446  -21.8167 C   0  0  0  0  0  0  0  0  0  0  0  0
    3.2408   21.0814  -20.6990 C   0  0  0  0  0  0  0  0  0  0  0  0
    4.4542   20.6545  -20.1896 C   0  0  0  0  0  0  0  0  0  0  0  0
    6.4209   18.6563  -19.0889 C   0  0  0  0  0  0  0  0  0  0  0  0
    6.3306   19.1333  -20.4229 O   0  0  0  0  0  0  0  0  0  0  0  0
   -5.4981   24.8490  -29.5720 C   0  0  0  0  0  0  0  0  0  0  0  0
   -5.4748   24.3674  -30.8584 O   0  0  0  0  0  0  0  0  0  0  0  0
   -6.2940   25.7606  -29.2708 O   0  0  0  0  0  0  0  0  0  0  0  0
   -5.2701   25.0082  -31.6347 H   0  0  0  0  0  0  0  0  0  0  0  0
   -3.8059   24.8183  -25.0510 O   0  0  0  0  0  0  0  0  0  0  0  0
   -4.5382   25.8406  -24.5016 C   0  0  0  0  0  0  0  0  0  0  0  0
   -5.7432   25.3073  -23.8249 C   0  0  0  0  0  0  0  0  0  0  0  0
   -5.5841   24.2592  -22.9105 C   0  0  0  0  0  0  0  0  0  0  0  0
   -6.6395   23.7210  -22.2516 C   0  0  0  0  0  0  0  0  0  0  0  0
   -7.9023   24.2160  -22.4858 C   0  0  0  0  0  0  0  0  0  0  0  0
   -8.0718   25.2516  -23.3872 C   0  0  0  0  0  0  0  0  0  0  0  0
   -6.9983   25.7954  -24.0540 C   0  0  0  0  0  0  0  0  0  0  0  0
 22 23  1  0  0  0
 23 16  1  0  0  0
 16 17  2  0  0  0
 17 18  1  0  0  0
 18 19  2  0  0  0
 19 20  1  0  0  0
 20 21  2  0  0  0
 19 12  1  0  0  0
 12 13  2  0  0  0
 12 14  1  0  0  0
 14  7  1  0  0  0
  7  8  2  0  0  0
  8  9  1  0  0  0
  9 10  2  0  0  0
 10 11  1  0  0  0
 10  1  1  0  0  0
  1  2  2  0  0  0
  2  3  1  0  0  0
  3  4  2  0  0  0
  4  5  1  0  0  0
  5  6  2  0  0  0
  6 28  1  0  0  0
 28 29  1  0  0  0
 29 30  1  0  0  0
 30 31  2  0  0  0
 31 32  1  0  0  0
 32 33  2  0  0  0
 33 34  1  0  0  0
 34 35  2  0  0  0
  4 24  1  0  0  0
 24 25  1  0  0  0
 24 26  2  0  0  0
 21 16  1  0  0  0
 11  7  1  0  0  0
  6  1  1  0  0  0
 35 30  1  0  0  0
 14 15  1  0  0  0
 25 27  1  0  0  0
M  END
> <minimizedAffinity>
-8.07738

> <CNNscore>
0.4127125442

> <CNNaffinity>
6.5453300476

> <CNN_VS>
2.7013397217

> <CNNaffinity_variance>
0.2942404151

$$$$
[H]OC(=O)c1c([H])c([H])c(-c2sc(N([H])C(=O)c3c([H])c([H])c(OC([H])([H])[H])c([H])c3[H])nc2[H])c(OC([H])([H])c2c([H])c([H])c([H])c([H])c2[H])c1[H]


 35 38  0  0  0  0  0  0  0  0999 V2000
   -2.3045   22.6337  -26.2693 C   0  0  0  0  0  0  0  0  0  0  0  0
   -1.9811   22.8025  -27.6242 C   0  0  0  0  0  0  0  0  0  0  0  0
   -2.9802   23.0710  -28.5238 C   0  0  0  0  0  0  0  0  0  0  0  0
   -4.3095   23.1820  -28.1347 C   0  0  0  0  0  0  0  0  0  0  0  0
   -4.6277   23.0178  -26.8122 C   0  0  0  0  0  0  0  0  0  0  0  0
   -3.6167   22.7453  -25.8995 C   0  0  0  0  0  0  0  0  0  0  0  0
    0.3005   21.5828  -23.3472 C   0  0  0  0  0  0  0  0  0  0  0  0
    0.8660   22.1972  -24.3689 N   0  0  0  0  0  0  0  0  0  0  0  0
    0.1355   22.5854  -25.3721 C   0  0  0  0  0  0  0  0  0  0  0  0
   -1.1961   22.3467  -25.3410 C   0  0  0  0  0  0  0  0  0  0  0  0
   -1.3390   21.5385  -23.7994 S   0  0  0  0  0  0  0  0  0  0  0  0
    2.3528   20.9581  -22.1289 C   0  0  0  0  0  0  0  0  0  0  0  0
    3.0518   21.2687  -23.1362 O   0  0  0  0  0  0  0  0  0  0  0  0
    0.9608   21.0893  -22.1601 N   0  0  0  0  0  0  0  0  0  0  0  0
    0.3907   20.8352  -21.3361 H   0  0  0  0  0  0  0  0  0  0  0  0
    4.3032   19.6605  -18.6086 C   0  0  0  0  0  0  0  0  0  0  0  0
    4.3184   20.9593  -19.0122 C   0  0  0  0  0  0  0  0  0  0  0  0
    3.6899   21.3898  -20.1495 C   0  0  0  0  0  0  0  0  0  0  0  0
    3.0048   20.4605  -20.9290 C   0  0  0  0  0  0  0  0  0  0  0  0
    2.9980   19.1591  -20.5115 C   0  0  0  0  0  0  0  0  0  0  0  0
    3.6342   18.7274  -19.3614 C   0  0  0  0  0  0  0  0  0  0  0  0
    6.3963   19.3656  -17.4595 C   0  0  0  0  0  0  0  0  0  0  0  0
    4.9773   19.3377  -17.4344 O   0  0  0  0  0  0  0  0  0  0  0  0
   -5.3668   23.4653  -29.0822 C   0  0  0  0  0  0  0  0  0  0  0  0
   -6.2661   24.4763  -28.8446 O   0  0  0  0  0  0  0  0  0  0  0  0
   -5.4646   22.7874  -30.1244 O   0  0  0  0  0  0  0  0  0  0  0  0
   -7.2685   24.2588  -28.7890 H   0  0  0  0  0  0  0  0  0  0  0  0
   -3.9129   22.5778  -24.5653 O   0  0  0  0  0  0  0  0  0  0  0  0
   -4.0595   23.4982  -23.5580 C   0  0  0  0  0  0  0  0  0  0  0  0
   -4.7124   24.7251  -24.0704 C   0  0  0  0  0  0  0  0  0  0  0  0
   -6.1113   24.7794  -24.0823 C   0  0  0  0  0  0  0  0  0  0  0  0
   -6.7791   25.8689  -24.5346 C   0  0  0  0  0  0  0  0  0  0  0  0
   -6.0656   26.9522  -24.9950 C   0  0  0  0  0  0  0  0  0  0  0  0
   -4.6829   26.9101  -24.9880 C   0  0  0  0  0  0  0  0  0  0  0  0
   -4.0086   25.8026  -24.5281 C   0  0  0  0  0  0  0  0  0  0  0  0
 22 23  1  0  0  0
 23 16  1  0  0  0
 16 17  2  0  0  0
 17 18  1  0  0  0
 18 19  2  0  0  0
 19 20  1  0  0  0
 20 21  2  0  0  0
 19 12  1  0  0  0
 12 13  2  0  0  0
 12 14  1  0  0  0
 14  7  1  0  0  0
  7  8  2  0  0  0
  8  9  1  0  0  0
  9 10  2  0  0  0
 10 11  1  0  0  0
 10  1  1  0  0  0
  1  2  2  0  0  0
  2  3  1  0  0  0
  3  4  2  0  0  0
  4  5  1  0  0  0
  5  6  2  0  0  0
  6 28  1  0  0  0
 28 29  1  0  0  0
 29 30  1  0  0  0
 30 31  2  0  0  0
 31 32  1  0  0  0
 32 33  2  0  0  0
 33 34  1  0  0  0
 34 35  2  0  0  0
  4 24  1  0  0  0
 24 25  1  0  0  0
 24 26  2  0  0  0
 21 16  1  0  0  0
 11  7  1  0  0  0
  6  1  1  0  0  0
 35 30  1  0  0  0
 14 15  1  0  0  0
 25 27  1  0  0  0
M  END
> <minimizedAffinity>
-8.03118

> <CNNscore>
0.2718605399

> <CNNaffinity>
6.2709865570

> <CNN_VS>
1.7048337460

> <CNNaffinity_variance>
0.1136812344

$$$$
[H]OC(=O)c1c([H])c([H])c(-c2sc(N([H])C(=O)c3c([H])c([H])c(OC([H])([H])[H])c([H])c3[H])nc2[H])c(OC([H])([H])c2c([H])c([H])c([H])c([H])c2[H])c1[H]


 35 38  0  0  0  0  0  0  0  0999 V2000
    1.5171   20.9272  -21.9238 C   0  0  0  0  0  0  0  0  0  0  0  0
    2.5344   20.5372  -22.8080 C   0  0  0  0  0  0  0  0  0  0  0  0
    3.7703   20.2167  -22.3090 C   0  0  0  0  0  0  0  0  0  0  0  0
    4.0492   20.2657  -20.9486 C   0  0  0  0  0  0  0  0  0  0  0  0
    3.0574   20.6459  -20.0832 C   0  0  0  0  0  0  0  0  0  0  0  0
    1.8047   20.9715  -20.5872 C   0  0  0  0  0  0  0  0  0  0  0  0
   -1.7603   22.2047  -23.9377 C   0  0  0  0  0  0  0  0  0  0  0  0
   -2.0340   21.3842  -22.9413 N   0  0  0  0  0  0  0  0  0  0  0  0
   -1.0663   20.9041  -22.2174 C   0  0  0  0  0  0  0  0  0  0  0  0
    0.2059   21.2619  -22.5081 C   0  0  0  0  0  0  0  0  0  0  0  0
   -0.0642   22.3201  -23.8709 S   0  0  0  0  0  0  0  0  0  0  0  0
   -2.7116   22.4991  -26.1949 C   0  0  0  0  0  0  0  0  0  0  0  0
   -1.8863   21.6600  -26.6580 O   0  0  0  0  0  0  0  0  0  0  0  0
   -2.7090   22.8245  -24.8347 N   0  0  0  0  0  0  0  0  0  0  0  0
   -3.3841   23.5104  -24.4575 H   0  0  0  0  0  0  0  0  0  0  0  0
   -5.3846   24.3484  -28.8996 C   0  0  0  0  0  0  0  0  0  0  0  0
   -4.0826   24.1093  -29.2124 C   0  0  0  0  0  0  0  0  0  0  0  0
   -3.2095   23.5109  -28.3445 C   0  0  0  0  0  0  0  0  0  0  0  0
   -3.6707   23.1295  -27.0866 C   0  0  0  0  0  0  0  0  0  0  0  0
   -4.9810   23.3760  -26.7860 C   0  0  0  0  0  0  0  0  0  0  0  0
   -5.8609   23.9810  -27.6656 C   0  0  0  0  0  0  0  0  0  0  0  0
   -5.6133   26.0337  -30.6015 C   0  0  0  0  0  0  0  0  0  0  0  0
   -6.1808   24.9634  -29.8615 O   0  0  0  0  0  0  0  0  0  0  0  0
    5.3533   19.9278  -20.4185 C   0  0  0  0  0  0  0  0  0  0  0  0
    6.3661   19.5275  -21.2560 O   0  0  0  0  0  0  0  0  0  0  0  0
    5.5624   20.0001  -19.1912 O   0  0  0  0  0  0  0  0  0  0  0  0
    6.7979   18.6050  -21.1225 H   0  0  0  0  0  0  0  0  0  0  0  0
    0.7925   21.3550  -19.7362 O   0  0  0  0  0  0  0  0  0  0  0  0
    0.4951   22.5794  -19.1925 C   0  0  0  0  0  0  0  0  0  0  0  0
    1.4722   22.9259  -18.1345 C   0  0  0  0  0  0  0  0  0  0  0  0
    1.4056   22.2394  -16.9162 C   0  0  0  0  0  0  0  0  0  0  0  0
    2.2667   22.5003  -15.9023 C   0  0  0  0  0  0  0  0  0  0  0  0
    3.2335   23.4653  -16.0722 C   0  0  0  0  0  0  0  0  0  0  0  0
    3.3090   24.1502  -17.2717 C   0  0  0  0  0  0  0  0  0  0  0  0
    2.4333   23.8826  -18.2986 C   0  0  0  0  0  0  0  0  0  0  0  0
 22 23  1  0  0  0
 23 16  1  0  0  0
 16 17  2  0  0  0
 17 18  1  0  0  0
 18 19  2  0  0  0
 19 20  1  0  0  0
 20 21  2  0  0  0
 19 12  1  0  0  0
 12 13  2  0  0  0
 12 14  1  0  0  0
 14  7  1  0  0  0
  7  8  2  0  0  0
  8  9  1  0  0  0
  9 10  2  0  0  0
 10 11  1  0  0  0
 10  1  1  0  0  0
  1  2  2  0  0  0
  2  3  1  0  0  0
  3  4  2  0  0  0
  4  5  1  0  0  0
  5  6  2  0  0  0
  6 28  1  0  0  0
 28 29  1  0  0  0
 29 30  1  0  0  0
 30 31  2  0  0  0
 31 32  1  0  0  0
 32 33  2  0  0  0
 33 34  1  0  0  0
 34 35  2  0  0  0
  4 24  1  0  0  0
 24 25  1  0  0  0
 24 26  2  0  0  0
 21 16  1  0  0  0
 11  7  1  0  0  0
  6  1  1  0  0  0
 35 30  1  0  0  0
 14 15  1  0  0  0
 25 27  1  0  0  0
M  END
> <minimizedAffinity>
-7.59224

> <CNNscore>
0.2047546357

> <CNNaffinity>
6.0086188316

> <CNN_VS>
1.2302925587

> <CNNaffinity_variance>
0.1005079001

$$$$
[H]OC(=O)c1c([H])c([H])c(-c2sc(N([H])C(=O)c3c([H])c([H])c(OC([H])([H])[H])c([H])c3[H])nc2[H])c(OC([H])([H])c2c([H])c([H])c([H])c([H])c2[H])c1[H]


 35 38  0  0  0  0  0  0  0  0999 V2000
   -3.7040   23.1356  -24.6414 C   0  0  0  0  0  0  0  0  0  0  0  0
   -4.5585   23.1579  -23.5286 C   0  0  0  0  0  0  0  0  0  0  0  0
   -5.8289   23.6537  -23.6683 C   0  0  0  0  0  0  0  0  0  0  0  0
   -6.2999   24.1373  -24.8829 C   0  0  0  0  0  0  0  0  0  0  0  0
   -5.4675   24.1164  -25.9709 C   0  0  0  0  0  0  0  0  0  0  0  0
   -4.1798   23.6147  -25.8310 C   0  0  0  0  0  0  0  0  0  0  0  0
   -0.0491   21.8180  -23.4862 C   0  0  0  0  0  0  0  0  0  0  0  0
   -0.3033   21.6276  -24.7669 N   0  0  0  0  0  0  0  0  0  0  0  0
   -1.4446   22.0077  -25.2608 C   0  0  0  0  0  0  0  0  0  0  0  0
   -2.3482   22.5931  -24.4411 C   0  0  0  0  0  0  0  0  0  0  0  0
   -1.4720   22.5671  -22.9306 S   0  0  0  0  0  0  0  0  0  0  0  0
    1.1188   20.5258  -21.7389 C   0  0  0  0  0  0  0  0  0  0  0  0
    0.0263   19.9854  -21.4009 O   0  0  0  0  0  0  0  0  0  0  0  0
    1.1598   21.4583  -22.7805 N   0  0  0  0  0  0  0  0  0  0  0  0
    2.0533   21.8991  -23.0559 H   0  0  0  0  0  0  0  0  0  0  0  0
    4.6021   19.3650  -19.6416 C   0  0  0  0  0  0  0  0  0  0  0  0
    3.4676   18.6147  -19.6394 C   0  0  0  0  0  0  0  0  0  0  0  0
    2.3351   18.9811  -20.3153 C   0  0  0  0  0  0  0  0  0  0  0  0
    2.3415   20.1726  -21.0370 C   0  0  0  0  0  0  0  0  0  0  0  0
    3.4881   20.9163  -21.0302 C   0  0  0  0  0  0  0  0  0  0  0  0
    4.6311   20.5431  -20.3460 C   0  0  0  0  0  0  0  0  0  0  0  0
    6.0181   19.5571  -17.7058 C   0  0  0  0  0  0  0  0  0  0  0  0
    5.6936   18.8934  -18.9180 O   0  0  0  0  0  0  0  0  0  0  0  0
   -7.6408   24.6617  -25.0337 C   0  0  0  0  0  0  0  0  0  0  0  0
   -8.1801   24.8537  -26.2825 O   0  0  0  0  0  0  0  0  0  0  0  0
   -8.3150   24.9425  -24.0227 O   0  0  0  0  0  0  0  0  0  0  0  0
   -8.4863   25.7935  -26.5622 H   0  0  0  0  0  0  0  0  0  0  0  0
   -3.3263   23.5826  -26.9110 O   0  0  0  0  0  0  0  0  0  0  0  0
   -3.4407   22.9522  -28.1246 C   0  0  0  0  0  0  0  0  0  0  0  0
   -4.0560   23.8587  -29.1215 C   0  0  0  0  0  0  0  0  0  0  0  0
   -5.1864   23.4137  -29.8174 C   0  0  0  0  0  0  0  0  0  0  0  0
   -5.8047   24.1875  -30.7430 C   0  0  0  0  0  0  0  0  0  0  0  0
   -5.3103   25.4446  -31.0077 C   0  0  0  0  0  0  0  0  0  0  0  0
   -4.1940   25.8951  -30.3262 C   0  0  0  0  0  0  0  0  0  0  0  0
   -3.5691   25.1069  -29.3875 C   0  0  0  0  0  0  0  0  0  0  0  0
 22 23  1  0  0  0
 23 16  1  0  0  0
 16 17  2  0  0  0
 17 18  1  0  0  0
 18 19  2  0  0  0
 19 20  1  0  0  0
 20 21  2  0  0  0
 19 12  1  0  0  0
 12 13  2  0  0  0
 12 14  1  0  0  0
 14  7  1  0  0  0
  7  8  2  0  0  0
  8  9  1  0  0  0
  9 10  2  0  0  0
 10 11  1  0  0  0
 10  1  1  0  0  0
  1  2  2  0  0  0
  2  3  1  0  0  0
  3  4  2  0  0  0
  4  5  1  0  0  0
  5  6  2  0  0  0
  6 28  1  0  0  0
 28 29  1  0  0  0
 29 30  1  0  0  0
 30 31  2  0  0  0
 31 32  1  0  0  0
 32 33  2  0  0  0
 33 34  1  0  0  0
 34 35  2  0  0  0
  4 24  1  0  0  0
 24 25  1  0  0  0
 24 26  2  0  0  0
 21 16  1  0  0  0
 11  7  1  0  0  0
  6  1  1  0  0  0
 35 30  1  0  0  0
 14 15  1  0  0  0
 25 27  1  0  0  0
M  END
> <minimizedAffinity>
-8.13700

> <CNNscore>
0.1753403395

> <CNNaffinity>
6.3278908730

> <CNN_VS>
1.1095345020

> <CNNaffinity_variance>
0.3110686839

$$$$
[H]OC(=O)c1c([H])c([H])c(-c2sc(N([H])C(=O)c3c([H])c([H])c(OC([H])([H])[H])c([H])c3[H])nc2[H])c(OC([H])([H])c2c([H])c([H])c([H])c([H])c2[H])c1[H]


 35 38  0  0  0  0  0  0  0  0999 V2000
    1.0387   21.2338  -22.1123 C   0  0  0  0  0  0  0  0  0  0  0  0
    2.2153   20.7635  -22.7149 C   0  0  0  0  0  0  0  0  0  0  0  0
    3.3343   20.5758  -21.9454 C   0  0  0  0  0  0  0  0  0  0  0  0
    3.3404   20.8376  -20.5808 C   0  0  0  0  0  0  0  0  0  0  0  0
    2.1926   21.2967  -19.9900 C   0  0  0  0  0  0  0  0  0  0  0  0
    1.0582   21.4878  -20.7683 C   0  0  0  0  0  0  0  0  0  0  0  0
   -1.7819   21.9524  -24.9331 C   0  0  0  0  0  0  0  0  0  0  0  0
   -2.2687   21.4772  -23.8024 N   0  0  0  0  0  0  0  0  0  0  0  0
   -1.4637   21.2056  -22.8179 C   0  0  0  0  0  0  0  0  0  0  0  0
   -0.1375   21.4194  -22.9810 C   0  0  0  0  0  0  0  0  0  0  0  0
   -0.1119   22.0286  -24.6175 S   0  0  0  0  0  0  0  0  0  0  0  0
   -3.2976   23.4738  -26.1473 C   0  0  0  0  0  0  0  0  0  0  0  0
   -3.3467   24.2374  -25.1402 O   0  0  0  0  0  0  0  0  0  0  0  0
   -2.5306   22.3047  -26.1180 N   0  0  0  0  0  0  0  0  0  0  0  0
   -2.4913   21.6815  -26.9418 H   0  0  0  0  0  0  0  0  0  0  0  0
   -5.4905   24.6229  -29.5753 C   0  0  0  0  0  0  0  0  0  0  0  0
   -5.1910   25.4965  -28.5766 C   0  0  0  0  0  0  0  0  0  0  0  0
   -4.4813   25.1349  -27.4633 C   0  0  0  0  0  0  0  0  0  0  0  0
   -4.0461   23.8169  -27.3450 C   0  0  0  0  0  0  0  0  0  0  0  0
   -4.3544   22.9502  -28.3559 C   0  0  0  0  0  0  0  0  0  0  0  0
   -5.0718   23.3190  -29.4798 C   0  0  0  0  0  0  0  0  0  0  0  0
   -5.5706   26.0099  -31.5396 C   0  0  0  0  0  0  0  0  0  0  0  0
   -6.2181   25.1025  -30.6606 O   0  0  0  0  0  0  0  0  0  0  0  0
    4.5204   20.6406  -19.7655 C   0  0  0  0  0  0  0  0  0  0  0  0
    5.1172   19.4058  -19.6864 O   0  0  0  0  0  0  0  0  0  0  0  0
    5.0017   21.5984  -19.1282 O   0  0  0  0  0  0  0  0  0  0  0  0
    5.2102   18.9465  -18.7722 H   0  0  0  0  0  0  0  0  0  0  0  0
   -0.1069   21.9471  -20.1959 O   0  0  0  0  0  0  0  0  0  0  0  0
   -0.3179   22.9199  -19.2513 C   0  0  0  0  0  0  0  0  0  0  0  0
   -1.0831   22.3719  -18.1074 C   0  0  0  0  0  0  0  0  0  0  0  0
   -2.4609   22.6134  -18.0514 C   0  0  0  0  0  0  0  0  0  0  0  0
   -3.2270   22.1427  -17.0369 C   0  0  0  0  0  0  0  0  0  0  0  0
   -2.6374   21.4074  -16.0338 C   0  0  0  0  0  0  0  0  0  0  0  0
   -1.2766   21.1623  -16.0785 C   0  0  0  0  0  0  0  0  0  0  0  0
   -0.5023   21.6416  -17.1098 C   0  0  0  0  0  0  0  0  0  0  0  0
 22 23  1  0  0  0
 23 16  1  0  0  0
 16 17  2  0  0  0
 17 18  1  0  0  0
 18 19  2  0  0  0
 19 20  1  0  0  0
 20 21  2  0  0  0
 19 12  1  0  0  0
 12 13  2  0  0  0
 12 14  1  0  0  0
 14  7  1  0  0  0
  7  8  2  0  0  0
  8  9  1  0  0  0
  9 10  2  0  0  0
 10 11  1  0  0  0
 10  1  1  0  0  0
  1  2  2  0  0  0
  2  3  1  0  0  0
  3  4  2  0  0  0
  4  5  1  0  0  0
  5  6  2  0  0  0
  6 28  1  0  0  0
 28 29  1  0  0  0
 29 30  1  0  0  0
 30 31  2  0  0  0
 31 32  1  0  0  0
 32 33  2  0  0  0
 33 34  1  0  0  0
 34 35  2  0  0  0
  4 24  1  0  0  0
 24 25  1  0  0  0
 24 26  2  0  0  0
 21 16  1  0  0  0
 11  7  1  0  0  0
  6  1  1  0  0  0
 35 30  1  0  0  0
 14 15  1  0  0  0
 25 27  1  0  0  0
M  END
> <minimizedAffinity>
-7.11549

> <CNNscore>
0.1686449200

> <CNNaffinity>
5.9784169197

> <CNN_VS>
1.0082296133

> <CNNaffinity_variance>
0.2248926461

$$$$
[H]OC(=O)c1c([H])c([H])c(-c2sc(N([H])C(=O)c3c([H])c([H])c(OC([H])([H])[H])c([H])c3[H])nc2[H])c(OC([H])([H])c2c([H])c([H])c([H])c([H])c2[H])c1[H]


 35 38  0  0  0  0  0  0  0  0999 V2000
   -2.8358   23.2257  -26.4877 C   0  0  0  0  0  0  0  0  0  0  0  0
   -2.5142   22.8861  -27.8106 C   0  0  0  0  0  0  0  0  0  0  0  0
   -3.1855   23.4923  -28.8408 C   0  0  0  0  0  0  0  0  0  0  0  0
   -4.1792   24.4371  -28.6156 C   0  0  0  0  0  0  0  0  0  0  0  0
   -4.4948   24.7705  -27.3247 C   0  0  0  0  0  0  0  0  0  0  0  0
   -3.8160   24.1569  -26.2798 C   0  0  0  0  0  0  0  0  0  0  0  0
   -1.3412   21.2695  -23.2676 C   0  0  0  0  0  0  0  0  0  0  0  0
   -0.4209   21.6536  -24.1316 N   0  0  0  0  0  0  0  0  0  0  0  0
   -0.7739   22.2920  -25.2081 C   0  0  0  0  0  0  0  0  0  0  0  0
   -2.0866   22.5471  -25.4150 C   0  0  0  0  0  0  0  0  0  0  0  0
   -2.7810   21.8232  -23.9853 S   0  0  0  0  0  0  0  0  0  0  0  0
    0.1583   20.4798  -21.4747 C   0  0  0  0  0  0  0  0  0  0  0  0
    1.1416   21.0335  -22.0459 O   0  0  0  0  0  0  0  0  0  0  0  0
   -1.1231   20.5556  -22.0301 N   0  0  0  0  0  0  0  0  0  0  0  0
   -1.9259   20.1028  -21.5622 H   0  0  0  0  0  0  0  0  0  0  0  0
    0.8465   18.2735  -17.9337 C   0  0  0  0  0  0  0  0  0  0  0  0
    1.3705   17.9053  -19.1338 C   0  0  0  0  0  0  0  0  0  0  0  0
    1.1543   18.6127  -20.2855 C   0  0  0  0  0  0  0  0  0  0  0  0
    0.3645   19.7588  -20.2297 C   0  0  0  0  0  0  0  0  0  0  0  0
   -0.1555   20.1167  -19.0174 C   0  0  0  0  0  0  0  0  0  0  0  0
    0.0650   19.3995  -17.8551 C   0  0  0  0  0  0  0  0  0  0  0  0
    2.3508   16.7473  -16.8397 C   0  0  0  0  0  0  0  0  0  0  0  0
    1.1335   17.4775  -16.8286 O   0  0  0  0  0  0  0  0  0  0  0  0
   -4.8899   25.0790  -29.7013 C   0  0  0  0  0  0  0  0  0  0  0  0
   -6.2623   25.0455  -29.7549 O   0  0  0  0  0  0  0  0  0  0  0  0
   -4.2536   25.6683  -30.5973 O   0  0  0  0  0  0  0  0  0  0  0  0
   -6.7266   24.6263  -30.5696 H   0  0  0  0  0  0  0  0  0  0  0  0
   -4.1155   24.4773  -24.9746 O   0  0  0  0  0  0  0  0  0  0  0  0
   -4.6265   25.6283  -24.4295 C   0  0  0  0  0  0  0  0  0  0  0  0
   -5.9067   25.3486  -23.7386 C   0  0  0  0  0  0  0  0  0  0  0  0
   -7.0760   25.2811  -24.5055 C   0  0  0  0  0  0  0  0  0  0  0  0
   -8.2836   25.0275  -23.9442 C   0  0  0  0  0  0  0  0  0  0  0  0
   -8.3654   24.8308  -22.5843 C   0  0  0  0  0  0  0  0  0  0  0  0
   -7.2167   24.8951  -21.8163 C   0  0  0  0  0  0  0  0  0  0  0  0
   -5.9928   25.1526  -22.3895 C   0  0  0  0  0  0  0  0  0  0  0  0
 22 23  1  0  0  0
 23 16  1  0  0  0
 16 17  2  0  0  0
 17 18  1  0  0  0
 18 19  2  0  0  0
 19 20  1  0  0  0
 20 21  2  0  0  0
 19 12  1  0  0  0
 12 13  2  0  0  0
 12 14  1  0  0  0
 14  7  1  0  0  0
  7  8  2  0  0  0
  8  9  1  0  0  0
  9 10  2  0  0  0
 10 11  1  0  0  0
 10  1  1  0  0  0
  1  2  2  0  0  0
  2  3  1  0  0  0
  3  4  2  0  0  0
  4  5  1  0  0  0
  5  6  2  0  0  0
  6 28  1  0  0  0
 28 29  1  0  0  0
 29 30  1  0  0  0
 30 31  2  0  0  0
 31 32  1  0  0  0
 32 33  2  0  0  0
 33 34  1  0  0  0
 34 35  2  0  0  0
  4 24  1  0  0  0
 24 25  1  0  0  0
 24 26  2  0  0  0
 21 16  1  0  0  0
 11  7  1  0  0  0
  6  1  1  0  0  0
 35 30  1  0  0  0
 14 15  1  0  0  0
 25 27  1  0  0  0
M  END
> <minimizedAffinity>
-7.72412

> <CNNscore>
0.1616966426

> <CNNaffinity>
6.3062252998

> <CNN_VS>
1.0196954012

> <CNNaffinity_variance>
0.4806744158

$$$$
[H]OC(=O)c1c([H])c([H])c(-c2sc(N([H])C(=O)c3c([H])c([H])c(OC([H])([H])[H])c([H])c3[H])nc2[H])c(OC([H])([H])c2c([H])c([H])c([H])c([H])c2[H])c1[H]


 35 38  0  0  0  0  0  0  0  0999 V2000
   -3.6656   22.7449  -26.3500 C   0  0  0  0  0  0  0  0  0  0  0  0
   -2.9197   22.7536  -27.5385 C   0  0  0  0  0  0  0  0  0  0  0  0
   -3.5471   23.0458  -28.7219 C   0  0  0  0  0  0  0  0  0  0  0  0
   -4.9048   23.3353  -28.7823 C   0  0  0  0  0  0  0  0  0  0  0  0
   -5.6351   23.3277  -27.6231 C   0  0  0  0  0  0  0  0  0  0  0  0
   -5.0011   23.0314  -26.4233 C   0  0  0  0  0  0  0  0  0  0  0  0
   -2.2303   21.5951  -22.7380 C   0  0  0  0  0  0  0  0  0  0  0  0
   -1.3490   22.2369  -23.4813 N   0  0  0  0  0  0  0  0  0  0  0  0
   -1.6882   22.6582  -24.6637 C   0  0  0  0  0  0  0  0  0  0  0  0
   -2.9465   22.4251  -25.1037 C   0  0  0  0  0  0  0  0  0  0  0  0
   -3.6107   21.5721  -23.7321 S   0  0  0  0  0  0  0  0  0  0  0  0
   -2.1129   21.8981  -20.2924 C   0  0  0  0  0  0  0  0  0  0  0  0
   -2.3815   23.1268  -20.4263 O   0  0  0  0  0  0  0  0  0  0  0  0
   -2.0201   21.0633  -21.4106 N   0  0  0  0  0  0  0  0  0  0  0  0
   -1.8007   20.0593  -21.2998 H   0  0  0  0  0  0  0  0  0  0  0  0
   -1.3832   20.4239  -16.3969 C   0  0  0  0  0  0  0  0  0  0  0  0
   -0.7602   21.5303  -16.8847 C   0  0  0  0  0  0  0  0  0  0  0  0
   -0.9897   22.0160  -18.1437 C   0  0  0  0  0  0  0  0  0  0  0  0
   -1.8994   21.3511  -18.9628 C   0  0  0  0  0  0  0  0  0  0  0  0
   -2.5178   20.2410  -18.4597 C   0  0  0  0  0  0  0  0  0  0  0  0
   -2.2836   19.7527  -17.1867 C   0  0  0  0  0  0  0  0  0  0  0  0
   -2.0660   19.3189  -14.3717 C   0  0  0  0  0  0  0  0  0  0  0  0
   -1.0715   20.0216  -15.1014 O   0  0  0  0  0  0  0  0  0  0  0  0
   -5.5702   23.6442  -30.0304 C   0  0  0  0  0  0  0  0  0  0  0  0
   -6.3432   24.7735  -30.1496 O   0  0  0  0  0  0  0  0  0  0  0  0
   -5.4424   22.8802  -31.0077 O   0  0  0  0  0  0  0  0  0  0  0  0
   -7.3352   24.6833  -30.4007 H   0  0  0  0  0  0  0  0  0  0  0  0
   -5.7147   23.0192  -25.2458 O   0  0  0  0  0  0  0  0  0  0  0  0
   -6.2802   24.0448  -24.5305 C   0  0  0  0  0  0  0  0  0  0  0  0
   -5.4557   25.2701  -24.6445 C   0  0  0  0  0  0  0  0  0  0  0  0
   -5.8296   26.2391  -25.5833 C   0  0  0  0  0  0  0  0  0  0  0  0
   -5.1255   27.3863  -25.7435 C   0  0  0  0  0  0  0  0  0  0  0  0
   -4.0128   27.6072  -24.9638 C   0  0  0  0  0  0  0  0  0  0  0  0
   -3.6337   26.6569  -24.0328 C   0  0  0  0  0  0  0  0  0  0  0  0
   -4.3509   25.4937  -23.8730 C   0  0  0  0  0  0  0  0  0  0  0  0
 22 23  1  0  0  0
 23 16  1  0  0  0
 16 17  2  0  0  0
 17 18  1  0  0  0
 18 19  2  0  0  0
 19 20  1  0  0  0
 20 21  2  0  0  0
 19 12  1  0  0  0
 12 13  2  0  0  0
 12 14  1  0  0  0
 14  7  1  0  0  0
  7  8  2  0  0  0
  8  9  1  0  0  0
  9 10  2  0  0  0
 10 11  1  0  0  0
 10  1  1  0  0  0
  1  2  2  0  0  0
  2  3  1  0  0  0
  3  4  2  0  0  0
  4  5  1  0  0  0
  5  6  2  0  0  0
  6 28  1  0  0  0
 28 29  1  0  0  0
 29 30  1  0  0  0
 30 31  2  0  0  0
 31 32  1  0  0  0
 32 33  2  0  0  0
 33 34  1  0  0  0
 34 35  2  0  0  0
  4 24  1  0  0  0
 24 25  1  0  0  0
 24 26  2  0  0  0
 21 16  1  0  0  0
 11  7  1  0  0  0
  6  1  1  0  0  0
 35 30  1  0  0  0
 14 15  1  0  0  0
 25 27  1  0  0  0
M  END
> <minimizedAffinity>
-7.66869

> <CNNscore>
0.1611097902

> <CNNaffinity>
5.9782934189

> <CNN_VS>
0.9631615877

> <CNNaffinity_variance>
0.2343254387

$$$$
[H]OC(=O)c1c([H])c([H])c(-c2sc(N([H])C(=O)c3c([H])c([H])c(OC([H])([H])[H])c([H])c3[H])nc2[H])c(OC([H])([H])c2c([H])c([H])c([H])c([H])c2[H])c1[H]


 35 38  0  0  0  0  0  0  0  0999 V2000
   -4.4238   23.8474  -27.7720 C   0  0  0  0  0  0  0  0  0  0  0  0
   -4.8576   23.1242  -28.8935 C   0  0  0  0  0  0  0  0  0  0  0  0
   -5.3416   23.8019  -29.9824 C   0  0  0  0  0  0  0  0  0  0  0  0
   -5.4167   25.1891  -30.0112 C   0  0  0  0  0  0  0  0  0  0  0  0
   -4.9934   25.8974  -28.9175 C   0  0  0  0  0  0  0  0  0  0  0  0
   -4.5031   25.2123  -27.8132 C   0  0  0  0  0  0  0  0  0  0  0  0
   -2.4423   21.8301  -24.8680 C   0  0  0  0  0  0  0  0  0  0  0  0
   -3.7524   21.8390  -24.7109 N   0  0  0  0  0  0  0  0  0  0  0  0
   -4.5012   22.4543  -25.5779 C   0  0  0  0  0  0  0  0  0  0  0  0
   -3.9117   23.0741  -26.6264 C   0  0  0  0  0  0  0  0  0  0  0  0
   -2.2319   22.7256  -26.2992 S   0  0  0  0  0  0  0  0  0  0  0  0
   -0.8738   21.9202  -22.9657 C   0  0  0  0  0  0  0  0  0  0  0  0
   -1.1749   23.1326  -22.7680 O   0  0  0  0  0  0  0  0  0  0  0  0
   -1.4708   21.1984  -24.0043 N   0  0  0  0  0  0  0  0  0  0  0  0
   -1.2240   20.2075  -24.1647 H   0  0  0  0  0  0  0  0  0  0  0  0
    2.0754   20.0575  -20.5756 C   0  0  0  0  0  0  0  0  0  0  0  0
    2.3453   20.5436  -21.8169 C   0  0  0  0  0  0  0  0  0  0  0  0
    1.3982   21.1488  -22.5983 C   0  0  0  0  0  0  0  0  0  0  0  0
    0.1017   21.2734  -22.1042 C   0  0  0  0  0  0  0  0  0  0  0  0
   -0.1551   20.7803  -20.8556 C   0  0  0  0  0  0  0  0  0  0  0  0
    0.8045   20.1693  -20.0684 C   0  0  0  0  0  0  0  0  0  0  0  0
    4.4043   19.4625  -20.4706 C   0  0  0  0  0  0  0  0  0  0  0  0
    3.1175   19.4616  -19.8711 O   0  0  0  0  0  0  0  0  0  0  0  0
   -5.9274   25.9077  -31.1596 C   0  0  0  0  0  0  0  0  0  0  0  0
   -6.4288   25.2282  -32.2431 O   0  0  0  0  0  0  0  0  0  0  0  0
   -5.9135   27.1547  -31.1681 O   0  0  0  0  0  0  0  0  0  0  0  0
   -6.0044   25.3675  -33.1681 H   0  0  0  0  0  0  0  0  0  0  0  0
   -4.0709   25.9034  -26.7034 O   0  0  0  0  0  0  0  0  0  0  0  0
   -4.7580   26.6940  -25.8168 C   0  0  0  0  0  0  0  0  0  0  0  0
   -4.9921   25.9652  -24.5487 C   0  0  0  0  0  0  0  0  0  0  0  0
   -6.3113   25.6717  -24.1834 C   0  0  0  0  0  0  0  0  0  0  0  0
   -6.6034   25.0065  -23.0389 C   0  0  0  0  0  0  0  0  0  0  0  0
   -5.5778   24.6078  -22.2119 C   0  0  0  0  0  0  0  0  0  0  0  0
   -4.2702   24.8922  -22.5626 C   0  0  0  0  0  0  0  0  0  0  0  0
   -3.9776   25.5675  -23.7250 C   0  0  0  0  0  0  0  0  0  0  0  0
 22 23  1  0  0  0
 23 16  1  0  0  0
 16 17  2  0  0  0
 17 18  1  0  0  0
 18 19  2  0  0  0
 19 20  1  0  0  0
 20 21  2  0  0  0
 19 12  1  0  0  0
 12 13  2  0  0  0
 12 14  1  0  0  0
 14  7  1  0  0  0
  7  8  2  0  0  0
  8  9  1  0  0  0
  9 10  2  0  0  0
 10 11  1  0  0  0
 10  1  1  0  0  0
  1  2  2  0  0  0
  2  3  1  0  0  0
  3  4  2  0  0  0
  4  5  1  0  0  0
  5  6  2  0  0  0
  6 28  1  0  0  0
 28 29  1  0  0  0
 29 30  1  0  0  0
 30 31  2  0  0  0
 31 32  1  0  0  0
 32 33  2  0  0  0
 33 34  1  0  0  0
 34 35  2  0  0  0
  4 24  1  0  0  0
 24 25  1  0  0  0
 24 26  2  0  0  0
 21 16  1  0  0  0
 11  7  1  0  0  0
  6  1  1  0  0  0
 35 30  1  0  0  0
 14 15  1  0  0  0
 25 27  1  0  0  0
M  END
> <minimizedAffinity>
-8.47393

> <CNNscore>
0.1525690556

> <CNNaffinity>
6.2431955338

> <CNN_VS>
0.9525184631

> <CNNaffinity_variance>
0.2735273242

$$$$
[H]OC(=O)c1c([H])c([H])c(-c2sc(N([H])C(=O)c3c([H])c([H])c(OC([H])([H])[H])c([H])c3[H])nc2[H])c(OC([H])([H])c2c([H])c([H])c([H])c([H])c2[H])c1[H]


 35 38  0  0  0  0  0  0  0  0999 V2000
   -5.1083   24.3045  -26.8433 C   0  0  0  0  0  0  0  0  0  0  0  0
   -5.9431   25.3434  -27.2820 C   0  0  0  0  0  0  0  0  0  0  0  0
   -5.9245   25.7059  -28.6040 C   0  0  0  0  0  0  0  0  0  0  0  0
   -5.1013   25.0740  -29.5280 C   0  0  0  0  0  0  0  0  0  0  0  0
   -4.2855   24.0591  -29.1020 C   0  0  0  0  0  0  0  0  0  0  0  0
   -4.3028   23.6909  -27.7629 C   0  0  0  0  0  0  0  0  0  0  0  0
   -5.6452   22.8629  -23.0932 C   0  0  0  0  0  0  0  0  0  0  0  0
   -4.8548   23.9179  -23.1499 N   0  0  0  0  0  0  0  0  0  0  0  0
   -4.6035   24.4740  -24.2982 C   0  0  0  0  0  0  0  0  0  0  0  0
   -5.1642   23.9512  -25.4134 C   0  0  0  0  0  0  0  0  0  0  0  0
   -6.0669   22.6245  -24.7241 S   0  0  0  0  0  0  0  0  0  0  0  0
   -7.2767   22.3382  -21.3186 C   0  0  0  0  0  0  0  0  0  0  0  0
   -8.0904   23.1708  -21.8131 O   0  0  0  0  0  0  0  0  0  0  0  0
   -6.0259   22.1287  -21.9080 N   0  0  0  0  0  0  0  0  0  0  0  0
   -5.3618   21.4479  -21.5029 H   0  0  0  0  0  0  0  0  0  0  0  0
   -8.2064   20.1087  -17.8479 C   0  0  0  0  0  0  0  0  0  0  0  0
   -6.9762   20.0740  -18.4272 C   0  0  0  0  0  0  0  0  0  0  0  0
   -6.6648   20.7921  -19.5501 C   0  0  0  0  0  0  0  0  0  0  0  0
   -7.6475   21.5936  -20.1267 C   0  0  0  0  0  0  0  0  0  0  0  0
   -8.8789   21.6187  -19.5342 C   0  0  0  0  0  0  0  0  0  0  0  0
   -9.1903   20.8916  -18.3992 C   0  0  0  0  0  0  0  0  0  0  0  0
   -8.0580   17.9625  -16.7706 C   0  0  0  0  0  0  0  0  0  0  0  0
   -8.4090   19.3366  -16.7077 O   0  0  0  0  0  0  0  0  0  0  0  0
   -5.0793   25.4546  -30.9247 C   0  0  0  0  0  0  0  0  0  0  0  0
   -6.1613   25.2067  -31.7339 O   0  0  0  0  0  0  0  0  0  0  0  0
   -4.0705   26.0126  -31.4002 O   0  0  0  0  0  0  0  0  0  0  0  0
   -6.0446   24.6199  -32.5690 H   0  0  0  0  0  0  0  0  0  0  0  0
   -3.4925   22.6728  -27.3125 O   0  0  0  0  0  0  0  0  0  0  0  0
   -2.1471   22.4589  -27.4782 C   0  0  0  0  0  0  0  0  0  0  0  0
   -1.4990   22.2078  -26.1701 C   0  0  0  0  0  0  0  0  0  0  0  0
   -0.1078   22.3370  -26.0808 C   0  0  0  0  0  0  0  0  0  0  0  0
    0.5551   22.1250  -24.9176 C   0  0  0  0  0  0  0  0  0  0  0  0
   -0.1557   21.7732  -23.7926 C   0  0  0  0  0  0  0  0  0  0  0  0
   -1.5308   21.6426  -23.8687 C   0  0  0  0  0  0  0  0  0  0  0  0
   -2.2002   21.8586  -25.0511 C   0  0  0  0  0  0  0  0  0  0  0  0
 22 23  1  0  0  0
 23 16  1  0  0  0
 16 17  2  0  0  0
 17 18  1  0  0  0
 18 19  2  0  0  0
 19 20  1  0  0  0
 20 21  2  0  0  0
 19 12  1  0  0  0
 12 13  2  0  0  0
 12 14  1  0  0  0
 14  7  1  0  0  0
  7  8  2  0  0  0
  8  9  1  0  0  0
  9 10  2  0  0  0
 10 11  1  0  0  0
 10  1  1  0  0  0
  1  2  2  0  0  0
  2  3  1  0  0  0
  3  4  2  0  0  0
  4  5  1  0  0  0
  5  6  2  0  0  0
  6 28  1  0  0  0
 28 29  1  0  0  0
 29 30  1  0  0  0
 30 31  2  0  0  0
 31 32  1  0  0  0
 32 33  2  0  0  0
 33 34  1  0  0  0
 34 35  2  0  0  0
  4 24  1  0  0  0
 24 25  1  0  0  0
 24 26  2  0  0  0
 21 16  1  0  0  0
 11  7  1  0  0  0
  6  1  1  0  0  0
 35 30  1  0  0  0
 14 15  1  0  0  0
 25 27  1  0  0  0
M  END
> <minimizedAffinity>
-8.50324

> <CNNscore>
0.1517465413

> <CNNaffinity>
6.1366338730

> <CNN_VS>
0.9312129617

> <CNNaffinity_variance>
0.1108969823

$$$$
[H]c1c([H])c([H])c(-c2nsc(N3C([H])([H])C([H])([H])[C@]([H])(N([H])C(=O)c4c([H])c(OC([H])([H])[H])c(OC([H])([H])[H])c(OC([H])([H])[H])c4[H])C3([H])[H])n2)c([H])c1[H]


 32 35  0  0  0  0  0  0  0  0999 V2000
   -5.6591   22.6096  -15.1603 C   0  0  0  0  0  0  0  0  0  0  0  0
   -4.9727   21.6340  -14.7683 O   0  0  0  0  0  0  0  0  0  0  0  0
   -6.2094   22.6943  -16.4652 N   0  0  0  0  0  0  0  0  0  0  0  0
   -6.7723   23.5102  -16.7488 H   0  0  0  0  0  0  0  0  0  0  0  0
   -5.2239   24.8969  -12.2674 C   0  0  0  0  0  0  0  0  0  0  0  0
   -5.0208   23.8540  -13.1507 C   0  0  0  0  0  0  0  0  0  0  0  0
   -5.8953   23.6955  -14.2231 C   0  0  0  0  0  0  0  0  0  0  0  0
   -6.9407   24.5667  -14.3921 C   0  0  0  0  0  0  0  0  0  0  0  0
   -7.1716   25.6322  -13.5149 C   0  0  0  0  0  0  0  0  0  0  0  0
   -6.2816   25.7538  -12.4648 C   0  0  0  0  0  0  0  0  0  0  0  0
   -3.5504   24.0276  -10.7924 C   0  0  0  0  0  0  0  0  0  0  0  0
   -4.3916   25.1022  -11.1883 O   0  0  0  0  0  0  0  0  0  0  0  0
   -8.2182   26.5215  -13.6708 O   0  0  0  0  0  0  0  0  0  0  0  0
   -9.4979   26.1117  -13.2117 C   0  0  0  0  0  0  0  0  0  0  0  0
   -6.4602   26.7891  -11.5646 O   0  0  0  0  0  0  0  0  0  0  0  0
   -7.2535   26.5442  -10.4195 C   0  0  0  0  0  0  0  0  0  0  0  0
   -5.9881   21.6213  -17.4316 C   0  0  0  0  0  0  0  0  0  0  0  0
   -7.3404   21.0816  -17.8988 C   0  0  0  0  0  0  0  0  0  0  0  0
   -7.3780   21.2321  -19.3873 C   0  0  0  0  0  0  0  0  0  0  0  0
   -6.0757   21.7052  -19.7936 N   0  0  0  0  0  0  0  0  0  0  0  0
   -5.2749   22.0743  -18.6635 C   0  0  0  0  0  0  0  0  0  0  0  0
   -5.6846   21.7691  -21.1744 C   0  0  0  0  0  0  0  0  0  0  0  0
   -4.4700   21.7705  -21.7025 N   0  0  0  0  0  0  0  0  0  0  0  0
   -4.3359   21.8057  -22.9988 C   0  0  0  0  0  0  0  0  0  0  0  0
   -5.4535   21.8385  -23.7306 N   0  0  0  0  0  0  0  0  0  0  0  0
   -6.6737   21.8202  -22.5814 S   0  0  0  0  0  0  0  0  0  0  0  0
   -3.0037   21.8175  -23.6541 C   0  0  0  0  0  0  0  0  0  0  0  0
   -2.9274   22.0892  -24.9963 C   0  0  0  0  0  0  0  0  0  0  0  0
   -1.6643   22.1060  -25.6099 C   0  0  0  0  0  0  0  0  0  0  0  0
   -0.5234   21.8588  -24.8948 C   0  0  0  0  0  0  0  0  0  0  0  0
   -0.5977   21.5828  -23.5284 C   0  0  0  0  0  0  0  0  0  0  0  0
   -1.8577   21.5719  -22.9462 C   0  0  0  0  0  0  0  0  0  0  0  0
 11 12  1  0  0  0
 12  5  1  0  0  0
  5  6  2  0  0  0
  6  7  1  0  0  0
  7  8  2  0  0  0
  8  9  1  0  0  0
  9 13  1  0  0  0
 13 14  1  0  0  0
  9 10  2  0  0  0
 10 15  1  0  0  0
 15 16  1  0  0  0
  7  1  1  0  0  0
  1  2  2  0  0  0
  1  3  1  0  0  0
  3 17  1  0  0  0
 17 18  1  0  0  0
 18 19  1  0  0  0
 19 20  1  0  0  0
 20 21  1  0  0  0
 20 22  1  0  0  0
 22 23  2  0  0  0
 23 24  1  0  0  0
 24 25  2  0  0  0
 25 26  1  0  0  0
 24 27  1  0  0  0
 27 28  2  0  0  0
 28 29  1  0  0  0
 29 30  2  0  0  0
 30 31  1  0  0  0
 31 32  2  0  0  0
 10  5  1  0  0  0
 21 17  1  0  0  0
 26 22  1  0  0  0
 32 27  1  0  0  0
  3  4  1  0  0  0
M  END
> <minimizedAffinity>
-6.40219

> <CNNscore>
0.3618055880

> <CNNaffinity>
5.0955548286

> <CNN_VS>
1.8436001539

> <CNNaffinity_variance>
0.1178322583

$$$$
[H]c1c([H])c([H])c(-c2nsc(N3C([H])([H])C([H])([H])[C@]([H])(N([H])C(=O)c4c([H])c(OC([H])([H])[H])c(OC([H])([H])[H])c(OC([H])([H])[H])c4[H])C3([H])[H])n2)c([H])c1[H]


 32 35  0  0  0  0  0  0  0  0999 V2000
   -4.1883   22.1863  -20.6923 C   0  0  0  0  0  0  0  0  0  0  0  0
   -4.3269   23.4277  -20.5638 O   0  0  0  0  0  0  0  0  0  0  0  0
   -3.2129   21.6000  -21.5394 N   0  0  0  0  0  0  0  0  0  0  0  0
   -3.1265   20.5755  -21.6147 H   0  0  0  0  0  0  0  0  0  0  0  0
   -5.3433   19.5402  -18.3568 C   0  0  0  0  0  0  0  0  0  0  0  0
   -4.5105   20.3527  -19.1022 C   0  0  0  0  0  0  0  0  0  0  0  0
   -5.0734   21.3206  -19.9305 C   0  0  0  0  0  0  0  0  0  0  0  0
   -6.4361   21.4581  -19.9994 C   0  0  0  0  0  0  0  0  0  0  0  0
   -7.3047   20.6508  -19.2566 C   0  0  0  0  0  0  0  0  0  0  0  0
   -6.7060   19.7036  -18.4480 C   0  0  0  0  0  0  0  0  0  0  0  0
   -3.5075   18.1321  -17.7410 C   0  0  0  0  0  0  0  0  0  0  0  0
   -4.8428   18.5655  -17.5210 O   0  0  0  0  0  0  0  0  0  0  0  0
   -8.6801   20.7767  -19.3114 O   0  0  0  0  0  0  0  0  0  0  0  0
   -9.2053   21.9834  -19.8449 C   0  0  0  0  0  0  0  0  0  0  0  0
   -7.5152   18.8761  -17.6900 O   0  0  0  0  0  0  0  0  0  0  0  0
   -7.8780   17.6219  -18.2341 C   0  0  0  0  0  0  0  0  0  0  0  0
   -2.3101   22.4422  -22.3204 C   0  0  0  0  0  0  0  0  0  0  0  0
   -0.9886   21.7015  -22.5278 C   0  0  0  0  0  0  0  0  0  0  0  0
   -0.7715   21.6049  -24.0054 C   0  0  0  0  0  0  0  0  0  0  0  0
   -1.8288   22.3606  -24.6345 N   0  0  0  0  0  0  0  0  0  0  0  0
   -2.8284   22.7552  -23.6860 C   0  0  0  0  0  0  0  0  0  0  0  0
   -1.8222   22.6557  -26.0405 C   0  0  0  0  0  0  0  0  0  0  0  0
   -2.8083   23.0901  -26.8104 N   0  0  0  0  0  0  0  0  0  0  0  0
   -2.5790   23.3249  -28.0722 C   0  0  0  0  0  0  0  0  0  0  0  0
   -1.3391   23.1090  -28.5210 N   0  0  0  0  0  0  0  0  0  0  0  0
   -0.5175   22.5786  -27.1596 S   0  0  0  0  0  0  0  0  0  0  0  0
   -3.6417   23.8053  -28.9911 C   0  0  0  0  0  0  0  0  0  0  0  0
   -4.6608   22.9522  -29.3297 C   0  0  0  0  0  0  0  0  0  0  0  0
   -5.6672   23.4138  -30.1937 C   0  0  0  0  0  0  0  0  0  0  0  0
   -5.6447   24.6876  -30.6948 C   0  0  0  0  0  0  0  0  0  0  0  0
   -4.6091   25.5584  -30.3513 C   0  0  0  0  0  0  0  0  0  0  0  0
   -3.6270   25.0778  -29.4962 C   0  0  0  0  0  0  0  0  0  0  0  0
 11 12  1  0  0  0
 12  5  1  0  0  0
  5  6  2  0  0  0
  6  7  1  0  0  0
  7  8  2  0  0  0
  8  9  1  0  0  0
  9 13  1  0  0  0
 13 14  1  0  0  0
  9 10  2  0  0  0
 10 15  1  0  0  0
 15 16  1  0  0  0
  7  1  1  0  0  0
  1  2  2  0  0  0
  1  3  1  0  0  0
  3 17  1  0  0  0
 17 18  1  0  0  0
 18 19  1  0  0  0
 19 20  1  0  0  0
 20 21  1  0  0  0
 20 22  1  0  0  0
 22 23  2  0  0  0
 23 24  1  0  0  0
 24 25  2  0  0  0
 25 26  1  0  0  0
 24 27  1  0  0  0
 27 28  2  0  0  0
 28 29  1  0  0  0
 29 30  2  0  0  0
 30 31  1  0  0  0
 31 32  2  0  0  0
 10  5  1  0  0  0
 21 17  1  0  0  0
 26 22  1  0  0  0
 32 27  1  0  0  0
  3  4  1  0  0  0
M  END
> <minimizedAffinity>
-7.58969

> <CNNscore>
0.2448950112

> <CNNaffinity>
5.8946905136

> <CNN_VS>
1.4435802698

> <CNNaffinity_variance>
0.2729070783

$$$$
[H]c1c([H])c([H])c(-c2nsc(N3C([H])([H])C([H])([H])[C@]([H])(N([H])C(=O)c4c([H])c(OC([H])([H])[H])c(OC([H])([H])[H])c(OC([H])([H])[H])c4[H])C3([H])[H])n2)c([H])c1[H]


 32 35  0  0  0  0  0  0  0  0999 V2000
   -3.7664   21.9470  -20.3215 C   0  0  0  0  0  0  0  0  0  0  0  0
   -3.3533   22.9864  -19.7508 O   0  0  0  0  0  0  0  0  0  0  0  0
   -3.3587   21.5660  -21.6259 N   0  0  0  0  0  0  0  0  0  0  0  0
   -3.7167   20.7018  -22.0594 H   0  0  0  0  0  0  0  0  0  0  0  0
   -6.9563   20.3825  -19.2412 C   0  0  0  0  0  0  0  0  0  0  0  0
   -6.0598   21.1977  -19.9052 C   0  0  0  0  0  0  0  0  0  0  0  0
   -4.7042   21.1021  -19.6003 C   0  0  0  0  0  0  0  0  0  0  0  0
   -4.2741   20.2089  -18.6529 C   0  0  0  0  0  0  0  0  0  0  0  0
   -5.1575   19.3702  -17.9644 C   0  0  0  0  0  0  0  0  0  0  0  0
   -6.4930   19.4967  -18.2963 C   0  0  0  0  0  0  0  0  0  0  0  0
   -9.0397   21.5302  -18.9693 C   0  0  0  0  0  0  0  0  0  0  0  0
   -8.3087   20.4338  -19.5009 O   0  0  0  0  0  0  0  0  0  0  0  0
   -4.7420   18.4624  -17.0084 O   0  0  0  0  0  0  0  0  0  0  0  0
   -3.3475   18.2158  -16.9037 C   0  0  0  0  0  0  0  0  0  0  0  0
   -7.4135   18.6929  -17.6476 O   0  0  0  0  0  0  0  0  0  0  0  0
   -7.6730   17.4114  -18.1870 C   0  0  0  0  0  0  0  0  0  0  0  0
   -2.4198   22.3947  -22.3782 C   0  0  0  0  0  0  0  0  0  0  0  0
   -1.1235   21.6128  -22.5936 C   0  0  0  0  0  0  0  0  0  0  0  0
   -0.8968   21.5452  -24.0713 C   0  0  0  0  0  0  0  0  0  0  0  0
   -1.9210   22.3535  -24.6897 N   0  0  0  0  0  0  0  0  0  0  0  0
   -2.9145   22.7597  -23.7396 C   0  0  0  0  0  0  0  0  0  0  0  0
   -1.8915   22.6830  -26.0877 C   0  0  0  0  0  0  0  0  0  0  0  0
   -2.8704   23.1158  -26.8678 N   0  0  0  0  0  0  0  0  0  0  0  0
   -2.6199   23.3860  -28.1184 C   0  0  0  0  0  0  0  0  0  0  0  0
   -1.3666   23.2067  -28.5458 N   0  0  0  0  0  0  0  0  0  0  0  0
   -0.5625   22.6601  -27.1803 S   0  0  0  0  0  0  0  0  0  0  0  0
   -3.6731   23.8669  -29.0478 C   0  0  0  0  0  0  0  0  0  0  0  0
   -3.5767   25.1357  -29.5597 C   0  0  0  0  0  0  0  0  0  0  0  0
   -4.5719   25.5833  -30.4438 C   0  0  0  0  0  0  0  0  0  0  0  0
   -5.6224   24.7796  -30.7972 C   0  0  0  0  0  0  0  0  0  0  0  0
   -5.7228   23.4875  -30.2785 C   0  0  0  0  0  0  0  0  0  0  0  0
   -4.7267   23.0695  -29.4068 C   0  0  0  0  0  0  0  0  0  0  0  0
 11 12  1  0  0  0
 12  5  1  0  0  0
  5  6  2  0  0  0
  6  7  1  0  0  0
  7  8  2  0  0  0
  8  9  1  0  0  0
  9 13  1  0  0  0
 13 14  1  0  0  0
  9 10  2  0  0  0
 10 15  1  0  0  0
 15 16  1  0  0  0
  7  1  1  0  0  0
  1  2  2  0  0  0
  1  3  1  0  0  0
  3 17  1  0  0  0
 17 18  1  0  0  0
 18 19  1  0  0  0
 19 20  1  0  0  0
 20 21  1  0  0  0
 20 22  1  0  0  0
 22 23  2  0  0  0
 23 24  1  0  0  0
 24 25  2  0  0  0
 25 26  1  0  0  0
 24 27  1  0  0  0
 27 28  2  0  0  0
 28 29  1  0  0  0
 29 30  2  0  0  0
 30 31  1  0  0  0
 31 32  2  0  0  0
 10  5  1  0  0  0
 21 17  1  0  0  0
 26 22  1  0  0  0
 32 27  1  0  0  0
  3  4  1  0  0  0
M  END
> <minimizedAffinity>
-7.52188

> <CNNscore>
0.2274118960

> <CNNaffinity>
5.8597359657

> <CNN_VS>
1.3325736523

> <CNNaffinity_variance>
0.3470082283

$$$$
[H]c1c([H])c([H])c(-c2nsc(N3C([H])([H])C([H])([H])[C@]([H])(N([H])C(=O)c4c([H])c(OC([H])([H])[H])c(OC([H])([H])[H])c(OC([H])([H])[H])c4[H])C3([H])[H])n2)c([H])c1[H]


 32 35  0  0  0  0  0  0  0  0999 V2000
   -2.4353   22.5519  -20.0432 C   0  0  0  0  0  0  0  0  0  0  0  0
   -1.5943   23.3498  -19.5607 O   0  0  0  0  0  0  0  0  0  0  0  0
   -2.4604   22.1897  -21.4146 N   0  0  0  0  0  0  0  0  0  0  0  0
   -3.1643   21.5269  -21.7727 H   0  0  0  0  0  0  0  0  0  0  0  0
   -4.1205   21.4915  -16.9085 C   0  0  0  0  0  0  0  0  0  0  0  0
   -3.1776   22.0141  -17.7729 C   0  0  0  0  0  0  0  0  0  0  0  0
   -3.4224   21.9780  -19.1435 C   0  0  0  0  0  0  0  0  0  0  0  0
   -4.5855   21.4294  -19.6197 C   0  0  0  0  0  0  0  0  0  0  0  0
   -5.5589   20.8932  -18.7696 C   0  0  0  0  0  0  0  0  0  0  0  0
   -5.2771   20.9486  -17.4178 C   0  0  0  0  0  0  0  0  0  0  0  0
   -2.5943   21.5009  -15.0639 C   0  0  0  0  0  0  0  0  0  0  0  0
   -3.9319   21.4992  -15.5434 O   0  0  0  0  0  0  0  0  0  0  0  0
   -6.7379   20.3386  -19.2313 O   0  0  0  0  0  0  0  0  0  0  0  0
   -7.5736   21.1568  -20.0366 C   0  0  0  0  0  0  0  0  0  0  0  0
   -6.2033   20.4331  -16.5288 O   0  0  0  0  0  0  0  0  0  0  0  0
   -7.2413   21.2841  -16.0829 C   0  0  0  0  0  0  0  0  0  0  0  0
   -1.4841   22.7510  -22.3452 C   0  0  0  0  0  0  0  0  0  0  0  0
   -0.4317   21.6893  -22.6673 C   0  0  0  0  0  0  0  0  0  0  0  0
   -0.4413   21.5040  -24.1523 C   0  0  0  0  0  0  0  0  0  0  0  0
   -1.3459   22.4915  -24.6920 N   0  0  0  0  0  0  0  0  0  0  0  0
   -2.0803   23.1538  -23.6543 C   0  0  0  0  0  0  0  0  0  0  0  0
   -1.4487   22.7406  -26.1031 C   0  0  0  0  0  0  0  0  0  0  0  0
   -2.4894   23.1604  -26.8065 N   0  0  0  0  0  0  0  0  0  0  0  0
   -2.3593   23.3515  -28.0896 C   0  0  0  0  0  0  0  0  0  0  0  0
   -1.1607   23.1077  -28.6278 N   0  0  0  0  0  0  0  0  0  0  0  0
   -0.2379   22.6130  -27.3188 S   0  0  0  0  0  0  0  0  0  0  0  0
   -3.4876   23.8132  -28.9368 C   0  0  0  0  0  0  0  0  0  0  0  0
   -3.4920   25.1089  -29.3866 C   0  0  0  0  0  0  0  0  0  0  0  0
   -4.5582   25.5388  -30.1935 C   0  0  0  0  0  0  0  0  0  0  0  0
   -5.5789   24.6920  -30.5329 C   0  0  0  0  0  0  0  0  0  0  0  0
   -5.5768   23.3725  -30.0773 C   0  0  0  0  0  0  0  0  0  0  0  0
   -4.5122   22.9728  -29.2814 C   0  0  0  0  0  0  0  0  0  0  0  0
 11 12  1  0  0  0
 12  5  1  0  0  0
  5  6  2  0  0  0
  6  7  1  0  0  0
  7  8  2  0  0  0
  8  9  1  0  0  0
  9 13  1  0  0  0
 13 14  1  0  0  0
  9 10  2  0  0  0
 10 15  1  0  0  0
 15 16  1  0  0  0
  7  1  1  0  0  0
  1  2  2  0  0  0
  1  3  1  0  0  0
  3 17  1  0  0  0
 17 18  1  0  0  0
 18 19  1  0  0  0
 19 20  1  0  0  0
 20 21  1  0  0  0
 20 22  1  0  0  0
 22 23  2  0  0  0
 23 24  1  0  0  0
 24 25  2  0  0  0
 25 26  1  0  0  0
 24 27  1  0  0  0
 27 28  2  0  0  0
 28 29  1  0  0  0
 29 30  2  0  0  0
 30 31  1  0  0  0
 31 32  2  0  0  0
 10  5  1  0  0  0
 21 17  1  0  0  0
 26 22  1  0  0  0
 32 27  1  0  0  0
  3  4  1  0  0  0
M  END
> <minimizedAffinity>
-7.12840

> <CNNscore>
0.2233837843

> <CNNaffinity>
5.9650201797

> <CNN_VS>
1.3324887753

> <CNNaffinity_variance>
0.4140928388

$$$$
[H]c1c([H])c([H])c(-c2nsc(N3C([H])([H])C([H])([H])[C@]([H])(N([H])C(=O)c4c([H])c(OC([H])([H])[H])c(OC([H])([H])[H])c(OC([H])([H])[H])c4[H])C3([H])[H])n2)c([H])c1[H]


 32 35  0  0  0  0  0  0  0  0999 V2000
   -2.4473   22.7197  -19.9802 C   0  0  0  0  0  0  0  0  0  0  0  0
   -1.4949   23.3879  -19.5079 O   0  0  0  0  0  0  0  0  0  0  0  0
   -2.5689   22.4142  -21.3603 N   0  0  0  0  0  0  0  0  0  0  0  0
   -3.3636   21.8582  -21.7098 H   0  0  0  0  0  0  0  0  0  0  0  0
   -5.6264   21.2774  -18.7138 C   0  0  0  0  0  0  0  0  0  0  0  0
   -4.6621   21.7559  -19.5802 C   0  0  0  0  0  0  0  0  0  0  0  0
   -3.4649   22.2408  -19.0592 C   0  0  0  0  0  0  0  0  0  0  0  0
   -3.2547   22.2400  -17.7041 C   0  0  0  0  0  0  0  0  0  0  0  0
   -4.2116   21.7618  -16.8022 C   0  0  0  0  0  0  0  0  0  0  0  0
   -5.3847   21.2900  -17.3598 C   0  0  0  0  0  0  0  0  0  0  0  0
   -7.3500   21.3369  -20.3743 C   0  0  0  0  0  0  0  0  0  0  0  0
   -6.8297   20.7864  -19.1721 O   0  0  0  0  0  0  0  0  0  0  0  0
   -4.0163   21.7508  -15.4338 O   0  0  0  0  0  0  0  0  0  0  0  0
   -2.7132   21.4411  -14.9622 C   0  0  0  0  0  0  0  0  0  0  0  0
   -6.3681   20.8045  -16.5163 O   0  0  0  0  0  0  0  0  0  0  0  0
   -6.3064   19.4429  -16.1384 C   0  0  0  0  0  0  0  0  0  0  0  0
   -1.5647   22.8830  -22.3122 C   0  0  0  0  0  0  0  0  0  0  0  0
   -0.5863   21.7458  -22.6084 C   0  0  0  0  0  0  0  0  0  0  0  0
   -0.6186   21.5183  -24.0872 C   0  0  0  0  0  0  0  0  0  0  0  0
   -1.4607   22.5468  -24.6510 N   0  0  0  0  0  0  0  0  0  0  0  0
   -2.1427   23.2858  -23.6295 C   0  0  0  0  0  0  0  0  0  0  0  0
   -1.5572   22.7609  -26.0683 C   0  0  0  0  0  0  0  0  0  0  0  0
   -2.5959   23.1589  -26.7871 N   0  0  0  0  0  0  0  0  0  0  0  0
   -2.4599   23.3192  -28.0738 C   0  0  0  0  0  0  0  0  0  0  0  0
   -1.2576   23.0675  -28.5997 N   0  0  0  0  0  0  0  0  0  0  0  0
   -0.3395   22.6089  -27.2743 S   0  0  0  0  0  0  0  0  0  0  0  0
   -3.5858   23.7552  -28.9378 C   0  0  0  0  0  0  0  0  0  0  0  0
   -3.5884   25.0365  -29.4271 C   0  0  0  0  0  0  0  0  0  0  0  0
   -4.6521   25.4418  -30.2496 C   0  0  0  0  0  0  0  0  0  0  0  0
   -5.6724   24.5854  -30.5657 C   0  0  0  0  0  0  0  0  0  0  0  0
   -5.6721   23.2805  -30.0699 C   0  0  0  0  0  0  0  0  0  0  0  0
   -4.6098   22.9050  -29.2592 C   0  0  0  0  0  0  0  0  0  0  0  0
 11 12  1  0  0  0
 12  5  1  0  0  0
  5  6  2  0  0  0
  6  7  1  0  0  0
  7  8  2  0  0  0
  8  9  1  0  0  0
  9 13  1  0  0  0
 13 14  1  0  0  0
  9 10  2  0  0  0
 10 15  1  0  0  0
 15 16  1  0  0  0
  7  1  1  0  0  0
  1  2  2  0  0  0
  1  3  1  0  0  0
  3 17  1  0  0  0
 17 18  1  0  0  0
 18 19  1  0  0  0
 19 20  1  0  0  0
 20 21  1  0  0  0
 20 22  1  0  0  0
 22 23  2  0  0  0
 23 24  1  0  0  0
 24 25  2  0  0  0
 25 26  1  0  0  0
 24 27  1  0  0  0
 27 28  2  0  0  0
 28 29  1  0  0  0
 29 30  2  0  0  0
 30 31  1  0  0  0
 31 32  2  0  0  0
 10  5  1  0  0  0
 21 17  1  0  0  0
 26 22  1  0  0  0
 32 27  1  0  0  0
  3  4  1  0  0  0
M  END
> <minimizedAffinity>
-7.09142

> <CNNscore>
0.1922526956

> <CNNaffinity>
5.9444656372

> <CNN_VS>
1.1428395510

> <CNNaffinity_variance>
0.4456051290

$$$$
[H]c1c([H])c([H])c(-c2nsc(N3C([H])([H])C([H])([H])[C@]([H])(N([H])C(=O)c4c([H])c(OC([H])([H])[H])c(OC([H])([H])[H])c(OC([H])([H])[H])c4[H])C3([H])[H])n2)c([H])c1[H]


 32 35  0  0  0  0  0  0  0  0999 V2000
   -1.7523   21.8426  -22.9133 C   0  0  0  0  0  0  0  0  0  0  0  0
   -0.7594   21.0747  -22.9451 O   0  0  0  0  0  0  0  0  0  0  0  0
   -2.4363   22.1741  -21.7154 N   0  0  0  0  0  0  0  0  0  0  0  0
   -3.2455   22.8128  -21.7291 H   0  0  0  0  0  0  0  0  0  0  0  0
   -1.8667   22.7589  -26.5102 C   0  0  0  0  0  0  0  0  0  0  0  0
   -1.4278   22.2395  -25.3073 C   0  0  0  0  0  0  0  0  0  0  0  0
   -2.2112   22.4135  -24.1690 C   0  0  0  0  0  0  0  0  0  0  0  0
   -3.3999   23.0923  -24.2499 C   0  0  0  0  0  0  0  0  0  0  0  0
   -3.8708   23.6290  -25.4532 C   0  0  0  0  0  0  0  0  0  0  0  0
   -3.0639   23.4345  -26.5581 C   0  0  0  0  0  0  0  0  0  0  0  0
    0.2658   22.4065  -27.5397 C   0  0  0  0  0  0  0  0  0  0  0  0
   -1.1334   22.6182  -27.6684 O   0  0  0  0  0  0  0  0  0  0  0  0
   -5.0673   24.3138  -25.5543 O   0  0  0  0  0  0  0  0  0  0  0  0
   -6.2375   23.6568  -25.0901 C   0  0  0  0  0  0  0  0  0  0  0  0
   -3.4783   23.9435  -27.7760 O   0  0  0  0  0  0  0  0  0  0  0  0
   -4.3015   23.1310  -28.5901 C   0  0  0  0  0  0  0  0  0  0  0  0
   -2.0021   21.6149  -20.4375 C   0  0  0  0  0  0  0  0  0  0  0  0
   -1.0327   22.5898  -19.7680 C   0  0  0  0  0  0  0  0  0  0  0  0
   -1.6115   22.9289  -18.4302 C   0  0  0  0  0  0  0  0  0  0  0  0
   -2.7826   22.1018  -18.2586 N   0  0  0  0  0  0  0  0  0  0  0  0
   -3.1223   21.4145  -19.4698 C   0  0  0  0  0  0  0  0  0  0  0  0
   -3.4758   22.0131  -17.0034 C   0  0  0  0  0  0  0  0  0  0  0  0
   -3.9805   22.9818  -16.2543 N   0  0  0  0  0  0  0  0  0  0  0  0
   -4.6042   22.6779  -15.1505 C   0  0  0  0  0  0  0  0  0  0  0  0
   -4.6985   21.3827  -14.8356 N   0  0  0  0  0  0  0  0  0  0  0  0
   -3.9070   20.6150  -16.0981 S   0  0  0  0  0  0  0  0  0  0  0  0
   -5.1859   23.7153  -14.2619 C   0  0  0  0  0  0  0  0  0  0  0  0
   -5.9430   24.7152  -14.8171 C   0  0  0  0  0  0  0  0  0  0  0  0
   -6.4968   25.6901  -13.9714 C   0  0  0  0  0  0  0  0  0  0  0  0
   -6.2939   25.6551  -12.6179 C   0  0  0  0  0  0  0  0  0  0  0  0
   -5.5245   24.6383  -12.0498 C   0  0  0  0  0  0  0  0  0  0  0  0
   -4.9884   23.6874  -12.9073 C   0  0  0  0  0  0  0  0  0  0  0  0
 11 12  1  0  0  0
 12  5  1  0  0  0
  5  6  2  0  0  0
  6  7  1  0  0  0
  7  8  2  0  0  0
  8  9  1  0  0  0
  9 13  1  0  0  0
 13 14  1  0  0  0
  9 10  2  0  0  0
 10 15  1  0  0  0
 15 16  1  0  0  0
  7  1  1  0  0  0
  1  2  2  0  0  0
  1  3  1  0  0  0
  3 17  1  0  0  0
 17 18  1  0  0  0
 18 19  1  0  0  0
 19 20  1  0  0  0
 20 21  1  0  0  0
 20 22  1  0  0  0
 22 23  2  0  0  0
 23 24  1  0  0  0
 24 25  2  0  0  0
 25 26  1  0  0  0
 24 27  1  0  0  0
 27 28  2  0  0  0
 28 29  1  0  0  0
 29 30  2  0  0  0
 30 31  1  0  0  0
 31 32  2  0  0  0
 10  5  1  0  0  0
 21 17  1  0  0  0
 26 22  1  0  0  0
 32 27  1  0  0  0
  3  4  1  0  0  0
M  END
> <minimizedAffinity>
-6.22176

> <CNNscore>
0.1896677613

> <CNNaffinity>
5.4532279968

> <CNN_VS>
1.0343015194

> <CNNaffinity_variance>
0.2616435587

$$$$
[H]c1c([H])c([H])c(-c2nsc(N3C([H])([H])C([H])([H])[C@]([H])(N([H])C(=O)c4c([H])c(OC([H])([H])[H])c(OC([H])([H])[H])c(OC([H])([H])[H])c4[H])C3([H])[H])n2)c([H])c1[H]


 32 35  0  0  0  0  0  0  0  0999 V2000
   -3.1121   22.5842  -19.9570 C   0  0  0  0  0  0  0  0  0  0  0  0
   -2.1428   23.1614  -19.4057 O   0  0  0  0  0  0  0  0  0  0  0  0
   -3.1857   22.3604  -21.3560 N   0  0  0  0  0  0  0  0  0  0  0  0
   -3.9967   21.8780  -21.7715 H   0  0  0  0  0  0  0  0  0  0  0  0
   -5.4600   22.3513  -17.0894 C   0  0  0  0  0  0  0  0  0  0  0  0
   -4.4122   22.7637  -17.8902 C   0  0  0  0  0  0  0  0  0  0  0  0
   -4.2022   22.1270  -19.1110 C   0  0  0  0  0  0  0  0  0  0  0  0
   -5.0285   21.1058  -19.5046 C   0  0  0  0  0  0  0  0  0  0  0  0
   -6.0975   20.6665  -18.7159 C   0  0  0  0  0  0  0  0  0  0  0  0
   -6.2709   21.3242  -17.5129 C   0  0  0  0  0  0  0  0  0  0  0  0
   -5.5956   24.3572  -15.7895 C   0  0  0  0  0  0  0  0  0  0  0  0
   -5.7150   22.9437  -15.8715 O   0  0  0  0  0  0  0  0  0  0  0  0
   -6.9420   19.6408  -19.0974 O   0  0  0  0  0  0  0  0  0  0  0  0
   -6.6771   18.3475  -18.5744 C   0  0  0  0  0  0  0  0  0  0  0  0
   -7.3123   20.9326  -16.6906 O   0  0  0  0  0  0  0  0  0  0  0  0
   -8.5820   21.5189  -16.9017 C   0  0  0  0  0  0  0  0  0  0  0  0
   -2.1081   22.8101  -22.2340 C   0  0  0  0  0  0  0  0  0  0  0  0
   -1.1445   21.6483  -22.4793 C   0  0  0  0  0  0  0  0  0  0  0  0
   -1.0855   21.4374  -23.9598 C   0  0  0  0  0  0  0  0  0  0  0  0
   -1.8594   22.4956  -24.5649 N   0  0  0  0  0  0  0  0  0  0  0  0
   -2.5864   23.2431  -23.5814 C   0  0  0  0  0  0  0  0  0  0  0  0
   -1.8561   22.7272  -25.9827 C   0  0  0  0  0  0  0  0  0  0  0  0
   -2.8299   23.1738  -26.7614 N   0  0  0  0  0  0  0  0  0  0  0  0
   -2.6053   23.3409  -28.0347 C   0  0  0  0  0  0  0  0  0  0  0  0
   -1.3825   23.0462  -28.4859 N   0  0  0  0  0  0  0  0  0  0  0  0
   -0.5704   22.5381  -27.1104 S   0  0  0  0  0  0  0  0  0  0  0  0
   -3.6552   23.8303  -28.9634 C   0  0  0  0  0  0  0  0  0  0  0  0
   -4.6826   22.9886  -29.3054 C   0  0  0  0  0  0  0  0  0  0  0  0
   -5.6769   23.4587  -30.1788 C   0  0  0  0  0  0  0  0  0  0  0  0
   -5.6347   24.7298  -30.6856 C   0  0  0  0  0  0  0  0  0  0  0  0
   -4.5907   25.5891  -30.3386 C   0  0  0  0  0  0  0  0  0  0  0  0
   -3.6208   25.1002  -29.4743 C   0  0  0  0  0  0  0  0  0  0  0  0
 11 12  1  0  0  0
 12  5  1  0  0  0
  5  6  2  0  0  0
  6  7  1  0  0  0
  7  8  2  0  0  0
  8  9  1  0  0  0
  9 13  1  0  0  0
 13 14  1  0  0  0
  9 10  2  0  0  0
 10 15  1  0  0  0
 15 16  1  0  0  0
  7  1  1  0  0  0
  1  2  2  0  0  0
  1  3  1  0  0  0
  3 17  1  0  0  0
 17 18  1  0  0  0
 18 19  1  0  0  0
 19 20  1  0  0  0
 20 21  1  0  0  0
 20 22  1  0  0  0
 22 23  2  0  0  0
 23 24  1  0  0  0
 24 25  2  0  0  0
 25 26  1  0  0  0
 24 27  1  0  0  0
 27 28  2  0  0  0
 28 29  1  0  0  0
 29 30  2  0  0  0
 30 31  1  0  0  0
 31 32  2  0  0  0
 10  5  1  0  0  0
 21 17  1  0  0  0
 26 22  1  0  0  0
 32 27  1  0  0  0
  3  4  1  0  0  0
M  END
> <minimizedAffinity>
-7.35456

> <CNNscore>
0.1834732294

> <CNNaffinity>
5.8201932907

> <CNN_VS>
1.0678496361

> <CNNaffinity_variance>
0.3782531917

$$$$
[H]c1c([H])c([H])c(-c2nsc(N3C([H])([H])C([H])([H])[C@]([H])(N([H])C(=O)c4c([H])c(OC([H])([H])[H])c(OC([H])([H])[H])c(OC([H])([H])[H])c4[H])C3([H])[H])n2)c([H])c1[H]


 32 35  0  0  0  0  0  0  0  0999 V2000
   -7.0490   21.2558  -19.6897 C   0  0  0  0  0  0  0  0  0  0  0  0
   -7.9097   20.3938  -19.9943 O   0  0  0  0  0  0  0  0  0  0  0  0
   -6.5235   22.1877  -20.6214 N   0  0  0  0  0  0  0  0  0  0  0  0
   -5.8207   22.8843  -20.3319 H   0  0  0  0  0  0  0  0  0  0  0  0
   -6.1250   20.1308  -16.2734 C   0  0  0  0  0  0  0  0  0  0  0  0
   -6.5911   20.1117  -17.5740 C   0  0  0  0  0  0  0  0  0  0  0  0
   -6.5790   21.2913  -18.3145 C   0  0  0  0  0  0  0  0  0  0  0  0
   -6.1096   22.4508  -17.7526 C   0  0  0  0  0  0  0  0  0  0  0  0
   -5.6309   22.5012  -16.4388 C   0  0  0  0  0  0  0  0  0  0  0  0
   -5.6604   21.3100  -15.7390 C   0  0  0  0  0  0  0  0  0  0  0  0
   -7.2168   18.1065  -15.6086 C   0  0  0  0  0  0  0  0  0  0  0  0
   -6.1137   18.9947  -15.4934 O   0  0  0  0  0  0  0  0  0  0  0  0
   -5.1518   23.6598  -15.8567 O   0  0  0  0  0  0  0  0  0  0  0  0
   -5.2690   24.8626  -16.6024 C   0  0  0  0  0  0  0  0  0  0  0  0
   -5.1996   21.2991  -14.4345 O   0  0  0  0  0  0  0  0  0  0  0  0
   -3.8390   20.9823  -14.2132 C   0  0  0  0  0  0  0  0  0  0  0  0
   -6.9729   22.1764  -22.0114 C   0  0  0  0  0  0  0  0  0  0  0  0
   -7.4749   23.5712  -22.3865 C   0  0  0  0  0  0  0  0  0  0  0  0
   -6.6681   24.0218  -23.5637 C   0  0  0  0  0  0  0  0  0  0  0  0
   -5.8325   22.9093  -23.9494 N   0  0  0  0  0  0  0  0  0  0  0  0
   -5.8836   21.8535  -22.9813 C   0  0  0  0  0  0  0  0  0  0  0  0
   -5.0721   22.9138  -25.1683 C   0  0  0  0  0  0  0  0  0  0  0  0
   -5.3303   23.5241  -26.3151 N   0  0  0  0  0  0  0  0  0  0  0  0
   -4.4829   23.4197  -27.3003 C   0  0  0  0  0  0  0  0  0  0  0  0
   -3.3838   22.6894  -27.0897 N   0  0  0  0  0  0  0  0  0  0  0  0
   -3.5626   22.1616  -25.5088 S   0  0  0  0  0  0  0  0  0  0  0  0
   -4.7158   24.0719  -28.6136 C   0  0  0  0  0  0  0  0  0  0  0  0
   -5.5723   23.4790  -29.5057 C   0  0  0  0  0  0  0  0  0  0  0  0
   -5.7946   24.1035  -30.7438 C   0  0  0  0  0  0  0  0  0  0  0  0
   -5.1760   25.2813  -31.0669 C   0  0  0  0  0  0  0  0  0  0  0  0
   -4.3043   25.8876  -30.1607 C   0  0  0  0  0  0  0  0  0  0  0  0
   -4.1017   25.2501  -28.9445 C   0  0  0  0  0  0  0  0  0  0  0  0
 11 12  1  0  0  0
 12  5  1  0  0  0
  5  6  2  0  0  0
  6  7  1  0  0  0
  7  8  2  0  0  0
  8  9  1  0  0  0
  9 13  1  0  0  0
 13 14  1  0  0  0
  9 10  2  0  0  0
 10 15  1  0  0  0
 15 16  1  0  0  0
  7  1  1  0  0  0
  1  2  2  0  0  0
  1  3  1  0  0  0
  3 17  1  0  0  0
 17 18  1  0  0  0
 18 19  1  0  0  0
 19 20  1  0  0  0
 20 21  1  0  0  0
 20 22  1  0  0  0
 22 23  2  0  0  0
 23 24  1  0  0  0
 24 25  2  0  0  0
 25 26  1  0  0  0
 24 27  1  0  0  0
 27 28  2  0  0  0
 28 29  1  0  0  0
 29 30  2  0  0  0
 30 31  1  0  0  0
 31 32  2  0  0  0
 10  5  1  0  0  0
 21 17  1  0  0  0
 26 22  1  0  0  0
 32 27  1  0  0  0
  3  4  1  0  0  0
M  END
> <minimizedAffinity>
-6.89487

> <CNNscore>
0.1678996980

> <CNNaffinity>
5.3390631676

> <CNN_VS>
0.8964270949

> <CNNaffinity_variance>
0.2887997031

$$$$
[H]c1c([H])c([H])c(-c2nsc(N3C([H])([H])C([H])([H])[C@]([H])(N([H])C(=O)c4c([H])c(OC([H])([H])[H])c(OC([H])([H])[H])c(OC([H])([H])[H])c4[H])C3([H])[H])n2)c([H])c1[H]


 32 35  0  0  0  0  0  0  0  0999 V2000
   -7.3041   21.2507  -20.3573 C   0  0  0  0  0  0  0  0  0  0  0  0
   -8.5200   21.1074  -20.6360 O   0  0  0  0  0  0  0  0  0  0  0  0
   -6.3722   21.8491  -21.2439 N   0  0  0  0  0  0  0  0  0  0  0  0
   -5.3818   21.9536  -20.9771 H   0  0  0  0  0  0  0  0  0  0  0  0
   -5.3887   21.0473  -17.1823 C   0  0  0  0  0  0  0  0  0  0  0  0
   -5.8182   21.4744  -18.4243 C   0  0  0  0  0  0  0  0  0  0  0  0
   -6.8430   20.7792  -19.0618 C   0  0  0  0  0  0  0  0  0  0  0  0
   -7.4118   19.6872  -18.4582 C   0  0  0  0  0  0  0  0  0  0  0  0
   -6.9988   19.2313  -17.2014 C   0  0  0  0  0  0  0  0  0  0  0  0
   -5.9801   19.9485  -16.6035 C   0  0  0  0  0  0  0  0  0  0  0  0
   -4.4183   23.1152  -16.4655 C   0  0  0  0  0  0  0  0  0  0  0  0
   -4.3785   21.6954  -16.5051 O   0  0  0  0  0  0  0  0  0  0  0  0
   -7.5620   18.1344  -16.5767 O   0  0  0  0  0  0  0  0  0  0  0  0
   -8.7647   17.6159  -17.1255 C   0  0  0  0  0  0  0  0  0  0  0  0
   -5.5298   19.5439  -15.3595 O   0  0  0  0  0  0  0  0  0  0  0  0
   -6.1785   20.0660  -14.2162 C   0  0  0  0  0  0  0  0  0  0  0  0
   -6.8030   22.3306  -22.5542 C   0  0  0  0  0  0  0  0  0  0  0  0
   -6.7794   23.8595  -22.5582 C   0  0  0  0  0  0  0  0  0  0  0  0
   -5.8708   24.2776  -23.6716 C   0  0  0  0  0  0  0  0  0  0  0  0
   -5.4860   23.0751  -24.3722 N   0  0  0  0  0  0  0  0  0  0  0  0
   -5.9037   21.8995  -23.6664 C   0  0  0  0  0  0  0  0  0  0  0  0
   -4.7794   23.1145  -25.6223 C   0  0  0  0  0  0  0  0  0  0  0  0
   -5.1211   23.6995  -26.7604 N   0  0  0  0  0  0  0  0  0  0  0  0
   -4.3114   23.6371  -27.7802 C   0  0  0  0  0  0  0  0  0  0  0  0
   -3.1633   22.9742  -27.6125 N   0  0  0  0  0  0  0  0  0  0  0  0
   -3.2439   22.4493  -26.0226 S   0  0  0  0  0  0  0  0  0  0  0  0
   -4.6374   24.2641  -29.0859 C   0  0  0  0  0  0  0  0  0  0  0  0
   -5.5747   23.6692  -29.8914 C   0  0  0  0  0  0  0  0  0  0  0  0
   -5.8846   24.2700  -31.1224 C   0  0  0  0  0  0  0  0  0  0  0  0
   -5.2718   25.4269  -31.5229 C   0  0  0  0  0  0  0  0  0  0  0  0
   -4.3181   26.0351  -30.7049 C   0  0  0  0  0  0  0  0  0  0  0  0
   -4.0297   25.4213  -29.4938 C   0  0  0  0  0  0  0  0  0  0  0  0
 11 12  1  0  0  0
 12  5  1  0  0  0
  5  6  2  0  0  0
  6  7  1  0  0  0
  7  8  2  0  0  0
  8  9  1  0  0  0
  9 13  1  0  0  0
 13 14  1  0  0  0
  9 10  2  0  0  0
 10 15  1  0  0  0
 15 16  1  0  0  0
  7  1  1  0  0  0
  1  2  2  0  0  0
  1  3  1  0  0  0
  3 17  1  0  0  0
 17 18  1  0  0  0
 18 19  1  0  0  0
 19 20  1  0  0  0
 20 21  1  0  0  0
 20 22  1  0  0  0
 22 23  2  0  0  0
 23 24  1  0  0  0
 24 25  2  0  0  0
 25 26  1  0  0  0
 24 27  1  0  0  0
 27 28  2  0  0  0
 28 29  1  0  0  0
 29 30  2  0  0  0
 30 31  1  0  0  0
 31 32  2  0  0  0
 10  5  1  0  0  0
 21 17  1  0  0  0
 26 22  1  0  0  0
 32 27  1  0  0  0
  3  4  1  0  0  0
M  END
> <minimizedAffinity>
-7.02786

> <CNNscore>
0.1665661335

> <CNNaffinity>
5.4265217781

> <CNN_VS>
0.9038747549

> <CNNaffinity_variance>
0.2807366252

$$$$
[H]O[C@@]1([H])C([H])([H])C([H])([H])[C@]2([H])[C@]1(C([H])([H])[H])C([H])([H])C([H])([H])[C@]1([H])[C@]3([H])C(=C([H])C(=O)C([H])([H])C3([H])[H])C([H])([H])C([H])([H])[C@@]21[H]


 21 24  0  0  0  0  0  0  0  0999 V2000
   -5.8186   23.2535  -29.0231 C   0  0  0  0  0  0  0  0  0  0  0  0
   -5.0948   24.3177  -28.2336 C   0  0  0  0  0  0  0  0  0  0  0  0
   -3.7337   24.5450  -28.7603 C   0  0  0  0  0  0  0  0  0  0  0  0
   -2.6964   23.5852  -28.2498 C   0  0  0  0  0  0  0  0  0  0  0  0
   -2.8260   23.2345  -26.8124 C   0  0  0  0  0  0  0  0  0  0  0  0
   -4.2335   22.8438  -26.4052 C   0  0  0  0  0  0  0  0  0  0  0  0
   -4.2366   22.6908  -24.8866 C   0  0  0  0  0  0  0  0  0  0  0  0
   -3.3401   21.5396  -24.5005 C   0  0  0  0  0  0  0  0  0  0  0  0
   -1.9921   21.8143  -25.0682 C   0  0  0  0  0  0  0  0  0  0  0  0
   -0.9626   21.8105  -24.2586 C   0  0  0  0  0  0  0  0  0  0  0  0
    0.3590   22.0780  -24.8066 C   0  0  0  0  0  0  0  0  0  0  0  0
    1.2569   22.6367  -24.1320 O   0  0  0  0  0  0  0  0  0  0  0  0
    0.5767   21.6411  -26.2325 C   0  0  0  0  0  0  0  0  0  0  0  0
   -0.5207   22.3263  -27.0175 C   0  0  0  0  0  0  0  0  0  0  0  0
   -1.8936   22.0759  -26.5106 C   0  0  0  0  0  0  0  0  0  0  0  0
   -5.0872   24.0012  -26.7462 C   0  0  0  0  0  0  0  0  0  0  0  0
   -6.5253   23.9118  -26.4556 C   0  0  0  0  0  0  0  0  0  0  0  0
   -7.1093   25.0497  -27.2960 C   0  0  0  0  0  0  0  0  0  0  0  0
   -5.9714   25.5367  -28.1768 C   0  0  0  0  0  0  0  0  0  0  0  0
   -6.3993   25.9673  -29.4130 O   0  0  0  0  0  0  0  0  0  0  0  0
   -7.1310   26.6000  -29.3232 H   0  0  0  0  0  0  0  0  0  0  0  0
  2  1  1  0  0  0
  2  3  1  0  0  0
  3  4  1  0  0  0
  4  5  1  0  0  0
  5  6  1  0  0  0
  6  7  1  0  0  0
  7  8  1  0  0  0
  8  9  1  0  0  0
  9 10  2  0  0  0
 10 11  1  0  0  0
 11 12  2  0  0  0
 11 13  1  0  0  0
 13 14  1  0  0  0
 14 15  1  0  0  0
  6 16  1  0  0  0
 16 17  1  0  0  0
 17 18  1  0  0  0
 18 19  1  0  0  0
 19 20  1  0  0  0
 16  2  1  0  0  0
 19  2  1  0  0  0
 15  5  1  0  0  0
 15  9  1  0  0  0
 20 21  1  0  0  0
M  END
> <minimizedAffinity>
-9.53276

> <CNNscore>
0.7228512168

> <CNNaffinity>
6.4128837585

> <CNN_VS>
4.6355609894

> <CNNaffinity_variance>
0.2387300730

$$$$
[H]O[C@@]1([H])C([H])([H])C([H])([H])[C@]2([H])[C@]1(C([H])([H])[H])C([H])([H])C([H])([H])[C@]1([H])[C@]3([H])C(=C([H])C(=O)C([H])([H])C3([H])[H])C([H])([H])C([H])([H])[C@@]21[H]


 21 24  0  0  0  0  0  0  0  0999 V2000
   -7.5487   24.2206  -25.5494 C   0  0  0  0  0  0  0  0  0  0  0  0
   -6.3304   24.9163  -24.9912 C   0  0  0  0  0  0  0  0  0  0  0  0
   -5.6527   25.7249  -26.0249 C   0  0  0  0  0  0  0  0  0  0  0  0
   -4.7037   24.9552  -26.8994 C   0  0  0  0  0  0  0  0  0  0  0  0
   -3.8952   23.9306  -26.1906 C   0  0  0  0  0  0  0  0  0  0  0  0
   -4.7117   23.0316  -25.2825 C   0  0  0  0  0  0  0  0  0  0  0  0
   -3.7263   22.1659  -24.5020 C   0  0  0  0  0  0  0  0  0  0  0  0
   -2.9925   21.2597  -25.4603 C   0  0  0  0  0  0  0  0  0  0  0  0
   -2.3442   22.1241  -26.4837 C   0  0  0  0  0  0  0  0  0  0  0  0
   -1.0543   22.0028  -26.6751 C   0  0  0  0  0  0  0  0  0  0  0  0
   -0.4133   22.8447  -27.6745 C   0  0  0  0  0  0  0  0  0  0  0  0
    0.7775   23.2219  -27.5600 O   0  0  0  0  0  0  0  0  0  0  0  0
   -1.2713   23.2317  -28.8516 C   0  0  0  0  0  0  0  0  0  0  0  0
   -2.4894   23.8901  -28.2408 C   0  0  0  0  0  0  0  0  0  0  0  0
   -3.1925   23.0688  -27.2232 C   0  0  0  0  0  0  0  0  0  0  0  0
   -5.3833   23.9324  -24.3222 C   0  0  0  0  0  0  0  0  0  0  0  0
   -6.2531   23.3327  -23.3004 C   0  0  0  0  0  0  0  0  0  0  0  0
   -7.0635   24.5320  -22.8030 C   0  0  0  0  0  0  0  0  0  0  0  0
   -6.7443   25.6690  -23.7584 C   0  0  0  0  0  0  0  0  0  0  0  0
   -7.8134   26.5136  -23.9600 O   0  0  0  0  0  0  0  0  0  0  0  0
   -8.1901   26.8011  -23.1119 H   0  0  0  0  0  0  0  0  0  0  0  0
  2  1  1  0  0  0
  2  3  1  0  0  0
  3  4  1  0  0  0
  4  5  1  0  0  0
  5  6  1  0  0  0
  6  7  1  0  0  0
  7  8  1  0  0  0
  8  9  1  0  0  0
  9 10  2  0  0  0
 10 11  1  0  0  0
 11 12  2  0  0  0
 11 13  1  0  0  0
 13 14  1  0  0  0
 14 15  1  0  0  0
  6 16  1  0  0  0
 16 17  1  0  0  0
 17 18  1  0  0  0
 18 19  1  0  0  0
 19 20  1  0  0  0
 16  2  1  0  0  0
 19  2  1  0  0  0
 15  5  1  0  0  0
 15  9  1  0  0  0
 20 21  1  0  0  0
M  END
> <minimizedAffinity>
-8.97512

> <CNNscore>
0.6470537186

> <CNNaffinity>
6.2426943779

> <CNN_VS>
4.0393586159

> <CNNaffinity_variance>
0.4747443199

$$$$
[H]O[C@@]1([H])C([H])([H])C([H])([H])[C@]2([H])[C@]1(C([H])([H])[H])C([H])([H])C([H])([H])[C@]1([H])[C@]3([H])C(=C([H])C(=O)C([H])([H])C3([H])[H])C([H])([H])C([H])([H])[C@@]21[H]


 21 24  0  0  0  0  0  0  0  0999 V2000
   -4.5187   21.6828  -21.7542 C   0  0  0  0  0  0  0  0  0  0  0  0
   -5.4328   22.8294  -21.3942 C   0  0  0  0  0  0  0  0  0  0  0  0
   -4.9106   23.5913  -20.2416 C   0  0  0  0  0  0  0  0  0  0  0  0
   -5.2553   23.0107  -18.8993 C   0  0  0  0  0  0  0  0  0  0  0  0
   -6.6315   22.4625  -18.7925 C   0  0  0  0  0  0  0  0  0  0  0  0
   -7.0134   21.5474  -19.9398 C   0  0  0  0  0  0  0  0  0  0  0  0
   -8.4949   21.2175  -19.7784 C   0  0  0  0  0  0  0  0  0  0  0  0
   -8.6928   20.4246  -18.5094 C   0  0  0  0  0  0  0  0  0  0  0  0
   -8.1371   21.2308  -17.3886 C   0  0  0  0  0  0  0  0  0  0  0  0
   -8.9128   21.4955  -16.3671 C   0  0  0  0  0  0  0  0  0  0  0  0
   -8.3763   22.2832  -15.2671 C   0  0  0  0  0  0  0  0  0  0  0  0
   -9.1010   23.0382  -14.5756 O   0  0  0  0  0  0  0  0  0  0  0  0
   -6.8981   22.1323  -15.0144 C   0  0  0  0  0  0  0  0  0  0  0  0
   -6.2445   22.4711  -16.3366 C   0  0  0  0  0  0  0  0  0  0  0  0
   -6.7441   21.6860  -17.4935 C   0  0  0  0  0  0  0  0  0  0  0  0
   -6.8600   22.3557  -21.1677 C   0  0  0  0  0  0  0  0  0  0  0  0
   -7.1699   21.7230  -22.4578 C   0  0  0  0  0  0  0  0  0  0  0  0
   -6.5129   22.6713  -23.4635 C   0  0  0  0  0  0  0  0  0  0  0  0
   -5.6824   23.6374  -22.6362 C   0  0  0  0  0  0  0  0  0  0  0  0
   -4.5300   24.0355  -23.2768 O   0  0  0  0  0  0  0  0  0  0  0  0
   -4.7259   24.3486  -24.1754 H   0  0  0  0  0  0  0  0  0  0  0  0
  2  1  1  0  0  0
  2  3  1  0  0  0
  3  4  1  0  0  0
  4  5  1  0  0  0
  5  6  1  0  0  0
  6  7  1  0  0  0
  7  8  1  0  0  0
  8  9  1  0  0  0
  9 10  2  0  0  0
 10 11  1  0  0  0
 11 12  2  0  0  0
 11 13  1  0  0  0
 13 14  1  0  0  0
 14 15  1  0  0  0
  6 16  1  0  0  0
 16 17  1  0  0  0
 17 18  1  0  0  0
 18 19  1  0  0  0
 19 20  1  0  0  0
 16  2  1  0  0  0
 19  2  1  0  0  0
 15  5  1  0  0  0
 15  9  1  0  0  0
 20 21  1  0  0  0
M  END
> <minimizedAffinity>
-4.33777

> <CNNscore>
0.6399306059

> <CNNaffinity>
4.9544777870

> <CNN_VS>
3.1705219746

> <CNNaffinity_variance>
0.1181569919

$$$$
[H]O[C@@]1([H])C([H])([H])C([H])([H])[C@]2([H])[C@]1(C([H])([H])[H])C([H])([H])C([H])([H])[C@]1([H])[C@]3([H])C(=C([H])C(=O)C([H])([H])C3([H])[H])C([H])([H])C([H])([H])[C@@]21[H]


 21 24  0  0  0  0  0  0  0  0999 V2000
   -3.2685   21.9803  -23.0380 C   0  0  0  0  0  0  0  0  0  0  0  0
   -2.5602   23.2060  -23.5633 C   0  0  0  0  0  0  0  0  0  0  0  0
   -3.4481   24.3864  -23.5503 C   0  0  0  0  0  0  0  0  0  0  0  0
   -4.3509   24.5039  -24.7457 C   0  0  0  0  0  0  0  0  0  0  0  0
   -3.7233   24.1318  -26.0393 C   0  0  0  0  0  0  0  0  0  0  0  0
   -2.9789   22.8114  -25.9977 C   0  0  0  0  0  0  0  0  0  0  0  0
   -2.2507   22.6629  -27.3309 C   0  0  0  0  0  0  0  0  0  0  0  0
   -3.2656   22.5516  -28.4425 C   0  0  0  0  0  0  0  0  0  0  0  0
   -4.1384   23.7550  -28.3718 C   0  0  0  0  0  0  0  0  0  0  0  0
   -4.2665   24.4955  -29.4444 C   0  0  0  0  0  0  0  0  0  0  0  0
   -5.1185   25.6739  -29.3829 C   0  0  0  0  0  0  0  0  0  0  0  0
   -4.8898   26.6955  -30.0740 O   0  0  0  0  0  0  0  0  0  0  0  0
   -6.2894   25.5861  -28.4380 C   0  0  0  0  0  0  0  0  0  0  0  0
   -5.6772   25.2487  -27.0959 C   0  0  0  0  0  0  0  0  0  0  0  0
   -4.8083   24.0447  -27.0967 C   0  0  0  0  0  0  0  0  0  0  0  0
   -1.9590   22.9573  -24.9378 C   0  0  0  0  0  0  0  0  0  0  0  0
   -1.0693   21.8185  -24.6698 C   0  0  0  0  0  0  0  0  0  0  0  0
   -0.4807   22.1669  -23.3007 C   0  0  0  0  0  0  0  0  0  0  0  0
   -1.2728   23.3645  -22.8048 C   0  0  0  0  0  0  0  0  0  0  0  0
   -1.4347   23.3690  -21.4371 O   0  0  0  0  0  0  0  0  0  0  0  0
   -0.5820   23.2434  -20.9889 H   0  0  0  0  0  0  0  0  0  0  0  0
  2  1  1  0  0  0
  2  3  1  0  0  0
  3  4  1  0  0  0
  4  5  1  0  0  0
  5  6  1  0  0  0
  6  7  1  0  0  0
  7  8  1  0  0  0
  8  9  1  0  0  0
  9 10  2  0  0  0
 10 11  1  0  0  0
 11 12  2  0  0  0
 11 13  1  0  0  0
 13 14  1  0  0  0
 14 15  1  0  0  0
  6 16  1  0  0  0
 16 17  1  0  0  0
 17 18  1  0  0  0
 18 19  1  0  0  0
 19 20  1  0  0  0
 16  2  1  0  0  0
 19  2  1  0  0  0
 15  5  1  0  0  0
 15  9  1  0  0  0
 20 21  1  0  0  0
M  END
> <minimizedAffinity>
-8.77323

> <CNNscore>
0.5613564253

> <CNNaffinity>
6.2863755226

> <CNN_VS>
3.5288972855

> <CNNaffinity_variance>
0.4593174458

$$$$
[H]O[C@@]1([H])C([H])([H])C([H])([H])[C@]2([H])[C@]1(C([H])([H])[H])C([H])([H])C([H])([H])[C@]1([H])[C@]3([H])C(=C([H])C(=O)C([H])([H])C3([H])[H])C([H])([H])C([H])([H])[C@@]21[H]


 21 24  0  0  0  0  0  0  0  0999 V2000
   -5.7336   23.1620  -28.2585 C   0  0  0  0  0  0  0  0  0  0  0  0
   -5.2084   24.1688  -27.2632 C   0  0  0  0  0  0  0  0  0  0  0  0
   -3.7752   24.4474  -27.4865 C   0  0  0  0  0  0  0  0  0  0  0  0
   -2.8387   23.4603  -26.8490 C   0  0  0  0  0  0  0  0  0  0  0  0
   -3.2454   22.9993  -25.4970 C   0  0  0  0  0  0  0  0  0  0  0  0
   -4.6963   22.5664  -25.4119 C   0  0  0  0  0  0  0  0  0  0  0  0
   -5.0002   22.2974  -23.9405 C   0  0  0  0  0  0  0  0  0  0  0  0
   -4.1721   21.1278  -23.4670 C   0  0  0  0  0  0  0  0  0  0  0  0
   -2.7446   21.4568  -23.7294 C   0  0  0  0  0  0  0  0  0  0  0  0
   -1.8985   21.3997  -22.7313 C   0  0  0  0  0  0  0  0  0  0  0  0
   -0.5007   21.7199  -22.9802 C   0  0  0  0  0  0  0  0  0  0  0  0
    0.2301   22.2329  -22.0992 O   0  0  0  0  0  0  0  0  0  0  0  0
    0.0089   21.3954  -24.3610 C   0  0  0  0  0  0  0  0  0  0  0  0
   -0.9248   22.1293  -25.2989 C   0  0  0  0  0  0  0  0  0  0  0  0
   -2.3651   21.8290  -25.0991 C   0  0  0  0  0  0  0  0  0  0  0  0
   -5.4917   23.7391  -25.8323 C   0  0  0  0  0  0  0  0  0  0  0  0
   -6.9563   23.6154  -25.8450 C   0  0  0  0  0  0  0  0  0  0  0  0
   -7.3869   24.8093  -26.7002 C   0  0  0  0  0  0  0  0  0  0  0  0
   -6.1075   25.3722  -27.2952 C   0  0  0  0  0  0  0  0  0  0  0  0
   -6.2889   25.8927  -28.5573 O   0  0  0  0  0  0  0  0  0  0  0  0
   -7.0387   26.5103  -28.5708 H   0  0  0  0  0  0  0  0  0  0  0  0
  2  1  1  0  0  0
  2  3  1  0  0  0
  3  4  1  0  0  0
  4  5  1  0  0  0
  5  6  1  0  0  0
  6  7  1  0  0  0
  7  8  1  0  0  0
  8  9  1  0  0  0
  9 10  2  0  0  0
 10 11  1  0  0  0
 11 12  2  0  0  0
 11 13  1  0  0  0
 13 14  1  0  0  0
 14 15  1  0  0  0
  6 16  1  0  0  0
 16 17  1  0  0  0
 17 18  1  0  0  0
 18 19  1  0  0  0
 19 20  1  0  0  0
 16  2  1  0  0  0
 19  2  1  0  0  0
 15  5  1  0  0  0
 15  9  1  0  0  0
 20 21  1  0  0  0
M  END
> <minimizedAffinity>
-8.12994

> <CNNscore>
0.5226902962

> <CNNaffinity>
6.0576405525

> <CNN_VS>
3.1662700176

> <CNNaffinity_variance>
0.1562768221

$$$$
[H]O[C@@]1([H])C([H])([H])C([H])([H])[C@]2([H])[C@]1(C([H])([H])[H])C([H])([H])C([H])([H])[C@]1([H])[C@]3([H])C(=C([H])C(=O)C([H])([H])C3([H])[H])C([H])([H])C([H])([H])[C@@]21[H]


 21 24  0  0  0  0  0  0  0  0999 V2000
   -2.2431   20.4783  -18.7234 C   0  0  0  0  0  0  0  0  0  0  0  0
   -2.1163   21.8755  -18.1652 C   0  0  0  0  0  0  0  0  0  0  0  0
   -1.3736   22.7575  -19.0885 C   0  0  0  0  0  0  0  0  0  0  0  0
    0.1218   22.6697  -18.9711 C   0  0  0  0  0  0  0  0  0  0  0  0
    0.6314   22.5463  -17.5816 C   0  0  0  0  0  0  0  0  0  0  0  0
   -0.0815   21.4874  -16.7631 C   0  0  0  0  0  0  0  0  0  0  0  0
    0.4276   21.6084  -15.3292 C   0  0  0  0  0  0  0  0  0  0  0  0
    1.8971   21.2660  -15.2923 C   0  0  0  0  0  0  0  0  0  0  0  0
    2.5902   22.1717  -16.2484 C   0  0  0  0  0  0  0  0  0  0  0  0
    3.5911   22.8933  -15.8090 C   0  0  0  0  0  0  0  0  0  0  0  0
    4.2740   23.7813  -16.7382 C   0  0  0  0  0  0  0  0  0  0  0  0
    4.8022   24.8555  -16.3634 O   0  0  0  0  0  0  0  0  0  0  0  0
    4.3047   23.3267  -18.1748 C   0  0  0  0  0  0  0  0  0  0  0  0
    2.8522   23.1155  -18.5435 C   0  0  0  0  0  0  0  0  0  0  0  0
    2.1091   22.2051  -17.6362 C   0  0  0  0  0  0  0  0  0  0  0  0
   -1.5100   21.8666  -16.7706 C   0  0  0  0  0  0  0  0  0  0  0  0
   -2.4583   21.0126  -16.0414 C   0  0  0  0  0  0  0  0  0  0  0  0
   -3.8104   21.4512  -16.6085 C   0  0  0  0  0  0  0  0  0  0  0  0
   -3.4889   22.3552  -17.7863 C   0  0  0  0  0  0  0  0  0  0  0  0
   -4.4101   22.2536  -18.8051 O   0  0  0  0  0  0  0  0  0  0  0  0
   -5.3141   22.3526  -18.4632 H   0  0  0  0  0  0  0  0  0  0  0  0
  2  1  1  0  0  0
  2  3  1  0  0  0
  3  4  1  0  0  0
  4  5  1  0  0  0
  5  6  1  0  0  0
  6  7  1  0  0  0
  7  8  1  0  0  0
  8  9  1  0  0  0
  9 10  2  0  0  0
 10 11  1  0  0  0
 11 12  2  0  0  0
 11 13  1  0  0  0
 13 14  1  0  0  0
 14 15  1  0  0  0
  6 16  1  0  0  0
 16 17  1  0  0  0
 17 18  1  0  0  0
 18 19  1  0  0  0
 19 20  1  0  0  0
 16  2  1  0  0  0
 19  2  1  0  0  0
 15  5  1  0  0  0
 15  9  1  0  0  0
 20 21  1  0  0  0
M  END
> <minimizedAffinity>
-4.49079

> <CNNscore>
0.5164647102

> <CNNaffinity>
4.3491687775

> <CNN_VS>
2.2461922169

> <CNNaffinity_variance>
0.1518721431

$$$$
[H]O[C@@]1([H])C([H])([H])C([H])([H])[C@]2([H])[C@]1(C([H])([H])[H])C([H])([H])C([H])([H])[C@]1([H])[C@]3([H])C(=C([H])C(=O)C([H])([H])C3([H])[H])C([H])([H])C([H])([H])[C@@]21[H]


 21 24  0  0  0  0  0  0  0  0999 V2000
    1.1164   18.1038  -17.8685 C   0  0  0  0  0  0  0  0  0  0  0  0
    0.8710   19.3887  -18.6228 C   0  0  0  0  0  0  0  0  0  0  0  0
    2.0028   19.7122  -19.5152 C   0  0  0  0  0  0  0  0  0  0  0  0
    3.1434   20.4258  -18.8462 C   0  0  0  0  0  0  0  0  0  0  0  0
    2.7387   21.4522  -17.8519 C   0  0  0  0  0  0  0  0  0  0  0  0
    1.6951   20.9660  -16.8650 C   0  0  0  0  0  0  0  0  0  0  0  0
    1.2605   22.1732  -16.0383 C   0  0  0  0  0  0  0  0  0  0  0  0
    2.4310   22.6648  -15.2219 C   0  0  0  0  0  0  0  0  0  0  0  0
    3.5417   22.9597  -16.1675 C   0  0  0  0  0  0  0  0  0  0  0  0
    4.0819   24.1525  -16.1414 C   0  0  0  0  0  0  0  0  0  0  0  0
    5.1688   24.4483  -17.0631 C   0  0  0  0  0  0  0  0  0  0  0  0
    5.3604   25.6025  -17.5154 O   0  0  0  0  0  0  0  0  0  0  0  0
    6.0458   23.2809  -17.4367 C   0  0  0  0  0  0  0  0  0  0  0  0
    5.0920   22.2427  -17.9867 C   0  0  0  0  0  0  0  0  0  0  0  0
    3.9697   21.8911  -17.0806 C   0  0  0  0  0  0  0  0  0  0  0  0
    0.5399   20.5350  -17.6801 C   0  0  0  0  0  0  0  0  0  0  0  0
   -0.6442   20.0124  -16.9835 C   0  0  0  0  0  0  0  0  0  0  0  0
   -1.4088   19.3051  -18.1048 C   0  0  0  0  0  0  0  0  0  0  0  0
   -0.4679   19.2878  -19.2972 C   0  0  0  0  0  0  0  0  0  0  0  0
   -0.6111   18.1600  -20.0746 O   0  0  0  0  0  0  0  0  0  0  0  0
   -1.5442   18.0149  -20.3027 H   0  0  0  0  0  0  0  0  0  0  0  0
  2  1  1  0  0  0
  2  3  1  0  0  0
  3  4  1  0  0  0
  4  5  1  0  0  0
  5  6  1  0  0  0
  6  7  1  0  0  0
  7  8  1  0  0  0
  8  9  1  0  0  0
  9 10  2  0  0  0
 10 11  1  0  0  0
 11 12  2  0  0  0
 11 13  1  0  0  0
 13 14  1  0  0  0
 14 15  1  0  0  0
  6 16  1  0  0  0
 16 17  1  0  0  0
 17 18  1  0  0  0
 18 19  1  0  0  0
 19 20  1  0  0  0
 16  2  1  0  0  0
 19  2  1  0  0  0
 15  5  1  0  0  0
 15  9  1  0  0  0
 20 21  1  0  0  0
M  END
> <minimizedAffinity>
-4.41892

> <CNNscore>
0.5154513717

> <CNNaffinity>
4.4021015167

> <CNN_VS>
2.2690691948

> <CNNaffinity_variance>
0.0871907547

$$$$
[H]O[C@@]1([H])C([H])([H])C([H])([H])[C@]2([H])[C@]1(C([H])([H])[H])C([H])([H])C([H])([H])[C@]1([H])[C@]3([H])C(=C([H])C(=O)C([H])([H])C3([H])[H])C([H])([H])C([H])([H])[C@@]21[H]


 21 24  0  0  0  0  0  0  0  0999 V2000
   -4.5153   25.6326  -27.2021 C   0  0  0  0  0  0  0  0  0  0  0  0
   -5.5649   24.5555  -27.3363 C   0  0  0  0  0  0  0  0  0  0  0  0
   -6.8642   25.0010  -26.7933 C   0  0  0  0  0  0  0  0  0  0  0  0
   -7.0113   24.8361  -25.3070 C   0  0  0  0  0  0  0  0  0  0  0  0
   -6.4320   23.5832  -24.7589 C   0  0  0  0  0  0  0  0  0  0  0  0
   -5.0218   23.3025  -25.2406 C   0  0  0  0  0  0  0  0  0  0  0  0
   -4.6434   21.9114  -24.7392 C   0  0  0  0  0  0  0  0  0  0  0  0
   -4.5901   21.9234  -23.2309 C   0  0  0  0  0  0  0  0  0  0  0  0
   -5.9151   22.3925  -22.7415 C   0  0  0  0  0  0  0  0  0  0  0  0
   -6.5668   21.6401  -21.8904 C   0  0  0  0  0  0  0  0  0  0  0  0
   -7.8631   22.0923  -21.4072 C   0  0  0  0  0  0  0  0  0  0  0  0
   -8.7708   21.2872  -21.0887 O   0  0  0  0  0  0  0  0  0  0  0  0
   -8.0422   23.5859  -21.3149 C   0  0  0  0  0  0  0  0  0  0  0  0
   -7.7368   24.0975  -22.7060 C   0  0  0  0  0  0  0  0  0  0  0  0
   -6.4182   23.6781  -23.2444 C   0  0  0  0  0  0  0  0  0  0  0  0
   -5.1037   23.2462  -26.7153 C   0  0  0  0  0  0  0  0  0  0  0  0
   -3.8703   22.9797  -27.4689 C   0  0  0  0  0  0  0  0  0  0  0  0
   -4.2456   23.4067  -28.8898 C   0  0  0  0  0  0  0  0  0  0  0  0
   -5.5907   24.1022  -28.7687 C   0  0  0  0  0  0  0  0  0  0  0  0
   -5.7433   25.1316  -29.6709 O   0  0  0  0  0  0  0  0  0  0  0  0
   -5.5287   24.8354  -30.5710 H   0  0  0  0  0  0  0  0  0  0  0  0
  2  1  1  0  0  0
  2  3  1  0  0  0
  3  4  1  0  0  0
  4  5  1  0  0  0
  5  6  1  0  0  0
  6  7  1  0  0  0
  7  8  1  0  0  0
  8  9  1  0  0  0
  9 10  2  0  0  0
 10 11  1  0  0  0
 11 12  2  0  0  0
 11 13  1  0  0  0
 13 14  1  0  0  0
 14 15  1  0  0  0
  6 16  1  0  0  0
 16 17  1  0  0  0
 17 18  1  0  0  0
 18 19  1  0  0  0
 19 20  1  0  0  0
 16  2  1  0  0  0
 19  2  1  0  0  0
 15  5  1  0  0  0
 15  9  1  0  0  0
 20 21  1  0  0  0
M  END
> <minimizedAffinity>
-8.32170

> <CNNscore>
0.4889332354

> <CNNaffinity>
5.9467005730

> <CNN_VS>
2.9075396061

> <CNNaffinity_variance>
0.1272680461

$$$$
[H]O[C@@]1([H])C([H])([H])C([H])([H])[C@]2([H])[C@]1(C([H])([H])[H])C([H])([H])C([H])([H])[C@]1([H])[C@]3([H])C(=C([H])C(=O)C([H])([H])C3([H])[H])C([H])([H])C([H])([H])[C@@]21[H]


 21 24  0  0  0  0  0  0  0  0999 V2000
   -6.9453   23.5731  -21.5694 C   0  0  0  0  0  0  0  0  0  0  0  0
   -6.9770   24.0479  -20.1364 C   0  0  0  0  0  0  0  0  0  0  0  0
   -6.1123   23.2155  -19.2755 C   0  0  0  0  0  0  0  0  0  0  0  0
   -6.7545   21.9513  -18.7784 C   0  0  0  0  0  0  0  0  0  0  0  0
   -8.1813   22.0887  -18.3894 C   0  0  0  0  0  0  0  0  0  0  0  0
   -9.0280   22.8063  -19.4227 C   0  0  0  0  0  0  0  0  0  0  0  0
  -10.4061   23.0230  -18.8034 C   0  0  0  0  0  0  0  0  0  0  0  0
  -11.0602   21.6841  -18.5637 C   0  0  0  0  0  0  0  0  0  0  0  0
  -10.1415   20.8860  -17.7069 C   0  0  0  0  0  0  0  0  0  0  0  0
  -10.6077   20.3879  -16.5890 C   0  0  0  0  0  0  0  0  0  0  0  0
   -9.7153   19.6061  -15.7459 C   0  0  0  0  0  0  0  0  0  0  0  0
   -9.8389   19.5744  -14.4980 O   0  0  0  0  0  0  0  0  0  0  0  0
   -8.6371   18.8398  -16.4684 C   0  0  0  0  0  0  0  0  0  0  0  0
   -7.8972   19.8840  -17.2759 C   0  0  0  0  0  0  0  0  0  0  0  0
   -8.7580   20.7029  -18.1663 C   0  0  0  0  0  0  0  0  0  0  0  0
   -8.4003   24.1317  -19.6074 C   0  0  0  0  0  0  0  0  0  0  0  0
   -9.0163   25.0638  -20.5624 C   0  0  0  0  0  0  0  0  0  0  0  0
   -7.9065   26.0924  -20.7916 C   0  0  0  0  0  0  0  0  0  0  0  0
   -6.6690   25.5185  -20.1230 C   0  0  0  0  0  0  0  0  0  0  0  0
   -5.5051   25.8449  -20.7828 O   0  0  0  0  0  0  0  0  0  0  0  0
   -5.4597   26.8010  -20.9488 H   0  0  0  0  0  0  0  0  0  0  0  0
  2  1  1  0  0  0
  2  3  1  0  0  0
  3  4  1  0  0  0
  4  5  1  0  0  0
  5  6  1  0  0  0
  6  7  1  0  0  0
  7  8  1  0  0  0
  8  9  1  0  0  0
  9 10  2  0  0  0
 10 11  1  0  0  0
 11 12  2  0  0  0
 11 13  1  0  0  0
 13 14  1  0  0  0
 14 15  1  0  0  0
  6 16  1  0  0  0
 16 17  1  0  0  0
 17 18  1  0  0  0
 18 19  1  0  0  0
 19 20  1  0  0  0
 16  2  1  0  0  0
 19  2  1  0  0  0
 15  5  1  0  0  0
 15  9  1  0  0  0
 20 21  1  0  0  0
M  END
> <minimizedAffinity>
-4.75529

> <CNNscore>
0.4519152641

> <CNNaffinity>
4.5373725891

> <CNN_VS>
2.0505080223

> <CNNaffinity_variance>
0.0111626154

$$$$
[H]c1c([H])c([H])c2c(c1[H])c1c3c(c4c5c([H])c([H])c([H])c([H])c5n5c4c1n2[C@@]1(C([H])([H])[H])O[C@]5([H])C([H])([H])[C@]([H])(N([H])C([H])([H])[H])[C@@]1([H])OC([H])([H])[H])C(=O)N([H])C3([H])[H]


 37 44  0  0  0  0  0  0  0  0999 V2000
   -4.2544   23.9569  -22.5392 C   0  0  0  0  0  0  0  0  0  0  0  0
   -3.3842   22.9503  -21.7854 C   0  0  0  0  0  0  0  0  0  0  0  0
   -3.3771   21.6269  -22.4812 C   0  0  0  0  0  0  0  0  0  0  0  0
   -4.4438   21.2513  -23.1362 O   0  0  0  0  0  0  0  0  0  0  0  0
   -5.3075   22.1336  -23.7670 C   0  0  0  0  0  0  0  0  0  0  0  0
   -6.5369   21.2707  -23.9931 C   0  0  0  0  0  0  0  0  0  0  0  0
   -5.5416   23.2718  -22.8244 C   0  0  0  0  0  0  0  0  0  0  0  0
   -4.6884   22.4968  -25.0443 N   0  0  0  0  0  0  0  0  0  0  0  0
   -5.3235   22.9180  -26.1532 C   0  0  0  0  0  0  0  0  0  0  0  0
   -6.6226   23.1761  -26.4411 C   0  0  0  0  0  0  0  0  0  0  0  0
   -7.0266   23.6094  -27.6867 C   0  0  0  0  0  0  0  0  0  0  0  0
   -6.1233   23.8077  -28.7218 C   0  0  0  0  0  0  0  0  0  0  0  0
   -4.7997   23.5498  -28.4436 C   0  0  0  0  0  0  0  0  0  0  0  0
   -4.4138   23.1196  -27.2010 C   0  0  0  0  0  0  0  0  0  0  0  0
   -3.1858   22.8095  -26.7030 C   0  0  0  0  0  0  0  0  0  0  0  0
   -1.9248   22.8134  -27.2691 C   0  0  0  0  0  0  0  0  0  0  0  0
   -1.4803   23.1733  -28.6417 C   0  0  0  0  0  0  0  0  0  0  0  0
   -0.0688   22.9885  -28.6783 N   0  0  0  0  0  0  0  0  0  0  0  0
    0.3728   22.5427  -27.3972 C   0  0  0  0  0  0  0  0  0  0  0  0
    1.5599   22.3135  -27.1669 O   0  0  0  0  0  0  0  0  0  0  0  0
   -0.7870   22.4402  -26.5393 C   0  0  0  0  0  0  0  0  0  0  0  0
   -1.0010   22.0713  -25.2245 C   0  0  0  0  0  0  0  0  0  0  0  0
   -0.1682   21.6641  -24.1933 C   0  0  0  0  0  0  0  0  0  0  0  0
    1.1674   21.4663  -24.1126 C   0  0  0  0  0  0  0  0  0  0  0  0
    1.7273   21.0402  -22.8959 C   0  0  0  0  0  0  0  0  0  0  0  0
    0.9241   20.8302  -21.8111 C   0  0  0  0  0  0  0  0  0  0  0  0
   -0.4377   21.0224  -21.8610 C   0  0  0  0  0  0  0  0  0  0  0  0
   -0.9624   21.4394  -23.0619 C   0  0  0  0  0  0  0  0  0  0  0  0
   -2.2190   21.6980  -23.3922 N   0  0  0  0  0  0  0  0  0  0  0  0
   -2.2803   22.0757  -24.6771 C   0  0  0  0  0  0  0  0  0  0  0  0
   -3.3921   22.4447  -25.4150 C   0  0  0  0  0  0  0  0  0  0  0  0
    0.5249   23.1599  -29.5238 H   0  0  0  0  0  0  0  0  0  0  0  0
   -4.0321   26.3803  -22.5823 C   0  0  0  0  0  0  0  0  0  0  0  0
   -4.3126   25.1980  -21.8616 N   0  0  0  0  0  0  0  0  0  0  0  0
   -5.0989   25.3192  -21.2116 H   0  0  0  0  0  0  0  0  0  0  0  0
   -6.4564   24.1960  -23.2385 O   0  0  0  0  0  0  0  0  0  0  0  0
   -7.6479   24.3114  -22.5856 C   0  0  0  0  0  0  0  0  0  0  0  0
 33 34  1  0  0  0
 34  1  1  0  0  0
  1  2  1  0  0  0
  2  3  1  0  0  0
  3  4  1  0  0  0
  4  5  1  0  0  0
  5  6  1  0  0  0
  5  7  1  0  0  0
  7 36  1  0  0  0
 36 37  1  0  0  0
  5  8  1  0  0  0
  8  9  1  0  0  0
  9 10  2  0  0  0
 10 11  1  0  0  0
 11 12  2  0  0  0
 12 13  1  0  0  0
 13 14  2  0  0  0
 14 15  1  0  0  0
 15 16  2  0  0  0
 16 17  1  0  0  0
 17 18  1  0  0  0
 18 19  1  0  0  0
 19 20  2  0  0  0
 19 21  1  0  0  0
 21 22  2  0  0  0
 22 23  1  0  0  0
 23 24  2  0  0  0
 24 25  1  0  0  0
 25 26  2  0  0  0
 26 27  1  0  0  0
 27 28  2  0  0  0
 28 29  1  0  0  0
 29 30  1  0  0  0
 30 31  2  0  0  0
  7  1  1  0  0  0
 31  8  1  0  0  0
 29  3  1  0  0  0
 14  9  1  0  0  0
 31 15  1  0  0  0
 21 16  1  0  0  0
 30 22  1  0  0  0
 28 23  1  0  0  0
 34 35  1  0  0  0
 18 32  1  0  0  0
M  END
> <minimizedAffinity>
-8.54737

> <CNNscore>
0.5535916686

> <CNNaffinity>
6.8064665794

> <CNN_VS>
3.7680032253

> <CNNaffinity_variance>
0.0754415542

$$$$
[H]c1c([H])c([H])c2c(c1[H])c1c3c(c4c5c([H])c([H])c([H])c([H])c5n5c4c1n2[C@@]1(C([H])([H])[H])O[C@]5([H])C([H])([H])[C@]([H])(N([H])C([H])([H])[H])[C@@]1([H])OC([H])([H])[H])C(=O)N([H])C3([H])[H]


 37 44  0  0  0  0  0  0  0  0999 V2000
   -5.1813   25.4554  -25.9975 C   0  0  0  0  0  0  0  0  0  0  0  0
   -6.3161   24.7756  -25.2301 C   0  0  0  0  0  0  0  0  0  0  0  0
   -6.2836   23.2946  -25.4335 C   0  0  0  0  0  0  0  0  0  0  0  0
   -5.8511   22.8223  -26.5727 O   0  0  0  0  0  0  0  0  0  0  0  0
   -4.8819   23.4457  -27.3438 C   0  0  0  0  0  0  0  0  0  0  0  0
   -5.0485   22.7550  -28.6863 C   0  0  0  0  0  0  0  0  0  0  0  0
   -5.2150   24.9041  -27.3768 C   0  0  0  0  0  0  0  0  0  0  0  0
   -3.5848   23.1139  -26.7488 N   0  0  0  0  0  0  0  0  0  0  0  0
   -2.3963   23.0851  -27.3790 C   0  0  0  0  0  0  0  0  0  0  0  0
   -2.0068   23.3692  -28.6458 C   0  0  0  0  0  0  0  0  0  0  0  0
   -0.6936   23.2580  -29.0527 C   0  0  0  0  0  0  0  0  0  0  0  0
    0.3095   22.8474  -28.1856 C   0  0  0  0  0  0  0  0  0  0  0  0
   -0.0714   22.5556  -26.8951 C   0  0  0  0  0  0  0  0  0  0  0  0
   -1.3804   22.6710  -26.5058 C   0  0  0  0  0  0  0  0  0  0  0  0
   -1.9802   22.4439  -25.3055 C   0  0  0  0  0  0  0  0  0  0  0  0
   -1.4880   22.0186  -24.0859 C   0  0  0  0  0  0  0  0  0  0  0  0
   -0.1048   21.6664  -23.6690 C   0  0  0  0  0  0  0  0  0  0  0  0
   -0.1726   21.2874  -22.2980 N   0  0  0  0  0  0  0  0  0  0  0  0
   -1.5237   21.3981  -21.8538 C   0  0  0  0  0  0  0  0  0  0  0  0
   -1.8472   21.1298  -20.6970 O   0  0  0  0  0  0  0  0  0  0  0  0
   -2.3223   21.8511  -22.9712 C   0  0  0  0  0  0  0  0  0  0  0  0
   -3.6607   22.1372  -23.1640 C   0  0  0  0  0  0  0  0  0  0  0  0
   -4.7759   22.1163  -22.3402 C   0  0  0  0  0  0  0  0  0  0  0  0
   -4.9535   21.7885  -21.0400 C   0  0  0  0  0  0  0  0  0  0  0  0
   -6.2397   21.8714  -20.4793 C   0  0  0  0  0  0  0  0  0  0  0  0
   -7.2939   22.2795  -21.2462 C   0  0  0  0  0  0  0  0  0  0  0  0
   -7.1460   22.6196  -22.5716 C   0  0  0  0  0  0  0  0  0  0  0  0
   -5.8785   22.5307  -23.0978 C   0  0  0  0  0  0  0  0  0  0  0  0
   -5.4514   22.7905  -24.3247 N   0  0  0  0  0  0  0  0  0  0  0  0
   -4.1322   22.5642  -24.4016 C   0  0  0  0  0  0  0  0  0  0  0  0
   -3.2929   22.7207  -25.4916 C   0  0  0  0  0  0  0  0  0  0  0  0
    0.6529   20.9808  -21.7312 H   0  0  0  0  0  0  0  0  0  0  0  0
   -4.1817   27.5178  -25.1783 C   0  0  0  0  0  0  0  0  0  0  0  0
   -5.2336   26.8626  -25.8565 N   0  0  0  0  0  0  0  0  0  0  0  0
   -5.5454   27.3863  -26.6835 H   0  0  0  0  0  0  0  0  0  0  0  0
   -4.4205   25.6678  -28.1818 O   0  0  0  0  0  0  0  0  0  0  0  0
   -4.8449   26.0027  -29.4335 C   0  0  0  0  0  0  0  0  0  0  0  0
 33 34  1  0  0  0
 34  1  1  0  0  0
  1  2  1  0  0  0
  2  3  1  0  0  0
  3  4  1  0  0  0
  4  5  1  0  0  0
  5  6  1  0  0  0
  5  7  1  0  0  0
  7 36  1  0  0  0
 36 37  1  0  0  0
  5  8  1  0  0  0
  8  9  1  0  0  0
  9 10  2  0  0  0
 10 11  1  0  0  0
 11 12  2  0  0  0
 12 13  1  0  0  0
 13 14  2  0  0  0
 14 15  1  0  0  0
 15 16  2  0  0  0
 16 17  1  0  0  0
 17 18  1  0  0  0
 18 19  1  0  0  0
 19 20  2  0  0  0
 19 21  1  0  0  0
 21 22  2  0  0  0
 22 23  1  0  0  0
 23 24  2  0  0  0
 24 25  1  0  0  0
 25 26  2  0  0  0
 26 27  1  0  0  0
 27 28  2  0  0  0
 28 29  1  0  0  0
 29 30  1  0  0  0
 30 31  2  0  0  0
  7  1  1  0  0  0
 31  8  1  0  0  0
 29  3  1  0  0  0
 14  9  1  0  0  0
 31 15  1  0  0  0
 21 16  1  0  0  0
 30 22  1  0  0  0
 28 23  1  0  0  0
 34 35  1  0  0  0
 18 32  1  0  0  0
M  END
> <minimizedAffinity>
-11.10464

> <CNNscore>
0.3585394323

> <CNNaffinity>
6.7267394066

> <CNN_VS>
2.4118013382

> <CNNaffinity_variance>
0.4056622088

$$$$
[H]c1c([H])c([H])c2c(c1[H])c1c3c(c4c5c([H])c([H])c([H])c([H])c5n5c4c1n2[C@@]1(C([H])([H])[H])O[C@]5([H])C([H])([H])[C@]([H])(N([H])C([H])([H])[H])[C@@]1([H])OC([H])([H])[H])C(=O)N([H])C3([H])[H]


 37 44  0  0  0  0  0  0  0  0999 V2000
   -5.0717   24.1607  -21.9449 C   0  0  0  0  0  0  0  0  0  0  0  0
   -4.6753   23.1861  -20.8351 C   0  0  0  0  0  0  0  0  0  0  0  0
   -4.5534   21.7942  -21.3676 C   0  0  0  0  0  0  0  0  0  0  0  0
   -5.3247   21.4258  -22.3562 O   0  0  0  0  0  0  0  0  0  0  0  0
   -5.7764   22.2911  -23.3410 C   0  0  0  0  0  0  0  0  0  0  0  0
   -6.9158   21.5017  -23.9620 C   0  0  0  0  0  0  0  0  0  0  0  0
   -6.2216   23.5449  -22.6564 C   0  0  0  0  0  0  0  0  0  0  0  0
   -4.6800   22.4570  -24.2986 N   0  0  0  0  0  0  0  0  0  0  0  0
   -4.7918   22.7933  -25.5966 C   0  0  0  0  0  0  0  0  0  0  0  0
   -5.8444   23.1122  -26.3887 C   0  0  0  0  0  0  0  0  0  0  0  0
   -5.6908   23.4275  -27.7226 C   0  0  0  0  0  0  0  0  0  0  0  0
   -4.4447   23.4370  -28.3341 C   0  0  0  0  0  0  0  0  0  0  0  0
   -3.3658   23.1152  -27.5415 C   0  0  0  0  0  0  0  0  0  0  0  0
   -3.5346   22.8041  -26.2175 C   0  0  0  0  0  0  0  0  0  0  0  0
   -2.6333   22.4632  -25.2567 C   0  0  0  0  0  0  0  0  0  0  0  0
   -1.2601   22.3077  -25.2831 C   0  0  0  0  0  0  0  0  0  0  0  0
   -0.2878   22.4725  -26.3961 C   0  0  0  0  0  0  0  0  0  0  0  0
    1.0001   22.1801  -25.8635 N   0  0  0  0  0  0  0  0  0  0  0  0
    0.8659   21.8539  -24.4813 C   0  0  0  0  0  0  0  0  0  0  0  0
    1.8411   21.5651  -23.7881 O   0  0  0  0  0  0  0  0  0  0  0  0
   -0.5370   21.9379  -24.1399 C   0  0  0  0  0  0  0  0  0  0  0  0
   -1.2767   21.7403  -22.9891 C   0  0  0  0  0  0  0  0  0  0  0  0
   -0.9523   21.3944  -21.6862 C   0  0  0  0  0  0  0  0  0  0  0  0
    0.2198   21.1084  -21.0746 C   0  0  0  0  0  0  0  0  0  0  0  0
    0.2210   20.7854  -19.7067 C   0  0  0  0  0  0  0  0  0  0  0  0
   -0.9535   20.7626  -19.0095 C   0  0  0  0  0  0  0  0  0  0  0  0
   -2.1620   21.0485  -19.6027 C   0  0  0  0  0  0  0  0  0  0  0  0
   -2.1379   21.3617  -20.9415 C   0  0  0  0  0  0  0  0  0  0  0  0
   -3.1354   21.6732  -21.7559 N   0  0  0  0  0  0  0  0  0  0  0  0
   -2.6586   21.9033  -22.9876 C   0  0  0  0  0  0  0  0  0  0  0  0
   -3.3553   22.2661  -24.1277 C   0  0  0  0  0  0  0  0  0  0  0  0
    1.8867   22.2080  -26.4201 H   0  0  0  0  0  0  0  0  0  0  0  0
   -6.1119   25.6736  -20.3472 C   0  0  0  0  0  0  0  0  0  0  0  0
   -5.2429   25.4727  -21.4427 N   0  0  0  0  0  0  0  0  0  0  0  0
   -4.3901   26.0408  -21.3686 H   0  0  0  0  0  0  0  0  0  0  0  0
   -6.7980   24.4805  -23.4657 O   0  0  0  0  0  0  0  0  0  0  0  0
   -8.1174   24.7890  -23.3138 C   0  0  0  0  0  0  0  0  0  0  0  0
 33 34  1  0  0  0
 34  1  1  0  0  0
  1  2  1  0  0  0
  2  3  1  0  0  0
  3  4  1  0  0  0
  4  5  1  0  0  0
  5  6  1  0  0  0
  5  7  1  0  0  0
  7 36  1  0  0  0
 36 37  1  0  0  0
  5  8  1  0  0  0
  8  9  1  0  0  0
  9 10  2  0  0  0
 10 11  1  0  0  0
 11 12  2  0  0  0
 12 13  1  0  0  0
 13 14  2  0  0  0
 14 15  1  0  0  0
 15 16  2  0  0  0
 16 17  1  0  0  0
 17 18  1  0  0  0
 18 19  1  0  0  0
 19 20  2  0  0  0
 19 21  1  0  0  0
 21 22  2  0  0  0
 22 23  1  0  0  0
 23 24  2  0  0  0
 24 25  1  0  0  0
 25 26  2  0  0  0
 26 27  1  0  0  0
 27 28  2  0  0  0
 28 29  1  0  0  0
 29 30  1  0  0  0
 30 31  2  0  0  0
  7  1  1  0  0  0
 31  8  1  0  0  0
 29  3  1  0  0  0
 14  9  1  0  0  0
 31 15  1  0  0  0
 21 16  1  0  0  0
 30 22  1  0  0  0
 28 23  1  0  0  0
 34 35  1  0  0  0
 18 32  1  0  0  0
M  END
> <minimizedAffinity>
-10.62949

> <CNNscore>
0.3362084925

> <CNNaffinity>
6.4712257385

> <CNN_VS>
2.1756811142

> <CNNaffinity_variance>
0.2092943192

$$$$
[H]c1c([H])c([H])c2c(c1[H])c1c3c(c4c5c([H])c([H])c([H])c([H])c5n5c4c1n2[C@@]1(C([H])([H])[H])O[C@]5([H])C([H])([H])[C@]([H])(N([H])C([H])([H])[H])[C@@]1([H])OC([H])([H])[H])C(=O)N([H])C3([H])[H]


 37 44  0  0  0  0  0  0  0  0999 V2000
   -2.3182   21.0806  -16.1131 C   0  0  0  0  0  0  0  0  0  0  0  0
   -1.9074   21.1985  -14.6448 C   0  0  0  0  0  0  0  0  0  0  0  0
   -0.6834   20.3856  -14.3677 C   0  0  0  0  0  0  0  0  0  0  0  0
   -0.4891   19.2847  -15.0446 O   0  0  0  0  0  0  0  0  0  0  0  0
   -0.9154   19.1016  -16.3513 C   0  0  0  0  0  0  0  0  0  0  0  0
   -0.8272   17.5934  -16.5079 C   0  0  0  0  0  0  0  0  0  0  0  0
   -2.3123   19.6307  -16.4379 C   0  0  0  0  0  0  0  0  0  0  0  0
    0.0609   19.7694  -17.2159 N   0  0  0  0  0  0  0  0  0  0  0  0
    0.3280   19.4756  -18.5015 C   0  0  0  0  0  0  0  0  0  0  0  0
   -0.1896   18.5820  -19.3795 C   0  0  0  0  0  0  0  0  0  0  0  0
    0.2700   18.4754  -20.6756 C   0  0  0  0  0  0  0  0  0  0  0  0
    1.2930   19.2798  -21.1584 C   0  0  0  0  0  0  0  0  0  0  0  0
    1.8283   20.1927  -20.2776 C   0  0  0  0  0  0  0  0  0  0  0  0
    1.3609   20.2867  -18.9927 C   0  0  0  0  0  0  0  0  0  0  0  0
    1.7274   21.0995  -17.9646 C   0  0  0  0  0  0  0  0  0  0  0  0
    2.6860   22.0896  -17.8584 C   0  0  0  0  0  0  0  0  0  0  0  0
    3.6535   22.6126  -18.8591 C   0  0  0  0  0  0  0  0  0  0  0  0
    4.4097   23.6285  -18.2080 N   0  0  0  0  0  0  0  0  0  0  0  0
    3.9485   23.7589  -16.8644 C   0  0  0  0  0  0  0  0  0  0  0  0
    4.4411   24.5783  -16.0891 O   0  0  0  0  0  0  0  0  0  0  0  0
    2.8836   22.8008  -16.6660 C   0  0  0  0  0  0  0  0  0  0  0  0
    2.0644   22.4546  -15.6078 C   0  0  0  0  0  0  0  0  0  0  0  0
    1.9324   22.9122  -14.3055 C   0  0  0  0  0  0  0  0  0  0  0  0
    2.5792   23.8637  -13.5945 C   0  0  0  0  0  0  0  0  0  0  0  0
    2.2053   24.0983  -12.2600 C   0  0  0  0  0  0  0  0  0  0  0  0
    1.1983   23.3686  -11.6947 C   0  0  0  0  0  0  0  0  0  0  0  0
    0.5212   22.3938  -12.3914 C   0  0  0  0  0  0  0  0  0  0  0  0
    0.9047   22.1825  -13.6950 C   0  0  0  0  0  0  0  0  0  0  0  0
    0.4355   21.3217  -14.5862 N   0  0  0  0  0  0  0  0  0  0  0  0
    1.1062   21.4542  -15.7395 C   0  0  0  0  0  0  0  0  0  0  0  0
    0.9283   20.7610  -16.9247 C   0  0  0  0  0  0  0  0  0  0  0  0
    5.1758   24.1760  -18.6661 H   0  0  0  0  0  0  0  0  0  0  0  0
   -3.4741   22.8408  -17.3335 C   0  0  0  0  0  0  0  0  0  0  0  0
   -3.5067   21.8026  -16.3760 N   0  0  0  0  0  0  0  0  0  0  0  0
   -4.3670   21.2448  -16.4400 H   0  0  0  0  0  0  0  0  0  0  0  0
   -2.9372   19.4396  -17.6360 O   0  0  0  0  0  0  0  0  0  0  0  0
   -4.0283   18.6251  -17.7100 C   0  0  0  0  0  0  0  0  0  0  0  0
 33 34  1  0  0  0
 34  1  1  0  0  0
  1  2  1  0  0  0
  2  3  1  0  0  0
  3  4  1  0  0  0
  4  5  1  0  0  0
  5  6  1  0  0  0
  5  7  1  0  0  0
  7 36  1  0  0  0
 36 37  1  0  0  0
  5  8  1  0  0  0
  8  9  1  0  0  0
  9 10  2  0  0  0
 10 11  1  0  0  0
 11 12  2  0  0  0
 12 13  1  0  0  0
 13 14  2  0  0  0
 14 15  1  0  0  0
 15 16  2  0  0  0
 16 17  1  0  0  0
 17 18  1  0  0  0
 18 19  1  0  0  0
 19 20  2  0  0  0
 19 21  1  0  0  0
 21 22  2  0  0  0
 22 23  1  0  0  0
 23 24  2  0  0  0
 24 25  1  0  0  0
 25 26  2  0  0  0
 26 27  1  0  0  0
 27 28  2  0  0  0
 28 29  1  0  0  0
 29 30  1  0  0  0
 30 31  2  0  0  0
  7  1  1  0  0  0
 31  8  1  0  0  0
 29  3  1  0  0  0
 14  9  1  0  0  0
 31 15  1  0  0  0
 21 16  1  0  0  0
 30 22  1  0  0  0
 28 23  1  0  0  0
 34 35  1  0  0  0
 18 32  1  0  0  0
M  END
> <minimizedAffinity>
-5.86956

> <CNNscore>
0.3116512895

> <CNNaffinity>
5.2590389252

> <CNN_VS>
1.6389862299

> <CNNaffinity_variance>
0.1754485816

$$$$
[H]c1c([H])c([H])c2c(c1[H])c1c3c(c4c5c([H])c([H])c([H])c([H])c5n5c4c1n2[C@@]1(C([H])([H])[H])O[C@]5([H])C([H])([H])[C@]([H])(N([H])C([H])([H])[H])[C@@]1([H])OC([H])([H])[H])C(=O)N([H])C3([H])[H]


 37 44  0  0  0  0  0  0  0  0999 V2000
   -8.0872   22.5467  -18.6381 C   0  0  0  0  0  0  0  0  0  0  0  0
   -7.8038   21.0988  -19.0404 C   0  0  0  0  0  0  0  0  0  0  0  0
   -6.7562   20.4970  -18.1594 C   0  0  0  0  0  0  0  0  0  0  0  0
   -5.8177   21.2674  -17.6762 O   0  0  0  0  0  0  0  0  0  0  0  0
   -6.0051   22.6072  -17.3724 C   0  0  0  0  0  0  0  0  0  0  0  0
   -4.5770   23.1124  -17.2605 C   0  0  0  0  0  0  0  0  0  0  0  0
   -6.7665   23.2149  -18.5081 C   0  0  0  0  0  0  0  0  0  0  0  0
   -6.6758   22.6597  -16.0708 N   0  0  0  0  0  0  0  0  0  0  0  0
   -6.6360   23.6740  -15.1875 C   0  0  0  0  0  0  0  0  0  0  0  0
   -6.0607   24.9011  -15.2039 C   0  0  0  0  0  0  0  0  0  0  0  0
   -6.1707   25.7779  -14.1449 C   0  0  0  0  0  0  0  0  0  0  0  0
   -6.8796   25.4538  -12.9963 C   0  0  0  0  0  0  0  0  0  0  0  0
   -7.4698   24.2103  -12.9657 C   0  0  0  0  0  0  0  0  0  0  0  0
   -7.3515   23.3501  -14.0260 C   0  0  0  0  0  0  0  0  0  0  0  0
   -7.8410   22.0950  -14.2187 C   0  0  0  0  0  0  0  0  0  0  0  0
   -8.6075   21.2637  -13.4237 C   0  0  0  0  0  0  0  0  0  0  0  0
   -9.1711   21.4732  -12.0637 C   0  0  0  0  0  0  0  0  0  0  0  0
   -9.8744   20.2830  -11.7224 N   0  0  0  0  0  0  0  0  0  0  0  0
   -9.7770   19.3611  -12.8066 C   0  0  0  0  0  0  0  0  0  0  0  0
  -10.3081   18.2517  -12.7608 O   0  0  0  0  0  0  0  0  0  0  0  0
   -8.9910   19.9836  -13.8489 C   0  0  0  0  0  0  0  0  0  0  0  0
   -8.5596   19.6049  -15.1063 C   0  0  0  0  0  0  0  0  0  0  0  0
   -8.7303   18.4655  -15.8778 C   0  0  0  0  0  0  0  0  0  0  0  0
   -9.3769   17.2971  -15.6629 C   0  0  0  0  0  0  0  0  0  0  0  0
   -9.3668   16.3111  -16.6645 C   0  0  0  0  0  0  0  0  0  0  0  0
   -8.7086   16.5384  -17.8398 C   0  0  0  0  0  0  0  0  0  0  0  0
   -8.0415   17.7162  -18.0887 C   0  0  0  0  0  0  0  0  0  0  0  0
   -8.0654   18.6655  -17.0940 C   0  0  0  0  0  0  0  0  0  0  0  0
   -7.5165   19.8709  -17.0612 N   0  0  0  0  0  0  0  0  0  0  0  0
   -7.7888   20.4600  -15.8881 C   0  0  0  0  0  0  0  0  0  0  0  0
   -7.4177   21.7196  -15.4494 C   0  0  0  0  0  0  0  0  0  0  0  0
  -10.3742   20.1354  -10.8141 H   0  0  0  0  0  0  0  0  0  0  0  0
  -10.4063   22.8443  -19.3141 C   0  0  0  0  0  0  0  0  0  0  0  0
   -9.0383   23.1447  -19.4987 N   0  0  0  0  0  0  0  0  0  0  0  0
   -8.8867   24.1372  -19.7165 H   0  0  0  0  0  0  0  0  0  0  0  0
   -6.9552   24.5643  -18.4306 O   0  0  0  0  0  0  0  0  0  0  0  0
   -6.6040   25.3601  -19.4807 C   0  0  0  0  0  0  0  0  0  0  0  0
 33 34  1  0  0  0
 34  1  1  0  0  0
  1  2  1  0  0  0
  2  3  1  0  0  0
  3  4  1  0  0  0
  4  5  1  0  0  0
  5  6  1  0  0  0
  5  7  1  0  0  0
  7 36  1  0  0  0
 36 37  1  0  0  0
  5  8  1  0  0  0
  8  9  1  0  0  0
  9 10  2  0  0  0
 10 11  1  0  0  0
 11 12  2  0  0  0
 12 13  1  0  0  0
 13 14  2  0  0  0
 14 15  1  0  0  0
 15 16  2  0  0  0
 16 17  1  0  0  0
 17 18  1  0  0  0
 18 19  1  0  0  0
 19 20  2  0  0  0
 19 21  1  0  0  0
 21 22  2  0  0  0
 22 23  1  0  0  0
 23 24  2  0  0  0
 24 25  1  0  0  0
 25 26  2  0  0  0
 26 27  1  0  0  0
 27 28  2  0  0  0
 28 29  1  0  0  0
 29 30  1  0  0  0
 30 31  2  0  0  0
  7  1  1  0  0  0
 31  8  1  0  0  0
 29  3  1  0  0  0
 14  9  1  0  0  0
 31 15  1  0  0  0
 21 16  1  0  0  0
 30 22  1  0  0  0
 28 23  1  0  0  0
 34 35  1  0  0  0
 18 32  1  0  0  0
M  END
> <minimizedAffinity>
-5.56282

> <CNNscore>
0.2442915887

> <CNNaffinity>
5.1092667580

> <CNN_VS>
1.2481509447

> <CNNaffinity_variance>
0.1153141037

$$$$
[H]c1c([H])c([H])c2c(c1[H])c1c3c(c4c5c([H])c([H])c([H])c([H])c5n5c4c1n2[C@@]1(C([H])([H])[H])O[C@]5([H])C([H])([H])[C@]([H])(N([H])C([H])([H])[H])[C@@]1([H])OC([H])([H])[H])C(=O)N([H])C3([H])[H]


 37 44  0  0  0  0  0  0  0  0999 V2000
    0.2306   21.8172  -17.5077 C   0  0  0  0  0  0  0  0  0  0  0  0
   -0.6777   21.5897  -18.7168 C   0  0  0  0  0  0  0  0  0  0  0  0
   -1.7869   20.6456  -18.3790 C   0  0  0  0  0  0  0  0  0  0  0  0
   -1.5685   19.7015  -17.5022 O   0  0  0  0  0  0  0  0  0  0  0  0
   -0.6924   19.8325  -16.4354 C   0  0  0  0  0  0  0  0  0  0  0  0
   -0.4962   18.3894  -16.0039 C   0  0  0  0  0  0  0  0  0  0  0  0
    0.5527   20.4729  -16.9630 C   0  0  0  0  0  0  0  0  0  0  0  0
   -1.3946   20.5917  -15.3975 N   0  0  0  0  0  0  0  0  0  0  0  0
   -1.1514   20.5574  -14.0746 C   0  0  0  0  0  0  0  0  0  0  0  0
   -0.2346   19.9123  -13.3127 C   0  0  0  0  0  0  0  0  0  0  0  0
   -0.1938   20.0478  -11.9407 C   0  0  0  0  0  0  0  0  0  0  0  0
   -1.0922   20.8559  -11.2575 C   0  0  0  0  0  0  0  0  0  0  0  0
   -2.0292   21.5178  -12.0187 C   0  0  0  0  0  0  0  0  0  0  0  0
   -2.0571   21.3730  -13.3813 C   0  0  0  0  0  0  0  0  0  0  0  0
   -2.8742   21.9191  -14.3225 C   0  0  0  0  0  0  0  0  0  0  0  0
   -3.9452   22.7883  -14.2327 C   0  0  0  0  0  0  0  0  0  0  0  0
   -4.5705   23.4360  -13.0492 C   0  0  0  0  0  0  0  0  0  0  0  0
   -5.6475   24.2301  -13.5364 N   0  0  0  0  0  0  0  0  0  0  0  0
   -5.7069   24.1078  -14.9564 C   0  0  0  0  0  0  0  0  0  0  0  0
   -6.5538   24.7043  -15.6212 O   0  0  0  0  0  0  0  0  0  0  0  0
   -4.6480   23.2135  -15.3693 C   0  0  0  0  0  0  0  0  0  0  0  0
   -4.2062   22.7146  -16.5803 C   0  0  0  0  0  0  0  0  0  0  0  0
   -4.6045   22.8946  -17.8962 C   0  0  0  0  0  0  0  0  0  0  0  0
   -5.5915   23.6217  -18.4677 C   0  0  0  0  0  0  0  0  0  0  0  0
   -5.7439   23.5962  -19.8647 C   0  0  0  0  0  0  0  0  0  0  0  0
   -4.9001   22.8423  -20.6300 C   0  0  0  0  0  0  0  0  0  0  0  0
   -3.8867   22.0917  -20.0789 C   0  0  0  0  0  0  0  0  0  0  0  0
   -3.7572   22.1327  -18.7104 C   0  0  0  0  0  0  0  0  0  0  0  0
   -2.8855   21.5186  -17.9241 N   0  0  0  0  0  0  0  0  0  0  0  0
   -3.1252   21.8408  -16.6450 C   0  0  0  0  0  0  0  0  0  0  0  0
   -2.4457   21.4300  -15.5107 C   0  0  0  0  0  0  0  0  0  0  0  0
   -6.2786   24.8022  -12.9273 H   0  0  0  0  0  0  0  0  0  0  0  0
    2.0443   22.4201  -19.0146 C   0  0  0  0  0  0  0  0  0  0  0  0
    1.3154   22.6670  -17.8299 N   0  0  0  0  0  0  0  0  0  0  0  0
    1.1629   23.6706  -17.6723 H   0  0  0  0  0  0  0  0  0  0  0  0
    1.5761   20.5881  -16.0676 O   0  0  0  0  0  0  0  0  0  0  0  0
    2.7319   19.8921  -16.2646 C   0  0  0  0  0  0  0  0  0  0  0  0
 33 34  1  0  0  0
 34  1  1  0  0  0
  1  2  1  0  0  0
  2  3  1  0  0  0
  3  4  1  0  0  0
  4  5  1  0  0  0
  5  6  1  0  0  0
  5  7  1  0  0  0
  7 36  1  0  0  0
 36 37  1  0  0  0
  5  8  1  0  0  0
  8  9  1  0  0  0
  9 10  2  0  0  0
 10 11  1  0  0  0
 11 12  2  0  0  0
 12 13  1  0  0  0
 13 14  2  0  0  0
 14 15  1  0  0  0
 15 16  2  0  0  0
 16 17  1  0  0  0
 17 18  1  0  0  0
 18 19  1  0  0  0
 19 20  2  0  0  0
 19 21  1  0  0  0
 21 22  2  0  0  0
 22 23  1  0  0  0
 23 24  2  0  0  0
 24 25  1  0  0  0
 25 26  2  0  0  0
 26 27  1  0  0  0
 27 28  2  0  0  0
 28 29  1  0  0  0
 29 30  1  0  0  0
 30 31  2  0  0  0
  7  1  1  0  0  0
 31  8  1  0  0  0
 29  3  1  0  0  0
 14  9  1  0  0  0
 31 15  1  0  0  0
 21 16  1  0  0  0
 30 22  1  0  0  0
 28 23  1  0  0  0
 34 35  1  0  0  0
 18 32  1  0  0  0
M  END
> <minimizedAffinity>
-4.98508

> <CNNscore>
0.2378752232

> <CNNaffinity>
5.3393764496

> <CNN_VS>
1.2701053619

> <CNNaffinity_variance>
0.1947174072

$$$$
[H]c1c([H])c([H])c2c(c1[H])c1c3c(c4c5c([H])c([H])c([H])c([H])c5n5c4c1n2[C@@]1(C([H])([H])[H])O[C@]5([H])C([H])([H])[C@]([H])(N([H])C([H])([H])[H])[C@@]1([H])OC([H])([H])[H])C(=O)N([H])C3([H])[H]


 37 44  0  0  0  0  0  0  0  0999 V2000
   -1.4495   22.1054  -17.7192 C   0  0  0  0  0  0  0  0  0  0  0  0
   -2.1980   21.0036  -16.9678 C   0  0  0  0  0  0  0  0  0  0  0  0
   -1.2401   20.0448  -16.3363 C   0  0  0  0  0  0  0  0  0  0  0  0
   -0.0965   19.8137  -16.9252 O   0  0  0  0  0  0  0  0  0  0  0  0
    0.5801   20.7562  -17.6846 C   0  0  0  0  0  0  0  0  0  0  0  0
    1.5722   19.8975  -18.4498 C   0  0  0  0  0  0  0  0  0  0  0  0
   -0.4314   21.4253  -18.5609 C   0  0  0  0  0  0  0  0  0  0  0  0
    1.2767   21.6398  -16.7462 N   0  0  0  0  0  0  0  0  0  0  0  0
    2.3836   22.3630  -16.9954 C   0  0  0  0  0  0  0  0  0  0  0  0
    3.1438   22.5507  -18.1018 C   0  0  0  0  0  0  0  0  0  0  0  0
    4.2579   23.3638  -18.0980 C   0  0  0  0  0  0  0  0  0  0  0  0
    4.6673   24.0399  -16.9569 C   0  0  0  0  0  0  0  0  0  0  0  0
    3.9043   23.8589  -15.8252 C   0  0  0  0  0  0  0  0  0  0  0  0
    2.7998   23.0477  -15.8448 C   0  0  0  0  0  0  0  0  0  0  0  0
    1.9091   22.7253  -14.8677 C   0  0  0  0  0  0  0  0  0  0  0  0
    1.8144   23.0914  -13.5382 C   0  0  0  0  0  0  0  0  0  0  0  0
    2.6716   23.9864  -12.7165 C   0  0  0  0  0  0  0  0  0  0  0  0
    2.1142   24.0002  -11.4062 N   0  0  0  0  0  0  0  0  0  0  0  0
    0.9565   23.1671  -11.3872 C   0  0  0  0  0  0  0  0  0  0  0  0
    0.2877   23.0137  -10.3653 O   0  0  0  0  0  0  0  0  0  0  0  0
    0.7863   22.6140  -12.7126 C   0  0  0  0  0  0  0  0  0  0  0  0
   -0.1242   21.7600  -13.3061 C   0  0  0  0  0  0  0  0  0  0  0  0
   -1.2591   21.1025  -12.8563 C   0  0  0  0  0  0  0  0  0  0  0  0
   -1.8776   21.0516  -11.6545 C   0  0  0  0  0  0  0  0  0  0  0  0
   -3.0402   20.2748  -11.5116 C   0  0  0  0  0  0  0  0  0  0  0  0
   -3.5337   19.5814  -12.5802 C   0  0  0  0  0  0  0  0  0  0  0  0
   -2.9277   19.6126  -13.8154 C   0  0  0  0  0  0  0  0  0  0  0  0
   -1.7920   20.3794  -13.9308 C   0  0  0  0  0  0  0  0  0  0  0  0
   -1.0154   20.5885  -14.9836 N   0  0  0  0  0  0  0  0  0  0  0  0
   -0.0078   21.4063  -14.6469 C   0  0  0  0  0  0  0  0  0  0  0  0
    1.0166   21.8860  -15.4453 C   0  0  0  0  0  0  0  0  0  0  0  0
    2.5113   24.5438  -10.6040 H   0  0  0  0  0  0  0  0  0  0  0  0
   -3.6117   22.5037  -18.7633 C   0  0  0  0  0  0  0  0  0  0  0  0
   -2.3457   22.9890  -18.3665 N   0  0  0  0  0  0  0  0  0  0  0  0
   -2.4004   23.9385  -17.9781 H   0  0  0  0  0  0  0  0  0  0  0  0
    0.0734   22.3196  -19.4599 O   0  0  0  0  0  0  0  0  0  0  0  0
   -0.0714   22.0933  -20.7966 C   0  0  0  0  0  0  0  0  0  0  0  0
 33 34  1  0  0  0
 34  1  1  0  0  0
  1  2  1  0  0  0
  2  3  1  0  0  0
  3  4  1  0  0  0
  4  5  1  0  0  0
  5  6  1  0  0  0
  5  7  1  0  0  0
  7 36  1  0  0  0
 36 37  1  0  0  0
  5  8  1  0  0  0
  8  9  1  0  0  0
  9 10  2  0  0  0
 10 11  1  0  0  0
 11 12  2  0  0  0
 12 13  1  0  0  0
 13 14  2  0  0  0
 14 15  1  0  0  0
 15 16  2  0  0  0
 16 17  1  0  0  0
 17 18  1  0  0  0
 18 19  1  0  0  0
 19 20  2  0  0  0
 19 21  1  0  0  0
 21 22  2  0  0  0
 22 23  1  0  0  0
 23 24  2  0  0  0
 24 25  1  0  0  0
 25 26  2  0  0  0
 26 27  1  0  0  0
 27 28  2  0  0  0
 28 29  1  0  0  0
 29 30  1  0  0  0
 30 31  2  0  0  0
  7  1  1  0  0  0
 31  8  1  0  0  0
 29  3  1  0  0  0
 14  9  1  0  0  0
 31 15  1  0  0  0
 21 16  1  0  0  0
 30 22  1  0  0  0
 28 23  1  0  0  0
 34 35  1  0  0  0
 18 32  1  0  0  0
M  END
> <minimizedAffinity>
-5.41158

> <CNNscore>
0.2208821625

> <CNNaffinity>
5.0222468376

> <CNN_VS>
1.1093246937

> <CNNaffinity_variance>
0.3868525624

$$$$
[H]c1c([H])c([H])c2c(c1[H])c1c3c(c4c5c([H])c([H])c([H])c([H])c5n5c4c1n2[C@@]1(C([H])([H])[H])O[C@]5([H])C([H])([H])[C@]([H])(N([H])C([H])([H])[H])[C@@]1([H])OC([H])([H])[H])C(=O)N([H])C3([H])[H]


 37 44  0  0  0  0  0  0  0  0999 V2000
   -2.2006   22.4134  -19.4410 C   0  0  0  0  0  0  0  0  0  0  0  0
   -3.4140   21.8330  -20.1686 C   0  0  0  0  0  0  0  0  0  0  0  0
   -3.9560   20.6469  -19.4371 C   0  0  0  0  0  0  0  0  0  0  0  0
   -3.1306   19.8839  -18.7704 O   0  0  0  0  0  0  0  0  0  0  0  0
   -1.9751   20.3506  -18.1624 C   0  0  0  0  0  0  0  0  0  0  0  0
   -1.2050   19.0658  -17.9109 C   0  0  0  0  0  0  0  0  0  0  0  0
   -1.3044   21.2685  -19.1353 C   0  0  0  0  0  0  0  0  0  0  0  0
   -2.3787   20.9680  -16.8964 N   0  0  0  0  0  0  0  0  0  0  0  0
   -1.6160   21.1201  -15.7984 C   0  0  0  0  0  0  0  0  0  0  0  0
   -0.3225   20.8303  -15.5155 C   0  0  0  0  0  0  0  0  0  0  0  0
    0.2356   21.0916  -14.2816 C   0  0  0  0  0  0  0  0  0  0  0  0
   -0.4972   21.6689  -13.2537 C   0  0  0  0  0  0  0  0  0  0  0  0
   -1.8128   21.9692  -13.5269 C   0  0  0  0  0  0  0  0  0  0  0  0
   -2.3531   21.7034  -14.7580 C   0  0  0  0  0  0  0  0  0  0  0  0
   -3.6051   21.9112  -15.2493 C   0  0  0  0  0  0  0  0  0  0  0  0
   -4.7482   22.4459  -14.6855 C   0  0  0  0  0  0  0  0  0  0  0  0
   -4.9930   22.9913  -13.3240 C   0  0  0  0  0  0  0  0  0  0  0  0
   -6.3559   23.4021  -13.2846 N   0  0  0  0  0  0  0  0  0  0  0  0
   -6.9537   23.1439  -14.5538 C   0  0  0  0  0  0  0  0  0  0  0  0
   -8.1327   23.4156  -14.7797 O   0  0  0  0  0  0  0  0  0  0  0  0
   -5.9461   22.5534  -15.4068 C   0  0  0  0  0  0  0  0  0  0  0  0
   -5.9148   22.0957  -16.7107 C   0  0  0  0  0  0  0  0  0  0  0  0
   -6.8512   22.0395  -17.7318 C   0  0  0  0  0  0  0  0  0  0  0  0
   -8.1513   22.4045  -17.8092 C   0  0  0  0  0  0  0  0  0  0  0  0
   -8.8485   22.2144  -19.0147 C   0  0  0  0  0  0  0  0  0  0  0  0
   -8.2123   21.6661  -20.0922 C   0  0  0  0  0  0  0  0  0  0  0  0
   -6.8909   21.2845  -20.0453 C   0  0  0  0  0  0  0  0  0  0  0  0
   -6.2298   21.4803  -18.8554 C   0  0  0  0  0  0  0  0  0  0  0  0
   -4.9744   21.2095  -18.5302 N   0  0  0  0  0  0  0  0  0  0  0  0
   -4.7513   21.5616  -17.2560 C   0  0  0  0  0  0  0  0  0  0  0  0
   -3.5788   21.4611  -16.5265 C   0  0  0  0  0  0  0  0  0  0  0  0
   -6.8190   23.8233  -12.4451 H   0  0  0  0  0  0  0  0  0  0  0  0
   -1.7168   23.5029  -21.5630 C   0  0  0  0  0  0  0  0  0  0  0  0
   -1.6456   23.5039  -20.1521 N   0  0  0  0  0  0  0  0  0  0  0  0
   -1.8228   24.4355  -19.7570 H   0  0  0  0  0  0  0  0  0  0  0  0
   -0.0873   21.7468  -18.7450 O   0  0  0  0  0  0  0  0  0  0  0  0
    1.0294   21.4232  -19.4575 C   0  0  0  0  0  0  0  0  0  0  0  0
 33 34  1  0  0  0
 34  1  1  0  0  0
  1  2  1  0  0  0
  2  3  1  0  0  0
  3  4  1  0  0  0
  4  5  1  0  0  0
  5  6  1  0  0  0
  5  7  1  0  0  0
  7 36  1  0  0  0
 36 37  1  0  0  0
  5  8  1  0  0  0
  8  9  1  0  0  0
  9 10  2  0  0  0
 10 11  1  0  0  0
 11 12  2  0  0  0
 12 13  1  0  0  0
 13 14  2  0  0  0
 14 15  1  0  0  0
 15 16  2  0  0  0
 16 17  1  0  0  0
 17 18  1  0  0  0
 18 19  1  0  0  0
 19 20  2  0  0  0
 19 21  1  0  0  0
 21 22  2  0  0  0
 22 23  1  0  0  0
 23 24  2  0  0  0
 24 25  1  0  0  0
 25 26  2  0  0  0
 26 27  1  0  0  0
 27 28  2  0  0  0
 28 29  1  0  0  0
 29 30  1  0  0  0
 30 31  2  0  0  0
  7  1  1  0  0  0
 31  8  1  0  0  0
 29  3  1  0  0  0
 14  9  1  0  0  0
 31 15  1  0  0  0
 21 16  1  0  0  0
 30 22  1  0  0  0
 28 23  1  0  0  0
 34 35  1  0  0  0
 18 32  1  0  0  0
M  END
> <minimizedAffinity>
-5.34709

> <CNNscore>
0.2179432213

> <CNNaffinity>
5.4060468674

> <CNN_VS>
1.1782112122

> <CNNaffinity_variance>
0.1768932641

$$$$
[H]c1c([H])c([H])c2c(c1[H])c1c3c(c4c5c([H])c([H])c([H])c([H])c5n5c4c1n2[C@@]1(C([H])([H])[H])O[C@]5([H])C([H])([H])[C@]([H])(N([H])C([H])([H])[H])[C@@]1([H])OC([H])([H])[H])C(=O)N([H])C3([H])[H]


 37 44  0  0  0  0  0  0  0  0999 V2000
   -4.6395   25.2589  -24.8615 C   0  0  0  0  0  0  0  0  0  0  0  0
   -5.6932   24.5729  -23.9910 C   0  0  0  0  0  0  0  0  0  0  0  0
   -5.7204   23.1004  -24.2494 C   0  0  0  0  0  0  0  0  0  0  0  0
   -5.4351   22.6634  -25.4475 O   0  0  0  0  0  0  0  0  0  0  0  0
   -4.5475   23.2965  -26.3043 C   0  0  0  0  0  0  0  0  0  0  0  0
   -4.8859   22.6610  -27.6417 C   0  0  0  0  0  0  0  0  0  0  0  0
   -4.8469   24.7614  -26.2460 C   0  0  0  0  0  0  0  0  0  0  0  0
   -3.1983   22.9166  -25.8777 N   0  0  0  0  0  0  0  0  0  0  0  0
   -2.0924   22.8883  -26.6435 C   0  0  0  0  0  0  0  0  0  0  0  0
   -1.8463   23.2128  -27.9363 C   0  0  0  0  0  0  0  0  0  0  0  0
   -0.5925   23.0911  -28.4981 C   0  0  0  0  0  0  0  0  0  0  0  0
    0.4946   22.6279  -27.7698 C   0  0  0  0  0  0  0  0  0  0  0  0
    0.2596   22.2948  -26.4547 C   0  0  0  0  0  0  0  0  0  0  0  0
   -0.9920   22.4211  -25.9108 C   0  0  0  0  0  0  0  0  0  0  0  0
   -1.4532   22.1603  -24.6573 C   0  0  0  0  0  0  0  0  0  0  0  0
   -0.8328   21.6791  -23.5197 C   0  0  0  0  0  0  0  0  0  0  0  0
    0.5806   21.2839  -23.2807 C   0  0  0  0  0  0  0  0  0  0  0  0
    0.6638   20.8542  -21.9256 N   0  0  0  0  0  0  0  0  0  0  0  0
   -0.6232   20.9747  -21.3223 C   0  0  0  0  0  0  0  0  0  0  0  0
   -0.8163   20.6689  -20.1458 O   0  0  0  0  0  0  0  0  0  0  0  0
   -1.5353   21.4858  -22.3215 C   0  0  0  0  0  0  0  0  0  0  0  0
   -2.8799   21.8055  -22.3457 C   0  0  0  0  0  0  0  0  0  0  0  0
   -3.8917   21.7752  -21.3981 C   0  0  0  0  0  0  0  0  0  0  0  0
   -3.9245   21.4017  -20.0986 C   0  0  0  0  0  0  0  0  0  0  0  0
   -5.1343   21.4886  -19.3883 C   0  0  0  0  0  0  0  0  0  0  0  0
   -6.2605   21.9465  -20.0113 C   0  0  0  0  0  0  0  0  0  0  0  0
   -6.2597   22.3339  -21.3319 C   0  0  0  0  0  0  0  0  0  0  0  0
   -5.0647   22.2400  -22.0059 C   0  0  0  0  0  0  0  0  0  0  0  0
   -4.7772   22.5380  -23.2644 N   0  0  0  0  0  0  0  0  0  0  0  0
   -3.4818   22.2887  -23.5035 C   0  0  0  0  0  0  0  0  0  0  0  0
   -2.7716   22.4700  -24.6782 C   0  0  0  0  0  0  0  0  0  0  0  0
    1.5420   20.5099  -21.4708 H   0  0  0  0  0  0  0  0  0  0  0  0
   -5.7611   27.4062  -25.0955 C   0  0  0  0  0  0  0  0  0  0  0  0
   -4.6410   26.6604  -24.6653 N   0  0  0  0  0  0  0  0  0  0  0  0
   -4.2832   26.9883  -23.7599 H   0  0  0  0  0  0  0  0  0  0  0  0
   -4.1333   25.5394  -27.1110 O   0  0  0  0  0  0  0  0  0  0  0  0
   -4.6538   25.8493  -28.3325 C   0  0  0  0  0  0  0  0  0  0  0  0
 33 34  1  0  0  0
 34  1  1  0  0  0
  1  2  1  0  0  0
  2  3  1  0  0  0
  3  4  1  0  0  0
  4  5  1  0  0  0
  5  6  1  0  0  0
  5  7  1  0  0  0
  7 36  1  0  0  0
 36 37  1  0  0  0
  5  8  1  0  0  0
  8  9  1  0  0  0
  9 10  2  0  0  0
 10 11  1  0  0  0
 11 12  2  0  0  0
 12 13  1  0  0  0
 13 14  2  0  0  0
 14 15  1  0  0  0
 15 16  2  0  0  0
 16 17  1  0  0  0
 17 18  1  0  0  0
 18 19  1  0  0  0
 19 20  2  0  0  0
 19 21  1  0  0  0
 21 22  2  0  0  0
 22 23  1  0  0  0
 23 24  2  0  0  0
 24 25  1  0  0  0
 25 26  2  0  0  0
 26 27  1  0  0  0
 27 28  2  0  0  0
 28 29  1  0  0  0
 29 30  1  0  0  0
 30 31  2  0  0  0
  7  1  1  0  0  0
 31  8  1  0  0  0
 29  3  1  0  0  0
 14  9  1  0  0  0
 31 15  1  0  0  0
 21 16  1  0  0  0
 30 22  1  0  0  0
 28 23  1  0  0  0
 34 35  1  0  0  0
 18 32  1  0  0  0
M  END
> <minimizedAffinity>
-10.26792

> <CNNscore>
0.1833860129

> <CNNaffinity>
6.2541403770

> <CNN_VS>
1.1469218731

> <CNNaffinity_variance>
0.5021256208

$$$$
[H]c1nc(C([H])([H])[H])c(-c2c([H])c(N3C([H])([H])C([H])([H])OC([H])([H])C3([H])[H])nc(N3C([H])([H])C([H])([H])OC([H])([H])C3([H])[H])c2[H])c([H])c1N([H])C(=O)c1c([H])c([H])c([H])c(C(F)(F)F)c1[H]


 39 43  0  0  0  0  0  0  0  0999 V2000
   -0.7653   22.7661  -27.3534 C   0  0  0  0  0  0  0  0  0  0  0  0
   -0.6425   22.3531  -25.9312 C   0  0  0  0  0  0  0  0  0  0  0  0
    0.5329   22.0064  -25.4063 N   0  0  0  0  0  0  0  0  0  0  0  0
    0.7026   21.6222  -24.1400 C   0  0  0  0  0  0  0  0  0  0  0  0
   -0.4098   21.5856  -23.3380 C   0  0  0  0  0  0  0  0  0  0  0  0
   -1.6676   21.9394  -23.8508 C   0  0  0  0  0  0  0  0  0  0  0  0
   -1.8102   22.3307  -25.1546 C   0  0  0  0  0  0  0  0  0  0  0  0
   -3.0556   22.7839  -25.7697 C   0  0  0  0  0  0  0  0  0  0  0  0
   -4.1878   22.9903  -24.9505 C   0  0  0  0  0  0  0  0  0  0  0  0
   -5.3755   23.4736  -25.4570 C   0  0  0  0  0  0  0  0  0  0  0  0
   -5.4378   23.7524  -26.7673 N   0  0  0  0  0  0  0  0  0  0  0  0
   -4.3982   23.5786  -27.6104 C   0  0  0  0  0  0  0  0  0  0  0  0
   -3.2042   23.0905  -27.1019 C   0  0  0  0  0  0  0  0  0  0  0  0
   -4.5582   23.9391  -28.9688 N   0  0  0  0  0  0  0  0  0  0  0  0
   -5.5168   23.2700  -29.8522 C   0  0  0  0  0  0  0  0  0  0  0  0
   -5.7788   24.1804  -31.0293 C   0  0  0  0  0  0  0  0  0  0  0  0
   -5.8371   25.5131  -30.7138 O   0  0  0  0  0  0  0  0  0  0  0  0
   -4.7201   26.0258  -30.1057 C   0  0  0  0  0  0  0  0  0  0  0  0
   -3.7651   24.9936  -29.5820 C   0  0  0  0  0  0  0  0  0  0  0  0
   -6.4821   23.6073  -24.5752 N   0  0  0  0  0  0  0  0  0  0  0  0
   -6.6066   22.7790  -23.3843 C   0  0  0  0  0  0  0  0  0  0  0  0
   -6.8351   23.6967  -22.2063 C   0  0  0  0  0  0  0  0  0  0  0  0
   -8.0184   24.3777  -22.4278 O   0  0  0  0  0  0  0  0  0  0  0  0
   -7.9694   25.2475  -23.5077 C   0  0  0  0  0  0  0  0  0  0  0  0
   -7.5339   24.5853  -24.7987 C   0  0  0  0  0  0  0  0  0  0  0  0
   -0.2851   21.2787  -21.9522 N   0  0  0  0  0  0  0  0  0  0  0  0
   -0.6454   22.2356  -20.9685 C   0  0  0  0  0  0  0  0  0  0  0  0
   -1.0844   23.3626  -21.3303 O   0  0  0  0  0  0  0  0  0  0  0  0
    0.0723   20.3451  -21.6710 H   0  0  0  0  0  0  0  0  0  0  0  0
   -0.5513   22.0171  -19.5306 C   0  0  0  0  0  0  0  0  0  0  0  0
   -1.6494   21.5259  -18.8301 C   0  0  0  0  0  0  0  0  0  0  0  0
   -1.5677   21.3375  -17.4553 C   0  0  0  0  0  0  0  0  0  0  0  0
   -0.4247   21.6244  -16.7580 C   0  0  0  0  0  0  0  0  0  0  0  0
    0.6686   22.1097  -17.4331 C   0  0  0  0  0  0  0  0  0  0  0  0
    0.5785   22.2934  -18.8017 C   0  0  0  0  0  0  0  0  0  0  0  0
    1.9051   22.4211  -16.6751 C   0  0  0  0  0  0  0  0  0  0  0  0
    2.4537   23.5824  -17.1871 F   0  0  0  0  0  0  0  0  0  0  0  0
    1.5447   22.5835  -15.3444 F   0  0  0  0  0  0  0  0  0  0  0  0
    2.8250   21.4138  -16.7304 F   0  0  0  0  0  0  0  0  0  0  0  0
  1  2  1  0  0  0
  2  3  2  0  0  0
  3  4  1  0  0  0
  4  5  2  0  0  0
  5 26  1  0  0  0
 26 27  1  0  0  0
 27 28  2  0  0  0
 27 30  1  0  0  0
 30 31  2  0  0  0
 31 32  1  0  0  0
 32 33  2  0  0  0
 33 34  1  0  0  0
 34 35  2  0  0  0
 34 36  1  0  0  0
 36 37  1  0  0  0
 36 38  1  0  0  0
 36 39  1  0  0  0
  5  6  1  0  0  0
  6  7  2  0  0  0
  7  8  1  0  0  0
  8  9  2  0  0  0
  9 10  1  0  0  0
 10 11  2  0  0  0
 11 12  1  0  0  0
 12 13  2  0  0  0
 12 14  1  0  0  0
 14 15  1  0  0  0
 15 16  1  0  0  0
 16 17  1  0  0  0
 17 18  1  0  0  0
 18 19  1  0  0  0
 10 20  1  0  0  0
 20 21  1  0  0  0
 21 22  1  0  0  0
 22 23  1  0  0  0
 23 24  1  0  0  0
 24 25  1  0  0  0
  7  2  1  0  0  0
 13  8  1  0  0  0
 19 14  1  0  0  0
 25 20  1  0  0  0
 35 30  1  0  0  0
 26 29  1  0  0  0
M  END
> <minimizedAffinity>
-9.97964

> <CNNscore>
0.2957795262

> <CNNaffinity>
7.1664543152

> <CNN_VS>
2.1196904182

> <CNNaffinity_variance>
0.1314967573

$$$$
[H]c1nc(C([H])([H])[H])c(-c2c([H])c(N3C([H])([H])C([H])([H])OC([H])([H])C3([H])[H])nc(N3C([H])([H])C([H])([H])OC([H])([H])C3([H])[H])c2[H])c([H])c1N([H])C(=O)c1c([H])c([H])c([H])c(C(F)(F)F)c1[H]


 39 43  0  0  0  0  0  0  0  0999 V2000
   -8.0988   20.7148  -18.9868 C   0  0  0  0  0  0  0  0  0  0  0  0
   -7.3101   21.1788  -20.1577 C   0  0  0  0  0  0  0  0  0  0  0  0
   -7.8911   21.4401  -21.3287 N   0  0  0  0  0  0  0  0  0  0  0  0
   -7.2344   21.8530  -22.4141 C   0  0  0  0  0  0  0  0  0  0  0  0
   -5.8765   22.0151  -22.3055 C   0  0  0  0  0  0  0  0  0  0  0  0
   -5.2237   21.7481  -21.0919 C   0  0  0  0  0  0  0  0  0  0  0  0
   -5.9249   21.3264  -19.9947 C   0  0  0  0  0  0  0  0  0  0  0  0
   -5.3576   21.0873  -18.6697 C   0  0  0  0  0  0  0  0  0  0  0  0
   -4.6527   19.8860  -18.4338 C   0  0  0  0  0  0  0  0  0  0  0  0
   -4.0422   19.6244  -17.2258 C   0  0  0  0  0  0  0  0  0  0  0  0
   -4.1289   20.5500  -16.2593 N   0  0  0  0  0  0  0  0  0  0  0  0
   -4.7867   21.7188  -16.4119 C   0  0  0  0  0  0  0  0  0  0  0  0
   -5.4027   21.9814  -17.6260 C   0  0  0  0  0  0  0  0  0  0  0  0
   -4.7862   22.6429  -15.3410 N   0  0  0  0  0  0  0  0  0  0  0  0
   -5.7453   23.7472  -15.2550 C   0  0  0  0  0  0  0  0  0  0  0  0
   -5.7906   24.2133  -13.8184 C   0  0  0  0  0  0  0  0  0  0  0  0
   -5.7050   23.2064  -12.8923 O   0  0  0  0  0  0  0  0  0  0  0  0
   -4.5862   22.4181  -12.9783 C   0  0  0  0  0  0  0  0  0  0  0  0
   -3.8171   22.5634  -14.2586 C   0  0  0  0  0  0  0  0  0  0  0  0
   -3.3939   18.3714  -17.0530 N   0  0  0  0  0  0  0  0  0  0  0  0
   -2.1318   18.0735  -17.7150 C   0  0  0  0  0  0  0  0  0  0  0  0
   -1.1613   17.5920  -16.6621 C   0  0  0  0  0  0  0  0  0  0  0  0
   -1.6823   16.4370  -16.1076 O   0  0  0  0  0  0  0  0  0  0  0  0
   -2.8556   16.6386  -15.3948 C   0  0  0  0  0  0  0  0  0  0  0  0
   -3.9386   17.3316  -16.1958 C   0  0  0  0  0  0  0  0  0  0  0  0
   -5.1281   22.5458  -23.3956 N   0  0  0  0  0  0  0  0  0  0  0  0
   -4.5294   21.6792  -24.3464 C   0  0  0  0  0  0  0  0  0  0  0  0
   -4.6696   20.4306  -24.2229 O   0  0  0  0  0  0  0  0  0  0  0  0
   -5.0269   23.5753  -23.4862 H   0  0  0  0  0  0  0  0  0  0  0  0
   -3.7451   22.1250  -25.4911 C   0  0  0  0  0  0  0  0  0  0  0  0
   -2.3940   21.8007  -25.5750 C   0  0  0  0  0  0  0  0  0  0  0  0
   -1.6400   22.2435  -26.6556 C   0  0  0  0  0  0  0  0  0  0  0  0
   -2.1922   23.0001  -27.6544 C   0  0  0  0  0  0  0  0  0  0  0  0
   -3.5241   23.3294  -27.5879 C   0  0  0  0  0  0  0  0  0  0  0  0
   -4.2671   22.8836  -26.5090 C   0  0  0  0  0  0  0  0  0  0  0  0
   -4.1194   24.1504  -28.6704 C   0  0  0  0  0  0  0  0  0  0  0  0
   -3.1001   24.6152  -29.4807 F   0  0  0  0  0  0  0  0  0  0  0  0
   -4.9878   23.3322  -29.3802 F   0  0  0  0  0  0  0  0  0  0  0  0
   -4.8460   25.2036  -28.1944 F   0  0  0  0  0  0  0  0  0  0  0  0
  1  2  1  0  0  0
  2  3  2  0  0  0
  3  4  1  0  0  0
  4  5  2  0  0  0
  5 26  1  0  0  0
 26 27  1  0  0  0
 27 28  2  0  0  0
 27 30  1  0  0  0
 30 31  2  0  0  0
 31 32  1  0  0  0
 32 33  2  0  0  0
 33 34  1  0  0  0
 34 35  2  0  0  0
 34 36  1  0  0  0
 36 37  1  0  0  0
 36 38  1  0  0  0
 36 39  1  0  0  0
  5  6  1  0  0  0
  6  7  2  0  0  0
  7  8  1  0  0  0
  8  9  2  0  0  0
  9 10  1  0  0  0
 10 11  2  0  0  0
 11 12  1  0  0  0
 12 13  2  0  0  0
 12 14  1  0  0  0
 14 15  1  0  0  0
 15 16  1  0  0  0
 16 17  1  0  0  0
 17 18  1  0  0  0
 18 19  1  0  0  0
 10 20  1  0  0  0
 20 21  1  0  0  0
 21 22  1  0  0  0
 22 23  1  0  0  0
 23 24  1  0  0  0
 24 25  1  0  0  0
  7  2  1  0  0  0
 13  8  1  0  0  0
 19 14  1  0  0  0
 25 20  1  0  0  0
 35 30  1  0  0  0
 26 29  1  0  0  0
M  END
> <minimizedAffinity>
-7.72706

> <CNNscore>
0.2075900882

> <CNNaffinity>
6.0094079971

> <CNN_VS>
1.2474935055

> <CNNaffinity_variance>
0.0383903012

$$$$
[H]c1nc(C([H])([H])[H])c(-c2c([H])c(N3C([H])([H])C([H])([H])OC([H])([H])C3([H])[H])nc(N3C([H])([H])C([H])([H])OC([H])([H])C3([H])[H])c2[H])c([H])c1N([H])C(=O)c1c([H])c([H])c([H])c(C(F)(F)F)c1[H]


 39 43  0  0  0  0  0  0  0  0999 V2000
    2.6121   21.1020  -23.2341 C   0  0  0  0  0  0  0  0  0  0  0  0
    1.2289   21.4072  -23.6834 C   0  0  0  0  0  0  0  0  0  0  0  0
    0.9728   21.7947  -24.9330 N   0  0  0  0  0  0  0  0  0  0  0  0
   -0.2457   22.0872  -25.3908 C   0  0  0  0  0  0  0  0  0  0  0  0
   -1.2924   21.9786  -24.5106 C   0  0  0  0  0  0  0  0  0  0  0  0
   -1.0672   21.5771  -23.1846 C   0  0  0  0  0  0  0  0  0  0  0  0
    0.1948   21.2825  -22.7442 C   0  0  0  0  0  0  0  0  0  0  0  0
    0.5313   20.7912  -21.4100 C   0  0  0  0  0  0  0  0  0  0  0  0
    0.0474   19.5277  -21.0039 C   0  0  0  0  0  0  0  0  0  0  0  0
    0.3764   18.9794  -19.7826 C   0  0  0  0  0  0  0  0  0  0  0  0
    1.1822   19.6797  -18.9710 N   0  0  0  0  0  0  0  0  0  0  0  0
    1.6805   20.8927  -19.2907 C   0  0  0  0  0  0  0  0  0  0  0  0
    1.3481   21.4454  -20.5181 C   0  0  0  0  0  0  0  0  0  0  0  0
    2.5522   21.5307  -18.3776 N   0  0  0  0  0  0  0  0  0  0  0  0
    3.5480   22.5188  -18.8007 C   0  0  0  0  0  0  0  0  0  0  0  0
    3.9439   23.3291  -17.5883 C   0  0  0  0  0  0  0  0  0  0  0  0
    2.9114   23.6086  -16.7310 O   0  0  0  0  0  0  0  0  0  0  0  0
    2.2460   22.5184  -16.2319 C   0  0  0  0  0  0  0  0  0  0  0  0
    2.5249   21.2327  -16.9538 C   0  0  0  0  0  0  0  0  0  0  0  0
   -0.1909   17.7250  -19.4295 N   0  0  0  0  0  0  0  0  0  0  0  0
   -0.0279   16.5536  -20.2788 C   0  0  0  0  0  0  0  0  0  0  0  0
    0.4996   15.4299  -19.4179 C   0  0  0  0  0  0  0  0  0  0  0  0
   -0.4443   15.1710  -18.4406 O   0  0  0  0  0  0  0  0  0  0  0  0
   -0.6166   16.2120  -17.5397 C   0  0  0  0  0  0  0  0  0  0  0  0
   -0.9425   17.5358  -18.1999 C   0  0  0  0  0  0  0  0  0  0  0  0
   -2.6298   22.1814  -24.9582 N   0  0  0  0  0  0  0  0  0  0  0  0
   -3.3756   23.3024  -24.5110 C   0  0  0  0  0  0  0  0  0  0  0  0
   -2.8426   24.1253  -23.7155 O   0  0  0  0  0  0  0  0  0  0  0  0
   -3.0518   21.4985  -25.6170 H   0  0  0  0  0  0  0  0  0  0  0  0
   -4.7471   23.5939  -24.9090 C   0  0  0  0  0  0  0  0  0  0  0  0
   -5.1273   23.4556  -26.2409 C   0  0  0  0  0  0  0  0  0  0  0  0
   -6.4294   23.7539  -26.6253 C   0  0  0  0  0  0  0  0  0  0  0  0
   -7.3634   24.1863  -25.7221 C   0  0  0  0  0  0  0  0  0  0  0  0
   -7.0057   24.3284  -24.4036 C   0  0  0  0  0  0  0  0  0  0  0  0
   -5.7075   24.0283  -24.0298 C   0  0  0  0  0  0  0  0  0  0  0  0
   -8.0190   24.7983  -23.4275 C   0  0  0  0  0  0  0  0  0  0  0  0
   -8.1266   23.8587  -22.4190 F   0  0  0  0  0  0  0  0  0  0  0  0
   -7.5793   26.0173  -22.9293 F   0  0  0  0  0  0  0  0  0  0  0  0
   -9.2425   25.0056  -23.9964 F   0  0  0  0  0  0  0  0  0  0  0  0
  1  2  1  0  0  0
  2  3  2  0  0  0
  3  4  1  0  0  0
  4  5  2  0  0  0
  5 26  1  0  0  0
 26 27  1  0  0  0
 27 28  2  0  0  0
 27 30  1  0  0  0
 30 31  2  0  0  0
 31 32  1  0  0  0
 32 33  2  0  0  0
 33 34  1  0  0  0
 34 35  2  0  0  0
 34 36  1  0  0  0
 36 37  1  0  0  0
 36 38  1  0  0  0
 36 39  1  0  0  0
  5  6  1  0  0  0
  6  7  2  0  0  0
  7  8  1  0  0  0
  8  9  2  0  0  0
  9 10  1  0  0  0
 10 11  2  0  0  0
 11 12  1  0  0  0
 12 13  2  0  0  0
 12 14  1  0  0  0
 14 15  1  0  0  0
 15 16  1  0  0  0
 16 17  1  0  0  0
 17 18  1  0  0  0
 18 19  1  0  0  0
 10 20  1  0  0  0
 20 21  1  0  0  0
 21 22  1  0  0  0
 22 23  1  0  0  0
 23 24  1  0  0  0
 24 25  1  0  0  0
  7  2  1  0  0  0
 13  8  1  0  0  0
 19 14  1  0  0  0
 25 20  1  0  0  0
 35 30  1  0  0  0
 26 29  1  0  0  0
M  END
> <minimizedAffinity>
-8.16816

> <CNNscore>
0.1890412122

> <CNNaffinity>
6.1334781647

> <CNN_VS>
1.1594800949

> <CNNaffinity_variance>
0.0909931064

$$$$
[H]c1nc(C([H])([H])[H])c(-c2c([H])c(N3C([H])([H])C([H])([H])OC([H])([H])C3([H])[H])nc(N3C([H])([H])C([H])([H])OC([H])([H])C3([H])[H])c2[H])c([H])c1N([H])C(=O)c1c([H])c([H])c([H])c(C(F)(F)F)c1[H]


 39 43  0  0  0  0  0  0  0  0999 V2000
   -7.4072   21.7474  -18.6901 C   0  0  0  0  0  0  0  0  0  0  0  0
   -6.6479   22.0707  -19.9259 C   0  0  0  0  0  0  0  0  0  0  0  0
   -7.1929   22.7854  -20.9105 N   0  0  0  0  0  0  0  0  0  0  0  0
   -6.5626   23.1010  -22.0432 C   0  0  0  0  0  0  0  0  0  0  0  0
   -5.2734   22.6561  -22.1920 C   0  0  0  0  0  0  0  0  0  0  0  0
   -4.6622   21.8977  -21.1815 C   0  0  0  0  0  0  0  0  0  0  0  0
   -5.3342   21.5906  -20.0294 C   0  0  0  0  0  0  0  0  0  0  0  0
   -4.7723   20.8694  -18.8897 C   0  0  0  0  0  0  0  0  0  0  0  0
   -5.0996   19.5065  -18.7136 C   0  0  0  0  0  0  0  0  0  0  0  0
   -4.5575   18.7526  -17.6946 C   0  0  0  0  0  0  0  0  0  0  0  0
   -3.6945   19.3471  -16.8578 N   0  0  0  0  0  0  0  0  0  0  0  0
   -3.3368   20.6443  -16.9633 C   0  0  0  0  0  0  0  0  0  0  0  0
   -3.8835   21.4035  -17.9867 C   0  0  0  0  0  0  0  0  0  0  0  0
   -2.3896   21.1638  -16.0503 N   0  0  0  0  0  0  0  0  0  0  0  0
   -2.7402   21.5258  -14.6744 C   0  0  0  0  0  0  0  0  0  0  0  0
   -1.4649   21.5685  -13.8651 C   0  0  0  0  0  0  0  0  0  0  0  0
   -0.5558   20.5945  -14.1872 O   0  0  0  0  0  0  0  0  0  0  0  0
   -0.1488   20.5758  -15.4966 C   0  0  0  0  0  0  0  0  0  0  0  0
   -1.0021   21.3870  -16.4271 C   0  0  0  0  0  0  0  0  0  0  0  0
   -4.9754   17.4012  -17.5572 N   0  0  0  0  0  0  0  0  0  0  0  0
   -4.6918   16.4118  -18.5871 C   0  0  0  0  0  0  0  0  0  0  0  0
   -4.0306   15.2285  -17.9201 C   0  0  0  0  0  0  0  0  0  0  0  0
   -4.9272   14.7071  -17.0051 O   0  0  0  0  0  0  0  0  0  0  0  0
   -5.2046   15.5592  -15.9459 C   0  0  0  0  0  0  0  0  0  0  0  0
   -5.6858   16.9282  -16.3806 C   0  0  0  0  0  0  0  0  0  0  0  0
   -4.5100   23.0387  -23.3327 N   0  0  0  0  0  0  0  0  0  0  0  0
   -4.2818   22.1173  -24.3873 C   0  0  0  0  0  0  0  0  0  0  0  0
   -4.7664   20.9540  -24.3109 O   0  0  0  0  0  0  0  0  0  0  0  0
   -4.1231   24.0010  -23.3829 H   0  0  0  0  0  0  0  0  0  0  0  0
   -3.5140   22.4129  -25.5903 C   0  0  0  0  0  0  0  0  0  0  0  0
   -4.1708   22.7994  -26.7552 C   0  0  0  0  0  0  0  0  0  0  0  0
   -3.4410   23.0607  -27.9091 C   0  0  0  0  0  0  0  0  0  0  0  0
   -2.0768   22.9477  -27.9367 C   0  0  0  0  0  0  0  0  0  0  0  0
   -1.4121   22.5676  -26.7963 C   0  0  0  0  0  0  0  0  0  0  0  0
   -2.1466   22.3102  -25.6520 C   0  0  0  0  0  0  0  0  0  0  0  0
    0.0658   22.4445  -26.8293 C   0  0  0  0  0  0  0  0  0  0  0  0
    0.4808   21.8199  -25.6678 F   0  0  0  0  0  0  0  0  0  0  0  0
    0.3931   21.6889  -27.9470 F   0  0  0  0  0  0  0  0  0  0  0  0
    0.6925   23.6511  -26.9527 F   0  0  0  0  0  0  0  0  0  0  0  0
  1  2  1  0  0  0
  2  3  2  0  0  0
  3  4  1  0  0  0
  4  5  2  0  0  0
  5 26  1  0  0  0
 26 27  1  0  0  0
 27 28  2  0  0  0
 27 30  1  0  0  0
 30 31  2  0  0  0
 31 32  1  0  0  0
 32 33  2  0  0  0
 33 34  1  0  0  0
 34 35  2  0  0  0
 34 36  1  0  0  0
 36 37  1  0  0  0
 36 38  1  0  0  0
 36 39  1  0  0  0
  5  6  1  0  0  0
  6  7  2  0  0  0
  7  8  1  0  0  0
  8  9  2  0  0  0
  9 10  1  0  0  0
 10 11  2  0  0  0
 11 12  1  0  0  0
 12 13  2  0  0  0
 12 14  1  0  0  0
 14 15  1  0  0  0
 15 16  1  0  0  0
 16 17  1  0  0  0
 17 18  1  0  0  0
 18 19  1  0  0  0
 10 20  1  0  0  0
 20 21  1  0  0  0
 21 22  1  0  0  0
 22 23  1  0  0  0
 23 24  1  0  0  0
 24 25  1  0  0  0
  7  2  1  0  0  0
 13  8  1  0  0  0
 19 14  1  0  0  0
 25 20  1  0  0  0
 35 30  1  0  0  0
 26 29  1  0  0  0
M  END
> <minimizedAffinity>
-7.57201

> <CNNscore>
0.1565191597

> <CNNaffinity>
5.9470009804

> <CNN_VS>
0.9308195710

> <CNNaffinity_variance>
0.0813320130

$$$$
[H]c1nc(C([H])([H])[H])c(-c2c([H])c(N3C([H])([H])C([H])([H])OC([H])([H])C3([H])[H])nc(N3C([H])([H])C([H])([H])OC([H])([H])C3([H])[H])c2[H])c([H])c1N([H])C(=O)c1c([H])c([H])c([H])c(C(F)(F)F)c1[H]


 39 43  0  0  0  0  0  0  0  0999 V2000
   -7.0479   21.0333  -18.9524 C   0  0  0  0  0  0  0  0  0  0  0  0
   -6.4515   21.4946  -20.2329 C   0  0  0  0  0  0  0  0  0  0  0  0
   -7.1367   21.4501  -21.3756 N   0  0  0  0  0  0  0  0  0  0  0  0
   -6.6520   21.8443  -22.5544 C   0  0  0  0  0  0  0  0  0  0  0  0
   -5.3667   22.3234  -22.5789 C   0  0  0  0  0  0  0  0  0  0  0  0
   -4.6084   22.3846  -21.3994 C   0  0  0  0  0  0  0  0  0  0  0  0
   -5.1336   21.9736  -20.2042 C   0  0  0  0  0  0  0  0  0  0  0  0
   -4.4591   22.0578  -18.9109 C   0  0  0  0  0  0  0  0  0  0  0  0
   -5.1809   22.5302  -17.7922 C   0  0  0  0  0  0  0  0  0  0  0  0
   -4.6231   22.5786  -16.5324 C   0  0  0  0  0  0  0  0  0  0  0  0
   -3.3583   22.1584  -16.3838 N   0  0  0  0  0  0  0  0  0  0  0  0
   -2.6077   21.6967  -17.4062 C   0  0  0  0  0  0  0  0  0  0  0  0
   -3.1675   21.6499  -18.6738 C   0  0  0  0  0  0  0  0  0  0  0  0
   -1.2959   21.2429  -17.1343 N   0  0  0  0  0  0  0  0  0  0  0  0
   -0.2196   21.3089  -18.1265 C   0  0  0  0  0  0  0  0  0  0  0  0
    1.0973   21.2171  -17.3913 C   0  0  0  0  0  0  0  0  0  0  0  0
    1.1256   21.8821  -16.1930 O   0  0  0  0  0  0  0  0  0  0  0  0
    0.1779   21.4959  -15.2803 C   0  0  0  0  0  0  0  0  0  0  0  0
   -0.9343   20.6644  -15.8492 C   0  0  0  0  0  0  0  0  0  0  0  0
   -5.4003   23.1123  -15.4688 N   0  0  0  0  0  0  0  0  0  0  0  0
   -5.4249   22.4808  -14.1572 C   0  0  0  0  0  0  0  0  0  0  0  0
   -5.1090   23.5414  -13.1288 C   0  0  0  0  0  0  0  0  0  0  0  0
   -6.0983   24.5053  -13.2022 O   0  0  0  0  0  0  0  0  0  0  0  0
   -6.1056   25.2093  -14.3978 C   0  0  0  0  0  0  0  0  0  0  0  0
   -6.1922   24.3215  -15.6222 C   0  0  0  0  0  0  0  0  0  0  0  0
   -4.8210   22.8512  -23.7847 N   0  0  0  0  0  0  0  0  0  0  0  0
   -4.1073   22.0119  -24.6788 C   0  0  0  0  0  0  0  0  0  0  0  0
   -3.9635   20.7888  -24.4009 O   0  0  0  0  0  0  0  0  0  0  0  0
   -4.9529   23.8581  -24.0015 H   0  0  0  0  0  0  0  0  0  0  0  0
   -3.5114   22.4577  -25.9320 C   0  0  0  0  0  0  0  0  0  0  0  0
   -4.3263   22.9134  -26.9644 C   0  0  0  0  0  0  0  0  0  0  0  0
   -3.7604   23.3186  -28.1677 C   0  0  0  0  0  0  0  0  0  0  0  0
   -2.4071   23.2826  -28.3727 C   0  0  0  0  0  0  0  0  0  0  0  0
   -1.5878   22.8360  -27.3647 C   0  0  0  0  0  0  0  0  0  0  0  0
   -2.1597   22.4354  -26.1700 C   0  0  0  0  0  0  0  0  0  0  0  0
   -0.1221   22.7967  -27.5900 C   0  0  0  0  0  0  0  0  0  0  0  0
    0.2876   21.4762  -27.5879 F   0  0  0  0  0  0  0  0  0  0  0  0
    0.1237   23.3938  -28.8189 F   0  0  0  0  0  0  0  0  0  0  0  0
    0.5749   23.4967  -26.6477 F   0  0  0  0  0  0  0  0  0  0  0  0
  1  2  1  0  0  0
  2  3  2  0  0  0
  3  4  1  0  0  0
  4  5  2  0  0  0
  5 26  1  0  0  0
 26 27  1  0  0  0
 27 28  2  0  0  0
 27 30  1  0  0  0
 30 31  2  0  0  0
 31 32  1  0  0  0
 32 33  2  0  0  0
 33 34  1  0  0  0
 34 35  2  0  0  0
 34 36  1  0  0  0
 36 37  1  0  0  0
 36 38  1  0  0  0
 36 39  1  0  0  0
  5  6  1  0  0  0
  6  7  2  0  0  0
  7  8  1  0  0  0
  8  9  2  0  0  0
  9 10  1  0  0  0
 10 11  2  0  0  0
 11 12  1  0  0  0
 12 13  2  0  0  0
 12 14  1  0  0  0
 14 15  1  0  0  0
 15 16  1  0  0  0
 16 17  1  0  0  0
 17 18  1  0  0  0
 18 19  1  0  0  0
 10 20  1  0  0  0
 20 21  1  0  0  0
 21 22  1  0  0  0
 22 23  1  0  0  0
 23 24  1  0  0  0
 24 25  1  0  0  0
  7  2  1  0  0  0
 13  8  1  0  0  0
 19 14  1  0  0  0
 25 20  1  0  0  0
 35 30  1  0  0  0
 26 29  1  0  0  0
M  END
> <minimizedAffinity>
-8.40680

> <CNNscore>
0.1501249522

> <CNNaffinity>
5.8832964897

> <CNN_VS>
0.8832296133

> <CNNaffinity_variance>
0.0592456982

$$$$
[H]c1nc(C([H])([H])[H])c(-c2c([H])c(N3C([H])([H])C([H])([H])OC([H])([H])C3([H])[H])nc(N3C([H])([H])C([H])([H])OC([H])([H])C3([H])[H])c2[H])c([H])c1N([H])C(=O)c1c([H])c([H])c([H])c(C(F)(F)F)c1[H]


 39 43  0  0  0  0  0  0  0  0999 V2000
   -8.7495   22.6821  -19.7123 C   0  0  0  0  0  0  0  0  0  0  0  0
   -7.7818   22.8849  -20.8216 C   0  0  0  0  0  0  0  0  0  0  0  0
   -8.0772   23.6516  -21.8714 N   0  0  0  0  0  0  0  0  0  0  0  0
   -7.2521   23.8652  -22.8977 C   0  0  0  0  0  0  0  0  0  0  0  0
   -6.0256   23.2518  -22.8584 C   0  0  0  0  0  0  0  0  0  0  0  0
   -5.6746   22.4334  -21.7734 C   0  0  0  0  0  0  0  0  0  0  0  0
   -6.5425   22.2339  -20.7341 C   0  0  0  0  0  0  0  0  0  0  0  0
   -6.2539   21.4609  -19.5284 C   0  0  0  0  0  0  0  0  0  0  0  0
   -5.9645   22.1475  -18.3282 C   0  0  0  0  0  0  0  0  0  0  0  0
   -5.7422   21.4805  -17.1424 C   0  0  0  0  0  0  0  0  0  0  0  0
   -5.8092   20.1411  -17.1474 N   0  0  0  0  0  0  0  0  0  0  0  0
   -6.0785   19.4186  -18.2553 C   0  0  0  0  0  0  0  0  0  0  0  0
   -6.3001   20.0889  -19.4486 C   0  0  0  0  0  0  0  0  0  0  0  0
   -6.1627   18.0110  -18.1439 N   0  0  0  0  0  0  0  0  0  0  0  0
   -7.4388   17.2930  -18.1981 C   0  0  0  0  0  0  0  0  0  0  0  0
   -7.1466   15.8497  -18.5369 C   0  0  0  0  0  0  0  0  0  0  0  0
   -6.1356   15.6738  -19.4456 O   0  0  0  0  0  0  0  0  0  0  0  0
   -4.9243   16.2117  -19.0935 C   0  0  0  0  0  0  0  0  0  0  0  0
   -4.9813   17.1839  -17.9518 C   0  0  0  0  0  0  0  0  0  0  0  0
   -5.4095   22.2427  -15.9898 N   0  0  0  0  0  0  0  0  0  0  0  0
   -6.4140   22.5893  -14.9945 C   0  0  0  0  0  0  0  0  0  0  0  0
   -5.8870   22.1701  -13.6422 C   0  0  0  0  0  0  0  0  0  0  0  0
   -4.7268   22.8844  -13.4038 O   0  0  0  0  0  0  0  0  0  0  0  0
   -3.6873   22.5669  -14.2662 C   0  0  0  0  0  0  0  0  0  0  0  0
   -4.0540   22.6985  -15.7301 C   0  0  0  0  0  0  0  0  0  0  0  0
   -5.0598   23.5141  -23.8726 N   0  0  0  0  0  0  0  0  0  0  0  0
   -4.6618   22.4888  -24.7691 C   0  0  0  0  0  0  0  0  0  0  0  0
   -5.1752   21.3401  -24.6656 O   0  0  0  0  0  0  0  0  0  0  0  0
   -4.6512   24.4657  -23.9481 H   0  0  0  0  0  0  0  0  0  0  0  0
   -3.6820   22.6582  -25.8347 C   0  0  0  0  0  0  0  0  0  0  0  0
   -4.0964   23.0634  -27.1003 C   0  0  0  0  0  0  0  0  0  0  0  0
   -3.1656   23.2045  -28.1231 C   0  0  0  0  0  0  0  0  0  0  0  0
   -1.8347   22.9532  -27.9222 C   0  0  0  0  0  0  0  0  0  0  0  0
   -1.4080   22.5525  -26.6796 C   0  0  0  0  0  0  0  0  0  0  0  0
   -2.3414   22.4155  -25.6672 C   0  0  0  0  0  0  0  0  0  0  0  0
    0.0342   22.2796  -26.4650 C   0  0  0  0  0  0  0  0  0  0  0  0
    0.5084   21.5514  -27.5406 F   0  0  0  0  0  0  0  0  0  0  0  0
    0.6777   23.5060  -26.3698 F   0  0  0  0  0  0  0  0  0  0  0  0
    0.2752   21.5993  -25.3062 F   0  0  0  0  0  0  0  0  0  0  0  0
  1  2  1  0  0  0
  2  3  2  0  0  0
  3  4  1  0  0  0
  4  5  2  0  0  0
  5 26  1  0  0  0
 26 27  1  0  0  0
 27 28  2  0  0  0
 27 30  1  0  0  0
 30 31  2  0  0  0
 31 32  1  0  0  0
 32 33  2  0  0  0
 33 34  1  0  0  0
 34 35  2  0  0  0
 34 36  1  0  0  0
 36 37  1  0  0  0
 36 38  1  0  0  0
 36 39  1  0  0  0
  5  6  1  0  0  0
  6  7  2  0  0  0
  7  8  1  0  0  0
  8  9  2  0  0  0
  9 10  1  0  0  0
 10 11  2  0  0  0
 11 12  1  0  0  0
 12 13  2  0  0  0
 12 14  1  0  0  0
 14 15  1  0  0  0
 15 16  1  0  0  0
 16 17  1  0  0  0
 17 18  1  0  0  0
 18 19  1  0  0  0
 10 20  1  0  0  0
 20 21  1  0  0  0
 21 22  1  0  0  0
 22 23  1  0  0  0
 23 24  1  0  0  0
 24 25  1  0  0  0
  7  2  1  0  0  0
 13  8  1  0  0  0
 19 14  1  0  0  0
 25 20  1  0  0  0
 35 30  1  0  0  0
 26 29  1  0  0  0
M  END
> <minimizedAffinity>
-8.13841

> <CNNscore>
0.1352466792

> <CNNaffinity>
5.9301176071

> <CNN_VS>
0.8020287156

> <CNNaffinity_variance>
0.0253430158

$$$$
[H]c1nc(C([H])([H])[H])c(-c2c([H])c(N3C([H])([H])C([H])([H])OC([H])([H])C3([H])[H])nc(N3C([H])([H])C([H])([H])OC([H])([H])C3([H])[H])c2[H])c([H])c1N([H])C(=O)c1c([H])c([H])c([H])c(C(F)(F)F)c1[H]


 39 43  0  0  0  0  0  0  0  0999 V2000
   -2.1907   21.9346  -17.3000 C   0  0  0  0  0  0  0  0  0  0  0  0
   -2.1682   21.7811  -18.7779 C   0  0  0  0  0  0  0  0  0  0  0  0
   -3.2081   22.1405  -19.5307 N   0  0  0  0  0  0  0  0  0  0  0  0
   -3.2471   22.0208  -20.8589 C   0  0  0  0  0  0  0  0  0  0  0  0
   -2.1416   21.4934  -21.4768 C   0  0  0  0  0  0  0  0  0  0  0  0
   -1.0259   21.0989  -20.7220 C   0  0  0  0  0  0  0  0  0  0  0  0
   -1.0150   21.2350  -19.3602 C   0  0  0  0  0  0  0  0  0  0  0  0
    0.1149   20.9219  -18.4885 C   0  0  0  0  0  0  0  0  0  0  0  0
    0.2072   19.6295  -17.9255 C   0  0  0  0  0  0  0  0  0  0  0  0
    1.2771   19.2500  -17.1434 C   0  0  0  0  0  0  0  0  0  0  0  0
    2.2500   20.1465  -16.9237 N   0  0  0  0  0  0  0  0  0  0  0  0
    2.2285   21.3989  -17.4267 C   0  0  0  0  0  0  0  0  0  0  0  0
    1.1516   21.7817  -18.2116 C   0  0  0  0  0  0  0  0  0  0  0  0
    3.3241   22.2544  -17.1650 N   0  0  0  0  0  0  0  0  0  0  0  0
    3.6814   23.3672  -18.0487 C   0  0  0  0  0  0  0  0  0  0  0  0
    4.5382   24.3306  -17.2606 C   0  0  0  0  0  0  0  0  0  0  0  0
    4.1578   24.4893  -15.9534 O   0  0  0  0  0  0  0  0  0  0  0  0
    4.1265   23.3416  -15.2035 C   0  0  0  0  0  0  0  0  0  0  0  0
    4.1799   22.0724  -16.0024 C   0  0  0  0  0  0  0  0  0  0  0  0
    1.2708   17.9474  -16.5749 N   0  0  0  0  0  0  0  0  0  0  0  0
    0.0517   17.1537  -16.5121 C   0  0  0  0  0  0  0  0  0  0  0  0
    0.3497   15.8022  -17.1177 C   0  0  0  0  0  0  0  0  0  0  0  0
    1.3352   15.2067  -16.3513 O   0  0  0  0  0  0  0  0  0  0  0  0
    2.5579   15.8601  -16.4065 C   0  0  0  0  0  0  0  0  0  0  0  0
    2.4757   17.3293  -16.0468 C   0  0  0  0  0  0  0  0  0  0  0  0
   -2.0777   21.4279  -22.8988 N   0  0  0  0  0  0  0  0  0  0  0  0
   -1.5229   22.5003  -23.6439 C   0  0  0  0  0  0  0  0  0  0  0  0
   -1.0791   23.5141  -23.0363 O   0  0  0  0  0  0  0  0  0  0  0  0
   -2.4418   20.5846  -23.3831 H   0  0  0  0  0  0  0  0  0  0  0  0
   -1.4160   22.5277  -25.0972 C   0  0  0  0  0  0  0  0  0  0  0  0
   -0.1886   22.2850  -25.7073 C   0  0  0  0  0  0  0  0  0  0  0  0
   -0.0810   22.3321  -27.0924 C   0  0  0  0  0  0  0  0  0  0  0  0
   -1.1597   22.6143  -27.8871 C   0  0  0  0  0  0  0  0  0  0  0  0
   -2.3786   22.8563  -27.3020 C   0  0  0  0  0  0  0  0  0  0  0  0
   -2.4767   22.8065  -25.9226 C   0  0  0  0  0  0  0  0  0  0  0  0
   -3.5453   23.1632  -28.1652 C   0  0  0  0  0  0  0  0  0  0  0  0
   -4.6993   22.9765  -27.4270 F   0  0  0  0  0  0  0  0  0  0  0  0
   -3.4218   24.4844  -28.5733 F   0  0  0  0  0  0  0  0  0  0  0  0
   -3.5874   22.3895  -29.2892 F   0  0  0  0  0  0  0  0  0  0  0  0
  1  2  1  0  0  0
  2  3  2  0  0  0
  3  4  1  0  0  0
  4  5  2  0  0  0
  5 26  1  0  0  0
 26 27  1  0  0  0
 27 28  2  0  0  0
 27 30  1  0  0  0
 30 31  2  0  0  0
 31 32  1  0  0  0
 32 33  2  0  0  0
 33 34  1  0  0  0
 34 35  2  0  0  0
 34 36  1  0  0  0
 36 37  1  0  0  0
 36 38  1  0  0  0
 36 39  1  0  0  0
  5  6  1  0  0  0
  6  7  2  0  0  0
  7  8  1  0  0  0
  8  9  2  0  0  0
  9 10  1  0  0  0
 10 11  2  0  0  0
 11 12  1  0  0  0
 12 13  2  0  0  0
 12 14  1  0  0  0
 14 15  1  0  0  0
 15 16  1  0  0  0
 16 17  1  0  0  0
 17 18  1  0  0  0
 18 19  1  0  0  0
 10 20  1  0  0  0
 20 21  1  0  0  0
 21 22  1  0  0  0
 22 23  1  0  0  0
 23 24  1  0  0  0
 24 25  1  0  0  0
  7  2  1  0  0  0
 13  8  1  0  0  0
 19 14  1  0  0  0
 25 20  1  0  0  0
 35 30  1  0  0  0
 26 29  1  0  0  0
M  END
> <minimizedAffinity>
-7.65661

> <CNNscore>
0.1260366291

> <CNNaffinity>
5.8922033310

> <CNN_VS>
0.7426334620

> <CNNaffinity_variance>
0.0538543649

$$$$
[H]c1nc(C([H])([H])[H])c(-c2c([H])c(N3C([H])([H])C([H])([H])OC([H])([H])C3([H])[H])nc(N3C([H])([H])C([H])([H])OC([H])([H])C3([H])[H])c2[H])c([H])c1N([H])C(=O)c1c([H])c([H])c([H])c(C(F)(F)F)c1[H]


 39 43  0  0  0  0  0  0  0  0999 V2000
   -9.1960   22.3693  -19.6075 C   0  0  0  0  0  0  0  0  0  0  0  0
   -8.0522   22.5238  -20.5434 C   0  0  0  0  0  0  0  0  0  0  0  0
   -8.1799   23.1819  -21.6958 N   0  0  0  0  0  0  0  0  0  0  0  0
   -7.1915   23.3472  -22.5765 C   0  0  0  0  0  0  0  0  0  0  0  0
   -5.9721   22.8011  -22.2651 C   0  0  0  0  0  0  0  0  0  0  0  0
   -5.7944   22.0974  -21.0637 C   0  0  0  0  0  0  0  0  0  0  0  0
   -6.8276   21.9451  -20.1791 C   0  0  0  0  0  0  0  0  0  0  0  0
   -6.7344   21.2937  -18.8746 C   0  0  0  0  0  0  0  0  0  0  0  0
   -6.7758   19.8832  -18.8096 C   0  0  0  0  0  0  0  0  0  0  0  0
   -6.6333   19.2040  -17.6185 C   0  0  0  0  0  0  0  0  0  0  0  0
   -6.4485   19.9201  -16.4998 N   0  0  0  0  0  0  0  0  0  0  0  0
   -6.4001   21.2690  -16.4850 C   0  0  0  0  0  0  0  0  0  0  0  0
   -6.5455   21.9526  -17.6826 C   0  0  0  0  0  0  0  0  0  0  0  0
   -6.1634   21.9263  -15.2552 N   0  0  0  0  0  0  0  0  0  0  0  0
   -4.8266   22.0318  -14.6646 C   0  0  0  0  0  0  0  0  0  0  0  0
   -4.8475   23.1648  -13.6650 C   0  0  0  0  0  0  0  0  0  0  0  0
   -5.5969   24.2464  -14.0492 O   0  0  0  0  0  0  0  0  0  0  0  0
   -6.9151   23.9850  -14.3224 C   0  0  0  0  0  0  0  0  0  0  0  0
   -7.2417   22.5296  -14.4869 C   0  0  0  0  0  0  0  0  0  0  0  0
   -6.7351   17.7864  -17.6319 N   0  0  0  0  0  0  0  0  0  0  0  0
   -7.7145   17.0891  -16.8106 C   0  0  0  0  0  0  0  0  0  0  0  0
   -8.4898   16.1556  -17.7104 C   0  0  0  0  0  0  0  0  0  0  0  0
   -7.5944   15.2461  -18.2434 O   0  0  0  0  0  0  0  0  0  0  0  0
   -6.6615   15.8152  -19.0984 C   0  0  0  0  0  0  0  0  0  0  0  0
   -5.8884   16.9592  -18.4753 C   0  0  0  0  0  0  0  0  0  0  0  0
   -4.8492   23.0229  -23.1138 N   0  0  0  0  0  0  0  0  0  0  0  0
   -4.5296   22.0970  -24.1402 C   0  0  0  0  0  0  0  0  0  0  0  0
   -5.2526   21.0746  -24.3011 O   0  0  0  0  0  0  0  0  0  0  0  0
   -4.2680   23.8717  -22.9722 H   0  0  0  0  0  0  0  0  0  0  0  0
   -3.4033   22.2345  -25.0549 C   0  0  0  0  0  0  0  0  0  0  0  0
   -2.1134   21.9508  -24.6149 C   0  0  0  0  0  0  0  0  0  0  0  0
   -1.0362   22.1023  -25.4803 C   0  0  0  0  0  0  0  0  0  0  0  0
   -1.2060   22.5285  -26.7704 C   0  0  0  0  0  0  0  0  0  0  0  0
   -2.4718   22.8129  -27.2215 C   0  0  0  0  0  0  0  0  0  0  0  0
   -3.5384   22.6585  -26.3535 C   0  0  0  0  0  0  0  0  0  0  0  0
   -2.6529   23.2758  -28.6191 C   0  0  0  0  0  0  0  0  0  0  0  0
   -1.4073   23.3949  -29.2074 F   0  0  0  0  0  0  0  0  0  0  0  0
   -3.4251   22.3253  -29.2730 F   0  0  0  0  0  0  0  0  0  0  0  0
   -3.3154   24.4668  -28.6982 F   0  0  0  0  0  0  0  0  0  0  0  0
  1  2  1  0  0  0
  2  3  2  0  0  0
  3  4  1  0  0  0
  4  5  2  0  0  0
  5 26  1  0  0  0
 26 27  1  0  0  0
 27 28  2  0  0  0
 27 30  1  0  0  0
 30 31  2  0  0  0
 31 32  1  0  0  0
 32 33  2  0  0  0
 33 34  1  0  0  0
 34 35  2  0  0  0
 34 36  1  0  0  0
 36 37  1  0  0  0
 36 38  1  0  0  0
 36 39  1  0  0  0
  5  6  1  0  0  0
  6  7  2  0  0  0
  7  8  1  0  0  0
  8  9  2  0  0  0
  9 10  1  0  0  0
 10 11  2  0  0  0
 11 12  1  0  0  0
 12 13  2  0  0  0
 12 14  1  0  0  0
 14 15  1  0  0  0
 15 16  1  0  0  0
 16 17  1  0  0  0
 17 18  1  0  0  0
 18 19  1  0  0  0
 10 20  1  0  0  0
 20 21  1  0  0  0
 21 22  1  0  0  0
 22 23  1  0  0  0
 23 24  1  0  0  0
 24 25  1  0  0  0
  7  2  1  0  0  0
 13  8  1  0  0  0
 19 14  1  0  0  0
 25 20  1  0  0  0
 35 30  1  0  0  0
 26 29  1  0  0  0
M  END
> <minimizedAffinity>
-7.83818

> <CNNscore>
0.1186930835

> <CNNaffinity>
5.7778792381

> <CNN_VS>
0.6857942939

> <CNNaffinity_variance>
0.0383452997

$$$$
[H]c1nc(C([H])([H])[H])c(-c2c([H])c(N3C([H])([H])C([H])([H])OC([H])([H])C3([H])[H])nc(N3C([H])([H])C([H])([H])OC([H])([H])C3([H])[H])c2[H])c([H])c1N([H])C(=O)c1c([H])c([H])c([H])c(C(F)(F)F)c1[H]


 39 43  0  0  0  0  0  0  0  0999 V2000
   -5.8501   23.1958  -18.3118 C   0  0  0  0  0  0  0  0  0  0  0  0
   -5.2562   23.2831  -19.6711 C   0  0  0  0  0  0  0  0  0  0  0  0
   -5.5709   24.2740  -20.5056 N   0  0  0  0  0  0  0  0  0  0  0  0
   -5.0748   24.4006  -21.7376 C   0  0  0  0  0  0  0  0  0  0  0  0
   -4.1861   23.4448  -22.1604 C   0  0  0  0  0  0  0  0  0  0  0  0
   -3.8294   22.3825  -21.3152 C   0  0  0  0  0  0  0  0  0  0  0  0
   -4.3546   22.2799  -20.0555 C   0  0  0  0  0  0  0  0  0  0  0  0
   -4.0010   21.2580  -19.0730 C   0  0  0  0  0  0  0  0  0  0  0  0
   -4.8246   20.1173  -18.9455 C   0  0  0  0  0  0  0  0  0  0  0  0
   -4.5161   19.0886  -18.0812 C   0  0  0  0  0  0  0  0  0  0  0  0
   -3.3964   19.1904  -17.3502 N   0  0  0  0  0  0  0  0  0  0  0  0
   -2.5633   20.2503  -17.4177 C   0  0  0  0  0  0  0  0  0  0  0  0
   -2.8743   21.2862  -18.2853 C   0  0  0  0  0  0  0  0  0  0  0  0
   -1.3883   20.2414  -16.6303 N   0  0  0  0  0  0  0  0  0  0  0  0
   -0.0468   20.2582  -17.2196 C   0  0  0  0  0  0  0  0  0  0  0  0
    0.9216   20.7269  -16.1586 C   0  0  0  0  0  0  0  0  0  0  0  0
    0.4359   21.7170  -15.3447 O   0  0  0  0  0  0  0  0  0  0  0  0
   -0.7175   21.4131  -14.6681 C   0  0  0  0  0  0  0  0  0  0  0  0
   -1.4382   20.1991  -15.1768 C   0  0  0  0  0  0  0  0  0  0  0  0
   -5.4220   17.9984  -17.9768 N   0  0  0  0  0  0  0  0  0  0  0  0
   -6.7114   18.1450  -17.3167 C   0  0  0  0  0  0  0  0  0  0  0  0
   -7.7744   17.6402  -18.2640 C   0  0  0  0  0  0  0  0  0  0  0  0
   -7.5217   16.3017  -18.5040 O   0  0  0  0  0  0  0  0  0  0  0  0
   -6.3404   16.0706  -19.1941 C   0  0  0  0  0  0  0  0  0  0  0  0
   -5.1245   16.6906  -18.5370 C   0  0  0  0  0  0  0  0  0  0  0  0
   -3.5446   23.5720  -23.4263 N   0  0  0  0  0  0  0  0  0  0  0  0
   -4.0548   22.8924  -24.5625 C   0  0  0  0  0  0  0  0  0  0  0  0
   -5.0880   22.1763  -24.4454 O   0  0  0  0  0  0  0  0  0  0  0  0
   -2.6991   24.1693  -23.5072 H   0  0  0  0  0  0  0  0  0  0  0  0
   -3.4691   22.9574  -25.8955 C   0  0  0  0  0  0  0  0  0  0  0  0
   -4.2922   23.1022  -27.0088 C   0  0  0  0  0  0  0  0  0  0  0  0
   -3.7362   23.1427  -28.2822 C   0  0  0  0  0  0  0  0  0  0  0  0
   -2.3849   23.0427  -28.4790 C   0  0  0  0  0  0  0  0  0  0  0  0
   -1.5576   22.8994  -27.3919 C   0  0  0  0  0  0  0  0  0  0  0  0
   -2.1197   22.8608  -26.1280 C   0  0  0  0  0  0  0  0  0  0  0  0
   -0.0942   22.7897  -27.6081 C   0  0  0  0  0  0  0  0  0  0  0  0
    0.2787   21.4702  -27.4301 F   0  0  0  0  0  0  0  0  0  0  0  0
    0.1651   23.2112  -28.9051 F   0  0  0  0  0  0  0  0  0  0  0  0
    0.6244   23.5889  -26.7662 F   0  0  0  0  0  0  0  0  0  0  0  0
  1  2  1  0  0  0
  2  3  2  0  0  0
  3  4  1  0  0  0
  4  5  2  0  0  0
  5 26  1  0  0  0
 26 27  1  0  0  0
 27 28  2  0  0  0
 27 30  1  0  0  0
 30 31  2  0  0  0
 31 32  1  0  0  0
 32 33  2  0  0  0
 33 34  1  0  0  0
 34 35  2  0  0  0
 34 36  1  0  0  0
 36 37  1  0  0  0
 36 38  1  0  0  0
 36 39  1  0  0  0
  5  6  1  0  0  0
  6  7  2  0  0  0
  7  8  1  0  0  0
  8  9  2  0  0  0
  9 10  1  0  0  0
 10 11  2  0  0  0
 11 12  1  0  0  0
 12 13  2  0  0  0
 12 14  1  0  0  0
 14 15  1  0  0  0
 15 16  1  0  0  0
 16 17  1  0  0  0
 17 18  1  0  0  0
 18 19  1  0  0  0
 10 20  1  0  0  0
 20 21  1  0  0  0
 21 22  1  0  0  0
 22 23  1  0  0  0
 23 24  1  0  0  0
 24 25  1  0  0  0
  7  2  1  0  0  0
 13  8  1  0  0  0
 19 14  1  0  0  0
 25 20  1  0  0  0
 35 30  1  0  0  0
 26 29  1  0  0  0
M  END
> <minimizedAffinity>
-8.10096

> <CNNscore>
0.1031036898

> <CNNaffinity>
5.8945713043

> <CNN_VS>
0.6077520251

> <CNNaffinity_variance>
0.1487967521

$$$$
[H]C1=C(c2c([H])c(C3([H])C([H])([H])C([H])([H])N(C(=O)C([H])([H])[H])C([H])([H])C3([H])[H])c([H])c([H])c2N([H])C(=O)c2nc([H])c(C#N)n2[H])C([H])([H])C([H])([H])C(C([H])([H])[H])(C([H])([H])[H])C1([H])[H]


 35 38  0  0  0  0  0  0  0  0999 V2000
   -6.6966   21.8226  -20.1601 C   0  0  0  0  0  0  0  0  0  0  0  0
   -5.4801   21.3423  -19.7601 C   0  0  0  0  0  0  0  0  0  0  0  0
   -4.3518   21.4235  -20.5749 C   0  0  0  0  0  0  0  0  0  0  0  0
   -4.4341   21.9998  -21.8254 C   0  0  0  0  0  0  0  0  0  0  0  0
   -5.6526   22.4896  -22.2341 C   0  0  0  0  0  0  0  0  0  0  0  0
   -6.7868   22.3905  -21.3831 C   0  0  0  0  0  0  0  0  0  0  0  0
  -11.5103   22.5841  -16.5291 C   0  0  0  0  0  0  0  0  0  0  0  0
  -10.3876   21.5908  -16.4772 C   0  0  0  0  0  0  0  0  0  0  0  0
   -9.9626   21.1740  -15.3721 O   0  0  0  0  0  0  0  0  0  0  0  0
   -9.7847   21.1025  -17.6632 N   0  0  0  0  0  0  0  0  0  0  0  0
   -8.7033   20.1458  -17.5334 C   0  0  0  0  0  0  0  0  0  0  0  0
   -7.9468   20.2124  -18.8673 C   0  0  0  0  0  0  0  0  0  0  0  0
   -7.8300   21.6815  -19.2108 C   0  0  0  0  0  0  0  0  0  0  0  0
   -9.1339   22.1336  -19.7922 C   0  0  0  0  0  0  0  0  0  0  0  0
  -10.2559   21.5633  -18.9527 C   0  0  0  0  0  0  0  0  0  0  0  0
   -5.8233   23.2706  -23.4364 C   0  0  0  0  0  0  0  0  0  0  0  0
   -6.3353   22.6939  -24.5652 C   0  0  0  0  0  0  0  0  0  0  0  0
   -6.5106   23.4868  -25.7812 C   0  0  0  0  0  0  0  0  0  0  0  0
   -5.4754   24.5011  -26.0735 C   0  0  0  0  0  0  0  0  0  0  0  0
   -4.4105   23.9036  -26.9751 C   0  0  0  0  0  0  0  0  0  0  0  0
   -6.1305   25.6018  -26.8981 C   0  0  0  0  0  0  0  0  0  0  0  0
   -4.8347   25.0326  -24.8489 C   0  0  0  0  0  0  0  0  0  0  0  0
   -5.6099   24.7154  -23.5653 C   0  0  0  0  0  0  0  0  0  0  0  0
   -3.3136   21.8974  -22.6875 N   0  0  0  0  0  0  0  0  0  0  0  0
   -2.2550   22.7931  -22.8177 C   0  0  0  0  0  0  0  0  0  0  0  0
   -2.1586   23.8436  -22.1785 O   0  0  0  0  0  0  0  0  0  0  0  0
   -3.2430   20.9922  -23.2769 H   0  0  0  0  0  0  0  0  0  0  0  0
   -1.1679   22.4820  -23.7769 C   0  0  0  0  0  0  0  0  0  0  0  0
    0.0140   21.8904  -23.5077 N   0  0  0  0  0  0  0  0  0  0  0  0
    0.7363   21.7771  -24.6293 C   0  0  0  0  0  0  0  0  0  0  0  0
   -0.0162   22.3175  -25.6494 C   0  0  0  0  0  0  0  0  0  0  0  0
   -1.1578   22.7316  -25.0966 N   0  0  0  0  0  0  0  0  0  0  0  0
   -1.9185   23.1853  -25.6549 H   0  0  0  0  0  0  0  0  0  0  0  0
    0.3579   22.4132  -27.0223 C   0  0  0  0  0  0  0  0  0  0  0  0
    0.6572   22.5019  -28.1420 N   0  0  0  0  0  0  0  0  0  0  0  0
  7  8  1  0  0  0
  8  9  2  0  0  0
  8 10  1  0  0  0
 10 11  1  0  0  0
 11 12  1  0  0  0
 12 13  1  0  0  0
 13 14  1  0  0  0
 14 15  1  0  0  0
 13  1  1  0  0  0
  1  2  2  0  0  0
  2  3  1  0  0  0
  3  4  2  0  0  0
  4 24  1  0  0  0
 24 25  1  0  0  0
 25 26  2  0  0  0
 25 28  1  0  0  0
 28 29  2  0  0  0
 29 30  1  0  0  0
 30 31  2  0  0  0
 31 32  1  0  0  0
 31 34  1  0  0  0
 34 35  3  0  0  0
  4  5  1  0  0  0
  5  6  2  0  0  0
  5 16  1  0  0  0
 16 17  2  0  0  0
 17 18  1  0  0  0
 18 19  1  0  0  0
 19 20  1  0  0  0
 19 21  1  0  0  0
 19 22  1  0  0  0
 22 23  1  0  0  0
 15 10  1  0  0  0
  6  1  1  0  0  0
 23 16  1  0  0  0
 32 28  1  0  0  0
 24 27  1  0  0  0
 32 33  1  0  0  0
M  END
> <minimizedAffinity>
-7.95144

> <CNNscore>
0.4788577557

> <CNNaffinity>
6.8313660622

> <CNN_VS>
3.2712526321

> <CNNaffinity_variance>
0.0964632332

$$$$
[H]C1=C(c2c([H])c(C3([H])C([H])([H])C([H])([H])N(C(=O)C([H])([H])[H])C([H])([H])C3([H])[H])c([H])c([H])c2N([H])C(=O)c2nc([H])c(C#N)n2[H])C([H])([H])C([H])([H])C(C([H])([H])[H])(C([H])([H])[H])C1([H])[H]


 35 38  0  0  0  0  0  0  0  0999 V2000
   -4.1970   22.6910  -17.9437 C   0  0  0  0  0  0  0  0  0  0  0  0
   -5.0386   23.0584  -18.9573 C   0  0  0  0  0  0  0  0  0  0  0  0
   -4.6435   23.0191  -20.2937 C   0  0  0  0  0  0  0  0  0  0  0  0
   -3.3736   22.6019  -20.6340 C   0  0  0  0  0  0  0  0  0  0  0  0
   -2.5220   22.2261  -19.6214 C   0  0  0  0  0  0  0  0  0  0  0  0
   -2.9512   22.2790  -18.2674 C   0  0  0  0  0  0  0  0  0  0  0  0
   -6.0513   21.6892  -12.2434 C   0  0  0  0  0  0  0  0  0  0  0  0
   -6.4705   22.7234  -13.2458 C   0  0  0  0  0  0  0  0  0  0  0  0
   -7.6551   23.1380  -13.2688 O   0  0  0  0  0  0  0  0  0  0  0  0
   -5.5484   23.2532  -14.1825 N   0  0  0  0  0  0  0  0  0  0  0  0
   -6.0276   24.2480  -15.1218 C   0  0  0  0  0  0  0  0  0  0  0  0
   -5.0144   24.2316  -16.2748 C   0  0  0  0  0  0  0  0  0  0  0  0
   -4.7237   22.7737  -16.5575 C   0  0  0  0  0  0  0  0  0  0  0  0
   -3.7465   22.2820  -15.5349 C   0  0  0  0  0  0  0  0  0  0  0  0
   -4.1744   22.7958  -14.1778 C   0  0  0  0  0  0  0  0  0  0  0  0
   -1.2410   21.6045  -19.8608 C   0  0  0  0  0  0  0  0  0  0  0  0
   -0.1060   22.3646  -19.9140 C   0  0  0  0  0  0  0  0  0  0  0  0
    1.1910   21.7334  -20.1535 C   0  0  0  0  0  0  0  0  0  0  0  0
    1.2172   20.5955  -21.0971 C   0  0  0  0  0  0  0  0  0  0  0  0
    1.5380   21.0939  -22.4944 C   0  0  0  0  0  0  0  0  0  0  0  0
    2.3892   19.7033  -20.7085 C   0  0  0  0  0  0  0  0  0  0  0  0
   -0.0613   19.8492  -21.1276 C   0  0  0  0  0  0  0  0  0  0  0  0
   -0.9823   20.1638  -19.9434 C   0  0  0  0  0  0  0  0  0  0  0  0
   -2.9556   22.7507  -21.9802 N   0  0  0  0  0  0  0  0  0  0  0  0
   -3.3784   22.0210  -23.0886 C   0  0  0  0  0  0  0  0  0  0  0  0
   -4.1998   21.1022  -23.0362 O   0  0  0  0  0  0  0  0  0  0  0  0
   -2.2662   23.5607  -22.1816 H   0  0  0  0  0  0  0  0  0  0  0  0
   -2.8197   22.3545  -24.4210 C   0  0  0  0  0  0  0  0  0  0  0  0
   -3.4684   22.9182  -25.4606 N   0  0  0  0  0  0  0  0  0  0  0  0
   -2.6335   23.0657  -26.4968 C   0  0  0  0  0  0  0  0  0  0  0  0
   -1.4079   22.5769  -26.0994 C   0  0  0  0  0  0  0  0  0  0  0  0
   -1.5596   22.1573  -24.8419 N   0  0  0  0  0  0  0  0  0  0  0  0
   -0.7734   21.7370  -24.2927 H   0  0  0  0  0  0  0  0  0  0  0  0
   -0.2172   22.5305  -26.8829 C   0  0  0  0  0  0  0  0  0  0  0  0
    0.7562   22.5038  -27.5177 N   0  0  0  0  0  0  0  0  0  0  0  0
  7  8  1  0  0  0
  8  9  2  0  0  0
  8 10  1  0  0  0
 10 11  1  0  0  0
 11 12  1  0  0  0
 12 13  1  0  0  0
 13 14  1  0  0  0
 14 15  1  0  0  0
 13  1  1  0  0  0
  1  2  2  0  0  0
  2  3  1  0  0  0
  3  4  2  0  0  0
  4 24  1  0  0  0
 24 25  1  0  0  0
 25 26  2  0  0  0
 25 28  1  0  0  0
 28 29  2  0  0  0
 29 30  1  0  0  0
 30 31  2  0  0  0
 31 32  1  0  0  0
 31 34  1  0  0  0
 34 35  3  0  0  0
  4  5  1  0  0  0
  5  6  2  0  0  0
  5 16  1  0  0  0
 16 17  2  0  0  0
 17 18  1  0  0  0
 18 19  1  0  0  0
 19 20  1  0  0  0
 19 21  1  0  0  0
 19 22  1  0  0  0
 22 23  1  0  0  0
 15 10  1  0  0  0
  6  1  1  0  0  0
 23 16  1  0  0  0
 32 28  1  0  0  0
 24 27  1  0  0  0
 32 33  1  0  0  0
M  END
> <minimizedAffinity>
-6.28942

> <CNNscore>
0.3797018826

> <CNNaffinity>
6.6458091736

> <CNN_VS>
2.5234262943

> <CNNaffinity_variance>
0.4038353860

$$$$
[H]C1=C(c2c([H])c(C3([H])C([H])([H])C([H])([H])N(C(=O)C([H])([H])[H])C([H])([H])C3([H])[H])c([H])c([H])c2N([H])C(=O)c2nc([H])c(C#N)n2[H])C([H])([H])C([H])([H])C(C([H])([H])[H])(C([H])([H])[H])C1([H])[H]


 35 38  0  0  0  0  0  0  0  0999 V2000
    1.1127   21.0251  -22.4413 C   0  0  0  0  0  0  0  0  0  0  0  0
    1.5667   21.2317  -23.7147 C   0  0  0  0  0  0  0  0  0  0  0  0
    0.7934   21.8805  -24.6764 C   0  0  0  0  0  0  0  0  0  0  0  0
   -0.4695   22.3384  -24.3636 C   0  0  0  0  0  0  0  0  0  0  0  0
   -0.9325   22.1389  -23.0839 C   0  0  0  0  0  0  0  0  0  0  0  0
   -0.1229   21.4717  -22.1248 C   0  0  0  0  0  0  0  0  0  0  0  0
    5.0067   17.2879  -19.6474 C   0  0  0  0  0  0  0  0  0  0  0  0
    3.9365   18.1828  -19.0963 C   0  0  0  0  0  0  0  0  0  0  0  0
    3.3007   17.8485  -18.0669 O   0  0  0  0  0  0  0  0  0  0  0  0
    3.6198   19.4164  -19.7180 N   0  0  0  0  0  0  0  0  0  0  0  0
    2.5719   20.2266  -19.1289 C   0  0  0  0  0  0  0  0  0  0  0  0
    2.1162   21.1701  -20.2506 C   0  0  0  0  0  0  0  0  0  0  0  0
    2.0213   20.3218  -21.5001 C   0  0  0  0  0  0  0  0  0  0  0  0
    3.4016   20.1409  -22.0518 C   0  0  0  0  0  0  0  0  0  0  0  0
    4.3385   19.8295  -20.9054 C   0  0  0  0  0  0  0  0  0  0  0  0
   -2.1543   22.7275  -22.5887 C   0  0  0  0  0  0  0  0  0  0  0  0
   -3.1783   21.9299  -22.1597 C   0  0  0  0  0  0  0  0  0  0  0  0
   -4.4140   22.5273  -21.6555 C   0  0  0  0  0  0  0  0  0  0  0  0
   -4.8865   23.7558  -22.3290 C   0  0  0  0  0  0  0  0  0  0  0  0
   -5.8644   23.3935  -23.4318 C   0  0  0  0  0  0  0  0  0  0  0  0
   -5.6987   24.5519  -21.3156 C   0  0  0  0  0  0  0  0  0  0  0  0
   -3.7794   24.5545  -22.9026 C   0  0  0  0  0  0  0  0  0  0  0  0
   -2.3980   24.1567  -22.3708 C   0  0  0  0  0  0  0  0  0  0  0  0
   -1.2870   22.8254  -25.4142 N   0  0  0  0  0  0  0  0  0  0  0  0
   -2.4156   22.2225  -25.9642 C   0  0  0  0  0  0  0  0  0  0  0  0
   -2.8618   21.1323  -25.5983 O   0  0  0  0  0  0  0  0  0  0  0  0
   -1.0380   23.8055  -25.8007 H   0  0  0  0  0  0  0  0  0  0  0  0
   -3.1388   22.9182  -27.0557 C   0  0  0  0  0  0  0  0  0  0  0  0
   -2.9099   22.8167  -28.3811 N   0  0  0  0  0  0  0  0  0  0  0  0
   -3.7652   23.5955  -29.0553 C   0  0  0  0  0  0  0  0  0  0  0  0
   -4.5677   24.2148  -28.1219 C   0  0  0  0  0  0  0  0  0  0  0  0
   -4.1600   23.7812  -26.9277 N   0  0  0  0  0  0  0  0  0  0  0  0
   -4.6060   24.0971  -26.0346 H   0  0  0  0  0  0  0  0  0  0  0  0
   -5.6228   25.1371  -28.3868 C   0  0  0  0  0  0  0  0  0  0  0  0
   -6.4755   25.8948  -28.6101 N   0  0  0  0  0  0  0  0  0  0  0  0
  7  8  1  0  0  0
  8  9  2  0  0  0
  8 10  1  0  0  0
 10 11  1  0  0  0
 11 12  1  0  0  0
 12 13  1  0  0  0
 13 14  1  0  0  0
 14 15  1  0  0  0
 13  1  1  0  0  0
  1  2  2  0  0  0
  2  3  1  0  0  0
  3  4  2  0  0  0
  4 24  1  0  0  0
 24 25  1  0  0  0
 25 26  2  0  0  0
 25 28  1  0  0  0
 28 29  2  0  0  0
 29 30  1  0  0  0
 30 31  2  0  0  0
 31 32  1  0  0  0
 31 34  1  0  0  0
 34 35  3  0  0  0
  4  5  1  0  0  0
  5  6  2  0  0  0
  5 16  1  0  0  0
 16 17  2  0  0  0
 17 18  1  0  0  0
 18 19  1  0  0  0
 19 20  1  0  0  0
 19 21  1  0  0  0
 19 22  1  0  0  0
 22 23  1  0  0  0
 15 10  1  0  0  0
  6  1  1  0  0  0
 23 16  1  0  0  0
 32 28  1  0  0  0
 24 27  1  0  0  0
 32 33  1  0  0  0
M  END
> <minimizedAffinity>
-8.03646

> <CNNscore>
0.3443620801

> <CNNaffinity>
7.0375595093

> <CNN_VS>
2.4234685898

> <CNNaffinity_variance>
0.1526633799

$$$$
[H]C1=C(c2c([H])c(C3([H])C([H])([H])C([H])([H])N(C(=O)C([H])([H])[H])C([H])([H])C3([H])[H])c([H])c([H])c2N([H])C(=O)c2nc([H])c(C#N)n2[H])C([H])([H])C([H])([H])C(C([H])([H])[H])(C([H])([H])[H])C1([H])[H]


 35 38  0  0  0  0  0  0  0  0999 V2000
   -4.5430   22.6249  -18.1630 C   0  0  0  0  0  0  0  0  0  0  0  0
   -3.1894   22.4489  -18.0779 C   0  0  0  0  0  0  0  0  0  0  0  0
   -2.3849   22.3619  -19.2133 C   0  0  0  0  0  0  0  0  0  0  0  0
   -2.9419   22.4528  -20.4718 C   0  0  0  0  0  0  0  0  0  0  0  0
   -4.3020   22.6345  -20.5668 C   0  0  0  0  0  0  0  0  0  0  0  0
   -5.0977   22.7168  -19.3919 C   0  0  0  0  0  0  0  0  0  0  0  0
   -7.9350   21.6281  -13.2197 C   0  0  0  0  0  0  0  0  0  0  0  0
   -7.6439   22.8919  -13.9733 C   0  0  0  0  0  0  0  0  0  0  0  0
   -8.5125   23.7945  -14.0536 O   0  0  0  0  0  0  0  0  0  0  0  0
   -6.3929   23.0965  -14.6071 N   0  0  0  0  0  0  0  0  0  0  0  0
   -6.1859   24.3424  -15.3188 C   0  0  0  0  0  0  0  0  0  0  0  0
   -5.0272   24.0636  -16.2862 C   0  0  0  0  0  0  0  0  0  0  0  0
   -5.3011   22.7026  -16.8883 C   0  0  0  0  0  0  0  0  0  0  0  0
   -4.8830   21.6583  -15.8997 C   0  0  0  0  0  0  0  0  0  0  0  0
   -5.3706   22.0738  -14.5291 C   0  0  0  0  0  0  0  0  0  0  0  0
   -4.9719   22.9232  -21.8127 C   0  0  0  0  0  0  0  0  0  0  0  0
   -5.5295   21.9125  -22.5451 C   0  0  0  0  0  0  0  0  0  0  0  0
   -6.2104   22.2068  -23.8052 C   0  0  0  0  0  0  0  0  0  0  0  0
   -5.6269   23.2722  -24.6480 C   0  0  0  0  0  0  0  0  0  0  0  0
   -4.6675   22.6638  -25.6545 C   0  0  0  0  0  0  0  0  0  0  0  0
   -6.7553   23.8712  -25.4779 C   0  0  0  0  0  0  0  0  0  0  0  0
   -4.9147   24.3010  -23.8563 C   0  0  0  0  0  0  0  0  0  0  0  0
   -5.2416   24.2566  -22.3595 C   0  0  0  0  0  0  0  0  0  0  0  0
   -2.1187   22.1776  -21.5924 N   0  0  0  0  0  0  0  0  0  0  0  0
   -1.5207   23.0932  -22.4549 C   0  0  0  0  0  0  0  0  0  0  0  0
   -1.6461   24.3164  -22.3561 O   0  0  0  0  0  0  0  0  0  0  0  0
   -1.8824   21.1362  -21.7698 H   0  0  0  0  0  0  0  0  0  0  0  0
   -0.6778   22.5865  -23.5645 C   0  0  0  0  0  0  0  0  0  0  0  0
    0.3357   21.7004  -23.4810 N   0  0  0  0  0  0  0  0  0  0  0  0
    0.8600   21.4873  -24.6944 C   0  0  0  0  0  0  0  0  0  0  0  0
    0.1519   22.2681  -25.5819 C   0  0  0  0  0  0  0  0  0  0  0  0
   -0.7670   22.9160  -24.8635 N   0  0  0  0  0  0  0  0  0  0  0  0
   -1.4483   23.5833  -25.2959 H   0  0  0  0  0  0  0  0  0  0  0  0
    0.3652   22.3614  -26.9890 C   0  0  0  0  0  0  0  0  0  0  0  0
    0.5271   22.4371  -28.1375 N   0  0  0  0  0  0  0  0  0  0  0  0
  7  8  1  0  0  0
  8  9  2  0  0  0
  8 10  1  0  0  0
 10 11  1  0  0  0
 11 12  1  0  0  0
 12 13  1  0  0  0
 13 14  1  0  0  0
 14 15  1  0  0  0
 13  1  1  0  0  0
  1  2  2  0  0  0
  2  3  1  0  0  0
  3  4  2  0  0  0
  4 24  1  0  0  0
 24 25  1  0  0  0
 25 26  2  0  0  0
 25 28  1  0  0  0
 28 29  2  0  0  0
 29 30  1  0  0  0
 30 31  2  0  0  0
 31 32  1  0  0  0
 31 34  1  0  0  0
 34 35  3  0  0  0
  4  5  1  0  0  0
  5  6  2  0  0  0
  5 16  1  0  0  0
 16 17  2  0  0  0
 17 18  1  0  0  0
 18 19  1  0  0  0
 19 20  1  0  0  0
 19 21  1  0  0  0
 19 22  1  0  0  0
 22 23  1  0  0  0
 15 10  1  0  0  0
  6  1  1  0  0  0
 23 16  1  0  0  0
 32 28  1  0  0  0
 24 27  1  0  0  0
 32 33  1  0  0  0
M  END
> <minimizedAffinity>
-7.51890

> <CNNscore>
0.3007562459

> <CNNaffinity>
6.4517364502

> <CNN_VS>
1.9404000044

> <CNNaffinity_variance>
0.0592373237

$$$$
[H]C1=C(c2c([H])c(C3([H])C([H])([H])C([H])([H])N(C(=O)C([H])([H])[H])C([H])([H])C3([H])[H])c([H])c([H])c2N([H])C(=O)c2nc([H])c(C#N)n2[H])C([H])([H])C([H])([H])C(C([H])([H])[H])(C([H])([H])[H])C1([H])[H]


 35 38  0  0  0  0  0  0  0  0999 V2000
   -3.1606   23.3527  -27.1179 C   0  0  0  0  0  0  0  0  0  0  0  0
   -2.0587   22.6662  -27.5480 C   0  0  0  0  0  0  0  0  0  0  0  0
   -1.2058   22.0114  -26.6605 C   0  0  0  0  0  0  0  0  0  0  0  0
   -1.4553   22.0389  -25.3042 C   0  0  0  0  0  0  0  0  0  0  0  0
   -2.5639   22.7232  -24.8631 C   0  0  0  0  0  0  0  0  0  0  0  0
   -3.4142   23.3840  -25.7908 C   0  0  0  0  0  0  0  0  0  0  0  0
   -5.7801   25.3641  -32.2196 C   0  0  0  0  0  0  0  0  0  0  0  0
   -5.6874   25.9784  -30.8543 C   0  0  0  0  0  0  0  0  0  0  0  0
   -5.6110   27.2247  -30.7256 O   0  0  0  0  0  0  0  0  0  0  0  0
   -5.6842   25.1748  -29.6870 N   0  0  0  0  0  0  0  0  0  0  0  0
   -5.5897   25.8401  -28.4025 C   0  0  0  0  0  0  0  0  0  0  0  0
   -5.0957   24.7620  -27.4280 C   0  0  0  0  0  0  0  0  0  0  0  0
   -3.9976   24.0134  -28.1516 C   0  0  0  0  0  0  0  0  0  0  0  0
   -4.6346   23.0383  -29.0930 C   0  0  0  0  0  0  0  0  0  0  0  0
   -5.7740   23.7342  -29.8045 C   0  0  0  0  0  0  0  0  0  0  0  0
   -3.0273   22.6727  -23.4967 C   0  0  0  0  0  0  0  0  0  0  0  0
   -3.6737   21.5624  -23.0294 C   0  0  0  0  0  0  0  0  0  0  0  0
   -4.1397   21.5113  -21.6444 C   0  0  0  0  0  0  0  0  0  0  0  0
   -4.6667   22.7672  -21.0691 C   0  0  0  0  0  0  0  0  0  0  0  0
   -6.1715   22.8275  -21.2584 C   0  0  0  0  0  0  0  0  0  0  0  0
   -4.4521   22.7077  -19.5621 C   0  0  0  0  0  0  0  0  0  0  0  0
   -4.0514   23.9728  -21.6695 C   0  0  0  0  0  0  0  0  0  0  0  0
   -2.7720   23.6779  -22.4604 C   0  0  0  0  0  0  0  0  0  0  0  0
   -0.4692   21.5186  -24.4289 N   0  0  0  0  0  0  0  0  0  0  0  0
    0.7456   22.0997  -24.0733 C   0  0  0  0  0  0  0  0  0  0  0  0
    1.1419   23.1858  -24.5033 O   0  0  0  0  0  0  0  0  0  0  0  0
   -0.7093   20.5848  -23.9367 H   0  0  0  0  0  0  0  0  0  0  0  0
    1.6293   21.3854  -23.1208 C   0  0  0  0  0  0  0  0  0  0  0  0
    2.9633   21.2108  -23.2182 N   0  0  0  0  0  0  0  0  0  0  0  0
    3.4128   20.5140  -22.1671 C   0  0  0  0  0  0  0  0  0  0  0  0
    2.3222   20.2359  -21.3720 C   0  0  0  0  0  0  0  0  0  0  0  0
    1.2651   20.7777  -21.9797 N   0  0  0  0  0  0  0  0  0  0  0  0
    0.2978   20.7145  -21.5839 H   0  0  0  0  0  0  0  0  0  0  0  0
    2.3289   19.5105  -20.1441 C   0  0  0  0  0  0  0  0  0  0  0  0
    2.3464   18.9182  -19.1441 N   0  0  0  0  0  0  0  0  0  0  0  0
  7  8  1  0  0  0
  8  9  2  0  0  0
  8 10  1  0  0  0
 10 11  1  0  0  0
 11 12  1  0  0  0
 12 13  1  0  0  0
 13 14  1  0  0  0
 14 15  1  0  0  0
 13  1  1  0  0  0
  1  2  2  0  0  0
  2  3  1  0  0  0
  3  4  2  0  0  0
  4 24  1  0  0  0
 24 25  1  0  0  0
 25 26  2  0  0  0
 25 28  1  0  0  0
 28 29  2  0  0  0
 29 30  1  0  0  0
 30 31  2  0  0  0
 31 32  1  0  0  0
 31 34  1  0  0  0
 34 35  3  0  0  0
  4  5  1  0  0  0
  5  6  2  0  0  0
  5 16  1  0  0  0
 16 17  2  0  0  0
 17 18  1  0  0  0
 18 19  1  0  0  0
 19 20  1  0  0  0
 19 21  1  0  0  0
 19 22  1  0  0  0
 22 23  1  0  0  0
 15 10  1  0  0  0
  6  1  1  0  0  0
 23 16  1  0  0  0
 32 28  1  0  0  0
 24 27  1  0  0  0
 32 33  1  0  0  0
M  END
> <minimizedAffinity>
-9.14881

> <CNNscore>
0.2932074368

> <CNNaffinity>
7.3581581116

> <CNN_VS>
2.1574666500

> <CNNaffinity_variance>
0.1401971877

$$$$
[H]C1=C(c2c([H])c(C3([H])C([H])([H])C([H])([H])N(C(=O)C([H])([H])[H])C([H])([H])C3([H])[H])c([H])c([H])c2N([H])C(=O)c2nc([H])c(C#N)n2[H])C([H])([H])C([H])([H])C(C([H])([H])[H])(C([H])([H])[H])C1([H])[H]


 35 38  0  0  0  0  0  0  0  0999 V2000
    1.4449   22.1325  -16.4466 C   0  0  0  0  0  0  0  0  0  0  0  0
    2.1612   22.4742  -17.5604 C   0  0  0  0  0  0  0  0  0  0  0  0
    1.5930   22.4644  -18.8335 C   0  0  0  0  0  0  0  0  0  0  0  0
    0.2727   22.1045  -19.0056 C   0  0  0  0  0  0  0  0  0  0  0  0
   -0.4566   21.7637  -17.8903 C   0  0  0  0  0  0  0  0  0  0  0  0
    0.1499   21.7801  -16.6049 C   0  0  0  0  0  0  0  0  0  0  0  0
    3.7030   23.5265  -10.9791 C   0  0  0  0  0  0  0  0  0  0  0  0
    4.2445   22.6542  -12.0727 C   0  0  0  0  0  0  0  0  0  0  0  0
    5.4827   22.5722  -12.2614 O   0  0  0  0  0  0  0  0  0  0  0  0
    3.3798   21.9080  -12.9118 N   0  0  0  0  0  0  0  0  0  0  0  0
    3.9766   21.0891  -13.9485 C   0  0  0  0  0  0  0  0  0  0  0  0
    2.8523   20.8473  -14.9652 C   0  0  0  0  0  0  0  0  0  0  0  0
    2.1526   22.1774  -15.1416 C   0  0  0  0  0  0  0  0  0  0  0  0
    1.2237   22.3774  -13.9841 C   0  0  0  0  0  0  0  0  0  0  0  0
    1.9469   21.9808  -12.7158 C   0  0  0  0  0  0  0  0  0  0  0  0
   -1.8837   21.5463  -17.9198 C   0  0  0  0  0  0  0  0  0  0  0  0
   -2.3891   20.3484  -18.3420 C   0  0  0  0  0  0  0  0  0  0  0  0
   -3.8345   20.1285  -18.3684 C   0  0  0  0  0  0  0  0  0  0  0  0
   -4.6790   21.2776  -18.7585 C   0  0  0  0  0  0  0  0  0  0  0  0
   -4.9469   21.2349  -20.2519 C   0  0  0  0  0  0  0  0  0  0  0  0
   -6.0398   21.0923  -18.0994 C   0  0  0  0  0  0  0  0  0  0  0  0
   -4.0672   22.5803  -18.4104 C   0  0  0  0  0  0  0  0  0  0  0  0
   -2.9079   22.4656  -17.4143 C   0  0  0  0  0  0  0  0  0  0  0  0
   -0.2101   21.9324  -20.3271 N   0  0  0  0  0  0  0  0  0  0  0  0
   -1.0407   22.7869  -21.0482 C   0  0  0  0  0  0  0  0  0  0  0  0
   -1.4922   23.8455  -20.6044 O   0  0  0  0  0  0  0  0  0  0  0  0
    0.1498   21.0613  -20.8597 H   0  0  0  0  0  0  0  0  0  0  0  0
   -1.4151   22.4196  -22.4351 C   0  0  0  0  0  0  0  0  0  0  0  0
   -2.4688   21.6737  -22.8260 N   0  0  0  0  0  0  0  0  0  0  0  0
   -2.4790   21.5576  -24.1598 C   0  0  0  0  0  0  0  0  0  0  0  0
   -1.3902   22.2568  -24.6334 C   0  0  0  0  0  0  0  0  0  0  0  0
   -0.7732   22.7627  -23.5639 N   0  0  0  0  0  0  0  0  0  0  0  0
    0.0934   23.3453  -23.6403 H   0  0  0  0  0  0  0  0  0  0  0  0
   -1.0039   22.4051  -25.9982 C   0  0  0  0  0  0  0  0  0  0  0  0
   -0.6975   22.5347  -27.1120 N   0  0  0  0  0  0  0  0  0  0  0  0
  7  8  1  0  0  0
  8  9  2  0  0  0
  8 10  1  0  0  0
 10 11  1  0  0  0
 11 12  1  0  0  0
 12 13  1  0  0  0
 13 14  1  0  0  0
 14 15  1  0  0  0
 13  1  1  0  0  0
  1  2  2  0  0  0
  2  3  1  0  0  0
  3  4  2  0  0  0
  4 24  1  0  0  0
 24 25  1  0  0  0
 25 26  2  0  0  0
 25 28  1  0  0  0
 28 29  2  0  0  0
 29 30  1  0  0  0
 30 31  2  0  0  0
 31 32  1  0  0  0
 31 34  1  0  0  0
 34 35  3  0  0  0
  4  5  1  0  0  0
  5  6  2  0  0  0
  5 16  1  0  0  0
 16 17  2  0  0  0
 17 18  1  0  0  0
 18 19  1  0  0  0
 19 20  1  0  0  0
 19 21  1  0  0  0
 19 22  1  0  0  0
 22 23  1  0  0  0
 15 10  1  0  0  0
  6  1  1  0  0  0
 23 16  1  0  0  0
 32 28  1  0  0  0
 24 27  1  0  0  0
 32 33  1  0  0  0
M  END
> <minimizedAffinity>
-6.18108

> <CNNscore>
0.2919123471

> <CNNaffinity>
6.0162653923

> <CNN_VS>
1.7562221289

> <CNNaffinity_variance>
0.1800929308

$$$$
[H]C1=C(c2c([H])c(C3([H])C([H])([H])C([H])([H])N(C(=O)C([H])([H])[H])C([H])([H])C3([H])[H])c([H])c([H])c2N([H])C(=O)c2nc([H])c(C#N)n2[H])C([H])([H])C([H])([H])C(C([H])([H])[H])(C([H])([H])[H])C1([H])[H]


 35 38  0  0  0  0  0  0  0  0999 V2000
   -0.6742   21.9620  -23.2575 C   0  0  0  0  0  0  0  0  0  0  0  0
   -0.1735   22.2256  -24.5026 C   0  0  0  0  0  0  0  0  0  0  0  0
   -0.9608   22.7792  -25.5113 C   0  0  0  0  0  0  0  0  0  0  0  0
   -2.2860   23.0805  -25.2760 C   0  0  0  0  0  0  0  0  0  0  0  0
   -2.7968   22.8230  -24.0251 C   0  0  0  0  0  0  0  0  0  0  0  0
   -1.9712   22.2554  -23.0168 C   0  0  0  0  0  0  0  0  0  0  0  0
    2.0626   19.6966  -18.3266 C   0  0  0  0  0  0  0  0  0  0  0  0
    2.6282   20.3630  -19.5456 C   0  0  0  0  0  0  0  0  0  0  0  0
    3.6592   21.0735  -19.4568 O   0  0  0  0  0  0  0  0  0  0  0  0
    2.0187   20.2084  -20.8156 N   0  0  0  0  0  0  0  0  0  0  0  0
    2.6215   20.8850  -21.9472 C   0  0  0  0  0  0  0  0  0  0  0  0
    1.5106   20.9675  -23.0032 C   0  0  0  0  0  0  0  0  0  0  0  0
    0.2550   21.3707  -22.2611 C   0  0  0  0  0  0  0  0  0  0  0  0
   -0.3076   20.1542  -21.5931 C   0  0  0  0  0  0  0  0  0  0  0  0
    0.8298   19.3924  -20.9490 C   0  0  0  0  0  0  0  0  0  0  0  0
   -4.1080   23.2585  -23.6059 C   0  0  0  0  0  0  0  0  0  0  0  0
   -5.1971   22.4575  -23.8086 C   0  0  0  0  0  0  0  0  0  0  0  0
   -6.5239   22.8985  -23.3807 C   0  0  0  0  0  0  0  0  0  0  0  0
   -6.8323   24.3364  -23.5328 C   0  0  0  0  0  0  0  0  0  0  0  0
   -7.5115   24.5778  -24.8686 C   0  0  0  0  0  0  0  0  0  0  0  0
   -7.8732   24.6969  -22.4805 C   0  0  0  0  0  0  0  0  0  0  0  0
   -5.6278   25.1922  -23.4370 C   0  0  0  0  0  0  0  0  0  0  0  0
   -4.4115   24.4731  -22.8429 C   0  0  0  0  0  0  0  0  0  0  0  0
   -3.0923   23.4685  -26.3753 N   0  0  0  0  0  0  0  0  0  0  0  0
   -2.9736   23.0644  -27.7028 C   0  0  0  0  0  0  0  0  0  0  0  0
   -2.1046   22.2907  -28.1124 O   0  0  0  0  0  0  0  0  0  0  0  0
   -3.9322   24.1134  -26.1501 H   0  0  0  0  0  0  0  0  0  0  0  0
   -3.9414   23.5840  -28.6987 C   0  0  0  0  0  0  0  0  0  0  0  0
   -4.8607   22.8784  -29.3891 N   0  0  0  0  0  0  0  0  0  0  0  0
   -5.5530   23.6925  -30.1956 C   0  0  0  0  0  0  0  0  0  0  0  0
   -5.0539   24.9635  -30.0098 C   0  0  0  0  0  0  0  0  0  0  0  0
   -4.0839   24.8578  -29.0998 N   0  0  0  0  0  0  0  0  0  0  0  0
   -3.5325   25.6846  -28.7699 H   0  0  0  0  0  0  0  0  0  0  0  0
   -5.4915   26.1522  -30.6650 C   0  0  0  0  0  0  0  0  0  0  0  0
   -5.8378   27.1265  -31.1962 N   0  0  0  0  0  0  0  0  0  0  0  0
  7  8  1  0  0  0
  8  9  2  0  0  0
  8 10  1  0  0  0
 10 11  1  0  0  0
 11 12  1  0  0  0
 12 13  1  0  0  0
 13 14  1  0  0  0
 14 15  1  0  0  0
 13  1  1  0  0  0
  1  2  2  0  0  0
  2  3  1  0  0  0
  3  4  2  0  0  0
  4 24  1  0  0  0
 24 25  1  0  0  0
 25 26  2  0  0  0
 25 28  1  0  0  0
 28 29  2  0  0  0
 29 30  1  0  0  0
 30 31  2  0  0  0
 31 32  1  0  0  0
 31 34  1  0  0  0
 34 35  3  0  0  0
  4  5  1  0  0  0
  5  6  2  0  0  0
  5 16  1  0  0  0
 16 17  2  0  0  0
 17 18  1  0  0  0
 18 19  1  0  0  0
 19 20  1  0  0  0
 19 21  1  0  0  0
 19 22  1  0  0  0
 22 23  1  0  0  0
 15 10  1  0  0  0
  6  1  1  0  0  0
 23 16  1  0  0  0
 32 28  1  0  0  0
 24 27  1  0  0  0
 32 33  1  0  0  0
M  END
> <minimizedAffinity>
-9.10461

> <CNNscore>
0.2860598862

> <CNNaffinity>
7.1801042557

> <CNN_VS>
2.0539398193

> <CNNaffinity_variance>
0.0258197393

$$$$
[H]C1=C(c2c([H])c(C3([H])C([H])([H])C([H])([H])N(C(=O)C([H])([H])[H])C([H])([H])C3([H])[H])c([H])c([H])c2N([H])C(=O)c2nc([H])c(C#N)n2[H])C([H])([H])C([H])([H])C(C([H])([H])[H])(C([H])([H])[H])C1([H])[H]


 35 38  0  0  0  0  0  0  0  0999 V2000
   -1.0141   21.9393  -24.2729 C   0  0  0  0  0  0  0  0  0  0  0  0
   -0.5330   22.2196  -25.5221 C   0  0  0  0  0  0  0  0  0  0  0  0
   -1.3022   22.8852  -26.4756 C   0  0  0  0  0  0  0  0  0  0  0  0
   -2.5886   23.2848  -26.1792 C   0  0  0  0  0  0  0  0  0  0  0  0
   -3.0790   23.0111  -24.9236 C   0  0  0  0  0  0  0  0  0  0  0  0
   -2.2729   22.3285  -23.9725 C   0  0  0  0  0  0  0  0  0  0  0  0
    3.1787   18.4438  -21.6013 C   0  0  0  0  0  0  0  0  0  0  0  0
    1.8861   18.9993  -21.0813 C   0  0  0  0  0  0  0  0  0  0  0  0
    1.2073   18.3486  -20.2498 O   0  0  0  0  0  0  0  0  0  0  0  0
    1.4038   20.2606  -21.5115 N   0  0  0  0  0  0  0  0  0  0  0  0
    0.1453   20.7304  -20.9664 C   0  0  0  0  0  0  0  0  0  0  0  0
   -0.3485   21.7938  -21.9571 C   0  0  0  0  0  0  0  0  0  0  0  0
   -0.1073   21.2250  -23.3384 C   0  0  0  0  0  0  0  0  0  0  0  0
    1.3394   21.4109  -23.6776 C   0  0  0  0  0  0  0  0  0  0  0  0
    2.1669   21.0350  -22.4681 C   0  0  0  0  0  0  0  0  0  0  0  0
   -4.3340   23.5343  -24.4380 C   0  0  0  0  0  0  0  0  0  0  0  0
   -5.4386   22.7310  -24.3799 C   0  0  0  0  0  0  0  0  0  0  0  0
   -6.7082   23.2613  -23.8850 C   0  0  0  0  0  0  0  0  0  0  0  0
   -7.0330   24.6594  -24.2397 C   0  0  0  0  0  0  0  0  0  0  0  0
   -7.8605   24.6878  -25.5118 C   0  0  0  0  0  0  0  0  0  0  0  0
   -7.9471   25.2088  -23.1519 C   0  0  0  0  0  0  0  0  0  0  0  0
   -5.8260   25.4968  -24.4248 C   0  0  0  0  0  0  0  0  0  0  0  0
   -4.5493   24.8642  -23.8597 C   0  0  0  0  0  0  0  0  0  0  0  0
   -3.3938   23.7915  -27.2300 N   0  0  0  0  0  0  0  0  0  0  0  0
   -3.5341   23.2796  -28.5177 C   0  0  0  0  0  0  0  0  0  0  0  0
   -2.9397   22.2809  -28.9307 O   0  0  0  0  0  0  0  0  0  0  0  0
   -4.0138   24.6458  -26.9900 H   0  0  0  0  0  0  0  0  0  0  0  0
   -4.4497   23.9620  -29.4635 C   0  0  0  0  0  0  0  0  0  0  0  0
   -5.3384   23.3859  -30.2989 N   0  0  0  0  0  0  0  0  0  0  0  0
   -5.9863   24.3258  -30.9985 C   0  0  0  0  0  0  0  0  0  0  0  0
   -5.4898   25.5450  -30.5913 C   0  0  0  0  0  0  0  0  0  0  0  0
   -4.5655   25.2849  -29.6648 N   0  0  0  0  0  0  0  0  0  0  0  0
   -4.0263   26.0422  -29.1831 H   0  0  0  0  0  0  0  0  0  0  0  0
   -5.8885   26.8277  -31.0707 C   0  0  0  0  0  0  0  0  0  0  0  0
   -6.2036   27.8779  -31.4566 N   0  0  0  0  0  0  0  0  0  0  0  0
  7  8  1  0  0  0
  8  9  2  0  0  0
  8 10  1  0  0  0
 10 11  1  0  0  0
 11 12  1  0  0  0
 12 13  1  0  0  0
 13 14  1  0  0  0
 14 15  1  0  0  0
 13  1  1  0  0  0
  1  2  2  0  0  0
  2  3  1  0  0  0
  3  4  2  0  0  0
  4 24  1  0  0  0
 24 25  1  0  0  0
 25 26  2  0  0  0
 25 28  1  0  0  0
 28 29  2  0  0  0
 29 30  1  0  0  0
 30 31  2  0  0  0
 31 32  1  0  0  0
 31 34  1  0  0  0
 34 35  3  0  0  0
  4  5  1  0  0  0
  5  6  2  0  0  0
  5 16  1  0  0  0
 16 17  2  0  0  0
 17 18  1  0  0  0
 18 19  1  0  0  0
 19 20  1  0  0  0
 19 21  1  0  0  0
 19 22  1  0  0  0
 22 23  1  0  0  0
 15 10  1  0  0  0
  6  1  1  0  0  0
 23 16  1  0  0  0
 32 28  1  0  0  0
 24 27  1  0  0  0
 32 33  1  0  0  0
M  END
> <minimizedAffinity>
-9.62141

> <CNNscore>
0.2263285965

> <CNNaffinity>
7.1855554581

> <CNN_VS>
1.6262966394

> <CNNaffinity_variance>
0.0603405312

$$$$
[H]C1=C(c2c([H])c(C3([H])C([H])([H])C([H])([H])N(C(=O)C([H])([H])[H])C([H])([H])C3([H])[H])c([H])c([H])c2N([H])C(=O)c2nc([H])c(C#N)n2[H])C([H])([H])C([H])([H])C(C([H])([H])[H])(C([H])([H])[H])C1([H])[H]


 35 38  0  0  0  0  0  0  0  0999 V2000
   -5.4108   23.2001  -16.6395 C   0  0  0  0  0  0  0  0  0  0  0  0
   -4.1040   22.8109  -16.7468 C   0  0  0  0  0  0  0  0  0  0  0  0
   -3.4820   22.6516  -17.9844 C   0  0  0  0  0  0  0  0  0  0  0  0
   -4.1792   22.8863  -19.1511 C   0  0  0  0  0  0  0  0  0  0  0  0
   -5.4926   23.2825  -19.0525 C   0  0  0  0  0  0  0  0  0  0  0  0
   -6.1016   23.4341  -17.7772 C   0  0  0  0  0  0  0  0  0  0  0  0
   -7.7384   22.3862  -11.0847 C   0  0  0  0  0  0  0  0  0  0  0  0
   -7.8407   23.5437  -12.0332 C   0  0  0  0  0  0  0  0  0  0  0  0
   -8.8851   24.2389  -12.0720 O   0  0  0  0  0  0  0  0  0  0  0  0
   -6.7710   23.8781  -12.9006 N   0  0  0  0  0  0  0  0  0  0  0  0
   -6.9444   25.0090  -13.7910 C   0  0  0  0  0  0  0  0  0  0  0  0
   -5.9093   24.8039  -14.9057 C   0  0  0  0  0  0  0  0  0  0  0  0
   -5.9703   23.3366  -15.2706 C   0  0  0  0  0  0  0  0  0  0  0  0
   -5.1959   22.5648  -14.2472 C   0  0  0  0  0  0  0  0  0  0  0  0
   -5.5528   23.0956  -12.8762 C   0  0  0  0  0  0  0  0  0  0  0  0
   -6.2667   23.7294  -20.1864 C   0  0  0  0  0  0  0  0  0  0  0  0
   -7.1760   22.8934  -20.7720 C   0  0  0  0  0  0  0  0  0  0  0  0
   -7.9615   23.3484  -21.9183 C   0  0  0  0  0  0  0  0  0  0  0  0
   -7.2774   24.2253  -22.8923 C   0  0  0  0  0  0  0  0  0  0  0  0
   -6.6854   23.3874  -24.0109 C   0  0  0  0  0  0  0  0  0  0  0  0
   -8.3402   25.0912  -23.5565 C   0  0  0  0  0  0  0  0  0  0  0  0
   -6.2061   25.0393  -22.2740 C   0  0  0  0  0  0  0  0  0  0  0  0
   -6.2782   25.0855  -20.7436 C   0  0  0  0  0  0  0  0  0  0  0  0
   -3.5673   22.5376  -20.3812 N   0  0  0  0  0  0  0  0  0  0  0  0
   -2.3433   22.9788  -20.8785 C   0  0  0  0  0  0  0  0  0  0  0  0
   -1.6071   23.7747  -20.2902 O   0  0  0  0  0  0  0  0  0  0  0  0
   -4.0851   21.8016  -20.9829 H   0  0  0  0  0  0  0  0  0  0  0  0
   -1.8796   22.4717  -22.1924 C   0  0  0  0  0  0  0  0  0  0  0  0
   -2.2059   21.3007  -22.7770 N   0  0  0  0  0  0  0  0  0  0  0  0
   -1.5914   21.1924  -23.9615 C   0  0  0  0  0  0  0  0  0  0  0  0
   -0.8467   22.3387  -24.1354 C   0  0  0  0  0  0  0  0  0  0  0  0
   -1.0463   23.0859  -23.0480 N   0  0  0  0  0  0  0  0  0  0  0  0
   -0.5939   24.0215  -22.9203 H   0  0  0  0  0  0  0  0  0  0  0  0
   -0.0260   22.6567  -25.2575 C   0  0  0  0  0  0  0  0  0  0  0  0
    0.6350   22.9104  -26.1794 N   0  0  0  0  0  0  0  0  0  0  0  0
  7  8  1  0  0  0
  8  9  2  0  0  0
  8 10  1  0  0  0
 10 11  1  0  0  0
 11 12  1  0  0  0
 12 13  1  0  0  0
 13 14  1  0  0  0
 14 15  1  0  0  0
 13  1  1  0  0  0
  1  2  2  0  0  0
  2  3  1  0  0  0
  3  4  2  0  0  0
  4 24  1  0  0  0
 24 25  1  0  0  0
 25 26  2  0  0  0
 25 28  1  0  0  0
 28 29  2  0  0  0
 29 30  1  0  0  0
 30 31  2  0  0  0
 31 32  1  0  0  0
 31 34  1  0  0  0
 34 35  3  0  0  0
  4  5  1  0  0  0
  5  6  2  0  0  0
  5 16  1  0  0  0
 16 17  2  0  0  0
 17 18  1  0  0  0
 18 19  1  0  0  0
 19 20  1  0  0  0
 19 21  1  0  0  0
 19 22  1  0  0  0
 22 23  1  0  0  0
 15 10  1  0  0  0
  6  1  1  0  0  0
 23 16  1  0  0  0
 32 28  1  0  0  0
 24 27  1  0  0  0
 32 33  1  0  0  0
M  END
> <minimizedAffinity>
-6.26825

> <CNNscore>
0.2242389023

> <CNNaffinity>
6.0555591583

> <CNN_VS>
1.3578919172

> <CNNaffinity_variance>
0.1706506312

$$$$
[H]c1c([H])c(C2([H])c3c(nc(-c4c([H])c(C(=O)N([H])C(C([H])([H])[H])(C([H])([H])[H])C([H])([H])[H])c([H])c([H])c4OC([H])([H])[H])n3C([H])(C([H])([H])[H])C([H])([H])[H])C(=O)N2c2c([H])c(Cl)c([H])c([H])c2C([H])([H])[H])c([H])c([H])c1Cl


 43 47  0  0  0  0  0  0  0  0999 V2000
    0.3499   21.1898  -20.1738 C   0  0  0  0  0  0  0  0  0  0  0  0
   -0.4679   20.2523  -19.5979 N   0  0  0  0  0  0  0  0  0  0  0  0
   -0.4740   20.4206  -18.2672 C   0  0  0  0  0  0  0  0  0  0  0  0
   -1.0564   19.9164  -17.0033 C   0  0  0  0  0  0  0  0  0  0  0  0
   -1.8603   18.9336  -16.9950 O   0  0  0  0  0  0  0  0  0  0  0  0
   -0.5326   20.7269  -15.9995 N   0  0  0  0  0  0  0  0  0  0  0  0
    0.3900   21.6515  -16.5383 C   0  0  0  0  0  0  0  0  0  0  0  0
    0.3409   21.4615  -18.0023 C   0  0  0  0  0  0  0  0  0  0  0  0
    0.8390   21.9227  -19.2016 N   0  0  0  0  0  0  0  0  0  0  0  0
   -0.9643   20.5875  -14.6251 C   0  0  0  0  0  0  0  0  0  0  0  0
   -1.8391   21.5138  -14.0866 C   0  0  0  0  0  0  0  0  0  0  0  0
   -2.2721   21.4155  -12.7858 C   0  0  0  0  0  0  0  0  0  0  0  0
   -3.3848   22.5965  -12.1115 Cl  0  0  0  0  0  0  0  0  0  0  0  0
   -1.8310   20.3727  -11.9874 C   0  0  0  0  0  0  0  0  0  0  0  0
   -0.9648   19.4635  -12.5377 C   0  0  0  0  0  0  0  0  0  0  0  0
   -0.5249   19.5679  -13.8686 C   0  0  0  0  0  0  0  0  0  0  0  0
    0.3981   18.5144  -14.3088 C   0  0  0  0  0  0  0  0  0  0  0  0
    1.7484   21.6053  -16.0036 C   0  0  0  0  0  0  0  0  0  0  0  0
    2.2434   22.6121  -15.2157 C   0  0  0  0  0  0  0  0  0  0  0  0
    3.5278   22.5215  -14.7652 C   0  0  0  0  0  0  0  0  0  0  0  0
    4.3473   21.4449  -15.0798 C   0  0  0  0  0  0  0  0  0  0  0  0
    5.9934   21.3383  -14.4991 Cl  0  0  0  0  0  0  0  0  0  0  0  0
    3.8593   20.4370  -15.8652 C   0  0  0  0  0  0  0  0  0  0  0  0
    2.5542   20.5297  -16.3221 C   0  0  0  0  0  0  0  0  0  0  0  0
    1.8251   20.7366  -22.0346 C   0  0  0  0  0  0  0  0  0  0  0  0
    2.1558   20.7465  -23.3789 C   0  0  0  0  0  0  0  0  0  0  0  0
    1.2802   21.2477  -24.3130 C   0  0  0  0  0  0  0  0  0  0  0  0
    0.0508   21.7504  -23.9085 C   0  0  0  0  0  0  0  0  0  0  0  0
   -0.2416   21.7235  -22.5666 C   0  0  0  0  0  0  0  0  0  0  0  0
    0.6024   21.2348  -21.6222 C   0  0  0  0  0  0  0  0  0  0  0  0
   -0.8825   22.2927  -24.8961 C   0  0  0  0  0  0  0  0  0  0  0  0
   -0.4317   22.7708  -25.9514 O   0  0  0  0  0  0  0  0  0  0  0  0
   -2.2759   22.2778  -24.6722 N   0  0  0  0  0  0  0  0  0  0  0  0
   -2.6285   21.8606  -23.7748 H   0  0  0  0  0  0  0  0  0  0  0  0
   -3.2119   22.8162  -25.6465 C   0  0  0  0  0  0  0  0  0  0  0  0
   -4.5750   22.2289  -25.3624 C   0  0  0  0  0  0  0  0  0  0  0  0
   -3.3407   24.3193  -25.3892 C   0  0  0  0  0  0  0  0  0  0  0  0
   -2.8389   22.5228  -27.0591 C   0  0  0  0  0  0  0  0  0  0  0  0
    3.1514   18.9033  -21.0813 C   0  0  0  0  0  0  0  0  0  0  0  0
    2.7216   20.2285  -21.1164 O   0  0  0  0  0  0  0  0  0  0  0  0
    1.7570   23.0124  -19.2626 C   0  0  0  0  0  0  0  0  0  0  0  0
    3.1615   22.7690  -18.8472 C   0  0  0  0  0  0  0  0  0  0  0  0
    1.2522   24.2095  -18.4274 C   0  0  0  0  0  0  0  0  0  0  0  0
 39 40  1  0  0  0
 40 25  1  0  0  0
 25 26  2  0  0  0
 26 27  1  0  0  0
 27 28  2  0  0  0
 28 29  1  0  0  0
 29 30  2  0  0  0
 30  1  1  0  0  0
  1  2  2  0  0  0
  2  3  1  0  0  0
  3  4  1  0  0  0
  4  5  2  0  0  0
  4  6  1  0  0  0
  6  7  1  0  0  0
  7  8  1  0  0  0
  8  9  1  0  0  0
  9 41  1  0  0  0
 41 42  1  0  0  0
 41 43  1  0  0  0
  7 18  1  0  0  0
 18 19  2  0  0  0
 19 20  1  0  0  0
 20 21  2  0  0  0
 21 22  1  0  0  0
 21 23  1  0  0  0
 23 24  2  0  0  0
  6 10  1  0  0  0
 10 11  2  0  0  0
 11 12  1  0  0  0
 12 13  1  0  0  0
 12 14  2  0  0  0
 14 15  1  0  0  0
 15 16  2  0  0  0
 16 17  1  0  0  0
 28 31  1  0  0  0
 31 32  2  0  0  0
 31 33  1  0  0  0
 33 35  1  0  0  0
 35 36  1  0  0  0
 35 37  1  0  0  0
 35 38  1  0  0  0
 30 25  1  0  0  0
  9  1  1  0  0  0
 24 18  1  0  0  0
 16 10  1  0  0  0
  8  3  2  0  0  0
 33 34  1  0  0  0
M  END
> <minimizedAffinity>
-5.76375

> <CNNscore>
0.3645140529

> <CNNaffinity>
6.9684295654

> <CNN_VS>
2.5400905609

> <CNNaffinity_variance>
0.8154516220

$$$$
[H]c1c([H])c(C2([H])c3c(nc(-c4c([H])c(C(=O)N([H])C(C([H])([H])[H])(C([H])([H])[H])C([H])([H])[H])c([H])c([H])c4OC([H])([H])[H])n3C([H])(C([H])([H])[H])C([H])([H])[H])C(=O)N2c2c([H])c(Cl)c([H])c([H])c2C([H])([H])[H])c([H])c([H])c1Cl


 43 47  0  0  0  0  0  0  0  0999 V2000
   -7.1408   21.0232  -19.2921 C   0  0  0  0  0  0  0  0  0  0  0  0
   -7.6907   19.7684  -19.3398 N   0  0  0  0  0  0  0  0  0  0  0  0
   -7.7874   19.2745  -18.0964 C   0  0  0  0  0  0  0  0  0  0  0  0
   -8.2524   18.1119  -17.3071 C   0  0  0  0  0  0  0  0  0  0  0  0
   -8.7574   17.0928  -17.8714 O   0  0  0  0  0  0  0  0  0  0  0  0
   -8.0036   18.4385  -15.9765 N   0  0  0  0  0  0  0  0  0  0  0  0
   -7.3507   19.6882  -15.8854 C   0  0  0  0  0  0  0  0  0  0  0  0
   -7.2967   20.2150  -17.2643 C   0  0  0  0  0  0  0  0  0  0  0  0
   -6.9032   21.2913  -18.0297 N   0  0  0  0  0  0  0  0  0  0  0  0
   -8.4270   17.5669  -14.9014 C   0  0  0  0  0  0  0  0  0  0  0  0
   -7.6157   16.5154  -14.5148 C   0  0  0  0  0  0  0  0  0  0  0  0
   -7.9827   15.6662  -13.4982 C   0  0  0  0  0  0  0  0  0  0  0  0
   -6.9442   14.3343  -13.0135 Cl  0  0  0  0  0  0  0  0  0  0  0  0
   -9.1867   15.8561  -12.8398 C   0  0  0  0  0  0  0  0  0  0  0  0
   -9.9780   16.9035  -13.2356 C   0  0  0  0  0  0  0  0  0  0  0  0
   -9.5984   17.7696  -14.2756 C   0  0  0  0  0  0  0  0  0  0  0  0
  -10.5529   18.8435  -14.5775 C   0  0  0  0  0  0  0  0  0  0  0  0
   -6.0501   19.6983  -15.2210 C   0  0  0  0  0  0  0  0  0  0  0  0
   -5.8388   20.4110  -14.0690 C   0  0  0  0  0  0  0  0  0  0  0  0
   -4.5953   20.3985  -13.5083 C   0  0  0  0  0  0  0  0  0  0  0  0
   -3.5397   19.6891  -14.0669 C   0  0  0  0  0  0  0  0  0  0  0  0
   -1.9484   19.6804  -13.3419 Cl  0  0  0  0  0  0  0  0  0  0  0  0
   -3.7440   18.9757  -15.2159 C   0  0  0  0  0  0  0  0  0  0  0  0
   -5.0077   18.9887  -15.7847 C   0  0  0  0  0  0  0  0  0  0  0  0
   -7.9383   22.4951  -21.0361 C   0  0  0  0  0  0  0  0  0  0  0  0
   -7.7737   23.2548  -22.1816 C   0  0  0  0  0  0  0  0  0  0  0  0
   -6.5478   23.3369  -22.7988 C   0  0  0  0  0  0  0  0  0  0  0  0
   -5.4611   22.6521  -22.2715 C   0  0  0  0  0  0  0  0  0  0  0  0
   -5.6634   21.9090  -21.1341 C   0  0  0  0  0  0  0  0  0  0  0  0
   -6.8615   21.8099  -20.5032 C   0  0  0  0  0  0  0  0  0  0  0  0
   -4.1557   22.7282  -22.9276 C   0  0  0  0  0  0  0  0  0  0  0  0
   -3.9969   23.5342  -23.8606 O   0  0  0  0  0  0  0  0  0  0  0  0
   -3.0814   21.9097  -22.5178 N   0  0  0  0  0  0  0  0  0  0  0  0
   -3.2426   21.2433  -21.7217 H   0  0  0  0  0  0  0  0  0  0  0  0
   -1.7805   21.9761  -23.1646 C   0  0  0  0  0  0  0  0  0  0  0  0
   -1.1995   23.3479  -22.9111 C   0  0  0  0  0  0  0  0  0  0  0  0
   -0.8534   20.9893  -22.4513 C   0  0  0  0  0  0  0  0  0  0  0  0
   -1.8304   21.7311  -24.6337 C   0  0  0  0  0  0  0  0  0  0  0  0
  -10.0470   23.5096  -20.2923 C   0  0  0  0  0  0  0  0  0  0  0  0
   -9.1793   22.4286  -20.4355 O   0  0  0  0  0  0  0  0  0  0  0  0
   -6.3157   22.4519  -17.4453 C   0  0  0  0  0  0  0  0  0  0  0  0
   -6.6919   23.7792  -17.9941 C   0  0  0  0  0  0  0  0  0  0  0  0
   -4.7738   22.3766  -17.4939 C   0  0  0  0  0  0  0  0  0  0  0  0
 39 40  1  0  0  0
 40 25  1  0  0  0
 25 26  2  0  0  0
 26 27  1  0  0  0
 27 28  2  0  0  0
 28 29  1  0  0  0
 29 30  2  0  0  0
 30  1  1  0  0  0
  1  2  2  0  0  0
  2  3  1  0  0  0
  3  4  1  0  0  0
  4  5  2  0  0  0
  4  6  1  0  0  0
  6  7  1  0  0  0
  7  8  1  0  0  0
  8  9  1  0  0  0
  9 41  1  0  0  0
 41 42  1  0  0  0
 41 43  1  0  0  0
  7 18  1  0  0  0
 18 19  2  0  0  0
 19 20  1  0  0  0
 20 21  2  0  0  0
 21 22  1  0  0  0
 21 23  1  0  0  0
 23 24  2  0  0  0
  6 10  1  0  0  0
 10 11  2  0  0  0
 11 12  1  0  0  0
 12 13  1  0  0  0
 12 14  2  0  0  0
 14 15  1  0  0  0
 15 16  2  0  0  0
 16 17  1  0  0  0
 28 31  1  0  0  0
 31 32  2  0  0  0
 31 33  1  0  0  0
 33 35  1  0  0  0
 35 36  1  0  0  0
 35 37  1  0  0  0
 35 38  1  0  0  0
 30 25  1  0  0  0
  9  1  1  0  0  0
 24 18  1  0  0  0
 16 10  1  0  0  0
  8  3  2  0  0  0
 33 34  1  0  0  0
M  END
> <minimizedAffinity>
-5.42389

> <CNNscore>
0.2341058105

> <CNNaffinity>
6.5409393311

> <CNN_VS>
1.5312719345

> <CNNaffinity_variance>
0.1753689945

$$$$
[H]c1c([H])c(C2([H])c3c(nc(-c4c([H])c(C(=O)N([H])C(C([H])([H])[H])(C([H])([H])[H])C([H])([H])[H])c([H])c([H])c4OC([H])([H])[H])n3C([H])(C([H])([H])[H])C([H])([H])[H])C(=O)N2c2c([H])c(Cl)c([H])c([H])c2C([H])([H])[H])c([H])c([H])c1Cl


 43 47  0  0  0  0  0  0  0  0999 V2000
   -0.3703   20.4901  -21.2323 C   0  0  0  0  0  0  0  0  0  0  0  0
    0.0217   19.1880  -21.0587 N   0  0  0  0  0  0  0  0  0  0  0  0
    0.0697   18.9059  -19.7483 C   0  0  0  0  0  0  0  0  0  0  0  0
    0.3365   17.8290  -18.7685 C   0  0  0  0  0  0  0  0  0  0  0  0
    0.6927   16.6700  -19.1451 O   0  0  0  0  0  0  0  0  0  0  0  0
    0.1088   18.3958  -17.5172 N   0  0  0  0  0  0  0  0  0  0  0  0
   -0.2090   19.7668  -17.6431 C   0  0  0  0  0  0  0  0  0  0  0  0
   -0.2890   20.0292  -19.0945 C   0  0  0  0  0  0  0  0  0  0  0  0
   -0.5584   20.9977  -20.0371 N   0  0  0  0  0  0  0  0  0  0  0  0
    0.1770   17.5977  -16.3117 C   0  0  0  0  0  0  0  0  0  0  0  0
   -0.9907   17.1405  -15.7281 C   0  0  0  0  0  0  0  0  0  0  0  0
   -0.9671   16.3799  -14.5834 C   0  0  0  0  0  0  0  0  0  0  0  0
   -2.4562   15.8025  -13.8507 Cl  0  0  0  0  0  0  0  0  0  0  0  0
    0.2438   16.0580  -13.9924 C   0  0  0  0  0  0  0  0  0  0  0  0
    1.3912   16.5190  -14.5846 C   0  0  0  0  0  0  0  0  0  0  0  0
    1.3622   17.2963  -15.7554 C   0  0  0  0  0  0  0  0  0  0  0  0
    2.6749   17.7092  -16.2669 C   0  0  0  0  0  0  0  0  0  0  0  0
    0.6627   20.7060  -16.9422 C   0  0  0  0  0  0  0  0  0  0  0  0
    1.9119   21.0147  -17.4152 C   0  0  0  0  0  0  0  0  0  0  0  0
    2.6873   21.8821  -16.7031 C   0  0  0  0  0  0  0  0  0  0  0  0
    2.2524   22.4598  -15.5170 C   0  0  0  0  0  0  0  0  0  0  0  0
    3.2543   23.5695  -14.6100 Cl  0  0  0  0  0  0  0  0  0  0  0  0
    1.0070   22.1561  -15.0399 C   0  0  0  0  0  0  0  0  0  0  0  0
    0.2197   21.2751  -15.7642 C   0  0  0  0  0  0  0  0  0  0  0  0
    0.7286   21.4488  -23.1604 C   0  0  0  0  0  0  0  0  0  0  0  0
    0.7323   22.0499  -24.4075 C   0  0  0  0  0  0  0  0  0  0  0  0
   -0.4476   22.3195  -25.0598 C   0  0  0  0  0  0  0  0  0  0  0  0
   -1.6577   21.9875  -24.4653 C   0  0  0  0  0  0  0  0  0  0  0  0
   -1.6209   21.3925  -23.2277 C   0  0  0  0  0  0  0  0  0  0  0  0
   -0.4719   21.1141  -22.5605 C   0  0  0  0  0  0  0  0  0  0  0  0
   -2.9174   22.2789  -25.1499 C   0  0  0  0  0  0  0  0  0  0  0  0
   -3.7794   21.3867  -25.2301 O   0  0  0  0  0  0  0  0  0  0  0  0
   -3.1682   23.5486  -25.7127 N   0  0  0  0  0  0  0  0  0  0  0  0
   -2.4246   24.2854  -25.6232 H   0  0  0  0  0  0  0  0  0  0  0  0
   -4.4162   23.8478  -26.3971 C   0  0  0  0  0  0  0  0  0  0  0  0
   -4.4743   25.3386  -26.6374 C   0  0  0  0  0  0  0  0  0  0  0  0
   -4.3554   23.2015  -27.7830 C   0  0  0  0  0  0  0  0  0  0  0  0
   -5.6287   23.4280  -25.6395 C   0  0  0  0  0  0  0  0  0  0  0  0
    3.0810   20.7451  -23.1682 C   0  0  0  0  0  0  0  0  0  0  0  0
    1.9266   21.1891  -22.5260 O   0  0  0  0  0  0  0  0  0  0  0  0
   -0.9457   22.3188  -19.6648 C   0  0  0  0  0  0  0  0  0  0  0  0
    0.0897   23.2181  -19.0960 C   0  0  0  0  0  0  0  0  0  0  0  0
   -2.1092   22.2895  -18.6494 C   0  0  0  0  0  0  0  0  0  0  0  0
 39 40  1  0  0  0
 40 25  1  0  0  0
 25 26  2  0  0  0
 26 27  1  0  0  0
 27 28  2  0  0  0
 28 29  1  0  0  0
 29 30  2  0  0  0
 30  1  1  0  0  0
  1  2  2  0  0  0
  2  3  1  0  0  0
  3  4  1  0  0  0
  4  5  2  0  0  0
  4  6  1  0  0  0
  6  7  1  0  0  0
  7  8  1  0  0  0
  8  9  1  0  0  0
  9 41  1  0  0  0
 41 42  1  0  0  0
 41 43  1  0  0  0
  7 18  1  0  0  0
 18 19  2  0  0  0
 19 20  1  0  0  0
 20 21  2  0  0  0
 21 22  1  0  0  0
 21 23  1  0  0  0
 23 24  2  0  0  0
  6 10  1  0  0  0
 10 11  2  0  0  0
 11 12  1  0  0  0
 12 13  1  0  0  0
 12 14  2  0  0  0
 14 15  1  0  0  0
 15 16  2  0  0  0
 16 17  1  0  0  0
 28 31  1  0  0  0
 31 32  2  0  0  0
 31 33  1  0  0  0
 33 35  1  0  0  0
 35 36  1  0  0  0
 35 37  1  0  0  0
 35 38  1  0  0  0
 30 25  1  0  0  0
  9  1  1  0  0  0
 24 18  1  0  0  0
 16 10  1  0  0  0
  8  3  2  0  0  0
 33 34  1  0  0  0
M  END
> <minimizedAffinity>
-7.26997

> <CNNscore>
0.1307844222

> <CNNaffinity>
6.3637180328

> <CNN_VS>
0.8322752118

> <CNNaffinity_variance>
0.1180658489

$$$$
[H]c1c([H])c(C2([H])c3c(nc(-c4c([H])c(C(=O)N([H])C(C([H])([H])[H])(C([H])([H])[H])C([H])([H])[H])c([H])c([H])c4OC([H])([H])[H])n3C([H])(C([H])([H])[H])C([H])([H])[H])C(=O)N2c2c([H])c(Cl)c([H])c([H])c2C([H])([H])[H])c([H])c([H])c1Cl


 43 47  0  0  0  0  0  0  0  0999 V2000
   -6.1289   22.8187  -16.8477 C   0  0  0  0  0  0  0  0  0  0  0  0
   -6.5310   24.0513  -17.2930 N   0  0  0  0  0  0  0  0  0  0  0  0
   -6.4637   24.0873  -18.6321 C   0  0  0  0  0  0  0  0  0  0  0  0
   -6.7216   24.9354  -19.8174 C   0  0  0  0  0  0  0  0  0  0  0  0
   -7.1505   26.1242  -19.6954 O   0  0  0  0  0  0  0  0  0  0  0  0
   -6.4006   24.1471  -20.9195 N   0  0  0  0  0  0  0  0  0  0  0  0
   -5.8922   22.8959  -20.5041 C   0  0  0  0  0  0  0  0  0  0  0  0
   -6.0171   22.8798  -19.0324 C   0  0  0  0  0  0  0  0  0  0  0  0
   -5.8179   22.1097  -17.9071 N   0  0  0  0  0  0  0  0  0  0  0  0
   -6.6269   24.6206  -22.2683 C   0  0  0  0  0  0  0  0  0  0  0  0
   -5.5523   25.0254  -23.0394 C   0  0  0  0  0  0  0  0  0  0  0  0
   -5.7265   25.4809  -24.3246 C   0  0  0  0  0  0  0  0  0  0  0  0
   -4.3546   25.9915  -25.2966 Cl  0  0  0  0  0  0  0  0  0  0  0  0
   -6.9985   25.5408  -24.8701 C   0  0  0  0  0  0  0  0  0  0  0  0
   -8.0519   25.1351  -24.0919 C   0  0  0  0  0  0  0  0  0  0  0  0
   -7.8688   24.6697  -22.7782 C   0  0  0  0  0  0  0  0  0  0  0  0
   -9.0956   24.2696  -22.0778 C   0  0  0  0  0  0  0  0  0  0  0  0
   -4.5500   22.5510  -20.9653 C   0  0  0  0  0  0  0  0  0  0  0  0
   -4.3497   21.6547  -21.9831 C   0  0  0  0  0  0  0  0  0  0  0  0
   -3.0709   21.3571  -22.3533 C   0  0  0  0  0  0  0  0  0  0  0  0
   -1.9690   21.9315  -21.7325 C   0  0  0  0  0  0  0  0  0  0  0  0
   -0.3331   21.5425  -22.2128 Cl  0  0  0  0  0  0  0  0  0  0  0  0
   -2.1620   22.8268  -20.7166 C   0  0  0  0  0  0  0  0  0  0  0  0
   -3.4615   23.1288  -20.3414 C   0  0  0  0  0  0  0  0  0  0  0  0
   -7.2503   22.4576  -14.7367 C   0  0  0  0  0  0  0  0  0  0  0  0
   -7.2712   22.1615  -13.3846 C   0  0  0  0  0  0  0  0  0  0  0  0
   -6.1055   21.8915  -12.7074 C   0  0  0  0  0  0  0  0  0  0  0  0
   -4.8924   21.9155  -13.3825 C   0  0  0  0  0  0  0  0  0  0  0  0
   -4.9119   22.2133  -14.7234 C   0  0  0  0  0  0  0  0  0  0  0  0
   -6.0467   22.4834  -15.4178 C   0  0  0  0  0  0  0  0  0  0  0  0
   -3.6472   21.6373  -12.6667 C   0  0  0  0  0  0  0  0  0  0  0  0
   -3.7043   21.2594  -11.4837 O   0  0  0  0  0  0  0  0  0  0  0  0
   -2.3923   21.7865  -13.2951 N   0  0  0  0  0  0  0  0  0  0  0  0
   -2.3751   22.1001  -14.2977 H   0  0  0  0  0  0  0  0  0  0  0  0
   -1.1487   21.5146  -12.5918 C   0  0  0  0  0  0  0  0  0  0  0  0
   -0.0049   21.9768  -13.4647 C   0  0  0  0  0  0  0  0  0  0  0  0
   -1.1122   22.4038  -11.3468 C   0  0  0  0  0  0  0  0  0  0  0  0
   -0.9550   20.0761  -12.2548 C   0  0  0  0  0  0  0  0  0  0  0  0
   -9.4704   21.8086  -15.5609 C   0  0  0  0  0  0  0  0  0  0  0  0
   -8.4343   22.7255  -15.3937 O   0  0  0  0  0  0  0  0  0  0  0  0
   -5.3221   20.7751  -17.9902 C   0  0  0  0  0  0  0  0  0  0  0  0
   -3.8888   20.5800  -18.3248 C   0  0  0  0  0  0  0  0  0  0  0  0
   -6.1297   19.9469  -19.0137 C   0  0  0  0  0  0  0  0  0  0  0  0
 39 40  1  0  0  0
 40 25  1  0  0  0
 25 26  2  0  0  0
 26 27  1  0  0  0
 27 28  2  0  0  0
 28 29  1  0  0  0
 29 30  2  0  0  0
 30  1  1  0  0  0
  1  2  2  0  0  0
  2  3  1  0  0  0
  3  4  1  0  0  0
  4  5  2  0  0  0
  4  6  1  0  0  0
  6  7  1  0  0  0
  7  8  1  0  0  0
  8  9  1  0  0  0
  9 41  1  0  0  0
 41 42  1  0  0  0
 41 43  1  0  0  0
  7 18  1  0  0  0
 18 19  2  0  0  0
 19 20  1  0  0  0
 20 21  2  0  0  0
 21 22  1  0  0  0
 21 23  1  0  0  0
 23 24  2  0  0  0
  6 10  1  0  0  0
 10 11  2  0  0  0
 11 12  1  0  0  0
 12 13  1  0  0  0
 12 14  2  0  0  0
 14 15  1  0  0  0
 15 16  2  0  0  0
 16 17  1  0  0  0
 28 31  1  0  0  0
 31 32  2  0  0  0
 31 33  1  0  0  0
 33 35  1  0  0  0
 35 36  1  0  0  0
 35 37  1  0  0  0
 35 38  1  0  0  0
 30 25  1  0  0  0
  9  1  1  0  0  0
 24 18  1  0  0  0
 16 10  1  0  0  0
  8  3  2  0  0  0
 33 34  1  0  0  0
M  END
> <minimizedAffinity>
-6.20707

> <CNNscore>
0.1302021742

> <CNNaffinity>
6.3599367142

> <CNN_VS>
0.8280776143

> <CNNaffinity_variance>
0.0865423828

$$$$
[H]c1c([H])c(C2([H])c3c(nc(-c4c([H])c(C(=O)N([H])C(C([H])([H])[H])(C([H])([H])[H])C([H])([H])[H])c([H])c([H])c4OC([H])([H])[H])n3C([H])(C([H])([H])[H])C([H])([H])[H])C(=O)N2c2c([H])c(Cl)c([H])c([H])c2C([H])([H])[H])c([H])c([H])c1Cl


 43 47  0  0  0  0  0  0  0  0999 V2000
   -1.1283   22.3151  -20.1043 C   0  0  0  0  0  0  0  0  0  0  0  0
   -2.0172   23.3576  -20.1526 N   0  0  0  0  0  0  0  0  0  0  0  0
   -2.6719   23.3338  -21.3230 C   0  0  0  0  0  0  0  0  0  0  0  0
   -3.7274   24.0057  -22.1137 C   0  0  0  0  0  0  0  0  0  0  0  0
   -4.3300   25.0314  -21.6698 O   0  0  0  0  0  0  0  0  0  0  0  0
   -3.8317   23.2769  -23.2957 N   0  0  0  0  0  0  0  0  0  0  0  0
   -2.8674   22.2447  -23.3296 C   0  0  0  0  0  0  0  0  0  0  0  0
   -2.1954   22.2791  -22.0146 C   0  0  0  0  0  0  0  0  0  0  0  0
   -1.2397   21.6620  -21.2369 N   0  0  0  0  0  0  0  0  0  0  0  0
   -4.8465   23.5894  -24.2792 C   0  0  0  0  0  0  0  0  0  0  0  0
   -4.6211   24.6005  -25.1958 C   0  0  0  0  0  0  0  0  0  0  0  0
   -5.5601   24.9266  -26.1451 C   0  0  0  0  0  0  0  0  0  0  0  0
   -5.2635   26.2118  -27.3060 Cl  0  0  0  0  0  0  0  0  0  0  0  0
   -6.7604   24.2367  -26.1955 C   0  0  0  0  0  0  0  0  0  0  0  0
   -6.9667   23.2372  -25.2799 C   0  0  0  0  0  0  0  0  0  0  0  0
   -6.0033   22.9070  -24.3111 C   0  0  0  0  0  0  0  0  0  0  0  0
   -6.3735   21.8117  -23.4061 C   0  0  0  0  0  0  0  0  0  0  0  0
   -1.9293   22.2642  -24.4488 C   0  0  0  0  0  0  0  0  0  0  0  0
   -0.6580   22.7583  -24.3104 C   0  0  0  0  0  0  0  0  0  0  0  0
    0.1637   22.7698  -25.3992 C   0  0  0  0  0  0  0  0  0  0  0  0
   -0.2465   22.2989  -26.6400 C   0  0  0  0  0  0  0  0  0  0  0  0
    0.8135   22.3194  -28.0306 Cl  0  0  0  0  0  0  0  0  0  0  0  0
   -1.5136   21.8044  -26.7846 C   0  0  0  0  0  0  0  0  0  0  0  0
   -2.3476   21.7927  -25.6778 C   0  0  0  0  0  0  0  0  0  0  0  0
   -0.8285   21.6895  -17.7885 C   0  0  0  0  0  0  0  0  0  0  0  0
   -0.0596   21.4707  -16.6583 C   0  0  0  0  0  0  0  0  0  0  0  0
    1.3024   21.6566  -16.6896 C   0  0  0  0  0  0  0  0  0  0  0  0
    1.9171   22.0683  -17.8646 C   0  0  0  0  0  0  0  0  0  0  0  0
    1.1212   22.2751  -18.9649 C   0  0  0  0  0  0  0  0  0  0  0  0
   -0.2249   22.0993  -18.9637 C   0  0  0  0  0  0  0  0  0  0  0  0
    3.3648   22.2760  -17.9030 C   0  0  0  0  0  0  0  0  0  0  0  0
    4.1016   21.3238  -18.2125 O   0  0  0  0  0  0  0  0  0  0  0  0
    3.9325   23.5322  -17.6002 N   0  0  0  0  0  0  0  0  0  0  0  0
    3.2849   24.3205  -17.3493 H   0  0  0  0  0  0  0  0  0  0  0  0
    5.3703   23.7486  -17.6334 C   0  0  0  0  0  0  0  0  0  0  0  0
    5.6199   25.2381  -17.6871 C   0  0  0  0  0  0  0  0  0  0  0  0
    5.9450   23.2748  -16.2965 C   0  0  0  0  0  0  0  0  0  0  0  0
    6.0458   23.0986  -18.7918 C   0  0  0  0  0  0  0  0  0  0  0  0
   -3.0524   22.1739  -16.8674 C   0  0  0  0  0  0  0  0  0  0  0  0
   -2.1939   21.4963  -17.7312 O   0  0  0  0  0  0  0  0  0  0  0  0
   -0.5236   20.5176  -21.6967 C   0  0  0  0  0  0  0  0  0  0  0  0
   -0.3309   19.3868  -20.7542 C   0  0  0  0  0  0  0  0  0  0  0  0
    0.8807   20.9106  -22.2057 C   0  0  0  0  0  0  0  0  0  0  0  0
 39 40  1  0  0  0
 40 25  1  0  0  0
 25 26  2  0  0  0
 26 27  1  0  0  0
 27 28  2  0  0  0
 28 29  1  0  0  0
 29 30  2  0  0  0
 30  1  1  0  0  0
  1  2  2  0  0  0
  2  3  1  0  0  0
  3  4  1  0  0  0
  4  5  2  0  0  0
  4  6  1  0  0  0
  6  7  1  0  0  0
  7  8  1  0  0  0
  8  9  1  0  0  0
  9 41  1  0  0  0
 41 42  1  0  0  0
 41 43  1  0  0  0
  7 18  1  0  0  0
 18 19  2  0  0  0
 19 20  1  0  0  0
 20 21  2  0  0  0
 21 22  1  0  0  0
 21 23  1  0  0  0
 23 24  2  0  0  0
  6 10  1  0  0  0
 10 11  2  0  0  0
 11 12  1  0  0  0
 12 13  1  0  0  0
 12 14  2  0  0  0
 14 15  1  0  0  0
 15 16  2  0  0  0
 16 17  1  0  0  0
 28 31  1  0  0  0
 31 32  2  0  0  0
 31 33  1  0  0  0
 33 35  1  0  0  0
 35 36  1  0  0  0
 35 37  1  0  0  0
 35 38  1  0  0  0
 30 25  1  0  0  0
  9  1  1  0  0  0
 24 18  1  0  0  0
 16 10  1  0  0  0
  8  3  2  0  0  0
 33 34  1  0  0  0
M  END
> <minimizedAffinity>
-9.23913

> <CNNscore>
0.1241294444

> <CNNaffinity>
6.9829087257

> <CNN_VS>
0.8667845726

> <CNNaffinity_variance>
0.3333441615

$$$$
[H]c1c([H])c(C2([H])c3c(nc(-c4c([H])c(C(=O)N([H])C(C([H])([H])[H])(C([H])([H])[H])C([H])([H])[H])c([H])c([H])c4OC([H])([H])[H])n3C([H])(C([H])([H])[H])C([H])([H])[H])C(=O)N2c2c([H])c(Cl)c([H])c([H])c2C([H])([H])[H])c([H])c([H])c1Cl


 43 47  0  0  0  0  0  0  0  0999 V2000
   -2.9726   22.3821  -17.6540 C   0  0  0  0  0  0  0  0  0  0  0  0
   -1.8849   23.1453  -17.9912 N   0  0  0  0  0  0  0  0  0  0  0  0
   -1.0279   22.4086  -18.7138 C   0  0  0  0  0  0  0  0  0  0  0  0
    0.2585   22.4494  -19.4446 C   0  0  0  0  0  0  0  0  0  0  0  0
    0.9622   23.5056  -19.4800 O   0  0  0  0  0  0  0  0  0  0  0  0
    0.4209   21.1781  -19.9890 N   0  0  0  0  0  0  0  0  0  0  0  0
   -0.6345   20.3279  -19.5892 C   0  0  0  0  0  0  0  0  0  0  0  0
   -1.5722   21.1807  -18.8307 C   0  0  0  0  0  0  0  0  0  0  0  0
   -2.7793   21.1895  -18.1660 N   0  0  0  0  0  0  0  0  0  0  0  0
    1.5340   20.8761  -20.8634 C   0  0  0  0  0  0  0  0  0  0  0  0
    2.7343   20.4544  -20.3205 C   0  0  0  0  0  0  0  0  0  0  0  0
    3.8140   20.1580  -21.1177 C   0  0  0  0  0  0  0  0  0  0  0  0
    5.3341   19.6215  -20.4183 Cl  0  0  0  0  0  0  0  0  0  0  0  0
    3.7114   20.2801  -22.4939 C   0  0  0  0  0  0  0  0  0  0  0  0
    2.5142   20.6987  -23.0148 C   0  0  0  0  0  0  0  0  0  0  0  0
    1.4125   21.0005  -22.1956 C   0  0  0  0  0  0  0  0  0  0  0  0
    0.2022   21.4320  -22.9058 C   0  0  0  0  0  0  0  0  0  0  0  0
   -0.2581   19.1148  -18.8683 C   0  0  0  0  0  0  0  0  0  0  0  0
   -0.3635   17.8757  -19.4455 C   0  0  0  0  0  0  0  0  0  0  0  0
   -0.0173   16.7787  -18.7124 C   0  0  0  0  0  0  0  0  0  0  0  0
    0.4365   16.8775  -17.4033 C   0  0  0  0  0  0  0  0  0  0  0  0
    0.8765   15.4652  -16.4707 Cl  0  0  0  0  0  0  0  0  0  0  0  0
    0.5444   18.1108  -16.8218 C   0  0  0  0  0  0  0  0  0  0  0  0
    0.1928   19.2249  -17.5673 C   0  0  0  0  0  0  0  0  0  0  0  0
   -5.0729   23.5683  -17.4923 C   0  0  0  0  0  0  0  0  0  0  0  0
   -6.1420   24.0956  -16.7885 C   0  0  0  0  0  0  0  0  0  0  0  0
   -6.2190   23.9583  -15.4226 C   0  0  0  0  0  0  0  0  0  0  0  0
   -5.2162   23.2848  -14.7379 C   0  0  0  0  0  0  0  0  0  0  0  0
   -4.1717   22.7755  -15.4705 C   0  0  0  0  0  0  0  0  0  0  0  0
   -4.0694   22.8954  -16.8189 C   0  0  0  0  0  0  0  0  0  0  0  0
   -5.2874   23.1419  -13.2836 C   0  0  0  0  0  0  0  0  0  0  0  0
   -6.2407   22.5184  -12.7859 O   0  0  0  0  0  0  0  0  0  0  0  0
   -4.2958   23.6934  -12.4443 N   0  0  0  0  0  0  0  0  0  0  0  0
   -3.4978   24.2086  -12.8934 H   0  0  0  0  0  0  0  0  0  0  0  0
   -4.3583   23.5588  -10.9975 C   0  0  0  0  0  0  0  0  0  0  0  0
   -3.1041   24.1680  -10.4147 C   0  0  0  0  0  0  0  0  0  0  0  0
   -5.5169   24.4247  -10.4976 C   0  0  0  0  0  0  0  0  0  0  0  0
   -4.4767   22.1478  -10.5332 C   0  0  0  0  0  0  0  0  0  0  0  0
   -6.0603   23.4081  -19.7347 C   0  0  0  0  0  0  0  0  0  0  0  0
   -5.0186   23.7201  -18.8631 O   0  0  0  0  0  0  0  0  0  0  0  0
   -3.5982   20.0249  -18.0835 C   0  0  0  0  0  0  0  0  0  0  0  0
   -5.0476   20.1660  -18.3730 C   0  0  0  0  0  0  0  0  0  0  0  0
   -3.4897   19.3690  -16.6894 C   0  0  0  0  0  0  0  0  0  0  0  0
 39 40  1  0  0  0
 40 25  1  0  0  0
 25 26  2  0  0  0
 26 27  1  0  0  0
 27 28  2  0  0  0
 28 29  1  0  0  0
 29 30  2  0  0  0
 30  1  1  0  0  0
  1  2  2  0  0  0
  2  3  1  0  0  0
  3  4  1  0  0  0
  4  5  2  0  0  0
  4  6  1  0  0  0
  6  7  1  0  0  0
  7  8  1  0  0  0
  8  9  1  0  0  0
  9 41  1  0  0  0
 41 42  1  0  0  0
 41 43  1  0  0  0
  7 18  1  0  0  0
 18 19  2  0  0  0
 19 20  1  0  0  0
 20 21  2  0  0  0
 21 22  1  0  0  0
 21 23  1  0  0  0
 23 24  2  0  0  0
  6 10  1  0  0  0
 10 11  2  0  0  0
 11 12  1  0  0  0
 12 13  1  0  0  0
 12 14  2  0  0  0
 14 15  1  0  0  0
 15 16  2  0  0  0
 16 17  1  0  0  0
 28 31  1  0  0  0
 31 32  2  0  0  0
 31 33  1  0  0  0
 33 35  1  0  0  0
 35 36  1  0  0  0
 35 37  1  0  0  0
 35 38  1  0  0  0
 30 25  1  0  0  0
  9  1  1  0  0  0
 24 18  1  0  0  0
 16 10  1  0  0  0
  8  3  2  0  0  0
 33 34  1  0  0  0
M  END
> <minimizedAffinity>
-5.38348

> <CNNscore>
0.1166455448

> <CNNaffinity>
6.0680732727

> <CNN_VS>
0.7078137398

> <CNNaffinity_variance>
0.2005882561

$$$$
[H]c1c([H])c(C2([H])c3c(nc(-c4c([H])c(C(=O)N([H])C(C([H])([H])[H])(C([H])([H])[H])C([H])([H])[H])c([H])c([H])c4OC([H])([H])[H])n3C([H])(C([H])([H])[H])C([H])([H])[H])C(=O)N2c2c([H])c(Cl)c([H])c([H])c2C([H])([H])[H])c([H])c([H])c1Cl


 43 47  0  0  0  0  0  0  0  0999 V2000
   -0.8148   21.2692  -22.2558 C   0  0  0  0  0  0  0  0  0  0  0  0
   -0.8555   21.1507  -23.6209 N   0  0  0  0  0  0  0  0  0  0  0  0
   -1.7853   21.9817  -24.1148 C   0  0  0  0  0  0  0  0  0  0  0  0
   -2.4035   22.4716  -25.3673 C   0  0  0  0  0  0  0  0  0  0  0  0
   -2.0504   22.0148  -26.4981 O   0  0  0  0  0  0  0  0  0  0  0  0
   -3.3344   23.4303  -24.9759 N   0  0  0  0  0  0  0  0  0  0  0  0
   -3.3927   23.5202  -23.5670 C   0  0  0  0  0  0  0  0  0  0  0  0
   -2.3334   22.6227  -23.0628 C   0  0  0  0  0  0  0  0  0  0  0  0
   -1.7135   22.1645  -21.9205 N   0  0  0  0  0  0  0  0  0  0  0  0
   -4.0677   24.2035  -25.9553 C   0  0  0  0  0  0  0  0  0  0  0  0
   -4.5007   23.5960  -27.1201 C   0  0  0  0  0  0  0  0  0  0  0  0
   -5.2000   24.2965  -28.0739 C   0  0  0  0  0  0  0  0  0  0  0  0
   -5.7470   23.5152  -29.5496 Cl  0  0  0  0  0  0  0  0  0  0  0  0
   -5.4831   25.6383  -27.8769 C   0  0  0  0  0  0  0  0  0  0  0  0
   -5.0469   26.2240  -26.7165 C   0  0  0  0  0  0  0  0  0  0  0  0
   -4.3324   25.5036  -25.7438 C   0  0  0  0  0  0  0  0  0  0  0  0
   -3.9390   26.2726  -24.5567 C   0  0  0  0  0  0  0  0  0  0  0  0
   -4.6925   23.2693  -22.9500 C   0  0  0  0  0  0  0  0  0  0  0  0
   -5.2076   24.1087  -21.9963 C   0  0  0  0  0  0  0  0  0  0  0  0
   -6.4169   23.8078  -21.4414 C   0  0  0  0  0  0  0  0  0  0  0  0
   -7.1399   22.6807  -21.8108 C   0  0  0  0  0  0  0  0  0  0  0  0
   -8.6887   22.3022  -21.0925 Cl  0  0  0  0  0  0  0  0  0  0  0  0
   -6.6316   21.8394  -22.7620 C   0  0  0  0  0  0  0  0  0  0  0  0
   -5.4032   22.1460  -23.3255 C   0  0  0  0  0  0  0  0  0  0  0  0
    1.4299   20.6245  -21.6314 C   0  0  0  0  0  0  0  0  0  0  0  0
    2.3440   19.8893  -20.8962 C   0  0  0  0  0  0  0  0  0  0  0  0
    1.9193   18.9840  -19.9525 C   0  0  0  0  0  0  0  0  0  0  0  0
    0.5607   18.8018  -19.7315 C   0  0  0  0  0  0  0  0  0  0  0  0
   -0.3155   19.5493  -20.4801 C   0  0  0  0  0  0  0  0  0  0  0  0
    0.0745   20.4502  -21.4179 C   0  0  0  0  0  0  0  0  0  0  0  0
    0.1014   17.8344  -18.7347 C   0  0  0  0  0  0  0  0  0  0  0  0
   -0.2509   18.2446  -17.6153 O   0  0  0  0  0  0  0  0  0  0  0  0
    0.0489   16.4540  -19.0240 N   0  0  0  0  0  0  0  0  0  0  0  0
    0.3456   16.1372  -19.9807 H   0  0  0  0  0  0  0  0  0  0  0  0
   -0.4041   15.4839  -18.0396 C   0  0  0  0  0  0  0  0  0  0  0  0
   -0.4627   14.1296  -18.7074 C   0  0  0  0  0  0  0  0  0  0  0  0
    0.6762   15.3736  -16.9612 C   0  0  0  0  0  0  0  0  0  0  0  0
   -1.7398   15.8003  -17.4596 C   0  0  0  0  0  0  0  0  0  0  0  0
    2.7948   21.2254  -23.5820 C   0  0  0  0  0  0  0  0  0  0  0  0
    1.8817   21.5267  -22.5733 O   0  0  0  0  0  0  0  0  0  0  0  0
   -2.0854   22.6339  -20.6262 C   0  0  0  0  0  0  0  0  0  0  0  0
   -1.0050   22.9363  -19.6538 C   0  0  0  0  0  0  0  0  0  0  0  0
   -3.0392   21.6390  -19.9291 C   0  0  0  0  0  0  0  0  0  0  0  0
 39 40  1  0  0  0
 40 25  1  0  0  0
 25 26  2  0  0  0
 26 27  1  0  0  0
 27 28  2  0  0  0
 28 29  1  0  0  0
 29 30  2  0  0  0
 30  1  1  0  0  0
  1  2  2  0  0  0
  2  3  1  0  0  0
  3  4  1  0  0  0
  4  5  2  0  0  0
  4  6  1  0  0  0
  6  7  1  0  0  0
  7  8  1  0  0  0
  8  9  1  0  0  0
  9 41  1  0  0  0
 41 42  1  0  0  0
 41 43  1  0  0  0
  7 18  1  0  0  0
 18 19  2  0  0  0
 19 20  1  0  0  0
 20 21  2  0  0  0
 21 22  1  0  0  0
 21 23  1  0  0  0
 23 24  2  0  0  0
  6 10  1  0  0  0
 10 11  2  0  0  0
 11 12  1  0  0  0
 12 13  1  0  0  0
 12 14  2  0  0  0
 14 15  1  0  0  0
 15 16  2  0  0  0
 16 17  1  0  0  0
 28 31  1  0  0  0
 31 32  2  0  0  0
 31 33  1  0  0  0
 33 35  1  0  0  0
 35 36  1  0  0  0
 35 37  1  0  0  0
 35 38  1  0  0  0
 30 25  1  0  0  0
  9  1  1  0  0  0
 24 18  1  0  0  0
 16 10  1  0  0  0
  8  3  2  0  0  0
 33 34  1  0  0  0
M  END
> <minimizedAffinity>
-8.40835

> <CNNscore>
0.1151548326

> <CNNaffinity>
7.0818428993

> <CNN_VS>
0.8155084252

> <CNNaffinity_variance>
0.1434297115

$$$$
[H]c1c([H])c(C2([H])c3c(nc(-c4c([H])c(C(=O)N([H])C(C([H])([H])[H])(C([H])([H])[H])C([H])([H])[H])c([H])c([H])c4OC([H])([H])[H])n3C([H])(C([H])([H])[H])C([H])([H])[H])C(=O)N2c2c([H])c(Cl)c([H])c([H])c2C([H])([H])[H])c([H])c([H])c1Cl


 43 47  0  0  0  0  0  0  0  0999 V2000
   -5.8493   21.8213  -17.2070 C   0  0  0  0  0  0  0  0  0  0  0  0
   -6.2071   23.1307  -17.3991 N   0  0  0  0  0  0  0  0  0  0  0  0
   -6.1672   23.4180  -18.7087 C   0  0  0  0  0  0  0  0  0  0  0  0
   -6.4135   24.4853  -19.7042 C   0  0  0  0  0  0  0  0  0  0  0  0
   -6.7879   25.6448  -19.3470 O   0  0  0  0  0  0  0  0  0  0  0  0
   -6.1508   23.9092  -20.9443 N   0  0  0  0  0  0  0  0  0  0  0  0
   -5.6882   22.5832  -20.7882 C   0  0  0  0  0  0  0  0  0  0  0  0
   -5.7820   22.2924  -19.3430 C   0  0  0  0  0  0  0  0  0  0  0  0
   -5.5922   21.3153  -18.3900 N   0  0  0  0  0  0  0  0  0  0  0  0
   -6.3853   24.6389  -22.1721 C   0  0  0  0  0  0  0  0  0  0  0  0
   -5.3160   25.1935  -22.8520 C   0  0  0  0  0  0  0  0  0  0  0  0
   -5.4981   25.8932  -24.0210 C   0  0  0  0  0  0  0  0  0  0  0  0
   -4.1329   26.5926  -24.8781 Cl  0  0  0  0  0  0  0  0  0  0  0  0
   -6.7729   26.0535  -24.5392 C   0  0  0  0  0  0  0  0  0  0  0  0
   -7.8209   25.4967  -23.8525 C   0  0  0  0  0  0  0  0  0  0  0  0
   -7.6299   24.7817  -22.6575 C   0  0  0  0  0  0  0  0  0  0  0  0
   -8.8517   24.2450  -22.0454 C   0  0  0  0  0  0  0  0  0  0  0  0
   -4.3725   22.2810  -21.3454 C   0  0  0  0  0  0  0  0  0  0  0  0
   -3.2196   22.6683  -20.7126 C   0  0  0  0  0  0  0  0  0  0  0  0
   -2.0213   22.3758  -21.2951 C   0  0  0  0  0  0  0  0  0  0  0  0
   -1.9331   21.7006  -22.5059 C   0  0  0  0  0  0  0  0  0  0  0  0
   -0.3923   21.3315  -23.2459 Cl  0  0  0  0  0  0  0  0  0  0  0  0
   -3.0796   21.3111  -23.1421 C   0  0  0  0  0  0  0  0  0  0  0  0
   -4.2966   21.6084  -22.5494 C   0  0  0  0  0  0  0  0  0  0  0  0
   -4.5186   21.3251  -15.2507 C   0  0  0  0  0  0  0  0  0  0  0  0
   -4.3280   20.7780  -13.9933 C   0  0  0  0  0  0  0  0  0  0  0  0
   -5.3530   20.1261  -13.3492 C   0  0  0  0  0  0  0  0  0  0  0  0
   -6.5936   20.0126  -13.9625 C   0  0  0  0  0  0  0  0  0  0  0  0
   -6.7442   20.5681  -15.2098 C   0  0  0  0  0  0  0  0  0  0  0  0
   -5.7510   21.2174  -15.8693 C   0  0  0  0  0  0  0  0  0  0  0  0
   -7.6865   19.3132  -13.2866 C   0  0  0  0  0  0  0  0  0  0  0  0
   -7.5072   18.8903  -12.1314 O   0  0  0  0  0  0  0  0  0  0  0  0
   -8.9324   19.1166  -13.9197 N   0  0  0  0  0  0  0  0  0  0  0  0
   -9.0575   19.4915  -14.8932 H   0  0  0  0  0  0  0  0  0  0  0  0
  -10.0245   18.4209  -13.2574 C   0  0  0  0  0  0  0  0  0  0  0  0
  -11.2063   18.3982  -14.1989 C   0  0  0  0  0  0  0  0  0  0  0  0
   -9.6053   16.9604  -13.0748 C   0  0  0  0  0  0  0  0  0  0  0  0
  -10.4382   19.0469  -11.9699 C   0  0  0  0  0  0  0  0  0  0  0  0
   -2.1332   21.6114  -15.7576 C   0  0  0  0  0  0  0  0  0  0  0  0
   -3.4735   21.9741  -15.8765 O   0  0  0  0  0  0  0  0  0  0  0  0
   -5.1566   20.0028  -18.7385 C   0  0  0  0  0  0  0  0  0  0  0  0
   -5.8964   18.8463  -18.1734 C   0  0  0  0  0  0  0  0  0  0  0  0
   -3.6706   19.7967  -18.3713 C   0  0  0  0  0  0  0  0  0  0  0  0
 39 40  1  0  0  0
 40 25  1  0  0  0
 25 26  2  0  0  0
 26 27  1  0  0  0
 27 28  2  0  0  0
 28 29  1  0  0  0
 29 30  2  0  0  0
 30  1  1  0  0  0
  1  2  2  0  0  0
  2  3  1  0  0  0
  3  4  1  0  0  0
  4  5  2  0  0  0
  4  6  1  0  0  0
  6  7  1  0  0  0
  7  8  1  0  0  0
  8  9  1  0  0  0
  9 41  1  0  0  0
 41 42  1  0  0  0
 41 43  1  0  0  0
  7 18  1  0  0  0
 18 19  2  0  0  0
 19 20  1  0  0  0
 20 21  2  0  0  0
 21 22  1  0  0  0
 21 23  1  0  0  0
 23 24  2  0  0  0
  6 10  1  0  0  0
 10 11  2  0  0  0
 11 12  1  0  0  0
 12 13  1  0  0  0
 12 14  2  0  0  0
 14 15  1  0  0  0
 15 16  2  0  0  0
 16 17  1  0  0  0
 28 31  1  0  0  0
 31 32  2  0  0  0
 31 33  1  0  0  0
 33 35  1  0  0  0
 35 36  1  0  0  0
 35 37  1  0  0  0
 35 38  1  0  0  0
 30 25  1  0  0  0
  9  1  1  0  0  0
 24 18  1  0  0  0
 16 10  1  0  0  0
  8  3  2  0  0  0
 33 34  1  0  0  0
M  END
> <minimizedAffinity>
-6.22418

> <CNNscore>
0.1126000285

> <CNNaffinity>
6.3232455254

> <CNN_VS>
0.7119976282

> <CNNaffinity_variance>
0.1094457358

$$$$
[H]c1c([H])c(C2([H])c3c(nc(-c4c([H])c(C(=O)N([H])C(C([H])([H])[H])(C([H])([H])[H])C([H])([H])[H])c([H])c([H])c4OC([H])([H])[H])n3C([H])(C([H])([H])[H])C([H])([H])[H])C(=O)N2c2c([H])c(Cl)c([H])c([H])c2C([H])([H])[H])c([H])c([H])c1Cl


 43 47  0  0  0  0  0  0  0  0999 V2000
   -4.7113   21.7484  -19.5166 C   0  0  0  0  0  0  0  0  0  0  0  0
   -5.2615   20.5240  -19.7952 N   0  0  0  0  0  0  0  0  0  0  0  0
   -5.8641   20.0438  -18.6973 C   0  0  0  0  0  0  0  0  0  0  0  0
   -6.6605   18.9125  -18.1715 C   0  0  0  0  0  0  0  0  0  0  0  0
   -6.9545   17.9179  -18.9039 O   0  0  0  0  0  0  0  0  0  0  0  0
   -6.9384   19.2339  -16.8454 N   0  0  0  0  0  0  0  0  0  0  0  0
   -6.3109   20.4479  -16.4865 C   0  0  0  0  0  0  0  0  0  0  0  0
   -5.6926   20.9624  -17.7253 C   0  0  0  0  0  0  0  0  0  0  0  0
   -4.9755   22.0115  -18.2585 N   0  0  0  0  0  0  0  0  0  0  0  0
   -7.7941   18.3927  -16.0361 C   0  0  0  0  0  0  0  0  0  0  0  0
   -9.0902   18.7942  -15.7676 C   0  0  0  0  0  0  0  0  0  0  0  0
   -9.9332   18.0230  -15.0034 C   0  0  0  0  0  0  0  0  0  0  0  0
  -11.5786   18.5412  -14.6694 Cl  0  0  0  0  0  0  0  0  0  0  0  0
   -9.4881   16.8175  -14.4858 C   0  0  0  0  0  0  0  0  0  0  0  0
   -8.2009   16.4349  -14.7625 C   0  0  0  0  0  0  0  0  0  0  0  0
   -7.3425   17.2267  -15.5447 C   0  0  0  0  0  0  0  0  0  0  0  0
   -5.9971   16.6767  -15.7523 C   0  0  0  0  0  0  0  0  0  0  0  0
   -5.3774   20.3935  -15.3646 C   0  0  0  0  0  0  0  0  0  0  0  0
   -4.1761   19.7401  -15.4623 C   0  0  0  0  0  0  0  0  0  0  0  0
   -3.3573   19.7055  -14.3719 C   0  0  0  0  0  0  0  0  0  0  0  0
   -3.7019   20.3091  -13.1691 C   0  0  0  0  0  0  0  0  0  0  0  0
   -2.6464   20.2580  -11.7759 Cl  0  0  0  0  0  0  0  0  0  0  0  0
   -4.8989   20.9629  -13.0652 C   0  0  0  0  0  0  0  0  0  0  0  0
   -5.7300   20.9978  -14.1737 C   0  0  0  0  0  0  0  0  0  0  0  0
   -2.5630   22.4216  -20.3973 C   0  0  0  0  0  0  0  0  0  0  0  0
   -1.7529   23.1136  -21.2812 C   0  0  0  0  0  0  0  0  0  0  0  0
   -2.3012   23.8925  -22.2727 C   0  0  0  0  0  0  0  0  0  0  0  0
   -3.6811   23.9892  -22.3922 C   0  0  0  0  0  0  0  0  0  0  0  0
   -4.4519   23.2882  -21.4970 C   0  0  0  0  0  0  0  0  0  0  0  0
   -3.9387   22.5115  -20.5088 C   0  0  0  0  0  0  0  0  0  0  0  0
   -4.2716   24.8226  -23.4398 C   0  0  0  0  0  0  0  0  0  0  0  0
   -3.8079   25.9589  -23.6379 O   0  0  0  0  0  0  0  0  0  0  0  0
   -5.3484   24.3580  -24.2250 N   0  0  0  0  0  0  0  0  0  0  0  0
   -5.7147   23.3908  -24.0401 H   0  0  0  0  0  0  0  0  0  0  0  0
   -5.9438   25.1793  -25.2673 C   0  0  0  0  0  0  0  0  0  0  0  0
   -7.2231   24.5124  -25.7171 C   0  0  0  0  0  0  0  0  0  0  0  0
   -6.3635   26.5072  -24.6329 C   0  0  0  0  0  0  0  0  0  0  0  0
   -5.0576   25.3815  -26.4481 C   0  0  0  0  0  0  0  0  0  0  0  0
   -0.7272   21.8736  -18.8615 C   0  0  0  0  0  0  0  0  0  0  0  0
   -1.9880   21.6469  -19.4102 O   0  0  0  0  0  0  0  0  0  0  0  0
   -4.6066   23.1432  -17.4731 C   0  0  0  0  0  0  0  0  0  0  0  0
   -3.5459   22.9690  -16.4489 C   0  0  0  0  0  0  0  0  0  0  0  0
   -5.8323   23.7330  -16.7415 C   0  0  0  0  0  0  0  0  0  0  0  0
 39 40  1  0  0  0
 40 25  1  0  0  0
 25 26  2  0  0  0
 26 27  1  0  0  0
 27 28  2  0  0  0
 28 29  1  0  0  0
 29 30  2  0  0  0
 30  1  1  0  0  0
  1  2  2  0  0  0
  2  3  1  0  0  0
  3  4  1  0  0  0
  4  5  2  0  0  0
  4  6  1  0  0  0
  6  7  1  0  0  0
  7  8  1  0  0  0
  8  9  1  0  0  0
  9 41  1  0  0  0
 41 42  1  0  0  0
 41 43  1  0  0  0
  7 18  1  0  0  0
 18 19  2  0  0  0
 19 20  1  0  0  0
 20 21  2  0  0  0
 21 22  1  0  0  0
 21 23  1  0  0  0
 23 24  2  0  0  0
  6 10  1  0  0  0
 10 11  2  0  0  0
 11 12  1  0  0  0
 12 13  1  0  0  0
 12 14  2  0  0  0
 14 15  1  0  0  0
 15 16  2  0  0  0
 16 17  1  0  0  0
 28 31  1  0  0  0
 31 32  2  0  0  0
 31 33  1  0  0  0
 33 35  1  0  0  0
 35 36  1  0  0  0
 35 37  1  0  0  0
 35 38  1  0  0  0
 30 25  1  0  0  0
  9  1  1  0  0  0
 24 18  1  0  0  0
 16 10  1  0  0  0
  8  3  2  0  0  0
 33 34  1  0  0  0
M  END
> <minimizedAffinity>
-5.86513

> <CNNscore>
0.1100786179

> <CNNaffinity>
6.4306244850

> <CNN_VS>
0.7078742385

> <CNNaffinity_variance>
0.3366124630

$$$$
[H]c1c([H])c(N([H])C(=O)C2(C(=O)N([H])c3c([H])c([H])c(-c4c([H])c([H])c([H])c5c4c(N([H])[H])nn5[H])c([H])c3[H])C([H])([H])C2([H])[H])c([H])c([H])c1F


 37 41  0  0  0  0  0  0  0  0999 V2000
   -3.5645   22.5204  -25.1246 C   0  0  0  0  0  0  0  0  0  0  0  0
   -4.0031   21.2761  -24.7421 C   0  0  0  0  0  0  0  0  0  0  0  0
   -4.6117   21.0763  -23.5251 C   0  0  0  0  0  0  0  0  0  0  0  0
   -4.8235   22.1137  -22.6052 C   0  0  0  0  0  0  0  0  0  0  0  0
   -4.3908   23.3494  -22.9812 C   0  0  0  0  0  0  0  0  0  0  0  0
   -3.7697   23.5438  -24.2259 C   0  0  0  0  0  0  0  0  0  0  0  0
   -0.6351   21.8316  -24.3891 N   0  0  0  0  0  0  0  0  0  0  0  0
   -0.5835   22.1924  -25.7521 C   0  0  0  0  0  0  0  0  0  0  0  0
    0.5695   22.1881  -26.4857 N   0  0  0  0  0  0  0  0  0  0  0  0
    0.3191   22.5863  -27.7044 N   0  0  0  0  0  0  0  0  0  0  0  0
   -0.9796   22.8694  -27.8436 C   0  0  0  0  0  0  0  0  0  0  0  0
   -1.7593   23.3256  -28.8624 C   0  0  0  0  0  0  0  0  0  0  0  0
   -3.1173   23.5426  -28.6796 C   0  0  0  0  0  0  0  0  0  0  0  0
   -3.6863   23.2945  -27.4580 C   0  0  0  0  0  0  0  0  0  0  0  0
   -2.9058   22.8224  -26.3900 C   0  0  0  0  0  0  0  0  0  0  0  0
   -1.5808   22.6232  -26.6040 C   0  0  0  0  0  0  0  0  0  0  0  0
   -0.7627   22.5556  -23.6675 H   0  0  0  0  0  0  0  0  0  0  0  0
   -0.5452   20.8420  -24.1177 H   0  0  0  0  0  0  0  0  0  0  0  0
    1.0505   22.6670  -28.4594 H   0  0  0  0  0  0  0  0  0  0  0  0
   -5.4859   21.8039  -21.3696 N   0  0  0  0  0  0  0  0  0  0  0  0
   -6.8427   21.7036  -21.1420 C   0  0  0  0  0  0  0  0  0  0  0  0
   -7.6612   21.9320  -22.0851 O   0  0  0  0  0  0  0  0  0  0  0  0
   -4.8624   21.6838  -20.5035 H   0  0  0  0  0  0  0  0  0  0  0  0
   -7.4653   21.3502  -19.8564 C   0  0  0  0  0  0  0  0  0  0  0  0
   -8.9560   21.5530  -19.7490 C   0  0  0  0  0  0  0  0  0  0  0  0
   -8.0682   22.5646  -19.1748 C   0  0  0  0  0  0  0  0  0  0  0  0
   -6.9846   20.2868  -18.9562 C   0  0  0  0  0  0  0  0  0  0  0  0
   -7.7269   19.2267  -18.9703 O   0  0  0  0  0  0  0  0  0  0  0  0
   -5.8873   20.2369  -18.1235 N   0  0  0  0  0  0  0  0  0  0  0  0
   -5.2001   21.0462  -18.1228 H   0  0  0  0  0  0  0  0  0  0  0  0
   -5.4878   19.1698  -17.2732 C   0  0  0  0  0  0  0  0  0  0  0  0
   -5.8690   19.0230  -15.9659 C   0  0  0  0  0  0  0  0  0  0  0  0
   -5.4046   17.9698  -15.1930 C   0  0  0  0  0  0  0  0  0  0  0  0
   -4.5496   17.0514  -15.7326 C   0  0  0  0  0  0  0  0  0  0  0  0
   -4.0981   16.0275  -14.9794 F   0  0  0  0  0  0  0  0  0  0  0  0
   -4.1718   17.1951  -17.0278 C   0  0  0  0  0  0  0  0  0  0  0  0
   -4.6130   18.2179  -17.8033 C   0  0  0  0  0  0  0  0  0  0  0  0
  7  8  1  0  0  0
  8  9  2  0  0  0
  9 10  1  0  0  0
 10 11  1  0  0  0
 11 12  2  0  0  0
 12 13  1  0  0  0
 13 14  2  0  0  0
 14 15  1  0  0  0
 15  1  1  0  0  0
  1  2  2  0  0  0
  2  3  1  0  0  0
  3  4  2  0  0  0
  4 20  1  0  0  0
 20 21  1  0  0  0
 21 22  2  0  0  0
 21 24  1  0  0  0
 24 25  1  0  0  0
 25 26  1  0  0  0
 24 27  1  0  0  0
 27 28  2  0  0  0
 27 29  1  0  0  0
 29 31  1  0  0  0
 31 32  2  0  0  0
 32 33  1  0  0  0
 33 34  2  0  0  0
 34 35  1  0  0  0
 34 36  1  0  0  0
 36 37  2  0  0  0
  4  5  1  0  0  0
  5  6  2  0  0  0
 15 16  2  0  0  0
 16  8  1  0  0  0
 16 11  1  0  0  0
  6  1  1  0  0  0
 26 24  1  0  0  0
 37 31  1  0  0  0
  7 17  1  0  0  0
  7 18  1  0  0  0
 10 19  1  0  0  0
 20 23  1  0  0  0
 29 30  1  0  0  0
M  END
> <minimizedAffinity>
-7.70803

> <CNNscore>
0.5236133933

> <CNNaffinity>
6.1806602478

> <CNN_VS>
3.2362763882

> <CNNaffinity_variance>
0.1757141203

$$$$
[H]c1c([H])c(N([H])C(=O)C2(C(=O)N([H])c3c([H])c([H])c(-c4c([H])c([H])c([H])c5c4c(N([H])[H])nn5[H])c([H])c3[H])C([H])([H])C2([H])[H])c([H])c([H])c1F


 37 41  0  0  0  0  0  0  0  0999 V2000
   -3.2532   22.6298  -24.2860 C   0  0  0  0  0  0  0  0  0  0  0  0
   -3.5502   23.7037  -23.4825 C   0  0  0  0  0  0  0  0  0  0  0  0
   -4.4549   23.5963  -22.4523 C   0  0  0  0  0  0  0  0  0  0  0  0
   -5.1259   22.4009  -22.1556 C   0  0  0  0  0  0  0  0  0  0  0  0
   -4.8336   21.3334  -22.9496 C   0  0  0  0  0  0  0  0  0  0  0  0
   -3.9087   21.4526  -23.9999 C   0  0  0  0  0  0  0  0  0  0  0  0
   -0.6465   21.8273  -22.8172 N   0  0  0  0  0  0  0  0  0  0  0  0
   -0.2690   21.9449  -24.1716 C   0  0  0  0  0  0  0  0  0  0  0  0
    1.0022   21.7166  -24.6181 N   0  0  0  0  0  0  0  0  0  0  0  0
    1.0610   21.9214  -25.9070 N   0  0  0  0  0  0  0  0  0  0  0  0
   -0.1363   22.2872  -26.3749 C   0  0  0  0  0  0  0  0  0  0  0  0
   -0.6257   22.6285  -27.5988 C   0  0  0  0  0  0  0  0  0  0  0  0
   -1.9556   22.9892  -27.7601 C   0  0  0  0  0  0  0  0  0  0  0  0
   -2.7921   23.0027  -26.6750 C   0  0  0  0  0  0  0  0  0  0  0  0
   -2.3140   22.6541  -25.4011 C   0  0  0  0  0  0  0  0  0  0  0  0
   -1.0075   22.3083  -25.2799 C   0  0  0  0  0  0  0  0  0  0  0  0
   -0.8329   22.6719  -22.2576 H   0  0  0  0  0  0  0  0  0  0  0  0
   -0.7355   20.8944  -22.3897 H   0  0  0  0  0  0  0  0  0  0  0  0
    1.9378   21.8092  -26.4815 H   0  0  0  0  0  0  0  0  0  0  0  0
   -6.0372   22.3884  -21.0462 N   0  0  0  0  0  0  0  0  0  0  0  0
   -7.3058   21.8484  -21.0027 C   0  0  0  0  0  0  0  0  0  0  0  0
   -7.8015   21.3128  -22.0414 O   0  0  0  0  0  0  0  0  0  0  0  0
   -5.7230   22.9013  -20.1565 H   0  0  0  0  0  0  0  0  0  0  0  0
   -8.1851   21.8372  -19.8228 C   0  0  0  0  0  0  0  0  0  0  0  0
   -9.5777   22.3845  -20.0126 C   0  0  0  0  0  0  0  0  0  0  0  0
   -8.5656   23.2428  -19.3960 C   0  0  0  0  0  0  0  0  0  0  0  0
   -8.1254   20.8367  -18.7422 C   0  0  0  0  0  0  0  0  0  0  0  0
   -6.9420   20.6944  -18.2381 O   0  0  0  0  0  0  0  0  0  0  0  0
   -9.1105   20.0490  -18.1863 N   0  0  0  0  0  0  0  0  0  0  0  0
  -10.1151   20.1726  -18.5066 H   0  0  0  0  0  0  0  0  0  0  0  0
   -8.9752   19.0943  -17.1415 C   0  0  0  0  0  0  0  0  0  0  0  0
   -9.1681   19.3543  -15.8107 C   0  0  0  0  0  0  0  0  0  0  0  0
   -8.9803   18.3731  -14.8494 C   0  0  0  0  0  0  0  0  0  0  0  0
   -8.5961   17.1164  -15.2217 C   0  0  0  0  0  0  0  0  0  0  0  0
   -8.4133   16.1628  -14.2854 F   0  0  0  0  0  0  0  0  0  0  0  0
   -8.4055   16.8571  -16.5399 C   0  0  0  0  0  0  0  0  0  0  0  0
   -8.5827   17.8016  -17.4983 C   0  0  0  0  0  0  0  0  0  0  0  0
  7  8  1  0  0  0
  8  9  2  0  0  0
  9 10  1  0  0  0
 10 11  1  0  0  0
 11 12  2  0  0  0
 12 13  1  0  0  0
 13 14  2  0  0  0
 14 15  1  0  0  0
 15  1  1  0  0  0
  1  2  2  0  0  0
  2  3  1  0  0  0
  3  4  2  0  0  0
  4 20  1  0  0  0
 20 21  1  0  0  0
 21 22  2  0  0  0
 21 24  1  0  0  0
 24 25  1  0  0  0
 25 26  1  0  0  0
 24 27  1  0  0  0
 27 28  2  0  0  0
 27 29  1  0  0  0
 29 31  1  0  0  0
 31 32  2  0  0  0
 32 33  1  0  0  0
 33 34  2  0  0  0
 34 35  1  0  0  0
 34 36  1  0  0  0
 36 37  2  0  0  0
  4  5  1  0  0  0
  5  6  2  0  0  0
 15 16  2  0  0  0
 16  8  1  0  0  0
 16 11  1  0  0  0
  6  1  1  0  0  0
 26 24  1  0  0  0
 37 31  1  0  0  0
  7 17  1  0  0  0
  7 18  1  0  0  0
 10 19  1  0  0  0
 20 23  1  0  0  0
 29 30  1  0  0  0
M  END
> <minimizedAffinity>
-7.97307

> <CNNscore>
0.4223686457

> <CNNaffinity>
5.8502960205

> <CNN_VS>
2.4709815979

> <CNNaffinity_variance>
0.0348713733

$$$$
[H]c1c([H])c(N([H])C(=O)C2(C(=O)N([H])c3c([H])c([H])c(-c4c([H])c([H])c([H])c5c4c(N([H])[H])nn5[H])c([H])c3[H])C([H])([H])C2([H])[H])c([H])c([H])c1F


 37 41  0  0  0  0  0  0  0  0999 V2000
   -3.9581   23.1668  -24.9139 C   0  0  0  0  0  0  0  0  0  0  0  0
   -4.1222   24.2807  -24.1269 C   0  0  0  0  0  0  0  0  0  0  0  0
   -4.8742   24.2378  -22.9763 C   0  0  0  0  0  0  0  0  0  0  0  0
   -5.5152   23.0713  -22.5339 C   0  0  0  0  0  0  0  0  0  0  0  0
   -5.3542   21.9643  -23.3111 C   0  0  0  0  0  0  0  0  0  0  0  0
   -4.5848   22.0177  -24.4850 C   0  0  0  0  0  0  0  0  0  0  0  0
   -1.2008   22.3017  -23.7979 N   0  0  0  0  0  0  0  0  0  0  0  0
   -1.0140   22.3662  -25.1950 C   0  0  0  0  0  0  0  0  0  0  0  0
    0.1726   22.0748  -25.8070 N   0  0  0  0  0  0  0  0  0  0  0  0
    0.0565   22.2411  -27.0975 N   0  0  0  0  0  0  0  0  0  0  0  0
   -1.1809   22.6414  -27.4054 C   0  0  0  0  0  0  0  0  0  0  0  0
   -1.8254   22.9678  -28.5595 C   0  0  0  0  0  0  0  0  0  0  0  0
   -3.1510   23.3770  -28.5453 C   0  0  0  0  0  0  0  0  0  0  0  0
   -3.8253   23.4542  -27.3550 C   0  0  0  0  0  0  0  0  0  0  0  0
   -3.1851   23.1224  -26.1495 C   0  0  0  0  0  0  0  0  0  0  0  0
   -1.8879   22.7279  -26.2006 C   0  0  0  0  0  0  0  0  0  0  0  0
   -1.2761   23.1684  -23.2462 H   0  0  0  0  0  0  0  0  0  0  0  0
   -1.2620   21.3854  -23.3315 H   0  0  0  0  0  0  0  0  0  0  0  0
    0.8390   22.0778  -27.7849 H   0  0  0  0  0  0  0  0  0  0  0  0
   -6.2610   23.1267  -21.3083 N   0  0  0  0  0  0  0  0  0  0  0  0
   -7.3524   22.3630  -20.9499 C   0  0  0  0  0  0  0  0  0  0  0  0
   -7.8263   21.5140  -21.7661 O   0  0  0  0  0  0  0  0  0  0  0  0
   -5.9744   23.8828  -20.6016 H   0  0  0  0  0  0  0  0  0  0  0  0
   -8.0595   22.4423  -19.6618 C   0  0  0  0  0  0  0  0  0  0  0  0
   -9.2117   21.4895  -19.4635 C   0  0  0  0  0  0  0  0  0  0  0  0
   -9.5034   22.8724  -19.8424 C   0  0  0  0  0  0  0  0  0  0  0  0
   -7.4340   22.8288  -18.3844 C   0  0  0  0  0  0  0  0  0  0  0  0
   -7.0975   24.0774  -18.3337 O   0  0  0  0  0  0  0  0  0  0  0  0
   -7.1626   22.0902  -17.2526 N   0  0  0  0  0  0  0  0  0  0  0  0
   -7.4811   21.0786  -17.2053 H   0  0  0  0  0  0  0  0  0  0  0  0
   -6.5465   22.5342  -16.0508 C   0  0  0  0  0  0  0  0  0  0  0  0
   -7.2166   22.9970  -14.9496 C   0  0  0  0  0  0  0  0  0  0  0  0
   -6.5372   23.4462  -13.8277 C   0  0  0  0  0  0  0  0  0  0  0  0
   -5.1716   23.4321  -13.8046 C   0  0  0  0  0  0  0  0  0  0  0  0
   -4.5118   23.8698  -12.7126 F   0  0  0  0  0  0  0  0  0  0  0  0
   -4.5063   22.9730  -14.8945 C   0  0  0  0  0  0  0  0  0  0  0  0
   -5.1499   22.5290  -16.0039 C   0  0  0  0  0  0  0  0  0  0  0  0
  7  8  1  0  0  0
  8  9  2  0  0  0
  9 10  1  0  0  0
 10 11  1  0  0  0
 11 12  2  0  0  0
 12 13  1  0  0  0
 13 14  2  0  0  0
 14 15  1  0  0  0
 15  1  1  0  0  0
  1  2  2  0  0  0
  2  3  1  0  0  0
  3  4  2  0  0  0
  4 20  1  0  0  0
 20 21  1  0  0  0
 21 22  2  0  0  0
 21 24  1  0  0  0
 24 25  1  0  0  0
 25 26  1  0  0  0
 24 27  1  0  0  0
 27 28  2  0  0  0
 27 29  1  0  0  0
 29 31  1  0  0  0
 31 32  2  0  0  0
 32 33  1  0  0  0
 33 34  2  0  0  0
 34 35  1  0  0  0
 34 36  1  0  0  0
 36 37  2  0  0  0
  4  5  1  0  0  0
  5  6  2  0  0  0
 15 16  2  0  0  0
 16  8  1  0  0  0
 16 11  1  0  0  0
  6  1  1  0  0  0
 26 24  1  0  0  0
 37 31  1  0  0  0
  7 17  1  0  0  0
  7 18  1  0  0  0
 10 19  1  0  0  0
 20 23  1  0  0  0
 29 30  1  0  0  0
M  END
> <minimizedAffinity>
-8.26295

> <CNNscore>
0.3791113496

> <CNNaffinity>
6.2236485481

> <CNN_VS>
2.3594558239

> <CNNaffinity_variance>
0.3872280717

$$$$
[H]c1c([H])c(N([H])C(=O)C2(C(=O)N([H])c3c([H])c([H])c(-c4c([H])c([H])c([H])c5c4c(N([H])[H])nn5[H])c([H])c3[H])C([H])([H])C2([H])[H])c([H])c([H])c1F


 37 41  0  0  0  0  0  0  0  0999 V2000
   -4.0540   22.9221  -24.7530 C   0  0  0  0  0  0  0  0  0  0  0  0
   -3.8873   23.8837  -23.7863 C   0  0  0  0  0  0  0  0  0  0  0  0
   -3.8818   23.5595  -22.4497 C   0  0  0  0  0  0  0  0  0  0  0  0
   -4.0432   22.2445  -21.9891 C   0  0  0  0  0  0  0  0  0  0  0  0
   -4.2079   21.2878  -22.9447 C   0  0  0  0  0  0  0  0  0  0  0  0
   -4.2128   21.6285  -24.3073 C   0  0  0  0  0  0  0  0  0  0  0  0
   -1.0459   22.5884  -25.4138 N   0  0  0  0  0  0  0  0  0  0  0  0
   -1.6585   22.8321  -26.6612 C   0  0  0  0  0  0  0  0  0  0  0  0
   -0.9681   22.8760  -27.8397 N   0  0  0  0  0  0  0  0  0  0  0  0
   -1.7877   23.1401  -28.8222 N   0  0  0  0  0  0  0  0  0  0  0  0
   -3.0345   23.2823  -28.3623 C   0  0  0  0  0  0  0  0  0  0  0  0
   -4.2395   23.5698  -28.9273 C   0  0  0  0  0  0  0  0  0  0  0  0
   -5.3856   23.6687  -28.1517 C   0  0  0  0  0  0  0  0  0  0  0  0
   -5.3084   23.4740  -26.7976 C   0  0  0  0  0  0  0  0  0  0  0  0
   -4.0784   23.1751  -26.1888 C   0  0  0  0  0  0  0  0  0  0  0  0
   -2.9777   23.0879  -26.9775 C   0  0  0  0  0  0  0  0  0  0  0  0
   -0.9258   23.3568  -24.7382 H   0  0  0  0  0  0  0  0  0  0  0  0
   -0.7194   21.6397  -25.1806 H   0  0  0  0  0  0  0  0  0  0  0  0
   -1.4904   23.2254  -29.8300 H   0  0  0  0  0  0  0  0  0  0  0  0
   -4.0030   22.0088  -20.5734 N   0  0  0  0  0  0  0  0  0  0  0  0
   -3.0574   22.4504  -19.6714 C   0  0  0  0  0  0  0  0  0  0  0  0
   -2.0598   23.1221  -20.0781 O   0  0  0  0  0  0  0  0  0  0  0  0
   -4.7672   21.3732  -20.1671 H   0  0  0  0  0  0  0  0  0  0  0  0
   -3.0853   22.2036  -18.2210 C   0  0  0  0  0  0  0  0  0  0  0  0
   -1.7596   22.2440  -17.5029 C   0  0  0  0  0  0  0  0  0  0  0  0
   -2.3267   20.9416  -17.8541 C   0  0  0  0  0  0  0  0  0  0  0  0
   -4.2077   22.5540  -17.3323 C   0  0  0  0  0  0  0  0  0  0  0  0
   -5.3428   22.6416  -17.9479 O   0  0  0  0  0  0  0  0  0  0  0  0
   -4.2442   22.7906  -15.9749 N   0  0  0  0  0  0  0  0  0  0  0  0
   -3.3592   22.6621  -15.4026 H   0  0  0  0  0  0  0  0  0  0  0  0
   -5.3730   23.1322  -15.1811 C   0  0  0  0  0  0  0  0  0  0  0  0
   -6.2190   22.2314  -14.5905 C   0  0  0  0  0  0  0  0  0  0  0  0
   -7.3210   22.6485  -13.8599 C   0  0  0  0  0  0  0  0  0  0  0  0
   -7.5810   23.9817  -13.7166 C   0  0  0  0  0  0  0  0  0  0  0  0
   -8.6538   24.3861  -13.0059 F   0  0  0  0  0  0  0  0  0  0  0  0
   -6.7433   24.8753  -14.3003 C   0  0  0  0  0  0  0  0  0  0  0  0
   -5.6590   24.4905  -15.0203 C   0  0  0  0  0  0  0  0  0  0  0  0
  7  8  1  0  0  0
  8  9  2  0  0  0
  9 10  1  0  0  0
 10 11  1  0  0  0
 11 12  2  0  0  0
 12 13  1  0  0  0
 13 14  2  0  0  0
 14 15  1  0  0  0
 15  1  1  0  0  0
  1  2  2  0  0  0
  2  3  1  0  0  0
  3  4  2  0  0  0
  4 20  1  0  0  0
 20 21  1  0  0  0
 21 22  2  0  0  0
 21 24  1  0  0  0
 24 25  1  0  0  0
 25 26  1  0  0  0
 24 27  1  0  0  0
 27 28  2  0  0  0
 27 29  1  0  0  0
 29 31  1  0  0  0
 31 32  2  0  0  0
 32 33  1  0  0  0
 33 34  2  0  0  0
 34 35  1  0  0  0
 34 36  1  0  0  0
 36 37  2  0  0  0
  4  5  1  0  0  0
  5  6  2  0  0  0
 15 16  2  0  0  0
 16  8  1  0  0  0
 16 11  1  0  0  0
  6  1  1  0  0  0
 26 24  1  0  0  0
 37 31  1  0  0  0
  7 17  1  0  0  0
  7 18  1  0  0  0
 10 19  1  0  0  0
 20 23  1  0  0  0
 29 30  1  0  0  0
M  END
> <minimizedAffinity>
-7.41763

> <CNNscore>
0.3033854365

> <CNNaffinity>
6.1256713867

> <CNN_VS>
1.8584394455

> <CNNaffinity_variance>
0.4505155683

$$$$
[H]c1c([H])c(N([H])C(=O)C2(C(=O)N([H])c3c([H])c([H])c(-c4c([H])c([H])c([H])c5c4c(N([H])[H])nn5[H])c([H])c3[H])C([H])([H])C2([H])[H])c([H])c([H])c1F


 37 41  0  0  0  0  0  0  0  0999 V2000
   -4.9888   22.8754  -25.2088 C   0  0  0  0  0  0  0  0  0  0  0  0
   -4.9539   21.6457  -24.5976 C   0  0  0  0  0  0  0  0  0  0  0  0
   -5.2210   21.5073  -23.2556 C   0  0  0  0  0  0  0  0  0  0  0  0
   -5.5429   22.5958  -22.4316 C   0  0  0  0  0  0  0  0  0  0  0  0
   -5.5795   23.8169  -23.0342 C   0  0  0  0  0  0  0  0  0  0  0  0
   -5.3046   23.9487  -24.4053 C   0  0  0  0  0  0  0  0  0  0  0  0
   -1.8983   22.6624  -25.2055 N   0  0  0  0  0  0  0  0  0  0  0  0
   -2.2384   22.8702  -26.5590 C   0  0  0  0  0  0  0  0  0  0  0  0
   -1.3137   22.9333  -27.5632 N   0  0  0  0  0  0  0  0  0  0  0  0
   -1.9133   23.1549  -28.7025 N   0  0  0  0  0  0  0  0  0  0  0  0
   -3.2343   23.2485  -28.5223 C   0  0  0  0  0  0  0  0  0  0  0  0
   -4.3005   23.4809  -29.3366 C   0  0  0  0  0  0  0  0  0  0  0  0
   -5.5892   23.5381  -28.8258 C   0  0  0  0  0  0  0  0  0  0  0  0
   -5.7964   23.3578  -27.4835 C   0  0  0  0  0  0  0  0  0  0  0  0
   -4.7148   23.1156  -26.6208 C   0  0  0  0  0  0  0  0  0  0  0  0
   -3.4681   23.0680  -27.1543 C   0  0  0  0  0  0  0  0  0  0  0  0
   -1.9559   23.4406  -24.5329 H   0  0  0  0  0  0  0  0  0  0  0  0
   -1.5925   21.7301  -24.8918 H   0  0  0  0  0  0  0  0  0  0  0  0
   -1.4106   23.2443  -29.6247 H   0  0  0  0  0  0  0  0  0  0  0  0
   -5.8239   22.3422  -21.0467 N   0  0  0  0  0  0  0  0  0  0  0  0
   -6.9134   21.6851  -20.5137 C   0  0  0  0  0  0  0  0  0  0  0  0
   -7.8310   21.2568  -21.2794 O   0  0  0  0  0  0  0  0  0  0  0  0
   -5.1363   22.7519  -20.3308 H   0  0  0  0  0  0  0  0  0  0  0  0
   -7.1331   21.4258  -19.0820 C   0  0  0  0  0  0  0  0  0  0  0  0
   -8.3633   20.6319  -18.7199 C   0  0  0  0  0  0  0  0  0  0  0  0
   -8.4037   22.0881  -18.5825 C   0  0  0  0  0  0  0  0  0  0  0  0
   -6.0600   21.2707  -18.0836 C   0  0  0  0  0  0  0  0  0  0  0  0
   -5.9412   20.0606  -17.6404 O   0  0  0  0  0  0  0  0  0  0  0  0
   -5.1732   22.1880  -17.5620 N   0  0  0  0  0  0  0  0  0  0  0  0
   -5.1723   23.1803  -17.9394 H   0  0  0  0  0  0  0  0  0  0  0  0
   -4.1607   21.9638  -16.5894 C   0  0  0  0  0  0  0  0  0  0  0  0
   -4.3263   22.1044  -15.2371 C   0  0  0  0  0  0  0  0  0  0  0  0
   -3.2750   21.9008  -14.3566 C   0  0  0  0  0  0  0  0  0  0  0  0
   -2.0431   21.5517  -14.8323 C   0  0  0  0  0  0  0  0  0  0  0  0
   -1.0209   21.3544  -13.9746 F   0  0  0  0  0  0  0  0  0  0  0  0
   -1.8778   21.4112  -16.1717 C   0  0  0  0  0  0  0  0  0  0  0  0
   -2.8919   21.6058  -17.0525 C   0  0  0  0  0  0  0  0  0  0  0  0
  7  8  1  0  0  0
  8  9  2  0  0  0
  9 10  1  0  0  0
 10 11  1  0  0  0
 11 12  2  0  0  0
 12 13  1  0  0  0
 13 14  2  0  0  0
 14 15  1  0  0  0
 15  1  1  0  0  0
  1  2  2  0  0  0
  2  3  1  0  0  0
  3  4  2  0  0  0
  4 20  1  0  0  0
 20 21  1  0  0  0
 21 22  2  0  0  0
 21 24  1  0  0  0
 24 25  1  0  0  0
 25 26  1  0  0  0
 24 27  1  0  0  0
 27 28  2  0  0  0
 27 29  1  0  0  0
 29 31  1  0  0  0
 31 32  2  0  0  0
 32 33  1  0  0  0
 33 34  2  0  0  0
 34 35  1  0  0  0
 34 36  1  0  0  0
 36 37  2  0  0  0
  4  5  1  0  0  0
  5  6  2  0  0  0
 15 16  2  0  0  0
 16  8  1  0  0  0
 16 11  1  0  0  0
  6  1  1  0  0  0
 26 24  1  0  0  0
 37 31  1  0  0  0
  7 17  1  0  0  0
  7 18  1  0  0  0
 10 19  1  0  0  0
 20 23  1  0  0  0
 29 30  1  0  0  0
M  END
> <minimizedAffinity>
-7.52607

> <CNNscore>
0.2812748849

> <CNNaffinity>
6.1100382805

> <CNN_VS>
1.7186002731

> <CNNaffinity_variance>
0.3354369104

$$$$
[H]c1c([H])c(N([H])C(=O)C2(C(=O)N([H])c3c([H])c([H])c(-c4c([H])c([H])c([H])c5c4c(N([H])[H])nn5[H])c([H])c3[H])C([H])([H])C2([H])[H])c([H])c([H])c1F


 37 41  0  0  0  0  0  0  0  0999 V2000
   -4.4126   22.6459  -24.9399 C   0  0  0  0  0  0  0  0  0  0  0  0
   -4.7033   23.6380  -24.0353 C   0  0  0  0  0  0  0  0  0  0  0  0
   -5.2895   23.3513  -22.8246 C   0  0  0  0  0  0  0  0  0  0  0  0
   -5.6251   22.0460  -22.4363 C   0  0  0  0  0  0  0  0  0  0  0  0
   -5.3376   21.0592  -23.3302 C   0  0  0  0  0  0  0  0  0  0  0  0
   -4.7395   21.3616  -24.5646 C   0  0  0  0  0  0  0  0  0  0  0  0
   -6.8834   23.5852  -26.5554 N   0  0  0  0  0  0  0  0  0  0  0  0
   -5.8108   23.6650  -27.4686 C   0  0  0  0  0  0  0  0  0  0  0  0
   -5.9548   24.0917  -28.7588 N   0  0  0  0  0  0  0  0  0  0  0  0
   -4.8026   24.0402  -29.3723 N   0  0  0  0  0  0  0  0  0  0  0  0
   -3.8550   23.5886  -28.5450 C   0  0  0  0  0  0  0  0  0  0  0  0
   -2.5232   23.3297  -28.6603 C   0  0  0  0  0  0  0  0  0  0  0  0
   -1.7975   22.8331  -27.5872 C   0  0  0  0  0  0  0  0  0  0  0  0
   -2.4258   22.5991  -26.3923 C   0  0  0  0  0  0  0  0  0  0  0  0
   -3.7985   22.8582  -26.2453 C   0  0  0  0  0  0  0  0  0  0  0  0
   -4.4774   23.3418  -27.3160 C   0  0  0  0  0  0  0  0  0  0  0  0
   -7.2680   22.6673  -26.2892 H   0  0  0  0  0  0  0  0  0  0  0  0
   -7.2804   24.4473  -26.1554 H   0  0  0  0  0  0  0  0  0  0  0  0
   -4.6584   24.3195  -30.3786 H   0  0  0  0  0  0  0  0  0  0  0  0
   -6.2162   21.8509  -21.1425 N   0  0  0  0  0  0  0  0  0  0  0  0
   -7.5117   21.4739  -20.8552 C   0  0  0  0  0  0  0  0  0  0  0  0
   -8.3422   21.2935  -21.7983 O   0  0  0  0  0  0  0  0  0  0  0  0
   -5.5997   22.0703  -20.2911 H   0  0  0  0  0  0  0  0  0  0  0  0
   -8.0546   21.2577  -19.5048 C   0  0  0  0  0  0  0  0  0  0  0  0
   -9.3493   21.9584  -19.1766 C   0  0  0  0  0  0  0  0  0  0  0  0
   -8.0951   22.5469  -18.7056 C   0  0  0  0  0  0  0  0  0  0  0  0
   -7.8770   20.0245  -18.7172 C   0  0  0  0  0  0  0  0  0  0  0  0
   -6.6622   19.5783  -18.7277 O   0  0  0  0  0  0  0  0  0  0  0  0
   -8.7777   19.2883  -17.9779 N   0  0  0  0  0  0  0  0  0  0  0  0
   -9.7726   19.6431  -17.8706 H   0  0  0  0  0  0  0  0  0  0  0  0
   -8.5321   18.0960  -17.2435 C   0  0  0  0  0  0  0  0  0  0  0  0
   -8.5791   16.8299  -17.7636 C   0  0  0  0  0  0  0  0  0  0  0  0
   -8.3615   15.7149  -16.9689 C   0  0  0  0  0  0  0  0  0  0  0  0
   -8.0928   15.8663  -15.6383 C   0  0  0  0  0  0  0  0  0  0  0  0
   -7.8817   14.7807  -14.8660 F   0  0  0  0  0  0  0  0  0  0  0  0
   -8.0450   17.1201  -15.1217 C   0  0  0  0  0  0  0  0  0  0  0  0
   -8.2551   18.2259  -15.8800 C   0  0  0  0  0  0  0  0  0  0  0  0
  7  8  1  0  0  0
  8  9  2  0  0  0
  9 10  1  0  0  0
 10 11  1  0  0  0
 11 12  2  0  0  0
 12 13  1  0  0  0
 13 14  2  0  0  0
 14 15  1  0  0  0
 15  1  1  0  0  0
  1  2  2  0  0  0
  2  3  1  0  0  0
  3  4  2  0  0  0
  4 20  1  0  0  0
 20 21  1  0  0  0
 21 22  2  0  0  0
 21 24  1  0  0  0
 24 25  1  0  0  0
 25 26  1  0  0  0
 24 27  1  0  0  0
 27 28  2  0  0  0
 27 29  1  0  0  0
 29 31  1  0  0  0
 31 32  2  0  0  0
 32 33  1  0  0  0
 33 34  2  0  0  0
 34 35  1  0  0  0
 34 36  1  0  0  0
 36 37  2  0  0  0
  4  5  1  0  0  0
  5  6  2  0  0  0
 15 16  2  0  0  0
 16  8  1  0  0  0
 16 11  1  0  0  0
  6  1  1  0  0  0
 26 24  1  0  0  0
 37 31  1  0  0  0
  7 17  1  0  0  0
  7 18  1  0  0  0
 10 19  1  0  0  0
 20 23  1  0  0  0
 29 30  1  0  0  0
M  END
> <minimizedAffinity>
-7.88527

> <CNNscore>
0.2234642506

> <CNNaffinity>
5.7932806015

> <CNN_VS>
1.2945910692

> <CNNaffinity_variance>
0.0829911977

$$$$
[H]c1c([H])c(N([H])C(=O)C2(C(=O)N([H])c3c([H])c([H])c(-c4c([H])c([H])c([H])c5c4c(N([H])[H])nn5[H])c([H])c3[H])C([H])([H])C2([H])[H])c([H])c([H])c1F


 37 41  0  0  0  0  0  0  0  0999 V2000
   -3.0115   22.4974  -24.4326 C   0  0  0  0  0  0  0  0  0  0  0  0
   -3.8974   21.4834  -24.1606 C   0  0  0  0  0  0  0  0  0  0  0  0
   -4.9305   21.6574  -23.2697 C   0  0  0  0  0  0  0  0  0  0  0  0
   -5.1475   22.8641  -22.5883 C   0  0  0  0  0  0  0  0  0  0  0  0
   -4.2716   23.8724  -22.8560 C   0  0  0  0  0  0  0  0  0  0  0  0
   -3.2190   23.6853  -23.7670 C   0  0  0  0  0  0  0  0  0  0  0  0
   -4.3864   23.3973  -27.0587 N   0  0  0  0  0  0  0  0  0  0  0  0
   -3.0374   23.1908  -27.4170 C   0  0  0  0  0  0  0  0  0  0  0  0
   -2.5585   23.3900  -28.6812 N   0  0  0  0  0  0  0  0  0  0  0  0
   -1.2852   23.1005  -28.7219 N   0  0  0  0  0  0  0  0  0  0  0  0
   -0.8598   22.7037  -27.5187 C   0  0  0  0  0  0  0  0  0  0  0  0
    0.3317   22.2820  -27.0124 C   0  0  0  0  0  0  0  0  0  0  0  0
    0.4496   21.9103  -25.6809 C   0  0  0  0  0  0  0  0  0  0  0  0
   -0.6459   21.9679  -24.8601 C   0  0  0  0  0  0  0  0  0  0  0  0
   -1.8870   22.4002  -25.3558 C   0  0  0  0  0  0  0  0  0  0  0  0
   -1.9663   22.7543  -26.6633 C   0  0  0  0  0  0  0  0  0  0  0  0
   -5.0032   22.5913  -26.8819 H   0  0  0  0  0  0  0  0  0  0  0  0
   -4.7526   24.3563  -26.9742 H   0  0  0  0  0  0  0  0  0  0  0  0
   -0.6920   23.1752  -29.5902 H   0  0  0  0  0  0  0  0  0  0  0  0
   -6.2667   22.9493  -21.6932 N   0  0  0  0  0  0  0  0  0  0  0  0
   -7.4925   23.5366  -21.9289 C   0  0  0  0  0  0  0  0  0  0  0  0
   -7.7134   24.1179  -23.0357 O   0  0  0  0  0  0  0  0  0  0  0  0
   -6.1256   22.5567  -20.7037 H   0  0  0  0  0  0  0  0  0  0  0  0
   -8.6177   23.5655  -20.9812 C   0  0  0  0  0  0  0  0  0  0  0  0
   -9.7972   24.4265  -21.3585 C   0  0  0  0  0  0  0  0  0  0  0  0
   -8.8240   24.9521  -20.4005 C   0  0  0  0  0  0  0  0  0  0  0  0
   -9.0074   22.4440  -20.1078 C   0  0  0  0  0  0  0  0  0  0  0  0
   -8.9396   21.2906  -20.6911 O   0  0  0  0  0  0  0  0  0  0  0  0
   -9.4165   22.4250  -18.7917 N   0  0  0  0  0  0  0  0  0  0  0  0
   -9.4219   23.3306  -18.2377 H   0  0  0  0  0  0  0  0  0  0  0  0
   -9.7846   21.2953  -18.0110 C   0  0  0  0  0  0  0  0  0  0  0  0
   -8.9052   20.4008  -17.4611 C   0  0  0  0  0  0  0  0  0  0  0  0
   -9.3491   19.3023  -16.7411 C   0  0  0  0  0  0  0  0  0  0  0  0
  -10.6879   19.0950  -16.5673 C   0  0  0  0  0  0  0  0  0  0  0  0
  -11.1186   18.0257  -15.8669 F   0  0  0  0  0  0  0  0  0  0  0  0
  -11.5604   19.9808  -17.1107 C   0  0  0  0  0  0  0  0  0  0  0  0
  -11.1491   21.0626  -17.8196 C   0  0  0  0  0  0  0  0  0  0  0  0
  7  8  1  0  0  0
  8  9  2  0  0  0
  9 10  1  0  0  0
 10 11  1  0  0  0
 11 12  2  0  0  0
 12 13  1  0  0  0
 13 14  2  0  0  0
 14 15  1  0  0  0
 15  1  1  0  0  0
  1  2  2  0  0  0
  2  3  1  0  0  0
  3  4  2  0  0  0
  4 20  1  0  0  0
 20 21  1  0  0  0
 21 22  2  0  0  0
 21 24  1  0  0  0
 24 25  1  0  0  0
 25 26  1  0  0  0
 24 27  1  0  0  0
 27 28  2  0  0  0
 27 29  1  0  0  0
 29 31  1  0  0  0
 31 32  2  0  0  0
 32 33  1  0  0  0
 33 34  2  0  0  0
 34 35  1  0  0  0
 34 36  1  0  0  0
 36 37  2  0  0  0
  4  5  1  0  0  0
  5  6  2  0  0  0
 15 16  2  0  0  0
 16  8  1  0  0  0
 16 11  1  0  0  0
  6  1  1  0  0  0
 26 24  1  0  0  0
 37 31  1  0  0  0
  7 17  1  0  0  0
  7 18  1  0  0  0
 10 19  1  0  0  0
 20 23  1  0  0  0
 29 30  1  0  0  0
M  END
> <minimizedAffinity>
-8.86398

> <CNNscore>
0.2035278529

> <CNNaffinity>
5.9540019035

> <CNN_VS>
1.2118052244

> <CNNaffinity_variance>
0.0920484737

$$$$
[H]c1c([H])c(N([H])C(=O)C2(C(=O)N([H])c3c([H])c([H])c(-c4c([H])c([H])c([H])c5c4c(N([H])[H])nn5[H])c([H])c3[H])C([H])([H])C2([H])[H])c([H])c([H])c1F


 37 41  0  0  0  0  0  0  0  0999 V2000
   -5.4340   23.2101  -24.6670 C   0  0  0  0  0  0  0  0  0  0  0  0
   -6.1098   22.0294  -24.4765 C   0  0  0  0  0  0  0  0  0  0  0  0
   -6.4453   21.5940  -23.2158 C   0  0  0  0  0  0  0  0  0  0  0  0
   -6.1256   22.3148  -22.0558 C   0  0  0  0  0  0  0  0  0  0  0  0
   -5.4561   23.4866  -22.2406 C   0  0  0  0  0  0  0  0  0  0  0  0
   -5.1171   23.9231  -23.5319 C   0  0  0  0  0  0  0  0  0  0  0  0
   -2.8566   21.5639  -25.1609 N   0  0  0  0  0  0  0  0  0  0  0  0
   -3.0075   22.3453  -26.3260 C   0  0  0  0  0  0  0  0  0  0  0  0
   -2.1428   22.2905  -27.3827 N   0  0  0  0  0  0  0  0  0  0  0  0
   -2.5187   23.1355  -28.3054 N   0  0  0  0  0  0  0  0  0  0  0  0
   -3.6246   23.7808  -27.9223 C   0  0  0  0  0  0  0  0  0  0  0  0
   -4.4102   24.7486  -28.4701 C   0  0  0  0  0  0  0  0  0  0  0  0
   -5.5162   25.2389  -27.7911 C   0  0  0  0  0  0  0  0  0  0  0  0
   -5.8265   24.7442  -26.5515 C   0  0  0  0  0  0  0  0  0  0  0  0
   -5.0339   23.7449  -25.9633 C   0  0  0  0  0  0  0  0  0  0  0  0
   -3.9589   23.2900  -26.6550 C   0  0  0  0  0  0  0  0  0  0  0  0
   -2.5418   22.0010  -24.2828 H   0  0  0  0  0  0  0  0  0  0  0  0
   -3.0626   20.5551  -25.1909 H   0  0  0  0  0  0  0  0  0  0  0  0
   -2.0097   23.2757  -29.2178 H   0  0  0  0  0  0  0  0  0  0  0  0
   -6.5383   21.7828  -20.7877 N   0  0  0  0  0  0  0  0  0  0  0  0
   -7.7976   21.3548  -20.4221 C   0  0  0  0  0  0  0  0  0  0  0  0
   -8.7602   21.4444  -21.2450 O   0  0  0  0  0  0  0  0  0  0  0  0
   -5.7982   21.7577  -20.0100 H   0  0  0  0  0  0  0  0  0  0  0  0
   -8.1557   20.7867  -19.1128 C   0  0  0  0  0  0  0  0  0  0  0  0
   -9.5194   21.1392  -18.5733 C   0  0  0  0  0  0  0  0  0  0  0  0
   -8.3561   21.8701  -18.0694 C   0  0  0  0  0  0  0  0  0  0  0  0
   -7.6760   19.4902  -18.6019 C   0  0  0  0  0  0  0  0  0  0  0  0
   -6.3874   19.3720  -18.6286 O   0  0  0  0  0  0  0  0  0  0  0  0
   -8.3653   18.4065  -18.1013 N   0  0  0  0  0  0  0  0  0  0  0  0
   -9.4186   18.4708  -17.9857 H   0  0  0  0  0  0  0  0  0  0  0  0
   -7.8297   17.1772  -17.6288 C   0  0  0  0  0  0  0  0  0  0  0  0
   -7.5089   16.1054  -18.4188 C   0  0  0  0  0  0  0  0  0  0  0  0
   -7.0237   14.9268  -17.8734 C   0  0  0  0  0  0  0  0  0  0  0  0
   -6.8559   14.8174  -16.5223 C   0  0  0  0  0  0  0  0  0  0  0  0
   -6.3841   13.6700  -15.9928 F   0  0  0  0  0  0  0  0  0  0  0  0
   -7.1724   15.8787  -15.7384 C   0  0  0  0  0  0  0  0  0  0  0  0
   -7.6493   17.0420  -16.2498 C   0  0  0  0  0  0  0  0  0  0  0  0
  7  8  1  0  0  0
  8  9  2  0  0  0
  9 10  1  0  0  0
 10 11  1  0  0  0
 11 12  2  0  0  0
 12 13  1  0  0  0
 13 14  2  0  0  0
 14 15  1  0  0  0
 15  1  1  0  0  0
  1  2  2  0  0  0
  2  3  1  0  0  0
  3  4  2  0  0  0
  4 20  1  0  0  0
 20 21  1  0  0  0
 21 22  2  0  0  0
 21 24  1  0  0  0
 24 25  1  0  0  0
 25 26  1  0  0  0
 24 27  1  0  0  0
 27 28  2  0  0  0
 27 29  1  0  0  0
 29 31  1  0  0  0
 31 32  2  0  0  0
 32 33  1  0  0  0
 33 34  2  0  0  0
 34 35  1  0  0  0
 34 36  1  0  0  0
 36 37  2  0  0  0
  4  5  1  0  0  0
  5  6  2  0  0  0
 15 16  2  0  0  0
 16  8  1  0  0  0
 16 11  1  0  0  0
  6  1  1  0  0  0
 26 24  1  0  0  0
 37 31  1  0  0  0
  7 17  1  0  0  0
  7 18  1  0  0  0
 10 19  1  0  0  0
 20 23  1  0  0  0
 29 30  1  0  0  0
M  END
> <minimizedAffinity>
-7.48468

> <CNNscore>
0.1842971146

> <CNNaffinity>
5.6445269585

> <CNN_VS>
1.0402700901

> <CNNaffinity_variance>
0.2220656574

$$$$
[H]c1c([H])c(N([H])C(=O)C2(C(=O)N([H])c3c([H])c([H])c(-c4c([H])c([H])c([H])c5c4c(N([H])[H])nn5[H])c([H])c3[H])C([H])([H])C2([H])[H])c([H])c([H])c1F


 37 41  0  0  0  0  0  0  0  0999 V2000
   -1.2016   22.2411  -23.4143 C   0  0  0  0  0  0  0  0  0  0  0  0
   -1.0788   21.0586  -22.7261 C   0  0  0  0  0  0  0  0  0  0  0  0
   -1.1983   21.0134  -21.3568 C   0  0  0  0  0  0  0  0  0  0  0  0
   -1.4502   22.1543  -20.5808 C   0  0  0  0  0  0  0  0  0  0  0  0
   -1.5735   23.3288  -21.2595 C   0  0  0  0  0  0  0  0  0  0  0  0
   -1.4493   23.3654  -22.6582 C   0  0  0  0  0  0  0  0  0  0  0  0
   -4.1982   22.3151  -24.1962 N   0  0  0  0  0  0  0  0  0  0  0  0
   -3.5090   22.4978  -25.4137 C   0  0  0  0  0  0  0  0  0  0  0  0
   -4.1397   22.6715  -26.6135 N   0  0  0  0  0  0  0  0  0  0  0  0
   -3.2530   22.7937  -27.5650 N   0  0  0  0  0  0  0  0  0  0  0  0
   -2.0173   22.7102  -27.0627 C   0  0  0  0  0  0  0  0  0  0  0  0
   -0.7620   22.7532  -27.5884 C   0  0  0  0  0  0  0  0  0  0  0  0
    0.3558   22.6134  -26.7786 C   0  0  0  0  0  0  0  0  0  0  0  0
    0.1987   22.4302  -25.4298 C   0  0  0  0  0  0  0  0  0  0  0  0
   -1.0846   22.3829  -24.8608 C   0  0  0  0  0  0  0  0  0  0  0  0
   -2.1552   22.5214  -25.6828 C   0  0  0  0  0  0  0  0  0  0  0  0
   -4.2233   21.3864  -23.7510 H   0  0  0  0  0  0  0  0  0  0  0  0
   -4.6760   23.1131  -23.7536 H   0  0  0  0  0  0  0  0  0  0  0  0
   -3.4955   22.9375  -28.5808 H   0  0  0  0  0  0  0  0  0  0  0  0
   -1.5768   21.9970  -19.1593 N   0  0  0  0  0  0  0  0  0  0  0  0
   -2.7349   21.8284  -18.4291 C   0  0  0  0  0  0  0  0  0  0  0  0
   -3.8603   21.8366  -19.0166 O   0  0  0  0  0  0  0  0  0  0  0  0
   -0.6736   22.0677  -18.5826 H   0  0  0  0  0  0  0  0  0  0  0  0
   -2.8010   21.6395  -16.9713 C   0  0  0  0  0  0  0  0  0  0  0  0
   -1.5027   21.3253  -16.2710 C   0  0  0  0  0  0  0  0  0  0  0  0
   -2.4198   20.2258  -16.5730 C   0  0  0  0  0  0  0  0  0  0  0  0
   -3.7613   22.3159  -16.0809 C   0  0  0  0  0  0  0  0  0  0  0  0
   -3.3289   22.4543  -14.8689 O   0  0  0  0  0  0  0  0  0  0  0  0
   -5.0188   22.8230  -16.3284 N   0  0  0  0  0  0  0  0  0  0  0  0
   -5.3987   22.8055  -17.3196 H   0  0  0  0  0  0  0  0  0  0  0  0
   -5.8957   23.4622  -15.4099 C   0  0  0  0  0  0  0  0  0  0  0  0
   -5.8415   24.7864  -15.0646 C   0  0  0  0  0  0  0  0  0  0  0  0
   -6.7136   25.3248  -14.1309 C   0  0  0  0  0  0  0  0  0  0  0  0
   -7.6522   24.5310  -13.5353 C   0  0  0  0  0  0  0  0  0  0  0  0
   -8.4998   25.0559  -12.6268 F   0  0  0  0  0  0  0  0  0  0  0  0
   -7.7077   23.2191  -13.8771 C   0  0  0  0  0  0  0  0  0  0  0  0
   -6.8642   22.6701  -14.7877 C   0  0  0  0  0  0  0  0  0  0  0  0
  7  8  1  0  0  0
  8  9  2  0  0  0
  9 10  1  0  0  0
 10 11  1  0  0  0
 11 12  2  0  0  0
 12 13  1  0  0  0
 13 14  2  0  0  0
 14 15  1  0  0  0
 15  1  1  0  0  0
  1  2  2  0  0  0
  2  3  1  0  0  0
  3  4  2  0  0  0
  4 20  1  0  0  0
 20 21  1  0  0  0
 21 22  2  0  0  0
 21 24  1  0  0  0
 24 25  1  0  0  0
 25 26  1  0  0  0
 24 27  1  0  0  0
 27 28  2  0  0  0
 27 29  1  0  0  0
 29 31  1  0  0  0
 31 32  2  0  0  0
 32 33  1  0  0  0
 33 34  2  0  0  0
 34 35  1  0  0  0
 34 36  1  0  0  0
 36 37  2  0  0  0
  4  5  1  0  0  0
  5  6  2  0  0  0
 15 16  2  0  0  0
 16  8  1  0  0  0
 16 11  1  0  0  0
  6  1  1  0  0  0
 26 24  1  0  0  0
 37 31  1  0  0  0
  7 17  1  0  0  0
  7 18  1  0  0  0
 10 19  1  0  0  0
 20 23  1  0  0  0
 29 30  1  0  0  0
M  END
> <minimizedAffinity>
-7.54233

> <CNNscore>
0.1748452485

> <CNNaffinity>
5.7098474503

> <CNN_VS>
0.9983397126

> <CNNaffinity_variance>
0.1782696098

$$$$
[H]c1c([H])c([H])c2c(c1[H])N=c1c([H])c([H])c(Cl)c([H])c1=C(N1C([H])([H])C([H])([H])N(C([H])([H])[H])C([H])([H])C1([H])[H])C2([H])[H]


 23 26  0  0  0  0  0  0  0  0999 V2000
   -2.1595   22.0651  -24.2314 C   0  0  0  0  0  0  0  0  0  0  0  0
   -1.5727   22.2797  -25.3909 C   0  0  0  0  0  0  0  0  0  0  0  0
   -2.4909   22.6712  -26.3332 C   0  0  0  0  0  0  0  0  0  0  0  0
   -2.0514   22.9435  -27.6238 C   0  0  0  0  0  0  0  0  0  0  0  0
   -3.2437   23.4439  -28.8175 Cl  0  0  0  0  0  0  0  0  0  0  0  0
   -0.7265   22.8285  -27.9692 C   0  0  0  0  0  0  0  0  0  0  0  0
    0.1979   22.4386  -27.0368 C   0  0  0  0  0  0  0  0  0  0  0  0
   -0.2185   22.1628  -25.7460 C   0  0  0  0  0  0  0  0  0  0  0  0
    0.8027   21.8179  -25.0413 N   0  0  0  0  0  0  0  0  0  0  0  0
    0.8514   21.4479  -23.6681 C   0  0  0  0  0  0  0  0  0  0  0  0
    2.1320   21.1369  -23.2448 C   0  0  0  0  0  0  0  0  0  0  0  0
    2.3750   20.7601  -21.9608 C   0  0  0  0  0  0  0  0  0  0  0  0
    1.3422   20.6841  -21.0636 C   0  0  0  0  0  0  0  0  0  0  0  0
    0.0754   20.9875  -21.4661 C   0  0  0  0  0  0  0  0  0  0  0  0
   -0.2023   21.3799  -22.7891 C   0  0  0  0  0  0  0  0  0  0  0  0
   -1.6288   21.6373  -22.9233 C   0  0  0  0  0  0  0  0  0  0  0  0
   -6.5916   21.7960  -21.8293 C   0  0  0  0  0  0  0  0  0  0  0  0
   -6.1201   22.4052  -23.0329 N   0  0  0  0  0  0  0  0  0  0  0  0
   -5.8517   21.5072  -24.1047 C   0  0  0  0  0  0  0  0  0  0  0  0
   -4.3981   21.0732  -24.1186 C   0  0  0  0  0  0  0  0  0  0  0  0
   -3.5924   22.2613  -24.1301 N   0  0  0  0  0  0  0  0  0  0  0  0
   -4.2039   23.5461  -23.9911 C   0  0  0  0  0  0  0  0  0  0  0  0
   -5.2119   23.4847  -22.8551 C   0  0  0  0  0  0  0  0  0  0  0  0
 17 18  1  0  0  0
 18 19  1  0  0  0
 19 20  1  0  0  0
 20 21  1  0  0  0
 21 22  1  0  0  0
 22 23  1  0  0  0
 21  1  1  0  0  0
  1  2  2  0  0  0
  2  3  1  0  0  0
  3  4  2  0  0  0
  4  5  1  0  0  0
  4  6  1  0  0  0
  6  7  2  0  0  0
  7  8  1  0  0  0
  8  9  2  0  0  0
  9 10  1  0  0  0
 10 11  2  0  0  0
 11 12  1  0  0  0
 12 13  2  0  0  0
 13 14  1  0  0  0
 14 15  2  0  0  0
 15 16  1  0  0  0
 23 18  1  0  0  0
 16  1  1  0  0  0
  8  2  1  0  0  0
 15 10  1  0  0  0
M  END
> <minimizedAffinity>
-8.74450

> <CNNscore>
0.7520375848

> <CNNaffinity>
6.4174146652

> <CNN_VS>
4.8261370659

> <CNNaffinity_variance>
0.0467451029

$$$$
[H]c1c([H])c([H])c2c(c1[H])N=c1c([H])c([H])c(Cl)c([H])c1=C(N1C([H])([H])C([H])([H])N(C([H])([H])[H])C([H])([H])C1([H])[H])C2([H])[H]


 23 26  0  0  0  0  0  0  0  0999 V2000
   -2.7327   22.6524  -24.5099 C   0  0  0  0  0  0  0  0  0  0  0  0
   -2.2758   22.7657  -25.7401 C   0  0  0  0  0  0  0  0  0  0  0  0
   -3.2617   23.2142  -26.5834 C   0  0  0  0  0  0  0  0  0  0  0  0
   -2.9610   23.3951  -27.9286 C   0  0  0  0  0  0  0  0  0  0  0  0
   -4.2383   23.9706  -28.9937 Cl  0  0  0  0  0  0  0  0  0  0  0  0
   -1.7061   23.1352  -28.4240 C   0  0  0  0  0  0  0  0  0  0  0  0
   -0.7152   22.6872  -27.5914 C   0  0  0  0  0  0  0  0  0  0  0  0
   -0.9933   22.5005  -26.2485 C   0  0  0  0  0  0  0  0  0  0  0  0
    0.0694   22.0796  -25.6553 N   0  0  0  0  0  0  0  0  0  0  0  0
    0.2518   21.7553  -24.2818 C   0  0  0  0  0  0  0  0  0  0  0  0
    1.5392   21.3320  -24.0003 C   0  0  0  0  0  0  0  0  0  0  0  0
    1.9018   20.9782  -22.7382 C   0  0  0  0  0  0  0  0  0  0  0  0
    0.9853   21.0384  -21.7215 C   0  0  0  0  0  0  0  0  0  0  0  0
   -0.2866   21.4534  -21.9836 C   0  0  0  0  0  0  0  0  0  0  0  0
   -0.6869   21.8248  -23.2810 C   0  0  0  0  0  0  0  0  0  0  0  0
   -2.0877   22.2197  -23.2558 C   0  0  0  0  0  0  0  0  0  0  0  0
   -7.1188   24.8852  -25.6331 C   0  0  0  0  0  0  0  0  0  0  0  0
   -6.6749   23.9474  -24.6505 N   0  0  0  0  0  0  0  0  0  0  0  0
   -5.8607   24.4896  -23.6160 C   0  0  0  0  0  0  0  0  0  0  0  0
   -4.3850   24.3734  -23.9482 C   0  0  0  0  0  0  0  0  0  0  0  0
   -4.1166   22.9953  -24.2475 N   0  0  0  0  0  0  0  0  0  0  0  0
   -5.1902   22.0545  -24.3274 C   0  0  0  0  0  0  0  0  0  0  0  0
   -6.3127   22.6662  -25.1496 C   0  0  0  0  0  0  0  0  0  0  0  0
 17 18  1  0  0  0
 18 19  1  0  0  0
 19 20  1  0  0  0
 20 21  1  0  0  0
 21 22  1  0  0  0
 22 23  1  0  0  0
 21  1  1  0  0  0
  1  2  2  0  0  0
  2  3  1  0  0  0
  3  4  2  0  0  0
  4  5  1  0  0  0
  4  6  1  0  0  0
  6  7  2  0  0  0
  7  8  1  0  0  0
  8  9  2  0  0  0
  9 10  1  0  0  0
 10 11  2  0  0  0
 11 12  1  0  0  0
 12 13  2  0  0  0
 13 14  1  0  0  0
 14 15  2  0  0  0
 15 16  1  0  0  0
 23 18  1  0  0  0
 16  1  1  0  0  0
  8  2  1  0  0  0
 15 10  1  0  0  0
M  END
> <minimizedAffinity>
-8.48116

> <CNNscore>
0.6895096302

> <CNNaffinity>
6.5667939186

> <CNN_VS>
4.5278677940

> <CNNaffinity_variance>
0.2370445728

$$$$
[H]c1c([H])c([H])c2c(c1[H])N=c1c([H])c([H])c(Cl)c([H])c1=C(N1C([H])([H])C([H])([H])N(C([H])([H])[H])C([H])([H])C1([H])[H])C2([H])[H]


 23 26  0  0  0  0  0  0  0  0999 V2000
   -3.9489   23.7748  -25.0905 C   0  0  0  0  0  0  0  0  0  0  0  0
   -3.3392   23.5755  -26.2409 C   0  0  0  0  0  0  0  0  0  0  0  0
   -4.0774   24.0928  -27.2762 C   0  0  0  0  0  0  0  0  0  0  0  0
   -3.5877   23.9751  -28.5720 C   0  0  0  0  0  0  0  0  0  0  0  0
   -4.5487   24.6445  -29.8856 Cl  0  0  0  0  0  0  0  0  0  0  0  0
   -2.3891   23.3559  -28.8320 C   0  0  0  0  0  0  0  0  0  0  0  0
   -1.6446   22.8362  -27.8065 C   0  0  0  0  0  0  0  0  0  0  0  0
   -2.1138   22.9427  -26.5088 C   0  0  0  0  0  0  0  0  0  0  0  0
   -1.2660   22.3929  -25.7105 N   0  0  0  0  0  0  0  0  0  0  0  0
   -1.3304   22.2667  -24.2945 C   0  0  0  0  0  0  0  0  0  0  0  0
   -0.2312   21.6117  -23.7670 C   0  0  0  0  0  0  0  0  0  0  0  0
   -0.1168   21.3975  -22.4289 C   0  0  0  0  0  0  0  0  0  0  0  0
   -1.1004   21.8334  -21.5804 C   0  0  0  0  0  0  0  0  0  0  0  0
   -2.1890   22.4802  -22.0854 C   0  0  0  0  0  0  0  0  0  0  0  0
   -2.3311   22.7143  -23.4662 C   0  0  0  0  0  0  0  0  0  0  0  0
   -3.5819   23.4188  -23.7068 C   0  0  0  0  0  0  0  0  0  0  0  0
   -8.4321   24.9667  -23.0992 C   0  0  0  0  0  0  0  0  0  0  0  0
   -7.6462   25.4382  -24.1956 N   0  0  0  0  0  0  0  0  0  0  0  0
   -7.5920   24.5702  -25.3230 C   0  0  0  0  0  0  0  0  0  0  0  0
   -6.3908   23.6459  -25.2586 C   0  0  0  0  0  0  0  0  0  0  0  0
   -5.2239   24.4648  -25.0893 N   0  0  0  0  0  0  0  0  0  0  0  0
   -5.3578   25.8725  -24.8784 C   0  0  0  0  0  0  0  0  0  0  0  0
   -6.4431   26.1077  -23.8406 C   0  0  0  0  0  0  0  0  0  0  0  0
 17 18  1  0  0  0
 18 19  1  0  0  0
 19 20  1  0  0  0
 20 21  1  0  0  0
 21 22  1  0  0  0
 22 23  1  0  0  0
 21  1  1  0  0  0
  1  2  2  0  0  0
  2  3  1  0  0  0
  3  4  2  0  0  0
  4  5  1  0  0  0
  4  6  1  0  0  0
  6  7  2  0  0  0
  7  8  1  0  0  0
  8  9  2  0  0  0
  9 10  1  0  0  0
 10 11  2  0  0  0
 11 12  1  0  0  0
 12 13  2  0  0  0
 13 14  1  0  0  0
 14 15  2  0  0  0
 15 16  1  0  0  0
 23 18  1  0  0  0
 16  1  1  0  0  0
  8  2  1  0  0  0
 15 10  1  0  0  0
M  END
> <minimizedAffinity>
-8.42136

> <CNNscore>
0.5909878016

> <CNNaffinity>
6.4368348122

> <CNN_VS>
3.8040907383

> <CNNaffinity_variance>
0.0918914676

$$$$
[H]c1c([H])c([H])c2c(c1[H])N=c1c([H])c([H])c(Cl)c([H])c1=C(N1C([H])([H])C([H])([H])N(C([H])([H])[H])C([H])([H])C1([H])[H])C2([H])[H]


 23 26  0  0  0  0  0  0  0  0999 V2000
   -1.9221   22.3740  -23.8564 C   0  0  0  0  0  0  0  0  0  0  0  0
   -0.7363   21.9530  -23.4674 C   0  0  0  0  0  0  0  0  0  0  0  0
   -0.7462   21.6468  -22.1293 C   0  0  0  0  0  0  0  0  0  0  0  0
    0.4245   21.1836  -21.5397 C   0  0  0  0  0  0  0  0  0  0  0  0
    0.3917   20.7965  -19.8233 Cl  0  0  0  0  0  0  0  0  0  0  0  0
    1.5804   21.0286  -22.2661 C   0  0  0  0  0  0  0  0  0  0  0  0
    1.6013   21.3313  -23.6018 C   0  0  0  0  0  0  0  0  0  0  0  0
    0.4465   21.7938  -24.2084 C   0  0  0  0  0  0  0  0  0  0  0  0
    0.6874   22.0143  -25.4541 N   0  0  0  0  0  0  0  0  0  0  0  0
   -0.1980   22.4939  -26.4597 C   0  0  0  0  0  0  0  0  0  0  0  0
    0.4122   22.6092  -27.6966 C   0  0  0  0  0  0  0  0  0  0  0  0
   -0.2778   23.0525  -28.7814 C   0  0  0  0  0  0  0  0  0  0  0  0
   -1.5993   23.3931  -28.6586 C   0  0  0  0  0  0  0  0  0  0  0  0
   -2.2138   23.2848  -27.4465 C   0  0  0  0  0  0  0  0  0  0  0  0
   -1.5220   22.8287  -26.3086 C   0  0  0  0  0  0  0  0  0  0  0  0
   -2.4276   22.8183  -25.1691 C   0  0  0  0  0  0  0  0  0  0  0  0
   -4.2358   20.9821  -19.5908 C   0  0  0  0  0  0  0  0  0  0  0  0
   -4.4038   22.0321  -20.5454 N   0  0  0  0  0  0  0  0  0  0  0  0
   -4.9511   21.6338  -21.7980 C   0  0  0  0  0  0  0  0  0  0  0  0
   -3.8634   21.3096  -22.8046 C   0  0  0  0  0  0  0  0  0  0  0  0
   -2.9900   22.4464  -22.8785 N   0  0  0  0  0  0  0  0  0  0  0  0
   -3.1634   23.5459  -21.9812 C   0  0  0  0  0  0  0  0  0  0  0  0
   -3.3632   23.0006  -20.5766 C   0  0  0  0  0  0  0  0  0  0  0  0
 17 18  1  0  0  0
 18 19  1  0  0  0
 19 20  1  0  0  0
 20 21  1  0  0  0
 21 22  1  0  0  0
 22 23  1  0  0  0
 21  1  1  0  0  0
  1  2  2  0  0  0
  2  3  1  0  0  0
  3  4  2  0  0  0
  4  5  1  0  0  0
  4  6  1  0  0  0
  6  7  2  0  0  0
  7  8  1  0  0  0
  8  9  2  0  0  0
  9 10  1  0  0  0
 10 11  2  0  0  0
 11 12  1  0  0  0
 12 13  2  0  0  0
 13 14  1  0  0  0
 14 15  2  0  0  0
 15 16  1  0  0  0
 23 18  1  0  0  0
 16  1  1  0  0  0
  8  2  1  0  0  0
 15 10  1  0  0  0
M  END
> <minimizedAffinity>
-7.46969

> <CNNscore>
0.4664799869

> <CNNaffinity>
5.9643983841

> <CNN_VS>
2.7822725773

> <CNNaffinity_variance>
0.0731302351

$$$$
[H]c1c([H])c([H])c2c(c1[H])N=c1c([H])c([H])c(Cl)c([H])c1=C(N1C([H])([H])C([H])([H])N(C([H])([H])[H])C([H])([H])C1([H])[H])C2([H])[H]


 23 26  0  0  0  0  0  0  0  0999 V2000
   -0.5395   21.7643  -21.9183 C   0  0  0  0  0  0  0  0  0  0  0  0
    0.6954   21.4130  -22.2124 C   0  0  0  0  0  0  0  0  0  0  0  0
    1.3915   21.0912  -21.0739 C   0  0  0  0  0  0  0  0  0  0  0  0
    2.7189   20.6946  -21.1903 C   0  0  0  0  0  0  0  0  0  0  0  0
    3.5944   20.2863  -19.7193 Cl  0  0  0  0  0  0  0  0  0  0  0  0
    3.3402   20.6198  -22.4135 C   0  0  0  0  0  0  0  0  0  0  0  0
    2.6549   20.9386  -23.5557 C   0  0  0  0  0  0  0  0  0  0  0  0
    1.3324   21.3358  -23.4622 C   0  0  0  0  0  0  0  0  0  0  0  0
    0.8855   21.5852  -24.6439 N   0  0  0  0  0  0  0  0  0  0  0  0
   -0.4131   22.0207  -25.0299 C   0  0  0  0  0  0  0  0  0  0  0  0
   -0.5346   22.1879  -26.3985 C   0  0  0  0  0  0  0  0  0  0  0  0
   -1.7053   22.6002  -26.9544 C   0  0  0  0  0  0  0  0  0  0  0  0
   -2.7883   22.8570  -26.1554 C   0  0  0  0  0  0  0  0  0  0  0  0
   -2.6837   22.6968  -24.8055 C   0  0  0  0  0  0  0  0  0  0  0  0
   -1.4835   22.2712  -24.2057 C   0  0  0  0  0  0  0  0  0  0  0  0
   -1.6699   22.1916  -22.7642 C   0  0  0  0  0  0  0  0  0  0  0  0
   -3.8096   22.6638  -18.1789 C   0  0  0  0  0  0  0  0  0  0  0  0
   -2.5656   21.9711  -18.3002 N   0  0  0  0  0  0  0  0  0  0  0  0
   -1.4175   22.8020  -18.4381 C   0  0  0  0  0  0  0  0  0  0  0  0
   -1.0742   23.0421  -19.8962 C   0  0  0  0  0  0  0  0  0  0  0  0
   -0.9519   21.7591  -20.5284 N   0  0  0  0  0  0  0  0  0  0  0  0
   -1.2816   20.5686  -19.8088 C   0  0  0  0  0  0  0  0  0  0  0  0
   -2.6008   20.7867  -19.0860 C   0  0  0  0  0  0  0  0  0  0  0  0
 17 18  1  0  0  0
 18 19  1  0  0  0
 19 20  1  0  0  0
 20 21  1  0  0  0
 21 22  1  0  0  0
 22 23  1  0  0  0
 21  1  1  0  0  0
  1  2  2  0  0  0
  2  3  1  0  0  0
  3  4  2  0  0  0
  4  5  1  0  0  0
  4  6  1  0  0  0
  6  7  2  0  0  0
  7  8  1  0  0  0
  8  9  2  0  0  0
  9 10  1  0  0  0
 10 11  2  0  0  0
 11 12  1  0  0  0
 12 13  2  0  0  0
 13 14  1  0  0  0
 14 15  2  0  0  0
 15 16  1  0  0  0
 23 18  1  0  0  0
 16  1  1  0  0  0
  8  2  1  0  0  0
 15 10  1  0  0  0
M  END
> <minimizedAffinity>
-6.91561

> <CNNscore>
0.3695037365

> <CNNaffinity>
5.4711389542

> <CNN_VS>
2.0216062069

> <CNNaffinity_variance>
0.0527770892

$$$$
[H]c1c([H])c([H])c2c(c1[H])N=c1c([H])c([H])c(Cl)c([H])c1=C(N1C([H])([H])C([H])([H])N(C([H])([H])[H])C([H])([H])C1([H])[H])C2([H])[H]


 23 26  0  0  0  0  0  0  0  0999 V2000
   -4.2587   24.0264  -25.6771 C   0  0  0  0  0  0  0  0  0  0  0  0
   -3.1187   23.4161  -25.9276 C   0  0  0  0  0  0  0  0  0  0  0  0
   -2.6203   22.8346  -24.7883 C   0  0  0  0  0  0  0  0  0  0  0  0
   -1.4170   22.1421  -24.8614 C   0  0  0  0  0  0  0  0  0  0  0  0
   -0.7945   21.4038  -23.3902 Cl  0  0  0  0  0  0  0  0  0  0  0  0
   -0.7245   22.0307  -26.0428 C   0  0  0  0  0  0  0  0  0  0  0  0
   -1.2127   22.6071  -27.1853 C   0  0  0  0  0  0  0  0  0  0  0  0
   -2.4092   23.3010  -27.1346 C   0  0  0  0  0  0  0  0  0  0  0  0
   -2.6792   23.7565  -28.3085 N   0  0  0  0  0  0  0  0  0  0  0  0
   -3.8012   24.5249  -28.7277 C   0  0  0  0  0  0  0  0  0  0  0  0
   -3.7587   24.8394  -30.0750 C   0  0  0  0  0  0  0  0  0  0  0  0
   -4.7471   25.5700  -30.6570 C   0  0  0  0  0  0  0  0  0  0  0  0
   -5.8068   26.0068  -29.9062 C   0  0  0  0  0  0  0  0  0  0  0  0
   -5.8623   25.7048  -28.5779 C   0  0  0  0  0  0  0  0  0  0  0  0
   -4.8523   24.9503  -27.9519 C   0  0  0  0  0  0  0  0  0  0  0  0
   -5.1789   24.7881  -26.5427 C   0  0  0  0  0  0  0  0  0  0  0  0
   -7.2785   25.6457  -21.9698 C   0  0  0  0  0  0  0  0  0  0  0  0
   -6.4040   24.5314  -22.1585 N   0  0  0  0  0  0  0  0  0  0  0  0
   -5.0136   24.8337  -22.1081 C   0  0  0  0  0  0  0  0  0  0  0  0
   -4.4531   25.1147  -23.4896 C   0  0  0  0  0  0  0  0  0  0  0  0
   -4.7823   23.9951  -24.3256 N   0  0  0  0  0  0  0  0  0  0  0  0
   -5.6287   22.9538  -23.8324 C   0  0  0  0  0  0  0  0  0  0  0  0
   -6.8221   23.5863  -23.1351 C   0  0  0  0  0  0  0  0  0  0  0  0
 17 18  1  0  0  0
 18 19  1  0  0  0
 19 20  1  0  0  0
 20 21  1  0  0  0
 21 22  1  0  0  0
 22 23  1  0  0  0
 21  1  1  0  0  0
  1  2  2  0  0  0
  2  3  1  0  0  0
  3  4  2  0  0  0
  4  5  1  0  0  0
  4  6  1  0  0  0
  6  7  2  0  0  0
  7  8  1  0  0  0
  8  9  2  0  0  0
  9 10  1  0  0  0
 10 11  2  0  0  0
 11 12  1  0  0  0
 12 13  2  0  0  0
 13 14  1  0  0  0
 14 15  2  0  0  0
 15 16  1  0  0  0
 23 18  1  0  0  0
 16  1  1  0  0  0
  8  2  1  0  0  0
 15 10  1  0  0  0
M  END
> <minimizedAffinity>
-8.83632

> <CNNscore>
0.3382678628

> <CNNaffinity>
6.1141571999

> <CNN_VS>
2.0682229996

> <CNNaffinity_variance>
0.0503634587

$$$$
[H]c1c([H])c([H])c2c(c1[H])N=c1c([H])c([H])c(Cl)c([H])c1=C(N1C([H])([H])C([H])([H])N(C([H])([H])[H])C([H])([H])C1([H])[H])C2([H])[H]


 23 26  0  0  0  0  0  0  0  0999 V2000
   -3.0509   22.7112  -25.0085 C   0  0  0  0  0  0  0  0  0  0  0  0
   -1.8674   22.4928  -25.5436 C   0  0  0  0  0  0  0  0  0  0  0  0
   -0.9491   22.1741  -24.5744 C   0  0  0  0  0  0  0  0  0  0  0  0
    0.3616   21.9093  -24.9549 C   0  0  0  0  0  0  0  0  0  0  0  0
    1.5241   21.5027  -23.6978 Cl  0  0  0  0  0  0  0  0  0  0  0  0
    0.7500   21.9605  -26.2718 C   0  0  0  0  0  0  0  0  0  0  0  0
   -0.1581   22.2775  -27.2469 C   0  0  0  0  0  0  0  0  0  0  0  0
   -1.4683   22.5446  -26.8896 C   0  0  0  0  0  0  0  0  0  0  0  0
   -2.1446   22.8168  -27.9511 N   0  0  0  0  0  0  0  0  0  0  0  0
   -3.5231   23.1509  -28.0659 C   0  0  0  0  0  0  0  0  0  0  0  0
   -3.9085   23.3819  -29.3750 C   0  0  0  0  0  0  0  0  0  0  0  0
   -5.1913   23.7142  -29.6811 C   0  0  0  0  0  0  0  0  0  0  0  0
   -6.1251   23.8247  -28.6845 C   0  0  0  0  0  0  0  0  0  0  0  0
   -5.7602   23.6001  -27.3903 C   0  0  0  0  0  0  0  0  0  0  0  0
   -4.4393   23.2549  -27.0474 C   0  0  0  0  0  0  0  0  0  0  0  0
   -4.3490   23.0784  -25.6053 C   0  0  0  0  0  0  0  0  0  0  0  0
   -5.3661   23.6267  -20.6167 C   0  0  0  0  0  0  0  0  0  0  0  0
   -4.3126   22.7655  -21.0533 N   0  0  0  0  0  0  0  0  0  0  0  0
   -3.0767   23.4124  -21.3387 C   0  0  0  0  0  0  0  0  0  0  0  0
   -2.9664   23.7829  -22.8057 C   0  0  0  0  0  0  0  0  0  0  0  0
   -3.1975   22.5906  -23.5712 N   0  0  0  0  0  0  0  0  0  0  0  0
   -3.6025   21.3846  -22.9189 C   0  0  0  0  0  0  0  0  0  0  0  0
   -4.7058   21.7150  -21.9271 C   0  0  0  0  0  0  0  0  0  0  0  0
 17 18  1  0  0  0
 18 19  1  0  0  0
 19 20  1  0  0  0
 20 21  1  0  0  0
 21 22  1  0  0  0
 22 23  1  0  0  0
 21  1  1  0  0  0
  1  2  2  0  0  0
  2  3  1  0  0  0
  3  4  2  0  0  0
  4  5  1  0  0  0
  4  6  1  0  0  0
  6  7  2  0  0  0
  7  8  1  0  0  0
  8  9  2  0  0  0
  9 10  1  0  0  0
 10 11  2  0  0  0
 11 12  1  0  0  0
 12 13  2  0  0  0
 13 14  1  0  0  0
 14 15  2  0  0  0
 15 16  1  0  0  0
 23 18  1  0  0  0
 16  1  1  0  0  0
  8  2  1  0  0  0
 15 10  1  0  0  0
M  END
> <minimizedAffinity>
-8.80493

> <CNNscore>
0.3198980093

> <CNNaffinity>
6.1195497513

> <CNN_VS>
1.9576318264

> <CNNaffinity_variance>
0.2726867795

$$$$
[H]c1c([H])c([H])c2c(c1[H])N=c1c([H])c([H])c(Cl)c([H])c1=C(N1C([H])([H])C([H])([H])N(C([H])([H])[H])C([H])([H])C1([H])[H])C2([H])[H]


 23 26  0  0  0  0  0  0  0  0999 V2000
   -4.7333   23.3207  -26.1022 C   0  0  0  0  0  0  0  0  0  0  0  0
   -3.4704   22.9517  -26.0422 C   0  0  0  0  0  0  0  0  0  0  0  0
   -2.8297   23.2239  -27.2253 C   0  0  0  0  0  0  0  0  0  0  0  0
   -1.4830   22.9009  -27.3473 C   0  0  0  0  0  0  0  0  0  0  0  0
   -0.6794   23.2576  -28.8717 Cl  0  0  0  0  0  0  0  0  0  0  0  0
   -0.7888   22.3193  -26.3140 C   0  0  0  0  0  0  0  0  0  0  0  0
   -1.4185   22.0433  -25.1294 C   0  0  0  0  0  0  0  0  0  0  0  0
   -2.7589   22.3570  -24.9869 C   0  0  0  0  0  0  0  0  0  0  0  0
   -3.1456   22.0161  -23.8068 N   0  0  0  0  0  0  0  0  0  0  0  0
   -4.4358   22.1481  -23.2212 C   0  0  0  0  0  0  0  0  0  0  0  0
   -4.4837   21.6697  -21.9233 C   0  0  0  0  0  0  0  0  0  0  0  0
   -5.6355   21.7121  -21.2013 C   0  0  0  0  0  0  0  0  0  0  0  0
   -6.7727   22.2350  -21.7587 C   0  0  0  0  0  0  0  0  0  0  0  0
   -6.7408   22.7100  -23.0362 C   0  0  0  0  0  0  0  0  0  0  0  0
   -5.5616   22.6776  -23.8042 C   0  0  0  0  0  0  0  0  0  0  0  0
   -5.8285   23.2479  -25.1166 C   0  0  0  0  0  0  0  0  0  0  0  0
   -4.1425   25.6846  -30.5236 C   0  0  0  0  0  0  0  0  0  0  0  0
   -5.2273   25.0480  -29.8453 N   0  0  0  0  0  0  0  0  0  0  0  0
   -5.7562   25.7661  -28.7353 C   0  0  0  0  0  0  0  0  0  0  0  0
   -5.0992   25.3455  -27.4342 C   0  0  0  0  0  0  0  0  0  0  0  0
   -5.2257   23.9196  -27.3273 N   0  0  0  0  0  0  0  0  0  0  0  0
   -5.7624   23.1618  -28.4144 C   0  0  0  0  0  0  0  0  0  0  0  0
   -5.1156   23.6375  -29.7050 C   0  0  0  0  0  0  0  0  0  0  0  0
 17 18  1  0  0  0
 18 19  1  0  0  0
 19 20  1  0  0  0
 20 21  1  0  0  0
 21 22  1  0  0  0
 22 23  1  0  0  0
 21  1  1  0  0  0
  1  2  2  0  0  0
  2  3  1  0  0  0
  3  4  2  0  0  0
  4  5  1  0  0  0
  4  6  1  0  0  0
  6  7  2  0  0  0
  7  8  1  0  0  0
  8  9  2  0  0  0
  9 10  1  0  0  0
 10 11  2  0  0  0
 11 12  1  0  0  0
 12 13  2  0  0  0
 13 14  1  0  0  0
 14 15  2  0  0  0
 15 16  1  0  0  0
 23 18  1  0  0  0
 16  1  1  0  0  0
  8  2  1  0  0  0
 15 10  1  0  0  0
M  END
> <minimizedAffinity>
-8.60586

> <CNNscore>
0.3198022246

> <CNNaffinity>
6.2942261696

> <CNN_VS>
2.0129075050

> <CNNaffinity_variance>
0.0506013632

$$$$
[H]c1c([H])c([H])c2c(c1[H])N=c1c([H])c([H])c(Cl)c([H])c1=C(N1C([H])([H])C([H])([H])N(C([H])([H])[H])C([H])([H])C1([H])[H])C2([H])[H]


 23 26  0  0  0  0  0  0  0  0999 V2000
   -2.9857   22.8127  -24.8207 C   0  0  0  0  0  0  0  0  0  0  0  0
   -1.8332   22.5180  -25.3863 C   0  0  0  0  0  0  0  0  0  0  0  0
   -0.8864   22.2308  -24.4348 C   0  0  0  0  0  0  0  0  0  0  0  0
    0.3979   21.8954  -24.8481 C   0  0  0  0  0  0  0  0  0  0  0  0
    1.5977   21.5306  -23.6134 Cl  0  0  0  0  0  0  0  0  0  0  0  0
    0.7328   21.8469  -26.1798 C   0  0  0  0  0  0  0  0  0  0  0  0
   -0.2042   22.1317  -27.1373 C   0  0  0  0  0  0  0  0  0  0  0  0
   -1.4889   22.4678  -26.7473 C   0  0  0  0  0  0  0  0  0  0  0  0
   -2.1995   22.6942  -27.7972 N   0  0  0  0  0  0  0  0  0  0  0  0
   -3.5698   23.0687  -27.8797 C   0  0  0  0  0  0  0  0  0  0  0  0
   -4.0016   23.2275  -29.1851 C   0  0  0  0  0  0  0  0  0  0  0  0
   -5.2844   23.5845  -29.4619 C   0  0  0  0  0  0  0  0  0  0  0  0
   -6.1718   23.7927  -28.4390 C   0  0  0  0  0  0  0  0  0  0  0  0
   -5.7610   23.6401  -27.1480 C   0  0  0  0  0  0  0  0  0  0  0  0
   -4.4391   23.2713  -26.8351 C   0  0  0  0  0  0  0  0  0  0  0  0
   -4.2947   23.1860  -25.3891 C   0  0  0  0  0  0  0  0  0  0  0  0
   -1.4874   21.3491  -20.2274 C   0  0  0  0  0  0  0  0  0  0  0  0
   -2.4089   22.3138  -20.7395 N   0  0  0  0  0  0  0  0  0  0  0  0
   -3.6099   21.7781  -21.2853 C   0  0  0  0  0  0  0  0  0  0  0  0
   -3.4911   21.5516  -22.7806 C   0  0  0  0  0  0  0  0  0  0  0  0
   -3.0763   22.7912  -23.3739 N   0  0  0  0  0  0  0  0  0  0  0  0
   -2.7271   23.9033  -22.5461 C   0  0  0  0  0  0  0  0  0  0  0  0
   -1.8233   23.4119  -21.4272 C   0  0  0  0  0  0  0  0  0  0  0  0
 17 18  1  0  0  0
 18 19  1  0  0  0
 19 20  1  0  0  0
 20 21  1  0  0  0
 21 22  1  0  0  0
 22 23  1  0  0  0
 21  1  1  0  0  0
  1  2  2  0  0  0
  2  3  1  0  0  0
  3  4  2  0  0  0
  4  5  1  0  0  0
  4  6  1  0  0  0
  6  7  2  0  0  0
  7  8  1  0  0  0
  8  9  2  0  0  0
  9 10  1  0  0  0
 10 11  2  0  0  0
 11 12  1  0  0  0
 12 13  2  0  0  0
 13 14  1  0  0  0
 14 15  2  0  0  0
 15 16  1  0  0  0
 23 18  1  0  0  0
 16  1  1  0  0  0
  8  2  1  0  0  0
 15 10  1  0  0  0
M  END
> <minimizedAffinity>
-8.93643

> <CNNscore>
0.3077345788

> <CNNaffinity>
6.1467123032

> <CNN_VS>
1.8915559053

> <CNNaffinity_variance>
0.2800868750

$$$$
[H]O[C@@]([H])(C([H])([H])C(=O)N([H])[C@]([H])(C(=O)N([H])[C@@]([H])(C([H])([H])C([H])(C([H])([H])[H])C([H])([H])[H])C([H])(C([H])([H])[H])C([H])([H])[H])C([H])([H])[H])[C@@]([H])(N([H])C(=O)[C@@]([H])(N([H])C(=O)C([H])([H])C([H])(C([H])([H])[H])C([H])([H])[H])C([H])(C([H])([H])[H])C([H])([H])[H])C([H])(C([H])([H])[H])C([H])([H])[H]


 42 41  0  0  0  0  0  0  0  0999 V2000
   -1.2304   22.5876  -23.4495 C   0  0  0  0  0  0  0  0  0  0  0  0
   -1.2873   23.7038  -22.6517 O   0  0  0  0  0  0  0  0  0  0  0  0
   -2.1331   24.1965  -22.6996 H   0  0  0  0  0  0  0  0  0  0  0  0
   -2.0476   22.5537  -24.6801 C   0  0  0  0  0  0  0  0  0  0  0  0
   -3.0670   23.6148  -24.7410 N   0  0  0  0  0  0  0  0  0  0  0  0
   -4.4226   23.3267  -24.8740 C   0  0  0  0  0  0  0  0  0  0  0  0
   -4.7821   22.0995  -24.9101 O   0  0  0  0  0  0  0  0  0  0  0  0
   -2.7592   24.6021  -24.6540 H   0  0  0  0  0  0  0  0  0  0  0  0
   -5.5188   24.3026  -24.9806 C   0  0  0  0  0  0  0  0  0  0  0  0
   -5.4804   24.9320  -26.2339 N   0  0  0  0  0  0  0  0  0  0  0  0
   -5.9171   24.5906  -27.4952 C   0  0  0  0  0  0  0  0  0  0  0  0
   -6.4674   23.5000  -27.7396 O   0  0  0  0  0  0  0  0  0  0  0  0
   -4.9870   25.9258  -26.2126 H   0  0  0  0  0  0  0  0  0  0  0  0
   -5.7671   25.5083  -28.6763 C   0  0  0  0  0  0  0  0  0  0  0  0
   -4.9304   24.8989  -29.7743 C   0  0  0  0  0  0  0  0  0  0  0  0
   -3.8582   25.8304  -30.2820 C   0  0  0  0  0  0  0  0  0  0  0  0
   -5.7576   24.3925  -30.9205 C   0  0  0  0  0  0  0  0  0  0  0  0
   -6.7936   23.9534  -24.2983 C   0  0  0  0  0  0  0  0  0  0  0  0
   -6.5870   24.0565  -22.7545 C   0  0  0  0  0  0  0  0  0  0  0  0
   -7.9792   24.8193  -24.6374 C   0  0  0  0  0  0  0  0  0  0  0  0
   -1.1469   22.6846  -25.9091 C   0  0  0  0  0  0  0  0  0  0  0  0
    0.1965   22.0649  -25.7651 C   0  0  0  0  0  0  0  0  0  0  0  0
   -1.8279   22.1402  -27.1411 C   0  0  0  0  0  0  0  0  0  0  0  0
   -1.6413   21.4340  -22.5164 C   0  0  0  0  0  0  0  0  0  0  0  0
   -0.6345   19.6550  -21.0533 N   0  0  0  0  0  0  0  0  0  0  0  0
   -0.4500   20.7295  -21.9631 C   0  0  0  0  0  0  0  0  0  0  0  0
    0.6882   21.0786  -22.3078 O   0  0  0  0  0  0  0  0  0  0  0  0
   -1.5883   19.4188  -20.7325 H   0  0  0  0  0  0  0  0  0  0  0  0
    0.5419   18.9291  -20.6033 C   0  0  0  0  0  0  0  0  0  0  0  0
    0.8268   19.3623  -19.1550 C   0  0  0  0  0  0  0  0  0  0  0  0
   -0.7901   17.0504  -19.7084 N   0  0  0  0  0  0  0  0  0  0  0  0
    0.2312   17.4479  -20.5595 C   0  0  0  0  0  0  0  0  0  0  0  0
    0.9163   16.6580  -21.2762 O   0  0  0  0  0  0  0  0  0  0  0  0
   -1.2814   17.8068  -19.1368 H   0  0  0  0  0  0  0  0  0  0  0  0
   -1.2903   15.6934  -19.4862 C   0  0  0  0  0  0  0  0  0  0  0  0
   -2.7338   15.7941  -19.2097 C   0  0  0  0  0  0  0  0  0  0  0  0
   -3.1704   15.8045  -17.7783 C   0  0  0  0  0  0  0  0  0  0  0  0
   -3.6064   14.8178  -19.9885 C   0  0  0  0  0  0  0  0  0  0  0  0
   -0.4014   14.8120  -18.7460 C   0  0  0  0  0  0  0  0  0  0  0  0
    1.1258   13.7113  -17.1980 C   0  0  0  0  0  0  0  0  0  0  0  0
    0.6687   15.1184  -17.8143 C   0  0  0  0  0  0  0  0  0  0  0  0
    0.3675   15.8766  -16.5489 C   0  0  0  0  0  0  0  0  0  0  0  0
 40 41  1  0  0  0
 41 42  1  0  0  0
 41 39  1  0  0  0
 39 35  1  0  0  0
 35 31  1  0  0  0
 31 32  1  0  0  0
 32 33  2  0  0  0
 32 29  1  0  0  0
 29 30  1  0  0  0
 29 25  1  0  0  0
 25 26  1  0  0  0
 26 27  2  0  0  0
 26 24  1  0  0  0
 24  1  1  0  0  0
  1  2  1  0  0  0
  1  4  1  0  0  0
  4  5  1  0  0  0
  5  6  1  0  0  0
  6  7  2  0  0  0
  6  9  1  0  0  0
  9 10  1  0  0  0
 10 11  1  0  0  0
 11 12  2  0  0  0
 11 14  1  0  0  0
 14 15  1  0  0  0
 15 16  1  0  0  0
 15 17  1  0  0  0
  9 18  1  0  0  0
 18 19  1  0  0  0
 18 20  1  0  0  0
  4 21  1  0  0  0
 21 22  1  0  0  0
 21 23  1  0  0  0
 35 36  1  0  0  0
 36 37  1  0  0  0
 36 38  1  0  0  0
 31 34  1  0  0  0
 25 28  1  0  0  0
  2  3  1  0  0  0
  5  8  1  0  0  0
 10 13  1  0  0  0
M  END
> <minimizedAffinity>
-6.91388

> <CNNscore>
0.3255025744

> <CNNaffinity>
6.2455615997

> <CNN_VS>
2.0329463482

> <CNNaffinity_variance>
0.3035465181

$$$$
[H]O[C@@]([H])(C([H])([H])C(=O)N([H])[C@]([H])(C(=O)N([H])[C@@]([H])(C([H])([H])C([H])(C([H])([H])[H])C([H])([H])[H])C([H])(C([H])([H])[H])C([H])([H])[H])C([H])([H])[H])[C@@]([H])(N([H])C(=O)[C@@]([H])(N([H])C(=O)C([H])([H])C([H])(C([H])([H])[H])C([H])([H])[H])C([H])(C([H])([H])[H])C([H])([H])[H])C([H])(C([H])([H])[H])C([H])([H])[H]


 42 41  0  0  0  0  0  0  0  0999 V2000
   -6.0622   24.5513  -21.1927 C   0  0  0  0  0  0  0  0  0  0  0  0
   -5.2910   25.6668  -20.9775 O   0  0  0  0  0  0  0  0  0  0  0  0
   -4.7571   25.9486  -21.7494 H   0  0  0  0  0  0  0  0  0  0  0  0
   -5.6125   23.5612  -22.1932 C   0  0  0  0  0  0  0  0  0  0  0  0
   -4.3915   22.8376  -21.8000 N   0  0  0  0  0  0  0  0  0  0  0  0
   -3.1204   23.3314  -22.0808 C   0  0  0  0  0  0  0  0  0  0  0  0
   -3.0248   24.4634  -22.6687 O   0  0  0  0  0  0  0  0  0  0  0  0
   -4.4912   21.9483  -21.2746 H   0  0  0  0  0  0  0  0  0  0  0  0
   -1.8390   22.6789  -21.7682 C   0  0  0  0  0  0  0  0  0  0  0  0
   -1.7707   22.3884  -20.3973 N   0  0  0  0  0  0  0  0  0  0  0  0
   -1.1598   22.9862  -19.3168 C   0  0  0  0  0  0  0  0  0  0  0  0
   -0.4563   24.0084  -19.4279 O   0  0  0  0  0  0  0  0  0  0  0  0
   -2.3285   21.4720  -20.1131 H   0  0  0  0  0  0  0  0  0  0  0  0
   -1.2961   22.4547  -17.9174 C   0  0  0  0  0  0  0  0  0  0  0  0
   -2.6469   21.8293  -17.6697 C   0  0  0  0  0  0  0  0  0  0  0  0
   -3.5265   22.6656  -16.7742 C   0  0  0  0  0  0  0  0  0  0  0  0
   -2.5486   20.4301  -17.1338 C   0  0  0  0  0  0  0  0  0  0  0  0
   -1.2781   21.7746  -22.8076 C   0  0  0  0  0  0  0  0  0  0  0  0
   -0.4250   22.6180  -23.8062 C   0  0  0  0  0  0  0  0  0  0  0  0
   -0.3898   20.6663  -22.3046 C   0  0  0  0  0  0  0  0  0  0  0  0
   -6.7172   22.5340  -22.4448 C   0  0  0  0  0  0  0  0  0  0  0  0
   -6.5038   21.6694  -23.6350 C   0  0  0  0  0  0  0  0  0  0  0  0
   -6.9454   21.6733  -21.2262 C   0  0  0  0  0  0  0  0  0  0  0  0
   -7.4378   25.1138  -21.5947 C   0  0  0  0  0  0  0  0  0  0  0  0
   -6.1708   25.9493  -23.5987 N   0  0  0  0  0  0  0  0  0  0  0  0
   -7.4167   25.6696  -22.9776 C   0  0  0  0  0  0  0  0  0  0  0  0
   -8.4825   25.8731  -23.5767 O   0  0  0  0  0  0  0  0  0  0  0  0
   -5.2964   25.8294  -23.0606 H   0  0  0  0  0  0  0  0  0  0  0  0
   -6.1807   26.4032  -24.9797 C   0  0  0  0  0  0  0  0  0  0  0  0
   -4.8651   27.1609  -25.2271 C   0  0  0  0  0  0  0  0  0  0  0  0
   -4.9255   24.7051  -26.2625 N   0  0  0  0  0  0  0  0  0  0  0  0
   -6.1698   25.2029  -25.9024 C   0  0  0  0  0  0  0  0  0  0  0  0
   -7.2753   24.7312  -26.3053 O   0  0  0  0  0  0  0  0  0  0  0  0
   -4.0626   25.2016  -25.8763 H   0  0  0  0  0  0  0  0  0  0  0  0
   -4.6376   23.5604  -27.1272 C   0  0  0  0  0  0  0  0  0  0  0  0
   -3.3503   22.9910  -26.6927 C   0  0  0  0  0  0  0  0  0  0  0  0
   -2.3690   22.5973  -27.7518 C   0  0  0  0  0  0  0  0  0  0  0  0
   -3.4580   21.8652  -25.6718 C   0  0  0  0  0  0  0  0  0  0  0  0
   -4.9987   23.7263  -28.5261 C   0  0  0  0  0  0  0  0  0  0  0  0
   -5.6533   24.4498  -30.7596 C   0  0  0  0  0  0  0  0  0  0  0  0
   -5.0462   24.9188  -29.3524 C   0  0  0  0  0  0  0  0  0  0  0  0
   -3.7661   25.5610  -29.8169 C   0  0  0  0  0  0  0  0  0  0  0  0
 40 41  1  0  0  0
 41 42  1  0  0  0
 41 39  1  0  0  0
 39 35  1  0  0  0
 35 31  1  0  0  0
 31 32  1  0  0  0
 32 33  2  0  0  0
 32 29  1  0  0  0
 29 30  1  0  0  0
 29 25  1  0  0  0
 25 26  1  0  0  0
 26 27  2  0  0  0
 26 24  1  0  0  0
 24  1  1  0  0  0
  1  2  1  0  0  0
  1  4  1  0  0  0
  4  5  1  0  0  0
  5  6  1  0  0  0
  6  7  2  0  0  0
  6  9  1  0  0  0
  9 10  1  0  0  0
 10 11  1  0  0  0
 11 12  2  0  0  0
 11 14  1  0  0  0
 14 15  1  0  0  0
 15 16  1  0  0  0
 15 17  1  0  0  0
  9 18  1  0  0  0
 18 19  1  0  0  0
 18 20  1  0  0  0
  4 21  1  0  0  0
 21 22  1  0  0  0
 21 23  1  0  0  0
 35 36  1  0  0  0
 36 37  1  0  0  0
 36 38  1  0  0  0
 31 34  1  0  0  0
 25 28  1  0  0  0
  2  3  1  0  0  0
  5  8  1  0  0  0
 10 13  1  0  0  0
M  END
> <minimizedAffinity>
-7.72879

> <CNNscore>
0.3008786440

> <CNNaffinity>
6.5199785233

> <CNN_VS>
1.9617222548

> <CNNaffinity_variance>
0.9053228498

$$$$
[H]O[C@@]([H])(C([H])([H])C(=O)N([H])[C@]([H])(C(=O)N([H])[C@@]([H])(C([H])([H])C([H])(C([H])([H])[H])C([H])([H])[H])C([H])(C([H])([H])[H])C([H])([H])[H])C([H])([H])[H])[C@@]([H])(N([H])C(=O)[C@@]([H])(N([H])C(=O)C([H])([H])C([H])(C([H])([H])[H])C([H])([H])[H])C([H])(C([H])([H])[H])C([H])([H])[H])C([H])(C([H])([H])[H])C([H])([H])[H]


 42 41  0  0  0  0  0  0  0  0999 V2000
   -4.1563   21.6310  -20.6550 C   0  0  0  0  0  0  0  0  0  0  0  0
   -4.3221   20.5702  -19.7991 O   0  0  0  0  0  0  0  0  0  0  0  0
   -3.7351   20.5837  -19.0145 H   0  0  0  0  0  0  0  0  0  0  0  0
   -2.8349   22.2891  -20.7202 C   0  0  0  0  0  0  0  0  0  0  0  0
   -1.8141   21.6485  -19.8737 N   0  0  0  0  0  0  0  0  0  0  0  0
   -1.1242   22.3535  -18.8912 C   0  0  0  0  0  0  0  0  0  0  0  0
   -1.4190   23.5846  -18.7069 O   0  0  0  0  0  0  0  0  0  0  0  0
   -1.6299   20.6353  -20.0021 H   0  0  0  0  0  0  0  0  0  0  0  0
   -0.0647   21.8266  -18.0165 C   0  0  0  0  0  0  0  0  0  0  0  0
    0.9104   22.8112  -17.7977 N   0  0  0  0  0  0  0  0  0  0  0  0
    2.1761   23.0381  -18.2925 C   0  0  0  0  0  0  0  0  0  0  0  0
    2.7227   22.2705  -19.1074 O   0  0  0  0  0  0  0  0  0  0  0  0
    0.6013   23.5808  -17.0604 H   0  0  0  0  0  0  0  0  0  0  0  0
    2.9969   24.2316  -17.8910 C   0  0  0  0  0  0  0  0  0  0  0  0
    4.0431   23.8882  -16.8593 C   0  0  0  0  0  0  0  0  0  0  0  0
    3.4545   23.5819  -15.5047 C   0  0  0  0  0  0  0  0  0  0  0  0
    5.1023   24.9450  -16.7333 C   0  0  0  0  0  0  0  0  0  0  0  0
   -0.4851   20.8670  -16.9605 C   0  0  0  0  0  0  0  0  0  0  0  0
    0.3801   21.1074  -15.6837 C   0  0  0  0  0  0  0  0  0  0  0  0
   -1.9270   20.9522  -16.5313 C   0  0  0  0  0  0  0  0  0  0  0  0
   -2.3252   22.2959  -22.1621 C   0  0  0  0  0  0  0  0  0  0  0  0
   -3.1582   21.5230  -23.1204 C   0  0  0  0  0  0  0  0  0  0  0  0
   -2.1464   23.7067  -22.6675 C   0  0  0  0  0  0  0  0  0  0  0  0
   -5.2253   22.6462  -20.2113 C   0  0  0  0  0  0  0  0  0  0  0  0
   -6.0617   23.7379  -22.3155 N   0  0  0  0  0  0  0  0  0  0  0  0
   -6.2770   22.8209  -21.2530 C   0  0  0  0  0  0  0  0  0  0  0  0
   -7.3233   22.1594  -21.1900 O   0  0  0  0  0  0  0  0  0  0  0  0
   -5.2097   24.3232  -22.3170 H   0  0  0  0  0  0  0  0  0  0  0  0
   -7.0648   23.8181  -23.3646 C   0  0  0  0  0  0  0  0  0  0  0  0
   -7.8146   25.1495  -23.1869 C   0  0  0  0  0  0  0  0  0  0  0  0
   -5.0499   24.2883  -24.7151 N   0  0  0  0  0  0  0  0  0  0  0  0
   -6.3774   23.8843  -24.7121 C   0  0  0  0  0  0  0  0  0  0  0  0
   -7.0399   23.5887  -25.7516 O   0  0  0  0  0  0  0  0  0  0  0  0
   -4.6044   24.5334  -23.7761 H   0  0  0  0  0  0  0  0  0  0  0  0
   -4.1614   24.4279  -25.8693 C   0  0  0  0  0  0  0  0  0  0  0  0
   -4.3000   25.8065  -26.3697 C   0  0  0  0  0  0  0  0  0  0  0  0
   -4.6035   26.8822  -25.3746 C   0  0  0  0  0  0  0  0  0  0  0  0
   -5.2255   25.9640  -27.5697 C   0  0  0  0  0  0  0  0  0  0  0  0
   -4.0882   23.2702  -26.7463 C   0  0  0  0  0  0  0  0  0  0  0  0
   -1.7483   22.7511  -26.3037 C   0  0  0  0  0  0  0  0  0  0  0  0
   -2.9432   22.6268  -27.3645 C   0  0  0  0  0  0  0  0  0  0  0  0
   -2.2928   23.2506  -28.5706 C   0  0  0  0  0  0  0  0  0  0  0  0
 40 41  1  0  0  0
 41 42  1  0  0  0
 41 39  1  0  0  0
 39 35  1  0  0  0
 35 31  1  0  0  0
 31 32  1  0  0  0
 32 33  2  0  0  0
 32 29  1  0  0  0
 29 30  1  0  0  0
 29 25  1  0  0  0
 25 26  1  0  0  0
 26 27  2  0  0  0
 26 24  1  0  0  0
 24  1  1  0  0  0
  1  2  1  0  0  0
  1  4  1  0  0  0
  4  5  1  0  0  0
  5  6  1  0  0  0
  6  7  2  0  0  0
  6  9  1  0  0  0
  9 10  1  0  0  0
 10 11  1  0  0  0
 11 12  2  0  0  0
 11 14  1  0  0  0
 14 15  1  0  0  0
 15 16  1  0  0  0
 15 17  1  0  0  0
  9 18  1  0  0  0
 18 19  1  0  0  0
 18 20  1  0  0  0
  4 21  1  0  0  0
 21 22  1  0  0  0
 21 23  1  0  0  0
 35 36  1  0  0  0
 36 37  1  0  0  0
 36 38  1  0  0  0
 31 34  1  0  0  0
 25 28  1  0  0  0
  2  3  1  0  0  0
  5  8  1  0  0  0
 10 13  1  0  0  0
M  END
> <minimizedAffinity>
-6.74503

> <CNNscore>
0.2092170864

> <CNNaffinity>
5.7143750191

> <CNN_VS>
1.1955448389

> <CNNaffinity_variance>
0.9827716947

$$$$
[H]O[C@@]([H])(C([H])([H])C(=O)N([H])[C@]([H])(C(=O)N([H])[C@@]([H])(C([H])([H])C([H])(C([H])([H])[H])C([H])([H])[H])C([H])(C([H])([H])[H])C([H])([H])[H])C([H])([H])[H])[C@@]([H])(N([H])C(=O)[C@@]([H])(N([H])C(=O)C([H])([H])C([H])(C([H])([H])[H])C([H])([H])[H])C([H])(C([H])([H])[H])C([H])([H])[H])C([H])(C([H])([H])[H])C([H])([H])[H]


 42 41  0  0  0  0  0  0  0  0999 V2000
   -1.0984   22.0418  -23.9179 C   0  0  0  0  0  0  0  0  0  0  0  0
   -0.1840   22.9735  -23.4923 O   0  0  0  0  0  0  0  0  0  0  0  0
   -0.3717   23.8908  -23.7817 H   0  0  0  0  0  0  0  0  0  0  0  0
   -1.8355   22.2944  -25.1734 C   0  0  0  0  0  0  0  0  0  0  0  0
   -2.8267   23.3785  -25.0680 N   0  0  0  0  0  0  0  0  0  0  0  0
   -4.1901   23.1479  -25.2305 C   0  0  0  0  0  0  0  0  0  0  0  0
   -4.5821   21.9492  -25.4445 O   0  0  0  0  0  0  0  0  0  0  0  0
   -2.4924   24.3338  -24.8386 H   0  0  0  0  0  0  0  0  0  0  0  0
   -5.2604   24.1566  -25.1820 C   0  0  0  0  0  0  0  0  0  0  0  0
   -5.2965   24.8757  -26.3861 N   0  0  0  0  0  0  0  0  0  0  0  0
   -5.8135   24.6284  -27.6390 C   0  0  0  0  0  0  0  0  0  0  0  0
   -6.3852   23.5596  -27.9270 O   0  0  0  0  0  0  0  0  0  0  0  0
   -4.7962   25.8643  -26.3236 H   0  0  0  0  0  0  0  0  0  0  0  0
   -5.7317   25.6296  -28.7572 C   0  0  0  0  0  0  0  0  0  0  0  0
   -4.9425   25.1121  -29.9347 C   0  0  0  0  0  0  0  0  0  0  0  0
   -3.5835   25.7544  -30.0593 C   0  0  0  0  0  0  0  0  0  0  0  0
   -5.6897   25.2324  -31.2315 C   0  0  0  0  0  0  0  0  0  0  0  0
   -6.4909   23.7902  -24.4307 C   0  0  0  0  0  0  0  0  0  0  0  0
   -6.1418   23.6709  -22.9140 C   0  0  0  0  0  0  0  0  0  0  0  0
   -7.6395   24.7595  -24.5379 C   0  0  0  0  0  0  0  0  0  0  0  0
   -0.8553   22.6496  -26.2923 C   0  0  0  0  0  0  0  0  0  0  0  0
    0.3215   21.7478  -26.3984 C   0  0  0  0  0  0  0  0  0  0  0  0
   -1.5586   22.7259  -27.6256 C   0  0  0  0  0  0  0  0  0  0  0  0
   -2.0885   21.9197  -22.7453 C   0  0  0  0  0  0  0  0  0  0  0  0
   -0.9072   22.1309  -20.5364 N   0  0  0  0  0  0  0  0  0  0  0  0
   -1.6554   22.7397  -21.5784 C   0  0  0  0  0  0  0  0  0  0  0  0
   -1.9417   23.9447  -21.5313 O   0  0  0  0  0  0  0  0  0  0  0  0
   -0.7307   21.1128  -20.5654 H   0  0  0  0  0  0  0  0  0  0  0  0
   -0.4211   22.9763  -19.4583 C   0  0  0  0  0  0  0  0  0  0  0  0
   -1.4541   22.9144  -18.3202 C   0  0  0  0  0  0  0  0  0  0  0  0
    1.8403   23.3051  -18.5187 N   0  0  0  0  0  0  0  0  0  0  0  0
    0.8653   22.3977  -18.9080 C   0  0  0  0  0  0  0  0  0  0  0  0
    0.9919   21.1379  -18.8462 O   0  0  0  0  0  0  0  0  0  0  0  0
    1.6265   24.3443  -18.6395 H   0  0  0  0  0  0  0  0  0  0  0  0
    3.1576   23.0128  -17.9528 C   0  0  0  0  0  0  0  0  0  0  0  0
    3.4610   24.0684  -16.9710 C   0  0  0  0  0  0  0  0  0  0  0  0
    4.7110   24.8669  -17.1697 C   0  0  0  0  0  0  0  0  0  0  0  0
    3.3755   23.6334  -15.5134 C   0  0  0  0  0  0  0  0  0  0  0  0
    4.1416   22.4970  -18.8912 C   0  0  0  0  0  0  0  0  0  0  0  0
    4.3067   20.2066  -18.0742 C   0  0  0  0  0  0  0  0  0  0  0  0
    5.1054   21.4208  -18.7499 C   0  0  0  0  0  0  0  0  0  0  0  0
    6.2477   21.5595  -17.7789 C   0  0  0  0  0  0  0  0  0  0  0  0
 40 41  1  0  0  0
 41 42  1  0  0  0
 41 39  1  0  0  0
 39 35  1  0  0  0
 35 31  1  0  0  0
 31 32  1  0  0  0
 32 33  2  0  0  0
 32 29  1  0  0  0
 29 30  1  0  0  0
 29 25  1  0  0  0
 25 26  1  0  0  0
 26 27  2  0  0  0
 26 24  1  0  0  0
 24  1  1  0  0  0
  1  2  1  0  0  0
  1  4  1  0  0  0
  4  5  1  0  0  0
  5  6  1  0  0  0
  6  7  2  0  0  0
  6  9  1  0  0  0
  9 10  1  0  0  0
 10 11  1  0  0  0
 11 12  2  0  0  0
 11 14  1  0  0  0
 14 15  1  0  0  0
 15 16  1  0  0  0
 15 17  1  0  0  0
  9 18  1  0  0  0
 18 19  1  0  0  0
 18 20  1  0  0  0
  4 21  1  0  0  0
 21 22  1  0  0  0
 21 23  1  0  0  0
 35 36  1  0  0  0
 36 37  1  0  0  0
 36 38  1  0  0  0
 31 34  1  0  0  0
 25 28  1  0  0  0
  2  3  1  0  0  0
  5  8  1  0  0  0
 10 13  1  0  0  0
M  END
> <minimizedAffinity>
-7.29888

> <CNNscore>
0.2031356692

> <CNNaffinity>
6.1844739914

> <CNN_VS>
1.2562872171

> <CNNaffinity_variance>
0.5157489777

$$$$
[H]O[C@@]([H])(C([H])([H])C(=O)N([H])[C@]([H])(C(=O)N([H])[C@@]([H])(C([H])([H])C([H])(C([H])([H])[H])C([H])([H])[H])C([H])(C([H])([H])[H])C([H])([H])[H])C([H])([H])[H])[C@@]([H])(N([H])C(=O)[C@@]([H])(N([H])C(=O)C([H])([H])C([H])(C([H])([H])[H])C([H])([H])[H])C([H])(C([H])([H])[H])C([H])([H])[H])C([H])(C([H])([H])[H])C([H])([H])[H]


 42 41  0  0  0  0  0  0  0  0999 V2000
   -2.2222   22.5421  -21.7770 C   0  0  0  0  0  0  0  0  0  0  0  0
   -2.3942   23.8481  -21.3895 O   0  0  0  0  0  0  0  0  0  0  0  0
   -2.9898   24.3697  -21.9670 H   0  0  0  0  0  0  0  0  0  0  0  0
   -2.3623   22.2033  -23.2085 C   0  0  0  0  0  0  0  0  0  0  0  0
   -2.6064   23.3722  -24.0704 N   0  0  0  0  0  0  0  0  0  0  0  0
   -3.8918   23.7583  -24.4406 C   0  0  0  0  0  0  0  0  0  0  0  0
   -4.8821   23.0890  -23.9848 O   0  0  0  0  0  0  0  0  0  0  0  0
   -1.7924   23.9343  -24.3838 H   0  0  0  0  0  0  0  0  0  0  0  0
   -4.2489   24.8815  -25.3218 C   0  0  0  0  0  0  0  0  0  0  0  0
   -4.5797   24.4030  -26.5985 N   0  0  0  0  0  0  0  0  0  0  0  0
   -3.8988   23.7001  -27.5684 C   0  0  0  0  0  0  0  0  0  0  0  0
   -2.7068   23.3627  -27.4365 O   0  0  0  0  0  0  0  0  0  0  0  0
   -5.6195   24.6431  -26.9029 H   0  0  0  0  0  0  0  0  0  0  0  0
   -4.5409   23.2817  -28.8615 C   0  0  0  0  0  0  0  0  0  0  0  0
   -5.0724   24.4566  -29.6451 C   0  0  0  0  0  0  0  0  0  0  0  0
   -5.7853   24.0458  -30.9093 C   0  0  0  0  0  0  0  0  0  0  0  0
   -4.0117   25.4719  -29.9590 C   0  0  0  0  0  0  0  0  0  0  0  0
   -4.9522   26.0298  -24.6898 C   0  0  0  0  0  0  0  0  0  0  0  0
   -4.3360   27.3594  -25.2272 C   0  0  0  0  0  0  0  0  0  0  0  0
   -6.4367   26.1075  -24.9359 C   0  0  0  0  0  0  0  0  0  0  0  0
   -1.0990   21.4986  -23.7046 C   0  0  0  0  0  0  0  0  0  0  0  0
   -0.5356   22.0462  -24.9665 C   0  0  0  0  0  0  0  0  0  0  0  0
   -0.0322   21.4823  -22.6371 C   0  0  0  0  0  0  0  0  0  0  0  0
   -3.2607   21.7620  -20.9504 C   0  0  0  0  0  0  0  0  0  0  0  0
   -5.3966   23.0757  -21.1275 N   0  0  0  0  0  0  0  0  0  0  0  0
   -4.2773   22.6732  -20.3520 C   0  0  0  0  0  0  0  0  0  0  0  0
   -4.1439   23.0630  -19.1831 O   0  0  0  0  0  0  0  0  0  0  0  0
   -5.4581   22.7883  -22.1185 H   0  0  0  0  0  0  0  0  0  0  0  0
   -6.4167   23.8892  -20.4866 C   0  0  0  0  0  0  0  0  0  0  0  0
   -6.2955   25.3142  -21.0532 C   0  0  0  0  0  0  0  0  0  0  0  0
   -8.8668   24.1958  -20.5769 N   0  0  0  0  0  0  0  0  0  0  0  0
   -7.7866   23.3802  -20.8828 C   0  0  0  0  0  0  0  0  0  0  0  0
   -7.8786   22.2497  -21.4487 O   0  0  0  0  0  0  0  0  0  0  0  0
   -8.6656   25.1181  -20.0778 H   0  0  0  0  0  0  0  0  0  0  0  0
  -10.2815   23.9460  -20.8549 C   0  0  0  0  0  0  0  0  0  0  0  0
  -10.8468   25.1847  -21.4171 C   0  0  0  0  0  0  0  0  0  0  0  0
  -10.1932   25.7598  -22.6344 C   0  0  0  0  0  0  0  0  0  0  0  0
  -11.0827   26.2997  -20.4060 C   0  0  0  0  0  0  0  0  0  0  0  0
  -10.9783   23.1320  -19.8718 C   0  0  0  0  0  0  0  0  0  0  0  0
  -10.0464   21.3986  -18.4340 C   0  0  0  0  0  0  0  0  0  0  0  0
  -10.6741   22.8727  -18.4764 C   0  0  0  0  0  0  0  0  0  0  0  0
  -11.7929   22.7131  -17.4817 C   0  0  0  0  0  0  0  0  0  0  0  0
 40 41  1  0  0  0
 41 42  1  0  0  0
 41 39  1  0  0  0
 39 35  1  0  0  0
 35 31  1  0  0  0
 31 32  1  0  0  0
 32 33  2  0  0  0
 32 29  1  0  0  0
 29 30  1  0  0  0
 29 25  1  0  0  0
 25 26  1  0  0  0
 26 27  2  0  0  0
 26 24  1  0  0  0
 24  1  1  0  0  0
  1  2  1  0  0  0
  1  4  1  0  0  0
  4  5  1  0  0  0
  5  6  1  0  0  0
  6  7  2  0  0  0
  6  9  1  0  0  0
  9 10  1  0  0  0
 10 11  1  0  0  0
 11 12  2  0  0  0
 11 14  1  0  0  0
 14 15  1  0  0  0
 15 16  1  0  0  0
 15 17  1  0  0  0
  9 18  1  0  0  0
 18 19  1  0  0  0
 18 20  1  0  0  0
  4 21  1  0  0  0
 21 22  1  0  0  0
 21 23  1  0  0  0
 35 36  1  0  0  0
 36 37  1  0  0  0
 36 38  1  0  0  0
 31 34  1  0  0  0
 25 28  1  0  0  0
  2  3  1  0  0  0
  5  8  1  0  0  0
 10 13  1  0  0  0
M  END
> <minimizedAffinity>
-7.03831

> <CNNscore>
0.1890646964

> <CNNaffinity>
5.9366760254

> <CNN_VS>
1.1224159002

> <CNNaffinity_variance>
0.9397822618

$$$$
[H]O[C@@]([H])(C([H])([H])C(=O)N([H])[C@]([H])(C(=O)N([H])[C@@]([H])(C([H])([H])C([H])(C([H])([H])[H])C([H])([H])[H])C([H])(C([H])([H])[H])C([H])([H])[H])C([H])([H])[H])[C@@]([H])(N([H])C(=O)[C@@]([H])(N([H])C(=O)C([H])([H])C([H])(C([H])([H])[H])C([H])([H])[H])C([H])(C([H])([H])[H])C([H])([H])[H])C([H])(C([H])([H])[H])C([H])([H])[H]


 42 41  0  0  0  0  0  0  0  0999 V2000
   -6.3576   22.8551  -22.2401 C   0  0  0  0  0  0  0  0  0  0  0  0
   -7.1372   21.7710  -22.5601 O   0  0  0  0  0  0  0  0  0  0  0  0
   -7.2985   21.6538  -23.5195 H   0  0  0  0  0  0  0  0  0  0  0  0
   -6.3600   24.0220  -23.1466 C   0  0  0  0  0  0  0  0  0  0  0  0
   -5.6757   23.7759  -24.4272 N   0  0  0  0  0  0  0  0  0  0  0  0
   -4.6760   24.6206  -24.9020 C   0  0  0  0  0  0  0  0  0  0  0  0
   -4.3289   25.6173  -24.1791 O   0  0  0  0  0  0  0  0  0  0  0  0
   -5.9337   22.9308  -24.9715 H   0  0  0  0  0  0  0  0  0  0  0  0
   -3.9537   24.4917  -26.1776 C   0  0  0  0  0  0  0  0  0  0  0  0
   -2.8041   23.7072  -26.0006 N   0  0  0  0  0  0  0  0  0  0  0  0
   -2.5813   22.3876  -25.6733 C   0  0  0  0  0  0  0  0  0  0  0  0
   -3.5097   21.5941  -25.4274 O   0  0  0  0  0  0  0  0  0  0  0  0
   -1.8596   24.2693  -26.1540 H   0  0  0  0  0  0  0  0  0  0  0  0
   -1.2005   21.7994  -25.5899 C   0  0  0  0  0  0  0  0  0  0  0  0
   -0.4011   22.3711  -24.4449 C   0  0  0  0  0  0  0  0  0  0  0  0
    0.9731   21.7608  -24.3250 C   0  0  0  0  0  0  0  0  0  0  0  0
   -1.1220   22.2783  -23.1310 C   0  0  0  0  0  0  0  0  0  0  0  0
   -4.7818   24.4323  -27.4118 C   0  0  0  0  0  0  0  0  0  0  0  0
   -5.4351   25.8295  -27.6516 C   0  0  0  0  0  0  0  0  0  0  0  0
   -4.0491   24.0714  -28.6781 C   0  0  0  0  0  0  0  0  0  0  0  0
   -7.7980   24.4474  -23.4467 C   0  0  0  0  0  0  0  0  0  0  0  0
   -8.2924   25.5884  -22.6322 C   0  0  0  0  0  0  0  0  0  0  0  0
   -7.9779   24.7548  -24.9134 C   0  0  0  0  0  0  0  0  0  0  0  0
   -4.9339   22.2791  -22.1322 C   0  0  0  0  0  0  0  0  0  0  0  0
   -3.3680   21.8786  -20.2069 N   0  0  0  0  0  0  0  0  0  0  0  0
   -4.2451   22.7550  -20.8990 C   0  0  0  0  0  0  0  0  0  0  0  0
   -4.4343   23.9110  -20.4941 O   0  0  0  0  0  0  0  0  0  0  0  0
   -3.2704   20.9004  -20.5265 H   0  0  0  0  0  0  0  0  0  0  0  0
   -2.6411   22.4012  -19.0616 C   0  0  0  0  0  0  0  0  0  0  0  0
   -2.6575   21.3178  -17.9697 C   0  0  0  0  0  0  0  0  0  0  0  0
   -0.3575   21.5052  -19.3574 N   0  0  0  0  0  0  0  0  0  0  0  0
   -1.1906   22.6118  -19.4415 C   0  0  0  0  0  0  0  0  0  0  0  0
   -0.8130   23.7690  -19.7951 O   0  0  0  0  0  0  0  0  0  0  0  0
   -0.7869   20.5859  -19.0245 H   0  0  0  0  0  0  0  0  0  0  0  0
    1.0699   21.4359  -19.6716 C   0  0  0  0  0  0  0  0  0  0  0  0
    1.2218   20.5613  -20.8473 C   0  0  0  0  0  0  0  0  0  0  0  0
    0.1857   19.5043  -21.0685 C   0  0  0  0  0  0  0  0  0  0  0  0
    2.6048   19.9444  -21.0143 C   0  0  0  0  0  0  0  0  0  0  0  0
    1.9615   21.3826  -18.5240 C   0  0  0  0  0  0  0  0  0  0  0  0
    2.3594   23.7742  -18.2742 C   0  0  0  0  0  0  0  0  0  0  0  0
    2.9857   22.3115  -18.0821 C   0  0  0  0  0  0  0  0  0  0  0  0
    4.2561   22.4608  -18.8760 C   0  0  0  0  0  0  0  0  0  0  0  0
 40 41  1  0  0  0
 41 42  1  0  0  0
 41 39  1  0  0  0
 39 35  1  0  0  0
 35 31  1  0  0  0
 31 32  1  0  0  0
 32 33  2  0  0  0
 32 29  1  0  0  0
 29 30  1  0  0  0
 29 25  1  0  0  0
 25 26  1  0  0  0
 26 27  2  0  0  0
 26 24  1  0  0  0
 24  1  1  0  0  0
  1  2  1  0  0  0
  1  4  1  0  0  0
  4  5  1  0  0  0
  5  6  1  0  0  0
  6  7  2  0  0  0
  6  9  1  0  0  0
  9 10  1  0  0  0
 10 11  1  0  0  0
 11 12  2  0  0  0
 11 14  1  0  0  0
 14 15  1  0  0  0
 15 16  1  0  0  0
 15 17  1  0  0  0
  9 18  1  0  0  0
 18 19  1  0  0  0
 18 20  1  0  0  0
  4 21  1  0  0  0
 21 22  1  0  0  0
 21 23  1  0  0  0
 35 36  1  0  0  0
 36 37  1  0  0  0
 36 38  1  0  0  0
 31 34  1  0  0  0
 25 28  1  0  0  0
  2  3  1  0  0  0
  5  8  1  0  0  0
 10 13  1  0  0  0
M  END
> <minimizedAffinity>
-6.57833

> <CNNscore>
0.1783371419

> <CNNaffinity>
5.9712295532

> <CNN_VS>
1.0648920536

> <CNNaffinity_variance>
0.8574708104

$$$$
[H]O[C@@]([H])(C([H])([H])C(=O)N([H])[C@]([H])(C(=O)N([H])[C@@]([H])(C([H])([H])C([H])(C([H])([H])[H])C([H])([H])[H])C([H])(C([H])([H])[H])C([H])([H])[H])C([H])([H])[H])[C@@]([H])(N([H])C(=O)[C@@]([H])(N([H])C(=O)C([H])([H])C([H])(C([H])([H])[H])C([H])([H])[H])C([H])(C([H])([H])[H])C([H])([H])[H])C([H])(C([H])([H])[H])C([H])([H])[H]


 42 41  0  0  0  0  0  0  0  0999 V2000
   -1.3764   22.8044  -22.9588 C   0  0  0  0  0  0  0  0  0  0  0  0
   -1.5962   24.0461  -22.4155 O   0  0  0  0  0  0  0  0  0  0  0  0
   -2.4483   24.4576  -22.6704 H   0  0  0  0  0  0  0  0  0  0  0  0
   -2.0092   22.4749  -24.2528 C   0  0  0  0  0  0  0  0  0  0  0  0
   -2.7692   23.5916  -24.8394 N   0  0  0  0  0  0  0  0  0  0  0  0
   -4.1574   23.6605  -24.7581 C   0  0  0  0  0  0  0  0  0  0  0  0
   -4.7752   22.7371  -24.1241 O   0  0  0  0  0  0  0  0  0  0  0  0
   -2.2443   24.3586  -25.3010 H   0  0  0  0  0  0  0  0  0  0  0  0
   -5.0174   24.7055  -25.3357 C   0  0  0  0  0  0  0  0  0  0  0  0
   -4.6335   24.9648  -26.6600 N   0  0  0  0  0  0  0  0  0  0  0  0
   -4.3550   24.1737  -27.7530 C   0  0  0  0  0  0  0  0  0  0  0  0
   -4.3858   22.9293  -27.7026 O   0  0  0  0  0  0  0  0  0  0  0  0
   -4.5252   26.0464  -26.8833 H   0  0  0  0  0  0  0  0  0  0  0  0
   -3.9950   24.7491  -29.0943 C   0  0  0  0  0  0  0  0  0  0  0  0
   -5.2111   25.0466  -29.9366 C   0  0  0  0  0  0  0  0  0  0  0  0
   -5.6878   23.8513  -30.7235 C   0  0  0  0  0  0  0  0  0  0  0  0
   -5.0094   26.2190  -30.8527 C   0  0  0  0  0  0  0  0  0  0  0  0
   -6.4384   24.7206  -24.8961 C   0  0  0  0  0  0  0  0  0  0  0  0
   -6.7429   26.0906  -24.2127 C   0  0  0  0  0  0  0  0  0  0  0  0
   -7.4649   24.5394  -25.9841 C   0  0  0  0  0  0  0  0  0  0  0  0
   -0.9435   22.0403  -25.2599 C   0  0  0  0  0  0  0  0  0  0  0  0
   -1.0942   22.6264  -26.6176 C   0  0  0  0  0  0  0  0  0  0  0  0
    0.4440   22.3213  -24.7366 C   0  0  0  0  0  0  0  0  0  0  0  0
   -1.8618   21.8253  -21.8744 C   0  0  0  0  0  0  0  0  0  0  0  0
   -4.2333   22.4929  -21.3750 N   0  0  0  0  0  0  0  0  0  0  0  0
   -2.8702   22.4598  -20.9787 C   0  0  0  0  0  0  0  0  0  0  0  0
   -2.5144   22.9428  -19.8941 O   0  0  0  0  0  0  0  0  0  0  0  0
   -4.4999   22.1389  -22.3089 H   0  0  0  0  0  0  0  0  0  0  0  0
   -5.2052   23.0353  -20.4399 C   0  0  0  0  0  0  0  0  0  0  0  0
   -5.7746   24.3230  -21.0595 C   0  0  0  0  0  0  0  0  0  0  0  0
   -6.6535   21.6199  -19.0243 N   0  0  0  0  0  0  0  0  0  0  0  0
   -6.3641   22.0703  -20.3045 C   0  0  0  0  0  0  0  0  0  0  0  0
   -6.9899   21.7161  -21.3484 O   0  0  0  0  0  0  0  0  0  0  0  0
   -6.0402   21.9725  -18.2245 H   0  0  0  0  0  0  0  0  0  0  0  0
   -7.7161   20.6985  -18.6206 C   0  0  0  0  0  0  0  0  0  0  0  0
   -8.7890   21.5017  -18.0092 C   0  0  0  0  0  0  0  0  0  0  0  0
   -9.3027   21.0749  -16.6700 C   0  0  0  0  0  0  0  0  0  0  0  0
   -9.9711   21.7967  -18.9240 C   0  0  0  0  0  0  0  0  0  0  0  0
   -7.2682   19.4275  -18.0739 C   0  0  0  0  0  0  0  0  0  0  0  0
   -5.0834   18.4107  -18.4393 C   0  0  0  0  0  0  0  0  0  0  0  0
   -6.0535   19.0856  -17.3566 C   0  0  0  0  0  0  0  0  0  0  0  0
   -6.0791   18.0018  -16.3118 C   0  0  0  0  0  0  0  0  0  0  0  0
 40 41  1  0  0  0
 41 42  1  0  0  0
 41 39  1  0  0  0
 39 35  1  0  0  0
 35 31  1  0  0  0
 31 32  1  0  0  0
 32 33  2  0  0  0
 32 29  1  0  0  0
 29 30  1  0  0  0
 29 25  1  0  0  0
 25 26  1  0  0  0
 26 27  2  0  0  0
 26 24  1  0  0  0
 24  1  1  0  0  0
  1  2  1  0  0  0
  1  4  1  0  0  0
  4  5  1  0  0  0
  5  6  1  0  0  0
  6  7  2  0  0  0
  6  9  1  0  0  0
  9 10  1  0  0  0
 10 11  1  0  0  0
 11 12  2  0  0  0
 11 14  1  0  0  0
 14 15  1  0  0  0
 15 16  1  0  0  0
 15 17  1  0  0  0
  9 18  1  0  0  0
 18 19  1  0  0  0
 18 20  1  0  0  0
  4 21  1  0  0  0
 21 22  1  0  0  0
 21 23  1  0  0  0
 35 36  1  0  0  0
 36 37  1  0  0  0
 36 38  1  0  0  0
 31 34  1  0  0  0
 25 28  1  0  0  0
  2  3  1  0  0  0
  5  8  1  0  0  0
 10 13  1  0  0  0
M  END
> <minimizedAffinity>
-6.54681

> <CNNscore>
0.1705565751

> <CNNaffinity>
6.1257162094

> <CNN_VS>
1.0447812080

> <CNNaffinity_variance>
0.7436876893

$$$$
[H]O[C@@]([H])(C([H])([H])C(=O)N([H])[C@]([H])(C(=O)N([H])[C@@]([H])(C([H])([H])C([H])(C([H])([H])[H])C([H])([H])[H])C([H])(C([H])([H])[H])C([H])([H])[H])C([H])([H])[H])[C@@]([H])(N([H])C(=O)[C@@]([H])(N([H])C(=O)C([H])([H])C([H])(C([H])([H])[H])C([H])([H])[H])C([H])(C([H])([H])[H])C([H])([H])[H])C([H])(C([H])([H])[H])C([H])([H])[H]


 42 41  0  0  0  0  0  0  0  0999 V2000
   -1.6834   22.9699  -22.9312 C   0  0  0  0  0  0  0  0  0  0  0  0
   -1.6548   24.3030  -22.6034 O   0  0  0  0  0  0  0  0  0  0  0  0
   -2.5025   24.7750  -22.7413 H   0  0  0  0  0  0  0  0  0  0  0  0
   -2.6332   22.5152  -23.9678 C   0  0  0  0  0  0  0  0  0  0  0  0
   -3.5704   23.5619  -24.4094 N   0  0  0  0  0  0  0  0  0  0  0  0
   -4.9160   23.5436  -24.0522 C   0  0  0  0  0  0  0  0  0  0  0  0
   -5.3297   22.6024  -23.2910 O   0  0  0  0  0  0  0  0  0  0  0  0
   -3.2025   24.3465  -24.9803 H   0  0  0  0  0  0  0  0  0  0  0  0
   -5.9442   24.5126  -24.4636 C   0  0  0  0  0  0  0  0  0  0  0  0
   -5.9346   24.6588  -25.8589 N   0  0  0  0  0  0  0  0  0  0  0  0
   -5.6191   25.6906  -26.7157 C   0  0  0  0  0  0  0  0  0  0  0  0
   -5.2698   26.8148  -26.3080 O   0  0  0  0  0  0  0  0  0  0  0  0
   -6.2541   23.7439  -26.3996 H   0  0  0  0  0  0  0  0  0  0  0  0
   -5.6681   25.5410  -28.2106 C   0  0  0  0  0  0  0  0  0  0  0  0
   -4.4490   24.8401  -28.7578 C   0  0  0  0  0  0  0  0  0  0  0  0
   -3.8058   25.5855  -29.9005 C   0  0  0  0  0  0  0  0  0  0  0  0
   -4.7283   23.4210  -29.1612 C   0  0  0  0  0  0  0  0  0  0  0  0
   -7.1985   24.5363  -23.6644 C   0  0  0  0  0  0  0  0  0  0  0  0
   -7.0209   25.5275  -22.4717 C   0  0  0  0  0  0  0  0  0  0  0  0
   -8.4407   24.9626  -24.4032 C   0  0  0  0  0  0  0  0  0  0  0  0
   -1.8682   22.0106  -25.1921 C   0  0  0  0  0  0  0  0  0  0  0  0
   -2.1849   22.7196  -26.4597 C   0  0  0  0  0  0  0  0  0  0  0  0
   -0.3785   22.0413  -24.9515 C   0  0  0  0  0  0  0  0  0  0  0  0
   -1.9828   22.2587  -21.5989 C   0  0  0  0  0  0  0  0  0  0  0  0
    0.0639   21.5726  -20.3106 N   0  0  0  0  0  0  0  0  0  0  0  0
   -0.9341   22.5464  -20.5796 C   0  0  0  0  0  0  0  0  0  0  0  0
   -0.9347   23.6333  -19.9839 O   0  0  0  0  0  0  0  0  0  0  0  0
    0.0117   20.6500  -20.7738 H   0  0  0  0  0  0  0  0  0  0  0  0
    1.1250   21.9189  -19.3793 C   0  0  0  0  0  0  0  0  0  0  0  0
    0.8285   21.2001  -18.0520 C   0  0  0  0  0  0  0  0  0  0  0  0
    2.4639   20.0158  -20.2102 N   0  0  0  0  0  0  0  0  0  0  0  0
    2.4393   21.3653  -19.8879 C   0  0  0  0  0  0  0  0  0  0  0  0
    3.4366   22.1426  -19.9772 O   0  0  0  0  0  0  0  0  0  0  0  0
    1.5647   19.4568  -20.0717 H   0  0  0  0  0  0  0  0  0  0  0  0
    3.5931   19.2410  -20.7256 C   0  0  0  0  0  0  0  0  0  0  0  0
    3.0438   18.1735  -21.5793 C   0  0  0  0  0  0  0  0  0  0  0  0
    1.8913   17.3799  -21.0486 C   0  0  0  0  0  0  0  0  0  0  0  0
    4.0795   17.2186  -22.1596 C   0  0  0  0  0  0  0  0  0  0  0  0
    4.6830   19.0235  -19.7877 C   0  0  0  0  0  0  0  0  0  0  0  0
    5.3482   16.9785  -18.6407 C   0  0  0  0  0  0  0  0  0  0  0  0
    4.6831   18.4260  -18.4648 C   0  0  0  0  0  0  0  0  0  0  0  0
    3.3804   18.0419  -17.8150 C   0  0  0  0  0  0  0  0  0  0  0  0
 40 41  1  0  0  0
 41 42  1  0  0  0
 41 39  1  0  0  0
 39 35  1  0  0  0
 35 31  1  0  0  0
 31 32  1  0  0  0
 32 33  2  0  0  0
 32 29  1  0  0  0
 29 30  1  0  0  0
 29 25  1  0  0  0
 25 26  1  0  0  0
 26 27  2  0  0  0
 26 24  1  0  0  0
 24  1  1  0  0  0
  1  2  1  0  0  0
  1  4  1  0  0  0
  4  5  1  0  0  0
  5  6  1  0  0  0
  6  7  2  0  0  0
  6  9  1  0  0  0
  9 10  1  0  0  0
 10 11  1  0  0  0
 11 12  2  0  0  0
 11 14  1  0  0  0
 14 15  1  0  0  0
 15 16  1  0  0  0
 15 17  1  0  0  0
  9 18  1  0  0  0
 18 19  1  0  0  0
 18 20  1  0  0  0
  4 21  1  0  0  0
 21 22  1  0  0  0
 21 23  1  0  0  0
 35 36  1  0  0  0
 36 37  1  0  0  0
 36 38  1  0  0  0
 31 34  1  0  0  0
 25 28  1  0  0  0
  2  3  1  0  0  0
  5  8  1  0  0  0
 10 13  1  0  0  0
M  END
> <minimizedAffinity>
-6.42296

> <CNNscore>
0.1647219062

> <CNNaffinity>
5.9526281357

> <CNN_VS>
0.9805282354

> <CNNaffinity_variance>
0.3735069633

$$$$
[H]O[C@@]([H])(C([H])([H])C(=O)N([H])[C@]([H])(C(=O)N([H])[C@@]([H])(C([H])([H])C([H])(C([H])([H])[H])C([H])([H])[H])C([H])(C([H])([H])[H])C([H])([H])[H])C([H])([H])[H])[C@@]([H])(N([H])C(=O)[C@@]([H])(N([H])C(=O)C([H])([H])C([H])(C([H])([H])[H])C([H])([H])[H])C([H])(C([H])([H])[H])C([H])([H])[H])C([H])(C([H])([H])[H])C([H])([H])[H]


 42 41  0  0  0  0  0  0  0  0999 V2000
   -1.3641   22.6481  -23.0697 C   0  0  0  0  0  0  0  0  0  0  0  0
   -1.4558   23.9514  -22.6471 O   0  0  0  0  0  0  0  0  0  0  0  0
   -2.2717   24.4150  -22.9291 H   0  0  0  0  0  0  0  0  0  0  0  0
   -2.0542   22.2573  -24.3165 C   0  0  0  0  0  0  0  0  0  0  0  0
   -2.9564   23.2958  -24.8421 N   0  0  0  0  0  0  0  0  0  0  0  0
   -4.3041   23.0454  -25.0861 C   0  0  0  0  0  0  0  0  0  0  0  0
   -4.7660   21.8849  -24.8101 O   0  0  0  0  0  0  0  0  0  0  0  0
   -2.5739   24.2463  -25.0067 H   0  0  0  0  0  0  0  0  0  0  0  0
   -5.2840   23.9927  -25.6410 C   0  0  0  0  0  0  0  0  0  0  0  0
   -4.9405   24.3195  -26.9614 N   0  0  0  0  0  0  0  0  0  0  0  0
   -4.9115   25.4911  -27.6858 C   0  0  0  0  0  0  0  0  0  0  0  0
   -5.2635   26.5843  -27.2029 O   0  0  0  0  0  0  0  0  0  0  0  0
   -4.6231   23.4430  -27.5636 H   0  0  0  0  0  0  0  0  0  0  0  0
   -4.4499   25.5441  -29.1153 C   0  0  0  0  0  0  0  0  0  0  0  0
   -5.5960   25.4519  -30.0926 C   0  0  0  0  0  0  0  0  0  0  0  0
   -5.7510   24.0750  -30.6884 C   0  0  0  0  0  0  0  0  0  0  0  0
   -5.5109   26.4789  -31.1847 C   0  0  0  0  0  0  0  0  0  0  0  0
   -6.6945   23.8326  -25.1965 C   0  0  0  0  0  0  0  0  0  0  0  0
   -6.8261   24.3531  -23.7308 C   0  0  0  0  0  0  0  0  0  0  0  0
   -7.7280   24.5648  -26.0128 C   0  0  0  0  0  0  0  0  0  0  0  0
   -1.0271   21.9232  -25.3993 C   0  0  0  0  0  0  0  0  0  0  0  0
   -1.0942   22.7855  -26.6082 C   0  0  0  0  0  0  0  0  0  0  0  0
    0.3749   21.9399  -24.8407 C   0  0  0  0  0  0  0  0  0  0  0  0
   -1.9132   21.8275  -21.8884 C   0  0  0  0  0  0  0  0  0  0  0  0
   -0.3211   22.2929  -19.9994 N   0  0  0  0  0  0  0  0  0  0  0  0
   -1.6027   22.4762  -20.5828 C   0  0  0  0  0  0  0  0  0  0  0  0
   -2.4585   23.1766  -20.0232 O   0  0  0  0  0  0  0  0  0  0  0  0
    0.3569   21.6571  -20.4517 H   0  0  0  0  0  0  0  0  0  0  0  0
   -0.0177   23.0123  -18.7732 C   0  0  0  0  0  0  0  0  0  0  0  0
   -0.2151   22.0345  -17.6022 C   0  0  0  0  0  0  0  0  0  0  0  0
    2.3661   22.3709  -18.8792 N   0  0  0  0  0  0  0  0  0  0  0  0
    1.4451   23.4031  -18.7697 C   0  0  0  0  0  0  0  0  0  0  0  0
    1.7505   24.6278  -18.6531 O   0  0  0  0  0  0  0  0  0  0  0  0
    1.9878   21.3748  -18.9493 H   0  0  0  0  0  0  0  0  0  0  0  0
    3.8253   22.4752  -18.9087 C   0  0  0  0  0  0  0  0  0  0  0  0
    4.3057   21.6396  -20.0227 C   0  0  0  0  0  0  0  0  0  0  0  0
    3.2921   21.1255  -20.9964 C   0  0  0  0  0  0  0  0  0  0  0  0
    5.2290   20.4976  -19.6171 C   0  0  0  0  0  0  0  0  0  0  0  0
    4.4764   22.5135  -17.6090 C   0  0  0  0  0  0  0  0  0  0  0  0
    5.7409   23.2251  -15.6506 C   0  0  0  0  0  0  0  0  0  0  0  0
    4.4788   23.5432  -16.5859 C   0  0  0  0  0  0  0  0  0  0  0  0
    3.3847   23.5763  -15.5522 C   0  0  0  0  0  0  0  0  0  0  0  0
 40 41  1  0  0  0
 41 42  1  0  0  0
 41 39  1  0  0  0
 39 35  1  0  0  0
 35 31  1  0  0  0
 31 32  1  0  0  0
 32 33  2  0  0  0
 32 29  1  0  0  0
 29 30  1  0  0  0
 29 25  1  0  0  0
 25 26  1  0  0  0
 26 27  2  0  0  0
 26 24  1  0  0  0
 24  1  1  0  0  0
  1  2  1  0  0  0
  1  4  1  0  0  0
  4  5  1  0  0  0
  5  6  1  0  0  0
  6  7  2  0  0  0
  6  9  1  0  0  0
  9 10  1  0  0  0
 10 11  1  0  0  0
 11 12  2  0  0  0
 11 14  1  0  0  0
 14 15  1  0  0  0
 15 16  1  0  0  0
 15 17  1  0  0  0
  9 18  1  0  0  0
 18 19  1  0  0  0
 18 20  1  0  0  0
  4 21  1  0  0  0
 21 22  1  0  0  0
 21 23  1  0  0  0
 35 36  1  0  0  0
 36 37  1  0  0  0
 36 38  1  0  0  0
 31 34  1  0  0  0
 25 28  1  0  0  0
  2  3  1  0  0  0
  5  8  1  0  0  0
 10 13  1  0  0  0
M  END
> <minimizedAffinity>
-7.39548

> <CNNscore>
0.1484021395

> <CNNaffinity>
6.0865302086

> <CNN_VS>
0.9032540917

> <CNNaffinity_variance>
0.4813767374

$$$$
[H]Oc1c([H])c([H])c(C([H])([H])[C@@]([H])(C(=O)N2C([H])([H])C([H])([H])C([H])([H])[C@@]2([H])C(=O)N([H])[C@]([H])(C(=O)N([H])[C@]([H])(C(=O)N([H])[H])C([H])([H])C([H])(C([H])([H])[H])C([H])([H])[H])C([H])([H])c2c([H])c([H])c([H])c([H])c2[H])N([H])[H])c([H])c1[H]


 46 48  0  0  0  0  0  0  0  0999 V2000
   -3.3288   22.6933  -23.0348 N   0  0  0  0  0  0  0  0  0  0  0  0
   -1.9446   22.8823  -23.1683 C   0  0  0  0  0  0  0  0  0  0  0  0
   -1.4235   23.9318  -22.7309 O   0  0  0  0  0  0  0  0  0  0  0  0
   -3.7693   21.8301  -23.3939 H   0  0  0  0  0  0  0  0  0  0  0  0
   -1.0717   21.8806  -23.8132 C   0  0  0  0  0  0  0  0  0  0  0  0
    0.0044   21.4023  -22.8699 C   0  0  0  0  0  0  0  0  0  0  0  0
    1.2494   21.3951  -23.7072 C   0  0  0  0  0  0  0  0  0  0  0  0
    0.9783   22.5615  -24.6382 C   0  0  0  0  0  0  0  0  0  0  0  0
   -0.4402   22.3615  -25.0049 N   0  0  0  0  0  0  0  0  0  0  0  0
   -0.9298   22.6148  -26.2983 C   0  0  0  0  0  0  0  0  0  0  0  0
   -0.1061   23.0788  -27.1602 O   0  0  0  0  0  0  0  0  0  0  0  0
   -2.3018   22.3994  -26.7596 C   0  0  0  0  0  0  0  0  0  0  0  0
   -2.9368   21.3762  -25.9029 N   0  0  0  0  0  0  0  0  0  0  0  0
   -2.2069   20.6781  -25.5932 H   0  0  0  0  0  0  0  0  0  0  0  0
   -3.6453   20.8283  -26.4340 H   0  0  0  0  0  0  0  0  0  0  0  0
   -3.1962   23.6091  -26.6685 C   0  0  0  0  0  0  0  0  0  0  0  0
   -3.9351   23.9062  -27.9072 C   0  0  0  0  0  0  0  0  0  0  0  0
   -3.6592   24.9984  -28.7068 C   0  0  0  0  0  0  0  0  0  0  0  0
   -4.3842   25.2304  -29.8568 C   0  0  0  0  0  0  0  0  0  0  0  0
   -5.4106   24.4000  -30.2699 C   0  0  0  0  0  0  0  0  0  0  0  0
   -6.1343   24.6511  -31.4379 O   0  0  0  0  0  0  0  0  0  0  0  0
   -5.6808   23.3106  -29.4659 C   0  0  0  0  0  0  0  0  0  0  0  0
   -4.9573   23.0734  -28.3127 C   0  0  0  0  0  0  0  0  0  0  0  0
   -5.7426   24.2164  -32.2855 H   0  0  0  0  0  0  0  0  0  0  0  0
   -4.2057   23.6845  -22.3951 C   0  0  0  0  0  0  0  0  0  0  0  0
   -3.8634   22.3063  -20.2553 N   0  0  0  0  0  0  0  0  0  0  0  0
   -4.4278   23.3702  -20.9822 C   0  0  0  0  0  0  0  0  0  0  0  0
   -5.2203   24.1346  -20.3288 O   0  0  0  0  0  0  0  0  0  0  0  0
   -3.2099   21.6535  -20.7328 H   0  0  0  0  0  0  0  0  0  0  0  0
   -4.1437   22.0602  -18.8550 C   0  0  0  0  0  0  0  0  0  0  0  0
   -3.0929   22.4828  -17.9268 C   0  0  0  0  0  0  0  0  0  0  0  0
   -3.1542   22.0316  -16.5794 N   0  0  0  0  0  0  0  0  0  0  0  0
   -2.1264   23.2235  -18.2203 O   0  0  0  0  0  0  0  0  0  0  0  0
   -3.3302   21.0387  -16.3095 H   0  0  0  0  0  0  0  0  0  0  0  0
   -3.0085   22.7754  -15.8407 H   0  0  0  0  0  0  0  0  0  0  0  0
   -4.6784   20.6701  -18.6350 C   0  0  0  0  0  0  0  0  0  0  0  0
   -6.6481   21.4524  -17.2592 C   0  0  0  0  0  0  0  0  0  0  0  0
   -6.1162   20.5482  -18.3325 C   0  0  0  0  0  0  0  0  0  0  0  0
   -6.9131   20.8284  -19.5960 C   0  0  0  0  0  0  0  0  0  0  0  0
   -5.4347   23.9072  -23.2196 C   0  0  0  0  0  0  0  0  0  0  0  0
   -5.3960   24.9582  -24.2162 C   0  0  0  0  0  0  0  0  0  0  0  0
   -4.3979   25.9081  -24.1370 C   0  0  0  0  0  0  0  0  0  0  0  0
   -4.2916   26.9606  -25.0525 C   0  0  0  0  0  0  0  0  0  0  0  0
   -5.2004   27.0825  -26.0829 C   0  0  0  0  0  0  0  0  0  0  0  0
   -6.1935   26.1318  -26.1571 C   0  0  0  0  0  0  0  0  0  0  0  0
   -6.2957   25.0971  -25.2546 C   0  0  0  0  0  0  0  0  0  0  0  0
 37 38  1  0  0  0
 38 39  1  0  0  0
 38 36  1  0  0  0
 36 30  1  0  0  0
 30 26  1  0  0  0
 26 27  1  0  0  0
 27 28  2  0  0  0
 27 25  1  0  0  0
 25 40  1  0  0  0
 40 41  1  0  0  0
 41 42  2  0  0  0
 42 43  1  0  0  0
 43 44  2  0  0  0
 44 45  1  0  0  0
 45 46  2  0  0  0
 25  1  1  0  0  0
  1  2  1  0  0  0
  2  3  2  0  0  0
  2  5  1  0  0  0
  5  6  1  0  0  0
  6  7  1  0  0  0
  7  8  1  0  0  0
  8  9  1  0  0  0
  9 10  1  0  0  0
 10 11  2  0  0  0
 10 12  1  0  0  0
 12 13  1  0  0  0
 12 16  1  0  0  0
 16 17  1  0  0  0
 17 18  2  0  0  0
 18 19  1  0  0  0
 19 20  2  0  0  0
 20 21  1  0  0  0
 20 22  1  0  0  0
 22 23  2  0  0  0
 30 31  1  0  0  0
 31 32  1  0  0  0
 31 33  2  0  0  0
 46 41  1  0  0  0
  9  5  1  0  0  0
 23 17  1  0  0  0
 26 29  1  0  0  0
  1  4  1  0  0  0
 13 14  1  0  0  0
 13 15  1  0  0  0
 21 24  1  0  0  0
 32 34  1  0  0  0
 32 35  1  0  0  0
M  END
> <minimizedAffinity>
-8.46166

> <CNNscore>
0.4172028303

> <CNNaffinity>
7.2963762283

> <CNN_VS>
3.0440688133

> <CNNaffinity_variance>
0.0949256867

$$$$
[H]Oc1c([H])c([H])c(C([H])([H])[C@@]([H])(C(=O)N2C([H])([H])C([H])([H])C([H])([H])[C@@]2([H])C(=O)N([H])[C@]([H])(C(=O)N([H])[C@]([H])(C(=O)N([H])[H])C([H])([H])C([H])(C([H])([H])[H])C([H])([H])[H])C([H])([H])c2c([H])c([H])c([H])c([H])c2[H])N([H])[H])c([H])c1[H]


 46 48  0  0  0  0  0  0  0  0999 V2000
   -3.2248   22.4665  -23.2211 N   0  0  0  0  0  0  0  0  0  0  0  0
   -1.8569   22.7561  -23.3419 C   0  0  0  0  0  0  0  0  0  0  0  0
   -1.4157   23.8352  -22.8891 O   0  0  0  0  0  0  0  0  0  0  0  0
   -3.5995   21.5780  -23.5930 H   0  0  0  0  0  0  0  0  0  0  0  0
   -0.9098   21.8272  -23.9911 C   0  0  0  0  0  0  0  0  0  0  0  0
    0.1255   21.3277  -23.0139 C   0  0  0  0  0  0  0  0  0  0  0  0
    1.4176   21.4156  -23.7713 C   0  0  0  0  0  0  0  0  0  0  0  0
    1.1585   22.6282  -24.6450 C   0  0  0  0  0  0  0  0  0  0  0  0
   -0.2270   22.4033  -25.1102 N   0  0  0  0  0  0  0  0  0  0  0  0
   -0.6478   22.7205  -26.4136 C   0  0  0  0  0  0  0  0  0  0  0  0
    0.2076   23.2656  -27.1932 O   0  0  0  0  0  0  0  0  0  0  0  0
   -1.9807   22.4878  -26.9711 C   0  0  0  0  0  0  0  0  0  0  0  0
   -2.6027   21.3517  -26.2593 N   0  0  0  0  0  0  0  0  0  0  0  0
   -1.8530   20.6616  -25.9808 H   0  0  0  0  0  0  0  0  0  0  0  0
   -3.2524   20.8282  -26.8821 H   0  0  0  0  0  0  0  0  0  0  0  0
   -2.9427   23.6368  -26.8091 C   0  0  0  0  0  0  0  0  0  0  0  0
   -3.7634   23.9075  -28.0016 C   0  0  0  0  0  0  0  0  0  0  0  0
   -3.5576   24.9952  -28.8279 C   0  0  0  0  0  0  0  0  0  0  0  0
   -4.3576   25.2022  -29.9321 C   0  0  0  0  0  0  0  0  0  0  0  0
   -5.3933   24.3501  -30.2711 C   0  0  0  0  0  0  0  0  0  0  0  0
   -6.1934   24.5759  -31.3935 O   0  0  0  0  0  0  0  0  0  0  0  0
   -5.5931   23.2653  -29.4408 C   0  0  0  0  0  0  0  0  0  0  0  0
   -4.7943   23.0532  -28.3333 C   0  0  0  0  0  0  0  0  0  0  0  0
   -5.8484   24.1385  -32.2598 H   0  0  0  0  0  0  0  0  0  0  0  0
   -4.1752   23.3846  -22.5772 C   0  0  0  0  0  0  0  0  0  0  0  0
   -5.6300   22.2140  -20.8141 N   0  0  0  0  0  0  0  0  0  0  0  0
   -4.5013   22.9505  -21.2172 C   0  0  0  0  0  0  0  0  0  0  0  0
   -3.6829   23.2719  -20.2867 O   0  0  0  0  0  0  0  0  0  0  0  0
   -6.3289   21.9224  -21.5267 H   0  0  0  0  0  0  0  0  0  0  0  0
   -5.8827   21.8306  -19.4397 C   0  0  0  0  0  0  0  0  0  0  0  0
   -5.9457   20.3876  -19.1980 C   0  0  0  0  0  0  0  0  0  0  0  0
   -4.7331   19.6853  -18.9554 N   0  0  0  0  0  0  0  0  0  0  0  0
   -6.9947   19.7032  -19.1883 O   0  0  0  0  0  0  0  0  0  0  0  0
   -4.0003   20.0106  -18.2869 H   0  0  0  0  0  0  0  0  0  0  0  0
   -4.6059   18.7889  -19.5033 H   0  0  0  0  0  0  0  0  0  0  0  0
   -7.0047   22.6351  -18.8393 C   0  0  0  0  0  0  0  0  0  0  0  0
   -5.3331   23.7361  -17.2972 C   0  0  0  0  0  0  0  0  0  0  0  0
   -6.6272   23.8233  -18.0524 C   0  0  0  0  0  0  0  0  0  0  0  0
   -6.5285   25.0217  -18.9821 C   0  0  0  0  0  0  0  0  0  0  0  0
   -5.3396   23.6512  -23.4787 C   0  0  0  0  0  0  0  0  0  0  0  0
   -5.2655   24.8055  -24.3514 C   0  0  0  0  0  0  0  0  0  0  0  0
   -6.1719   24.9108  -25.3869 C   0  0  0  0  0  0  0  0  0  0  0  0
   -6.1662   25.9872  -26.2803 C   0  0  0  0  0  0  0  0  0  0  0  0
   -5.2349   26.9962  -26.1500 C   0  0  0  0  0  0  0  0  0  0  0  0
   -4.3336   26.8860  -25.1151 C   0  0  0  0  0  0  0  0  0  0  0  0
   -4.3416   25.8254  -24.2373 C   0  0  0  0  0  0  0  0  0  0  0  0
 37 38  1  0  0  0
 38 39  1  0  0  0
 38 36  1  0  0  0
 36 30  1  0  0  0
 30 26  1  0  0  0
 26 27  1  0  0  0
 27 28  2  0  0  0
 27 25  1  0  0  0
 25 40  1  0  0  0
 40 41  1  0  0  0
 41 42  2  0  0  0
 42 43  1  0  0  0
 43 44  2  0  0  0
 44 45  1  0  0  0
 45 46  2  0  0  0
 25  1  1  0  0  0
  1  2  1  0  0  0
  2  3  2  0  0  0
  2  5  1  0  0  0
  5  6  1  0  0  0
  6  7  1  0  0  0
  7  8  1  0  0  0
  8  9  1  0  0  0
  9 10  1  0  0  0
 10 11  2  0  0  0
 10 12  1  0  0  0
 12 13  1  0  0  0
 12 16  1  0  0  0
 16 17  1  0  0  0
 17 18  2  0  0  0
 18 19  1  0  0  0
 19 20  2  0  0  0
 20 21  1  0  0  0
 20 22  1  0  0  0
 22 23  2  0  0  0
 30 31  1  0  0  0
 31 32  1  0  0  0
 31 33  2  0  0  0
 46 41  1  0  0  0
  9  5  1  0  0  0
 23 17  1  0  0  0
 26 29  1  0  0  0
  1  4  1  0  0  0
 13 14  1  0  0  0
 13 15  1  0  0  0
 21 24  1  0  0  0
 32 34  1  0  0  0
 32 35  1  0  0  0
M  END
> <minimizedAffinity>
-8.50562

> <CNNscore>
0.3313935697

> <CNNaffinity>
7.1499238014

> <CNN_VS>
2.3694388866

> <CNNaffinity_variance>
0.0450805649

$$$$
[H]Oc1c([H])c([H])c(C([H])([H])[C@@]([H])(C(=O)N2C([H])([H])C([H])([H])C([H])([H])[C@@]2([H])C(=O)N([H])[C@]([H])(C(=O)N([H])[C@]([H])(C(=O)N([H])[H])C([H])([H])C([H])(C([H])([H])[H])C([H])([H])[H])C([H])([H])c2c([H])c([H])c([H])c([H])c2[H])N([H])[H])c([H])c1[H]


 46 48  0  0  0  0  0  0  0  0999 V2000
   -3.2871   23.2965  -23.0500 N   0  0  0  0  0  0  0  0  0  0  0  0
   -1.8902   23.1613  -23.0599 C   0  0  0  0  0  0  0  0  0  0  0  0
   -1.1807   24.0890  -22.6123 O   0  0  0  0  0  0  0  0  0  0  0  0
   -3.8822   22.5362  -23.4186 H   0  0  0  0  0  0  0  0  0  0  0  0
   -1.2197   21.9548  -23.5853 C   0  0  0  0  0  0  0  0  0  0  0  0
   -0.2511   21.3837  -22.5793 C   0  0  0  0  0  0  0  0  0  0  0  0
    0.9704   21.0607  -23.3885 C   0  0  0  0  0  0  0  0  0  0  0  0
    0.9209   22.1564  -24.4363 C   0  0  0  0  0  0  0  0  0  0  0  0
   -0.5102   22.1867  -24.8073 N   0  0  0  0  0  0  0  0  0  0  0  0
   -0.9447   22.3936  -26.1283 C   0  0  0  0  0  0  0  0  0  0  0  0
   -0.0494   22.6069  -27.0169 O   0  0  0  0  0  0  0  0  0  0  0  0
   -2.3330   22.3907  -26.5910 C   0  0  0  0  0  0  0  0  0  0  0  0
   -3.1516   21.6161  -25.6350 N   0  0  0  0  0  0  0  0  0  0  0  0
   -2.5689   20.8333  -25.2304 H   0  0  0  0  0  0  0  0  0  0  0  0
   -3.9527   21.1544  -26.1139 H   0  0  0  0  0  0  0  0  0  0  0  0
   -2.9786   23.7509  -26.6607 C   0  0  0  0  0  0  0  0  0  0  0  0
   -3.8382   23.9496  -27.8398 C   0  0  0  0  0  0  0  0  0  0  0  0
   -4.4369   22.9076  -28.5211 C   0  0  0  0  0  0  0  0  0  0  0  0
   -5.2321   23.1503  -29.6215 C   0  0  0  0  0  0  0  0  0  0  0  0
   -5.4728   24.4261  -30.0990 C   0  0  0  0  0  0  0  0  0  0  0  0
   -6.2812   24.6527  -31.2153 O   0  0  0  0  0  0  0  0  0  0  0  0
   -4.8713   25.4625  -29.4132 C   0  0  0  0  0  0  0  0  0  0  0  0
   -4.0736   25.2248  -28.3101 C   0  0  0  0  0  0  0  0  0  0  0  0
   -7.2794   24.7871  -31.0004 H   0  0  0  0  0  0  0  0  0  0  0  0
   -3.9636   24.4934  -22.5298 C   0  0  0  0  0  0  0  0  0  0  0  0
   -5.8527   25.0276  -20.8742 N   0  0  0  0  0  0  0  0  0  0  0  0
   -5.0368   24.1396  -21.5985 C   0  0  0  0  0  0  0  0  0  0  0  0
   -5.2644   22.8937  -21.4118 O   0  0  0  0  0  0  0  0  0  0  0  0
   -5.7157   26.0522  -20.9870 H   0  0  0  0  0  0  0  0  0  0  0  0
   -6.8918   24.5925  -19.9626 C   0  0  0  0  0  0  0  0  0  0  0  0
   -8.1846   25.2598  -20.1289 C   0  0  0  0  0  0  0  0  0  0  0  0
   -8.2119   26.5496  -20.7274 N   0  0  0  0  0  0  0  0  0  0  0  0
   -9.2908   24.7860  -19.7812 O   0  0  0  0  0  0  0  0  0  0  0  0
   -7.7007   26.7909  -21.6050 H   0  0  0  0  0  0  0  0  0  0  0  0
   -8.7938   27.2758  -20.2232 H   0  0  0  0  0  0  0  0  0  0  0  0
   -6.3855   24.5098  -18.5472 C   0  0  0  0  0  0  0  0  0  0  0  0
   -4.5887   22.8803  -17.8395 C   0  0  0  0  0  0  0  0  0  0  0  0
   -6.0485   23.1686  -18.0361 C   0  0  0  0  0  0  0  0  0  0  0  0
   -6.7347   22.9631  -16.6956 C   0  0  0  0  0  0  0  0  0  0  0  0
   -4.3418   25.4107  -23.6501 C   0  0  0  0  0  0  0  0  0  0  0  0
   -5.3752   24.9676  -24.5640 C   0  0  0  0  0  0  0  0  0  0  0  0
   -5.6672   23.6202  -24.6289 C   0  0  0  0  0  0  0  0  0  0  0  0
   -6.6438   23.1063  -25.4885 C   0  0  0  0  0  0  0  0  0  0  0  0
   -7.3586   23.9489  -26.3142 C   0  0  0  0  0  0  0  0  0  0  0  0
   -7.0633   25.2918  -26.2449 C   0  0  0  0  0  0  0  0  0  0  0  0
   -6.1015   25.7947  -25.3978 C   0  0  0  0  0  0  0  0  0  0  0  0
 37 38  1  0  0  0
 38 39  1  0  0  0
 38 36  1  0  0  0
 36 30  1  0  0  0
 30 26  1  0  0  0
 26 27  1  0  0  0
 27 28  2  0  0  0
 27 25  1  0  0  0
 25 40  1  0  0  0
 40 41  1  0  0  0
 41 42  2  0  0  0
 42 43  1  0  0  0
 43 44  2  0  0  0
 44 45  1  0  0  0
 45 46  2  0  0  0
 25  1  1  0  0  0
  1  2  1  0  0  0
  2  3  2  0  0  0
  2  5  1  0  0  0
  5  6  1  0  0  0
  6  7  1  0  0  0
  7  8  1  0  0  0
  8  9  1  0  0  0
  9 10  1  0  0  0
 10 11  2  0  0  0
 10 12  1  0  0  0
 12 13  1  0  0  0
 12 16  1  0  0  0
 16 17  1  0  0  0
 17 18  2  0  0  0
 18 19  1  0  0  0
 19 20  2  0  0  0
 20 21  1  0  0  0
 20 22  1  0  0  0
 22 23  2  0  0  0
 30 31  1  0  0  0
 31 32  1  0  0  0
 31 33  2  0  0  0
 46 41  1  0  0  0
  9  5  1  0  0  0
 23 17  1  0  0  0
 26 29  1  0  0  0
  1  4  1  0  0  0
 13 14  1  0  0  0
 13 15  1  0  0  0
 21 24  1  0  0  0
 32 34  1  0  0  0
 32 35  1  0  0  0
M  END
> <minimizedAffinity>
-8.60419

> <CNNscore>
0.3288187683

> <CNNaffinity>
7.0861268044

> <CNN_VS>
2.3300514221

> <CNNaffinity_variance>
0.0809466466

$$$$
[H]Oc1c([H])c([H])c(C([H])([H])[C@@]([H])(C(=O)N2C([H])([H])C([H])([H])C([H])([H])[C@@]2([H])C(=O)N([H])[C@]([H])(C(=O)N([H])[C@]([H])(C(=O)N([H])[H])C([H])([H])C([H])(C([H])([H])[H])C([H])([H])[H])C([H])([H])c2c([H])c([H])c([H])c([H])c2[H])N([H])[H])c([H])c1[H]


 46 48  0  0  0  0  0  0  0  0999 V2000
   -3.4018   23.1570  -22.7261 N   0  0  0  0  0  0  0  0  0  0  0  0
   -2.0135   23.1070  -22.9256 C   0  0  0  0  0  0  0  0  0  0  0  0
   -1.3231   24.1236  -22.6931 O   0  0  0  0  0  0  0  0  0  0  0  0
   -3.9814   22.3227  -22.9164 H   0  0  0  0  0  0  0  0  0  0  0  0
   -1.3305   21.8887  -23.4058 C   0  0  0  0  0  0  0  0  0  0  0  0
   -0.3950   21.3357  -22.3592 C   0  0  0  0  0  0  0  0  0  0  0  0
    0.8499   20.9939  -23.1237 C   0  0  0  0  0  0  0  0  0  0  0  0
    0.8359   22.0685  -24.1942 C   0  0  0  0  0  0  0  0  0  0  0  0
   -0.5830   22.0945  -24.6097 N   0  0  0  0  0  0  0  0  0  0  0  0
   -0.9760   22.2758  -25.9474 C   0  0  0  0  0  0  0  0  0  0  0  0
   -0.0531   22.4692  -26.8120 O   0  0  0  0  0  0  0  0  0  0  0  0
   -2.3493   22.2666  -26.4525 C   0  0  0  0  0  0  0  0  0  0  0  0
   -3.1839   21.4488  -25.5477 N   0  0  0  0  0  0  0  0  0  0  0  0
   -2.6009   20.6623  -25.1506 H   0  0  0  0  0  0  0  0  0  0  0  0
   -3.9624   20.9907  -26.0657 H   0  0  0  0  0  0  0  0  0  0  0  0
   -3.0147   23.6183  -26.4984 C   0  0  0  0  0  0  0  0  0  0  0  0
   -3.8300   23.8474  -27.7032 C   0  0  0  0  0  0  0  0  0  0  0  0
   -4.4358   22.8264  -28.4095 C   0  0  0  0  0  0  0  0  0  0  0  0
   -5.1882   23.0972  -29.5332 C   0  0  0  0  0  0  0  0  0  0  0  0
   -5.3771   24.3817  -30.0106 C   0  0  0  0  0  0  0  0  0  0  0  0
   -6.1425   24.6370  -31.1508 O   0  0  0  0  0  0  0  0  0  0  0  0
   -4.7687   25.3970  -29.2998 C   0  0  0  0  0  0  0  0  0  0  0  0
   -4.0140   25.1312  -28.1732 C   0  0  0  0  0  0  0  0  0  0  0  0
   -7.1429   24.7987  -30.9670 H   0  0  0  0  0  0  0  0  0  0  0  0
   -4.0907   24.3647  -22.2490 C   0  0  0  0  0  0  0  0  0  0  0  0
   -5.9471   22.8264  -21.3644 N   0  0  0  0  0  0  0  0  0  0  0  0
   -5.2172   24.0289  -21.3759 C   0  0  0  0  0  0  0  0  0  0  0  0
   -5.5898   24.9163  -20.5316 O   0  0  0  0  0  0  0  0  0  0  0  0
   -5.6886   22.0675  -22.0266 H   0  0  0  0  0  0  0  0  0  0  0  0
   -7.0589   22.5770  -20.4691 C   0  0  0  0  0  0  0  0  0  0  0  0
   -6.9554   21.3508  -19.6754 C   0  0  0  0  0  0  0  0  0  0  0  0
   -5.9742   21.2867  -18.6479 N   0  0  0  0  0  0  0  0  0  0  0  0
   -7.6680   20.3317  -19.8263 O   0  0  0  0  0  0  0  0  0  0  0  0
   -5.8229   22.0433  -17.9448 H   0  0  0  0  0  0  0  0  0  0  0  0
   -5.3861   20.4070  -18.6310 H   0  0  0  0  0  0  0  0  0  0  0  0
   -8.3808   22.7907  -21.1574 C   0  0  0  0  0  0  0  0  0  0  0  0
   -8.7252   24.8532  -22.5758 C   0  0  0  0  0  0  0  0  0  0  0  0
   -8.8720   24.1781  -21.2434 C   0  0  0  0  0  0  0  0  0  0  0  0
  -10.3485   24.2034  -20.8837 C   0  0  0  0  0  0  0  0  0  0  0  0
   -4.3960   25.2806  -23.3926 C   0  0  0  0  0  0  0  0  0  0  0  0
   -5.3803   24.8432  -24.3618 C   0  0  0  0  0  0  0  0  0  0  0  0
   -5.9748   25.7884  -25.1731 C   0  0  0  0  0  0  0  0  0  0  0  0
   -6.9396   25.4541  -26.1292 C   0  0  0  0  0  0  0  0  0  0  0  0
   -7.3337   24.1424  -26.2926 C   0  0  0  0  0  0  0  0  0  0  0  0
   -6.7371   23.2040  -25.4808 C   0  0  0  0  0  0  0  0  0  0  0  0
   -5.7877   23.5360  -24.5406 C   0  0  0  0  0  0  0  0  0  0  0  0
 37 38  1  0  0  0
 38 39  1  0  0  0
 38 36  1  0  0  0
 36 30  1  0  0  0
 30 26  1  0  0  0
 26 27  1  0  0  0
 27 28  2  0  0  0
 27 25  1  0  0  0
 25 40  1  0  0  0
 40 41  1  0  0  0
 41 42  2  0  0  0
 42 43  1  0  0  0
 43 44  2  0  0  0
 44 45  1  0  0  0
 45 46  2  0  0  0
 25  1  1  0  0  0
  1  2  1  0  0  0
  2  3  2  0  0  0
  2  5  1  0  0  0
  5  6  1  0  0  0
  6  7  1  0  0  0
  7  8  1  0  0  0
  8  9  1  0  0  0
  9 10  1  0  0  0
 10 11  2  0  0  0
 10 12  1  0  0  0
 12 13  1  0  0  0
 12 16  1  0  0  0
 16 17  1  0  0  0
 17 18  2  0  0  0
 18 19  1  0  0  0
 19 20  2  0  0  0
 20 21  1  0  0  0
 20 22  1  0  0  0
 22 23  2  0  0  0
 30 31  1  0  0  0
 31 32  1  0  0  0
 31 33  2  0  0  0
 46 41  1  0  0  0
  9  5  1  0  0  0
 23 17  1  0  0  0
 26 29  1  0  0  0
  1  4  1  0  0  0
 13 14  1  0  0  0
 13 15  1  0  0  0
 21 24  1  0  0  0
 32 34  1  0  0  0
 32 35  1  0  0  0
M  END
> <minimizedAffinity>
-8.84174

> <CNNscore>
0.2540165782

> <CNNaffinity>
7.0597238541

> <CNN_VS>
1.7932869196

> <CNNaffinity_variance>
0.1309922636

$$$$
[H]Oc1c([H])c([H])c(C([H])([H])[C@@]([H])(C(=O)N2C([H])([H])C([H])([H])C([H])([H])[C@@]2([H])C(=O)N([H])[C@]([H])(C(=O)N([H])[C@]([H])(C(=O)N([H])[H])C([H])([H])C([H])(C([H])([H])[H])C([H])([H])[H])C([H])([H])c2c([H])c([H])c([H])c([H])c2[H])N([H])[H])c([H])c1[H]


 46 48  0  0  0  0  0  0  0  0999 V2000
   -2.3141   22.0247  -21.8235 N   0  0  0  0  0  0  0  0  0  0  0  0
   -3.6816   21.8255  -22.0681 C   0  0  0  0  0  0  0  0  0  0  0  0
   -4.0362   21.1681  -23.0713 O   0  0  0  0  0  0  0  0  0  0  0  0
   -2.0108   22.5675  -20.9979 H   0  0  0  0  0  0  0  0  0  0  0  0
   -4.7279   22.3692  -21.1788 C   0  0  0  0  0  0  0  0  0  0  0  0
   -5.0834   21.3899  -20.0875 C   0  0  0  0  0  0  0  0  0  0  0  0
   -6.5825   21.4260  -20.0361 C   0  0  0  0  0  0  0  0  0  0  0  0
   -6.9153   21.6880  -21.4926 C   0  0  0  0  0  0  0  0  0  0  0  0
   -5.9308   22.7251  -21.8693 N   0  0  0  0  0  0  0  0  0  0  0  0
   -6.2489   23.7943  -22.7250 C   0  0  0  0  0  0  0  0  0  0  0  0
   -7.4284   23.8230  -23.2196 O   0  0  0  0  0  0  0  0  0  0  0  0
   -5.3549   24.8869  -23.1105 C   0  0  0  0  0  0  0  0  0  0  0  0
   -4.5636   25.2934  -21.9304 N   0  0  0  0  0  0  0  0  0  0  0  0
   -5.1475   25.1689  -21.0588 H   0  0  0  0  0  0  0  0  0  0  0  0
   -4.3244   26.3061  -21.9689 H   0  0  0  0  0  0  0  0  0  0  0  0
   -4.3420   24.5309  -24.1685 C   0  0  0  0  0  0  0  0  0  0  0  0
   -4.8275   24.7013  -25.5483 C   0  0  0  0  0  0  0  0  0  0  0  0
   -4.7261   25.8916  -26.2422 C   0  0  0  0  0  0  0  0  0  0  0  0
   -5.1991   25.9966  -27.5334 C   0  0  0  0  0  0  0  0  0  0  0  0
   -5.7916   24.9376  -28.1974 C   0  0  0  0  0  0  0  0  0  0  0  0
   -6.2652   25.0626  -29.5056 O   0  0  0  0  0  0  0  0  0  0  0  0
   -5.8895   23.7513  -27.4979 C   0  0  0  0  0  0  0  0  0  0  0  0
   -5.4171   23.6406  -26.2040 C   0  0  0  0  0  0  0  0  0  0  0  0
   -5.5722   24.8401  -30.2344 H   0  0  0  0  0  0  0  0  0  0  0  0
   -1.2655   21.4882  -22.7028 C   0  0  0  0  0  0  0  0  0  0  0  0
   -0.6190   19.6193  -21.0644 N   0  0  0  0  0  0  0  0  0  0  0  0
   -0.3133   20.6617  -21.9582 C   0  0  0  0  0  0  0  0  0  0  0  0
    0.9322   20.9058  -22.1264 O   0  0  0  0  0  0  0  0  0  0  0  0
   -1.6142   19.3739  -20.8895 H   0  0  0  0  0  0  0  0  0  0  0  0
    0.3884   18.8529  -20.3588 C   0  0  0  0  0  0  0  0  0  0  0  0
    0.4215   17.4246  -20.6801 C   0  0  0  0  0  0  0  0  0  0  0  0
   -0.6882   16.6177  -20.3061 N   0  0  0  0  0  0  0  0  0  0  0  0
    1.3613   16.8386  -21.2652 O   0  0  0  0  0  0  0  0  0  0  0  0
   -1.6821   16.8826  -20.4844 H   0  0  0  0  0  0  0  0  0  0  0  0
   -0.4496   15.7071  -19.8224 H   0  0  0  0  0  0  0  0  0  0  0  0
    0.4067   19.1847  -18.8904 C   0  0  0  0  0  0  0  0  0  0  0  0
   -1.7212   19.3207  -17.5347 C   0  0  0  0  0  0  0  0  0  0  0  0
   -0.6969   20.0190  -18.3808 C   0  0  0  0  0  0  0  0  0  0  0  0
   -0.1177   21.1508  -17.5480 C   0  0  0  0  0  0  0  0  0  0  0  0
   -0.6744   22.5787  -23.5401 C   0  0  0  0  0  0  0  0  0  0  0  0
   -0.8060   22.4699  -24.9790 C   0  0  0  0  0  0  0  0  0  0  0  0
    0.3290   22.5776  -25.7568 C   0  0  0  0  0  0  0  0  0  0  0  0
    0.2910   22.4924  -27.1526 C   0  0  0  0  0  0  0  0  0  0  0  0
   -0.9073   22.2943  -27.8063 C   0  0  0  0  0  0  0  0  0  0  0  0
   -2.0360   22.1873  -27.0253 C   0  0  0  0  0  0  0  0  0  0  0  0
   -1.9955   22.2715  -25.6517 C   0  0  0  0  0  0  0  0  0  0  0  0
 37 38  1  0  0  0
 38 39  1  0  0  0
 38 36  1  0  0  0
 36 30  1  0  0  0
 30 26  1  0  0  0
 26 27  1  0  0  0
 27 28  2  0  0  0
 27 25  1  0  0  0
 25 40  1  0  0  0
 40 41  1  0  0  0
 41 42  2  0  0  0
 42 43  1  0  0  0
 43 44  2  0  0  0
 44 45  1  0  0  0
 45 46  2  0  0  0
 25  1  1  0  0  0
  1  2  1  0  0  0
  2  3  2  0  0  0
  2  5  1  0  0  0
  5  6  1  0  0  0
  6  7  1  0  0  0
  7  8  1  0  0  0
  8  9  1  0  0  0
  9 10  1  0  0  0
 10 11  2  0  0  0
 10 12  1  0  0  0
 12 13  1  0  0  0
 12 16  1  0  0  0
 16 17  1  0  0  0
 17 18  2  0  0  0
 18 19  1  0  0  0
 19 20  2  0  0  0
 20 21  1  0  0  0
 20 22  1  0  0  0
 22 23  2  0  0  0
 30 31  1  0  0  0
 31 32  1  0  0  0
 31 33  2  0  0  0
 46 41  1  0  0  0
  9  5  1  0  0  0
 23 17  1  0  0  0
 26 29  1  0  0  0
  1  4  1  0  0  0
 13 14  1  0  0  0
 13 15  1  0  0  0
 21 24  1  0  0  0
 32 34  1  0  0  0
 32 35  1  0  0  0
M  END
> <minimizedAffinity>
-8.63416

> <CNNscore>
0.1962783486

> <CNNaffinity>
6.2318296432

> <CNN_VS>
1.2231732607

> <CNNaffinity_variance>
0.4552753568

$$$$
[H]Oc1c([H])c([H])c(C([H])([H])[C@@]([H])(C(=O)N2C([H])([H])C([H])([H])C([H])([H])[C@@]2([H])C(=O)N([H])[C@]([H])(C(=O)N([H])[C@]([H])(C(=O)N([H])[H])C([H])([H])C([H])(C([H])([H])[H])C([H])([H])[H])C([H])([H])c2c([H])c([H])c([H])c([H])c2[H])N([H])[H])c([H])c1[H]


 46 48  0  0  0  0  0  0  0  0999 V2000
   -5.4836   23.8065  -21.4161 N   0  0  0  0  0  0  0  0  0  0  0  0
   -5.6915   22.4357  -21.1989 C   0  0  0  0  0  0  0  0  0  0  0  0
   -6.7978   21.9293  -21.4887 O   0  0  0  0  0  0  0  0  0  0  0  0
   -4.5735   24.2349  -21.1789 H   0  0  0  0  0  0  0  0  0  0  0  0
   -4.6445   21.5603  -20.6343 C   0  0  0  0  0  0  0  0  0  0  0  0
   -5.1687   20.7608  -19.4671 C   0  0  0  0  0  0  0  0  0  0  0  0
   -4.0817   20.8586  -18.4376 C   0  0  0  0  0  0  0  0  0  0  0  0
   -3.5369   22.2451  -18.7234 C   0  0  0  0  0  0  0  0  0  0  0  0
   -3.4813   22.2740  -20.2008 N   0  0  0  0  0  0  0  0  0  0  0  0
   -2.4355   22.8951  -20.9061 C   0  0  0  0  0  0  0  0  0  0  0  0
   -1.5340   23.4903  -20.2207 O   0  0  0  0  0  0  0  0  0  0  0  0
   -2.2760   22.9295  -22.3603 C   0  0  0  0  0  0  0  0  0  0  0  0
   -1.4297   24.0867  -22.7192 N   0  0  0  0  0  0  0  0  0  0  0  0
   -1.6062   24.8733  -22.0365 H   0  0  0  0  0  0  0  0  0  0  0  0
   -1.6845   24.4624  -23.6563 H   0  0  0  0  0  0  0  0  0  0  0  0
   -1.5815   21.7279  -22.9482 C   0  0  0  0  0  0  0  0  0  0  0  0
   -1.0994   21.9253  -24.3257 C   0  0  0  0  0  0  0  0  0  0  0  0
   -1.9431   22.1623  -25.3936 C   0  0  0  0  0  0  0  0  0  0  0  0
   -1.4380   22.3387  -26.6647 C   0  0  0  0  0  0  0  0  0  0  0  0
   -0.0834   22.2897  -26.9407 C   0  0  0  0  0  0  0  0  0  0  0  0
    0.4101   22.4706  -28.2348 O   0  0  0  0  0  0  0  0  0  0  0  0
    0.7538   22.0525  -25.8687 C   0  0  0  0  0  0  0  0  0  0  0  0
    0.2529   21.8751  -24.5931 C   0  0  0  0  0  0  0  0  0  0  0  0
    0.6240   23.4483  -28.4782 H   0  0  0  0  0  0  0  0  0  0  0  0
   -6.5194   24.6859  -21.9770 C   0  0  0  0  0  0  0  0  0  0  0  0
   -5.0079   24.8800  -24.0440 N   0  0  0  0  0  0  0  0  0  0  0  0
   -6.0818   25.2939  -23.2351 C   0  0  0  0  0  0  0  0  0  0  0  0
   -6.7347   26.3131  -23.6524 O   0  0  0  0  0  0  0  0  0  0  0  0
   -4.4423   24.0560  -23.7571 H   0  0  0  0  0  0  0  0  0  0  0  0
   -4.6348   25.5457  -25.2760 C   0  0  0  0  0  0  0  0  0  0  0  0
   -4.4982   27.0005  -25.1802 C   0  0  0  0  0  0  0  0  0  0  0  0
   -3.6564   27.5392  -24.1683 N   0  0  0  0  0  0  0  0  0  0  0  0
   -5.0709   27.8292  -25.9246 O   0  0  0  0  0  0  0  0  0  0  0  0
   -2.6912   27.1924  -23.9739 H   0  0  0  0  0  0  0  0  0  0  0  0
   -4.0698   28.3334  -23.6041 H   0  0  0  0  0  0  0  0  0  0  0  0
   -5.4497   25.0493  -26.4405 C   0  0  0  0  0  0  0  0  0  0  0  0
   -5.0716   23.3136  -28.2374 C   0  0  0  0  0  0  0  0  0  0  0  0
   -4.7091   24.6463  -27.6499 C   0  0  0  0  0  0  0  0  0  0  0  0
   -4.9234   25.6913  -28.7326 C   0  0  0  0  0  0  0  0  0  0  0  0
   -7.0276   25.6300  -20.9329 C   0  0  0  0  0  0  0  0  0  0  0  0
   -8.4565   25.6662  -20.6953 C   0  0  0  0  0  0  0  0  0  0  0  0
   -9.1056   24.4877  -20.3875 C   0  0  0  0  0  0  0  0  0  0  0  0
  -10.4833   24.4314  -20.1513 C   0  0  0  0  0  0  0  0  0  0  0  0
  -11.2496   25.5762  -20.2208 C   0  0  0  0  0  0  0  0  0  0  0  0
  -10.5966   26.7487  -20.5279 C   0  0  0  0  0  0  0  0  0  0  0  0
   -9.2406   26.8010  -20.7598 C   0  0  0  0  0  0  0  0  0  0  0  0
 37 38  1  0  0  0
 38 39  1  0  0  0
 38 36  1  0  0  0
 36 30  1  0  0  0
 30 26  1  0  0  0
 26 27  1  0  0  0
 27 28  2  0  0  0
 27 25  1  0  0  0
 25 40  1  0  0  0
 40 41  1  0  0  0
 41 42  2  0  0  0
 42 43  1  0  0  0
 43 44  2  0  0  0
 44 45  1  0  0  0
 45 46  2  0  0  0
 25  1  1  0  0  0
  1  2  1  0  0  0
  2  3  2  0  0  0
  2  5  1  0  0  0
  5  6  1  0  0  0
  6  7  1  0  0  0
  7  8  1  0  0  0
  8  9  1  0  0  0
  9 10  1  0  0  0
 10 11  2  0  0  0
 10 12  1  0  0  0
 12 13  1  0  0  0
 12 16  1  0  0  0
 16 17  1  0  0  0
 17 18  2  0  0  0
 18 19  1  0  0  0
 19 20  2  0  0  0
 20 21  1  0  0  0
 20 22  1  0  0  0
 22 23  2  0  0  0
 30 31  1  0  0  0
 31 32  1  0  0  0
 31 33  2  0  0  0
 46 41  1  0  0  0
  9  5  1  0  0  0
 23 17  1  0  0  0
 26 29  1  0  0  0
  1  4  1  0  0  0
 13 14  1  0  0  0
 13 15  1  0  0  0
 21 24  1  0  0  0
 32 34  1  0  0  0
 32 35  1  0  0  0
M  END
> <minimizedAffinity>
-8.90715

> <CNNscore>
0.1943677813

> <CNNaffinity>
6.5046515465

> <CNN_VS>
1.2642947435

> <CNNaffinity_variance>
0.2791167200

$$$$
[H]Oc1c([H])c([H])c(C([H])([H])[C@@]([H])(C(=O)N2C([H])([H])C([H])([H])C([H])([H])[C@@]2([H])C(=O)N([H])[C@]([H])(C(=O)N([H])[C@]([H])(C(=O)N([H])[H])C([H])([H])C([H])(C([H])([H])[H])C([H])([H])[H])C([H])([H])c2c([H])c([H])c([H])c([H])c2[H])N([H])[H])c([H])c1[H]


 46 48  0  0  0  0  0  0  0  0999 V2000
   -2.8053   22.4421  -21.4329 N   0  0  0  0  0  0  0  0  0  0  0  0
   -2.0698   22.9136  -20.3346 C   0  0  0  0  0  0  0  0  0  0  0  0
   -1.1625   23.7545  -20.5189 O   0  0  0  0  0  0  0  0  0  0  0  0
   -3.5563   21.7464  -21.2914 H   0  0  0  0  0  0  0  0  0  0  0  0
   -2.3275   22.4490  -18.9566 C   0  0  0  0  0  0  0  0  0  0  0  0
   -1.0394   22.1749  -18.2202 C   0  0  0  0  0  0  0  0  0  0  0  0
   -1.2870   20.8710  -17.5206 C   0  0  0  0  0  0  0  0  0  0  0  0
   -2.2097   20.1834  -18.5090 C   0  0  0  0  0  0  0  0  0  0  0  0
   -3.1359   21.2685  -18.8977 N   0  0  0  0  0  0  0  0  0  0  0  0
   -4.5074   21.0498  -19.1169 C   0  0  0  0  0  0  0  0  0  0  0  0
   -4.9367   19.8490  -19.0144 O   0  0  0  0  0  0  0  0  0  0  0  0
   -5.5009   22.0694  -19.4554 C   0  0  0  0  0  0  0  0  0  0  0  0
   -6.1034   21.7318  -20.7620 N   0  0  0  0  0  0  0  0  0  0  0  0
   -5.3783   21.2617  -21.3698 H   0  0  0  0  0  0  0  0  0  0  0  0
   -6.3908   22.5902  -21.2765 H   0  0  0  0  0  0  0  0  0  0  0  0
   -6.6579   22.1677  -18.4944 C   0  0  0  0  0  0  0  0  0  0  0  0
   -6.4003   23.0291  -17.3281 C   0  0  0  0  0  0  0  0  0  0  0  0
   -5.6264   24.1717  -17.3904 C   0  0  0  0  0  0  0  0  0  0  0  0
   -5.4160   24.9420  -16.2659 C   0  0  0  0  0  0  0  0  0  0  0  0
   -5.9565   24.6228  -15.0332 C   0  0  0  0  0  0  0  0  0  0  0  0
   -5.7324   25.4151  -13.9049 O   0  0  0  0  0  0  0  0  0  0  0  0
   -6.7288   23.4796  -14.9785 C   0  0  0  0  0  0  0  0  0  0  0  0
   -6.9429   22.7043  -16.1022 C   0  0  0  0  0  0  0  0  0  0  0  0
   -6.4250   26.1642  -13.7639 H   0  0  0  0  0  0  0  0  0  0  0  0
   -2.5560   22.8981  -22.8080 C   0  0  0  0  0  0  0  0  0  0  0  0
   -4.8128   23.4824  -23.8853 N   0  0  0  0  0  0  0  0  0  0  0  0
   -3.5975   23.8213  -23.2631 C   0  0  0  0  0  0  0  0  0  0  0  0
   -3.3910   25.0723  -23.0853 O   0  0  0  0  0  0  0  0  0  0  0  0
   -5.0367   22.4811  -24.0539 H   0  0  0  0  0  0  0  0  0  0  0  0
   -5.7896   24.4631  -24.3142 C   0  0  0  0  0  0  0  0  0  0  0  0
   -7.1137   24.3306  -23.7031 C   0  0  0  0  0  0  0  0  0  0  0  0
   -8.1622   25.1745  -24.1626 N   0  0  0  0  0  0  0  0  0  0  0  0
   -7.4097   23.5246  -22.7911 O   0  0  0  0  0  0  0  0  0  0  0  0
   -8.3765   25.3332  -25.1719 H   0  0  0  0  0  0  0  0  0  0  0  0
   -8.7320   25.6490  -23.4075 H   0  0  0  0  0  0  0  0  0  0  0  0
   -5.7832   24.6311  -25.8103 C   0  0  0  0  0  0  0  0  0  0  0  0
   -4.7864   25.7108  -27.8658 C   0  0  0  0  0  0  0  0  0  0  0  0
   -4.7474   25.5132  -26.3786 C   0  0  0  0  0  0  0  0  0  0  0  0
   -4.8603   26.8863  -25.7367 C   0  0  0  0  0  0  0  0  0  0  0  0
   -2.2736   21.7330  -23.7038 C   0  0  0  0  0  0  0  0  0  0  0  0
   -1.5706   21.9915  -24.9440 C   0  0  0  0  0  0  0  0  0  0  0  0
   -2.3085   22.1926  -26.0929 C   0  0  0  0  0  0  0  0  0  0  0  0
   -1.7106   22.4402  -27.3331 C   0  0  0  0  0  0  0  0  0  0  0  0
   -0.3369   22.4916  -27.4467 C   0  0  0  0  0  0  0  0  0  0  0  0
    0.3940   22.2906  -26.2973 C   0  0  0  0  0  0  0  0  0  0  0  0
   -0.1973   22.0471  -25.0781 C   0  0  0  0  0  0  0  0  0  0  0  0
 37 38  1  0  0  0
 38 39  1  0  0  0
 38 36  1  0  0  0
 36 30  1  0  0  0
 30 26  1  0  0  0
 26 27  1  0  0  0
 27 28  2  0  0  0
 27 25  1  0  0  0
 25 40  1  0  0  0
 40 41  1  0  0  0
 41 42  2  0  0  0
 42 43  1  0  0  0
 43 44  2  0  0  0
 44 45  1  0  0  0
 45 46  2  0  0  0
 25  1  1  0  0  0
  1  2  1  0  0  0
  2  3  2  0  0  0
  2  5  1  0  0  0
  5  6  1  0  0  0
  6  7  1  0  0  0
  7  8  1  0  0  0
  8  9  1  0  0  0
  9 10  1  0  0  0
 10 11  2  0  0  0
 10 12  1  0  0  0
 12 13  1  0  0  0
 12 16  1  0  0  0
 16 17  1  0  0  0
 17 18  2  0  0  0
 18 19  1  0  0  0
 19 20  2  0  0  0
 20 21  1  0  0  0
 20 22  1  0  0  0
 22 23  2  0  0  0
 30 31  1  0  0  0
 31 32  1  0  0  0
 31 33  2  0  0  0
 46 41  1  0  0  0
  9  5  1  0  0  0
 23 17  1  0  0  0
 26 29  1  0  0  0
  1  4  1  0  0  0
 13 14  1  0  0  0
 13 15  1  0  0  0
 21 24  1  0  0  0
 32 34  1  0  0  0
 32 35  1  0  0  0
M  END
> <minimizedAffinity>
-8.16928

> <CNNscore>
0.1785508245

> <CNNaffinity>
5.7909913063

> <CNN_VS>
1.0339863300

> <CNNaffinity_variance>
0.7101159096

$$$$
[H]Oc1c([H])c([H])c(C([H])([H])[C@@]([H])(C(=O)N2C([H])([H])C([H])([H])C([H])([H])[C@@]2([H])C(=O)N([H])[C@]([H])(C(=O)N([H])[C@]([H])(C(=O)N([H])[H])C([H])([H])C([H])(C([H])([H])[H])C([H])([H])[H])C([H])([H])c2c([H])c([H])c([H])c([H])c2[H])N([H])[H])c([H])c1[H]


 46 48  0  0  0  0  0  0  0  0999 V2000
   -4.3655   22.7465  -22.3311 N   0  0  0  0  0  0  0  0  0  0  0  0
   -3.9140   23.0859  -21.0463 C   0  0  0  0  0  0  0  0  0  0  0  0
   -2.8132   23.6649  -20.9157 O   0  0  0  0  0  0  0  0  0  0  0  0
   -5.2732   22.2668  -22.4497 H   0  0  0  0  0  0  0  0  0  0  0  0
   -4.6959   22.7809  -19.8310 C   0  0  0  0  0  0  0  0  0  0  0  0
   -3.8242   22.1851  -18.7532 C   0  0  0  0  0  0  0  0  0  0  0  0
   -4.6341   21.0416  -18.2168 C   0  0  0  0  0  0  0  0  0  0  0  0
   -5.3737   20.6005  -19.4655 C   0  0  0  0  0  0  0  0  0  0  0  0
   -5.7878   21.8855  -20.0687 N   0  0  0  0  0  0  0  0  0  0  0  0
   -7.0322   22.0584  -20.6999 C   0  0  0  0  0  0  0  0  0  0  0  0
   -7.7982   21.0371  -20.7827 O   0  0  0  0  0  0  0  0  0  0  0  0
   -7.5414   23.3024  -21.2783 C   0  0  0  0  0  0  0  0  0  0  0  0
   -7.3445   23.2622  -22.7424 N   0  0  0  0  0  0  0  0  0  0  0  0
   -6.4635   22.7220  -22.9616 H   0  0  0  0  0  0  0  0  0  0  0  0
   -7.1941   24.2177  -23.1279 H   0  0  0  0  0  0  0  0  0  0  0  0
   -9.0174   23.5340  -21.0790 C   0  0  0  0  0  0  0  0  0  0  0  0
   -9.4249   24.9453  -21.1843 C   0  0  0  0  0  0  0  0  0  0  0  0
   -8.8804   25.9479  -20.4055 C   0  0  0  0  0  0  0  0  0  0  0  0
   -9.3003   27.2542  -20.5444 C   0  0  0  0  0  0  0  0  0  0  0  0
  -10.2725   27.6308  -21.4536 C   0  0  0  0  0  0  0  0  0  0  0  0
  -10.6853   28.9592  -21.5802 O   0  0  0  0  0  0  0  0  0  0  0  0
  -10.8121   26.6236  -22.2285 C   0  0  0  0  0  0  0  0  0  0  0  0
  -10.3950   25.3132  -22.0934 C   0  0  0  0  0  0  0  0  0  0  0  0
  -10.1489   29.5104  -22.2653 H   0  0  0  0  0  0  0  0  0  0  0  0
   -3.5945   23.0453  -23.5464 C   0  0  0  0  0  0  0  0  0  0  0  0
   -5.4064   23.4317  -25.3248 N   0  0  0  0  0  0  0  0  0  0  0  0
   -4.3666   23.8651  -24.4823 C   0  0  0  0  0  0  0  0  0  0  0  0
   -4.0717   25.1089  -24.5539 O   0  0  0  0  0  0  0  0  0  0  0  0
   -5.6917   22.4319  -25.3086 H   0  0  0  0  0  0  0  0  0  0  0  0
   -6.1168   24.3109  -26.2316 C   0  0  0  0  0  0  0  0  0  0  0  0
   -7.3483   24.8942  -25.6953 C   0  0  0  0  0  0  0  0  0  0  0  0
   -7.2518   25.8025  -24.6053 N   0  0  0  0  0  0  0  0  0  0  0  0
   -8.5028   24.6570  -26.1192 O   0  0  0  0  0  0  0  0  0  0  0  0
   -6.5740   26.5958  -24.5718 H   0  0  0  0  0  0  0  0  0  0  0  0
   -7.9215   25.6290  -23.8043 H   0  0  0  0  0  0  0  0  0  0  0  0
   -6.2334   23.7087  -27.6065 C   0  0  0  0  0  0  0  0  0  0  0  0
   -5.1084   22.7700  -29.6650 C   0  0  0  0  0  0  0  0  0  0  0  0
   -4.9748   23.3755  -28.2983 C   0  0  0  0  0  0  0  0  0  0  0  0
   -4.1402   24.6376  -28.4423 C   0  0  0  0  0  0  0  0  0  0  0  0
   -2.9957   21.7942  -24.1085 C   0  0  0  0  0  0  0  0  0  0  0  0
   -1.8995   21.9340  -25.0457 C   0  0  0  0  0  0  0  0  0  0  0  0
   -0.6071   21.8461  -24.5694 C   0  0  0  0  0  0  0  0  0  0  0  0
    0.5086   21.9772  -25.4030 C   0  0  0  0  0  0  0  0  0  0  0  0
    0.3464   22.2030  -26.7541 C   0  0  0  0  0  0  0  0  0  0  0  0
   -0.9450   22.2894  -27.2234 C   0  0  0  0  0  0  0  0  0  0  0  0
   -2.0412   22.1600  -26.4006 C   0  0  0  0  0  0  0  0  0  0  0  0
 37 38  1  0  0  0
 38 39  1  0  0  0
 38 36  1  0  0  0
 36 30  1  0  0  0
 30 26  1  0  0  0
 26 27  1  0  0  0
 27 28  2  0  0  0
 27 25  1  0  0  0
 25 40  1  0  0  0
 40 41  1  0  0  0
 41 42  2  0  0  0
 42 43  1  0  0  0
 43 44  2  0  0  0
 44 45  1  0  0  0
 45 46  2  0  0  0
 25  1  1  0  0  0
  1  2  1  0  0  0
  2  3  2  0  0  0
  2  5  1  0  0  0
  5  6  1  0  0  0
  6  7  1  0  0  0
  7  8  1  0  0  0
  8  9  1  0  0  0
  9 10  1  0  0  0
 10 11  2  0  0  0
 10 12  1  0  0  0
 12 13  1  0  0  0
 12 16  1  0  0  0
 16 17  1  0  0  0
 17 18  2  0  0  0
 18 19  1  0  0  0
 19 20  2  0  0  0
 20 21  1  0  0  0
 20 22  1  0  0  0
 22 23  2  0  0  0
 30 31  1  0  0  0
 31 32  1  0  0  0
 31 33  2  0  0  0
 46 41  1  0  0  0
  9  5  1  0  0  0
 23 17  1  0  0  0
 26 29  1  0  0  0
  1  4  1  0  0  0
 13 14  1  0  0  0
 13 15  1  0  0  0
 21 24  1  0  0  0
 32 34  1  0  0  0
 32 35  1  0  0  0
M  END
> <minimizedAffinity>
-9.14052

> <CNNscore>
0.1709576547

> <CNNaffinity>
6.0454225540

> <CNN_VS>
1.0335112810

> <CNNaffinity_variance>
0.8662365675

$$$$
[H]Oc1c([H])c([H])c(C([H])([H])[C@@]([H])(C(=O)N2C([H])([H])C([H])([H])C([H])([H])[C@@]2([H])C(=O)N([H])[C@]([H])(C(=O)N([H])[C@]([H])(C(=O)N([H])[H])C([H])([H])C([H])(C([H])([H])[H])C([H])([H])[H])C([H])([H])c2c([H])c([H])c([H])c([H])c2[H])N([H])[H])c([H])c1[H]


 46 48  0  0  0  0  0  0  0  0999 V2000
   -4.7841   22.0654  -22.5728 N   0  0  0  0  0  0  0  0  0  0  0  0
   -4.9369   22.9092  -21.4618 C   0  0  0  0  0  0  0  0  0  0  0  0
   -4.4924   24.0771  -21.5125 O   0  0  0  0  0  0  0  0  0  0  0  0
   -5.1468   21.0982  -22.5406 H   0  0  0  0  0  0  0  0  0  0  0  0
   -5.6073   22.4659  -20.2228 C   0  0  0  0  0  0  0  0  0  0  0  0
   -7.0610   22.8698  -20.2110 C   0  0  0  0  0  0  0  0  0  0  0  0
   -7.2840   23.3974  -18.8243 C   0  0  0  0  0  0  0  0  0  0  0  0
   -5.9253   24.0007  -18.5227 C   0  0  0  0  0  0  0  0  0  0  0  0
   -4.9929   22.9725  -19.0327 N   0  0  0  0  0  0  0  0  0  0  0  0
   -3.7929   22.6475  -18.3762 C   0  0  0  0  0  0  0  0  0  0  0  0
   -3.4973   23.3132  -17.3244 O   0  0  0  0  0  0  0  0  0  0  0  0
   -2.8392   21.6145  -18.7820 C   0  0  0  0  0  0  0  0  0  0  0  0
   -3.5866   20.3906  -19.1394 N   0  0  0  0  0  0  0  0  0  0  0  0
   -4.4489   20.3186  -18.5334 H   0  0  0  0  0  0  0  0  0  0  0  0
   -3.0267   19.5361  -18.9381 H   0  0  0  0  0  0  0  0  0  0  0  0
   -2.0207   21.9542  -20.0011 C   0  0  0  0  0  0  0  0  0  0  0  0
   -0.5754   22.0693  -19.7430 C   0  0  0  0  0  0  0  0  0  0  0  0
    0.3583   21.2049  -20.2812 C   0  0  0  0  0  0  0  0  0  0  0  0
    1.7009   21.3576  -20.0051 C   0  0  0  0  0  0  0  0  0  0  0  0
    2.1830   22.3651  -19.1890 C   0  0  0  0  0  0  0  0  0  0  0  0
    3.5467   22.5041  -18.9205 O   0  0  0  0  0  0  0  0  0  0  0  0
    1.2443   23.2251  -18.6547 C   0  0  0  0  0  0  0  0  0  0  0  0
   -0.1021   23.0766  -18.9282 C   0  0  0  0  0  0  0  0  0  0  0  0
    4.0543   23.1059  -19.5846 H   0  0  0  0  0  0  0  0  0  0  0  0
   -4.1180   22.4972  -23.8100 C   0  0  0  0  0  0  0  0  0  0  0  0
   -4.8829   24.2538  -25.5202 N   0  0  0  0  0  0  0  0  0  0  0  0
   -5.0697   23.0906  -24.7515 C   0  0  0  0  0  0  0  0  0  0  0  0
   -6.1964   22.5002  -24.8970 O   0  0  0  0  0  0  0  0  0  0  0  0
   -3.9860   24.7747  -25.4457 H   0  0  0  0  0  0  0  0  0  0  0  0
   -5.8839   24.7802  -26.4261 C   0  0  0  0  0  0  0  0  0  0  0  0
   -7.1610   25.1350  -25.8037 C   0  0  0  0  0  0  0  0  0  0  0  0
   -7.1564   26.0542  -24.7186 N   0  0  0  0  0  0  0  0  0  0  0  0
   -8.2798   24.6893  -26.1484 O   0  0  0  0  0  0  0  0  0  0  0  0
   -6.6328   26.9573  -24.7280 H   0  0  0  0  0  0  0  0  0  0  0  0
   -7.7271   25.7686  -23.8744 H   0  0  0  0  0  0  0  0  0  0  0  0
   -5.9847   23.9518  -27.6792 C   0  0  0  0  0  0  0  0  0  0  0  0
   -4.8025   22.6789  -29.5140 C   0  0  0  0  0  0  0  0  0  0  0  0
   -4.7320   23.6974  -28.4138 C   0  0  0  0  0  0  0  0  0  0  0  0
   -4.2481   24.9987  -29.0323 C   0  0  0  0  0  0  0  0  0  0  0  0
   -3.2553   21.4007  -24.3514 C   0  0  0  0  0  0  0  0  0  0  0  0
   -2.1010   21.7792  -25.1411 C   0  0  0  0  0  0  0  0  0  0  0  0
   -0.8863   21.9344  -24.5043 C   0  0  0  0  0  0  0  0  0  0  0  0
    0.2759   22.3054  -25.1888 C   0  0  0  0  0  0  0  0  0  0  0  0
    0.2413   22.5320  -26.5490 C   0  0  0  0  0  0  0  0  0  0  0  0
   -0.9729   22.3753  -27.1788 C   0  0  0  0  0  0  0  0  0  0  0  0
   -2.1151   22.0101  -26.5025 C   0  0  0  0  0  0  0  0  0  0  0  0
 37 38  1  0  0  0
 38 39  1  0  0  0
 38 36  1  0  0  0
 36 30  1  0  0  0
 30 26  1  0  0  0
 26 27  1  0  0  0
 27 28  2  0  0  0
 27 25  1  0  0  0
 25 40  1  0  0  0
 40 41  1  0  0  0
 41 42  2  0  0  0
 42 43  1  0  0  0
 43 44  2  0  0  0
 44 45  1  0  0  0
 45 46  2  0  0  0
 25  1  1  0  0  0
  1  2  1  0  0  0
  2  3  2  0  0  0
  2  5  1  0  0  0
  5  6  1  0  0  0
  6  7  1  0  0  0
  7  8  1  0  0  0
  8  9  1  0  0  0
  9 10  1  0  0  0
 10 11  2  0  0  0
 10 12  1  0  0  0
 12 13  1  0  0  0
 12 16  1  0  0  0
 16 17  1  0  0  0
 17 18  2  0  0  0
 18 19  1  0  0  0
 19 20  2  0  0  0
 20 21  1  0  0  0
 20 22  1  0  0  0
 22 23  2  0  0  0
 30 31  1  0  0  0
 31 32  1  0  0  0
 31 33  2  0  0  0
 46 41  1  0  0  0
  9  5  1  0  0  0
 23 17  1  0  0  0
 26 29  1  0  0  0
  1  4  1  0  0  0
 13 14  1  0  0  0
 13 15  1  0  0  0
 21 24  1  0  0  0
 32 34  1  0  0  0
 32 35  1  0  0  0
M  END
> <minimizedAffinity>
-8.63613

> <CNNscore>
0.1705137938

> <CNNaffinity>
6.1558065414

> <CNN_VS>
1.0496499538

> <CNNaffinity_variance>
0.6551454067

$$$$
[H]O[C@]1(C([H])([H])C([H])([H])[H])C([H])([H])C([H])([H])[C@@]2([H])[C@]3([H])C([H])([H])C([H])([H])C4=C([H])C(=O)C([H])([H])C([H])([H])[C@]4(C([H])([H])[H])[C@@]3(C([H])([H])[H])C([H])([H])C([H])([H])C([H])([H])[C@@]21C([H])([H])[H]


 26 29  0  0  0  0  0  0  0  0999 V2000
    0.3520   17.1931  -18.8659 C   0  0  0  0  0  0  0  0  0  0  0  0
    0.0105   17.2591  -17.5264 O   0  0  0  0  0  0  0  0  0  0  0  0
    1.7138   16.5531  -19.0025 C   0  0  0  0  0  0  0  0  0  0  0  0
    2.7354   17.6688  -19.0446 C   0  0  0  0  0  0  0  0  0  0  0  0
    1.9033   18.8458  -18.5042 C   0  0  0  0  0  0  0  0  0  0  0  0
    2.5613   20.1358  -18.6772 C   0  0  0  0  0  0  0  0  0  0  0  0
    4.0694   19.9590  -18.7355 C   0  0  0  0  0  0  0  0  0  0  0  0
    4.5546   21.1875  -19.5247 C   0  0  0  0  0  0  0  0  0  0  0  0
    4.2933   22.3157  -18.5793 C   0  0  0  0  0  0  0  0  0  0  0  0
    5.2582   23.1823  -18.4078 C   0  0  0  0  0  0  0  0  0  0  0  0
    5.1978   24.3611  -17.5203 C   0  0  0  0  0  0  0  0  0  0  0  0
    6.0439   25.2594  -17.5001 O   0  0  0  0  0  0  0  0  0  0  0  0
    4.0225   24.4091  -16.6214 C   0  0  0  0  0  0  0  0  0  0  0  0
    3.4706   22.9844  -16.4666 C   0  0  0  0  0  0  0  0  0  0  0  0
    3.0233   22.4757  -17.8529 C   0  0  0  0  0  0  0  0  0  0  0  0
    2.2223   23.6432  -18.4121 C   0  0  0  0  0  0  0  0  0  0  0  0
    2.1733   21.2475  -17.7595 C   0  0  0  0  0  0  0  0  0  0  0  0
    2.0712   20.8825  -16.3089 C   0  0  0  0  0  0  0  0  0  0  0  0
    0.7291   21.5825  -18.1966 C   0  0  0  0  0  0  0  0  0  0  0  0
   -0.2379   20.4890  -17.9015 C   0  0  0  0  0  0  0  0  0  0  0  0
   -0.4457   19.5628  -19.0951 C   0  0  0  0  0  0  0  0  0  0  0  0
    0.6544   18.6059  -19.3305 C   0  0  0  0  0  0  0  0  0  0  0  0
    0.9307   18.5244  -20.8115 C   0  0  0  0  0  0  0  0  0  0  0  0
   -0.9466   17.4201  -17.4036 H   0  0  0  0  0  0  0  0  0  0  0  0
   -1.8481   16.0973  -18.7818 C   0  0  0  0  0  0  0  0  0  0  0  0
   -0.6865   16.5078  -19.6930 C   0  0  0  0  0  0  0  0  0  0  0  0
 25 26  1  0  0  0
 26  1  1  0  0  0
  1  2  1  0  0  0
  1  3  1  0  0  0
  3  4  1  0  0  0
  4  5  1  0  0  0
  5  6  1  0  0  0
  6  7  1  0  0  0
  7  8  1  0  0  0
  8  9  1  0  0  0
  9 10  2  0  0  0
 10 11  1  0  0  0
 11 12  2  0  0  0
 11 13  1  0  0  0
 13 14  1  0  0  0
 14 15  1  0  0  0
 15 16  1  0  0  0
 15 17  1  0  0  0
 17 18  1  0  0  0
 17 19  1  0  0  0
 19 20  1  0  0  0
 20 21  1  0  0  0
 21 22  1  0  0  0
 22 23  1  0  0  0
 22  1  1  0  0  0
 22  5  1  0  0  0
 17  6  1  0  0  0
 15  9  1  0  0  0
  2 24  1  0  0  0
M  END
> <minimizedAffinity>
-5.08347

> <CNNscore>
0.5793445706

> <CNNaffinity>
5.2071914673

> <CNN_VS>
3.0167582035

> <CNNaffinity_variance>
0.0947923586

$$$$
[H]O[C@]1(C([H])([H])C([H])([H])[H])C([H])([H])C([H])([H])[C@@]2([H])[C@]3([H])C([H])([H])C([H])([H])C4=C([H])C(=O)C([H])([H])C([H])([H])[C@]4(C([H])([H])[H])[C@@]3(C([H])([H])[H])C([H])([H])C([H])([H])C([H])([H])[C@@]21C([H])([H])[H]


 26 29  0  0  0  0  0  0  0  0999 V2000
   -2.7030   20.4992  -18.5519 C   0  0  0  0  0  0  0  0  0  0  0  0
   -2.0893   19.2670  -18.4095 O   0  0  0  0  0  0  0  0  0  0  0  0
   -2.3723   21.0668  -19.9125 C   0  0  0  0  0  0  0  0  0  0  0  0
   -1.1608   21.9585  -19.7479 C   0  0  0  0  0  0  0  0  0  0  0  0
   -0.6424   21.4944  -18.3747 C   0  0  0  0  0  0  0  0  0  0  0  0
    0.3866   22.3715  -17.8279 C   0  0  0  0  0  0  0  0  0  0  0  0
    1.1159   23.0963  -18.9466 C   0  0  0  0  0  0  0  0  0  0  0  0
    1.6549   24.3696  -18.2714 C   0  0  0  0  0  0  0  0  0  0  0  0
    2.7060   23.8391  -17.3501 C   0  0  0  0  0  0  0  0  0  0  0  0
    3.8631   24.4494  -17.3551 C   0  0  0  0  0  0  0  0  0  0  0  0
    5.0255   24.0801  -16.5226 C   0  0  0  0  0  0  0  0  0  0  0  0
    6.0457   24.7656  -16.4109 O   0  0  0  0  0  0  0  0  0  0  0  0
    4.8964   22.7936  -15.8015 C   0  0  0  0  0  0  0  0  0  0  0  0
    3.8396   21.9395  -16.5170 C   0  0  0  0  0  0  0  0  0  0  0  0
    2.4883   22.6825  -16.4661 C   0  0  0  0  0  0  0  0  0  0  0  0
    2.3858   23.1230  -15.0126 C   0  0  0  0  0  0  0  0  0  0  0  0
    1.3393   21.7965  -16.8328 C   0  0  0  0  0  0  0  0  0  0  0  0
    1.9037   20.4517  -17.1805 C   0  0  0  0  0  0  0  0  0  0  0  0
    0.4534   21.5559  -15.5893 C   0  0  0  0  0  0  0  0  0  0  0  0
   -0.5682   20.4926  -15.7981 C   0  0  0  0  0  0  0  0  0  0  0  0
   -1.9140   21.0612  -16.2356 C   0  0  0  0  0  0  0  0  0  0  0  0
   -1.9748   21.4794  -17.6507 C   0  0  0  0  0  0  0  0  0  0  0  0
   -2.7166   22.7896  -17.7479 C   0  0  0  0  0  0  0  0  0  0  0  0
   -2.4744   18.7531  -17.6714 H   0  0  0  0  0  0  0  0  0  0  0  0
   -4.5804   18.9820  -18.0804 C   0  0  0  0  0  0  0  0  0  0  0  0
   -4.1745   20.4435  -18.2988 C   0  0  0  0  0  0  0  0  0  0  0  0
 25 26  1  0  0  0
 26  1  1  0  0  0
  1  2  1  0  0  0
  1  3  1  0  0  0
  3  4  1  0  0  0
  4  5  1  0  0  0
  5  6  1  0  0  0
  6  7  1  0  0  0
  7  8  1  0  0  0
  8  9  1  0  0  0
  9 10  2  0  0  0
 10 11  1  0  0  0
 11 12  2  0  0  0
 11 13  1  0  0  0
 13 14  1  0  0  0
 14 15  1  0  0  0
 15 16  1  0  0  0
 15 17  1  0  0  0
 17 18  1  0  0  0
 17 19  1  0  0  0
 19 20  1  0  0  0
 20 21  1  0  0  0
 21 22  1  0  0  0
 22 23  1  0  0  0
 22  1  1  0  0  0
 22  5  1  0  0  0
 17  6  1  0  0  0
 15  9  1  0  0  0
  2 24  1  0  0  0
M  END
> <minimizedAffinity>
-5.17278

> <CNNscore>
0.4797515273

> <CNNaffinity>
4.9618029594

> <CNN_VS>
2.3804326057

> <CNNaffinity_variance>
0.0979809389

$$$$
[H]O[C@]1(C([H])([H])C([H])([H])[H])C([H])([H])C([H])([H])[C@@]2([H])[C@]3([H])C([H])([H])C([H])([H])C4=C([H])C(=O)C([H])([H])C([H])([H])[C@]4(C([H])([H])[H])[C@@]3(C([H])([H])[H])C([H])([H])C([H])([H])C([H])([H])[C@@]21C([H])([H])[H]


 26 29  0  0  0  0  0  0  0  0999 V2000
   -5.4331   24.0358  -28.8784 C   0  0  0  0  0  0  0  0  0  0  0  0
   -6.4335   23.3641  -28.1978 O   0  0  0  0  0  0  0  0  0  0  0  0
   -4.6420   23.0484  -29.7043 C   0  0  0  0  0  0  0  0  0  0  0  0
   -3.4539   22.6140  -28.8738 C   0  0  0  0  0  0  0  0  0  0  0  0
   -3.8946   23.0740  -27.4725 C   0  0  0  0  0  0  0  0  0  0  0  0
   -2.8183   23.0191  -26.4899 C   0  0  0  0  0  0  0  0  0  0  0  0
   -1.7867   21.9777  -26.8900 C   0  0  0  0  0  0  0  0  0  0  0  0
   -0.4958   22.4532  -26.2008 C   0  0  0  0  0  0  0  0  0  0  0  0
   -0.7891   22.2289  -24.7522 C   0  0  0  0  0  0  0  0  0  0  0  0
    0.1353   21.6323  -24.0445 C   0  0  0  0  0  0  0  0  0  0  0  0
    0.0381   21.3199  -22.6045 C   0  0  0  0  0  0  0  0  0  0  0  0
    0.9797   20.9165  -21.9161 O   0  0  0  0  0  0  0  0  0  0  0  0
   -1.3013   21.5243  -22.0080 C   0  0  0  0  0  0  0  0  0  0  0  0
   -2.3451   21.4890  -23.1339 C   0  0  0  0  0  0  0  0  0  0  0  0
   -2.0504   22.6420  -24.1158 C   0  0  0  0  0  0  0  0  0  0  0  0
   -1.8285   23.8355  -23.1973 C   0  0  0  0  0  0  0  0  0  0  0  0
   -3.1916   22.8979  -25.0496 C   0  0  0  0  0  0  0  0  0  0  0  0
   -4.2578   21.8902  -24.7407 C   0  0  0  0  0  0  0  0  0  0  0  0
   -3.8252   24.2708  -24.7291 C   0  0  0  0  0  0  0  0  0  0  0  0
   -5.1142   24.4981  -25.4395 C   0  0  0  0  0  0  0  0  0  0  0  0
   -4.9276   25.2618  -26.7464 C   0  0  0  0  0  0  0  0  0  0  0  0
   -4.3890   24.4545  -27.8596 C   0  0  0  0  0  0  0  0  0  0  0  0
   -3.3579   25.2653  -28.6050 C   0  0  0  0  0  0  0  0  0  0  0  0
   -7.1193   23.9767  -27.8637 H   0  0  0  0  0  0  0  0  0  0  0  0
   -5.9537   24.7619  -31.1697 C   0  0  0  0  0  0  0  0  0  0  0  0
   -5.9540   25.1742  -29.6938 C   0  0  0  0  0  0  0  0  0  0  0  0
 25 26  1  0  0  0
 26  1  1  0  0  0
  1  2  1  0  0  0
  1  3  1  0  0  0
  3  4  1  0  0  0
  4  5  1  0  0  0
  5  6  1  0  0  0
  6  7  1  0  0  0
  7  8  1  0  0  0
  8  9  1  0  0  0
  9 10  2  0  0  0
 10 11  1  0  0  0
 11 12  2  0  0  0
 11 13  1  0  0  0
 13 14  1  0  0  0
 14 15  1  0  0  0
 15 16  1  0  0  0
 15 17  1  0  0  0
 17 18  1  0  0  0
 17 19  1  0  0  0
 19 20  1  0  0  0
 20 21  1  0  0  0
 21 22  1  0  0  0
 22 23  1  0  0  0
 22  1  1  0  0  0
 22  5  1  0  0  0
 17  6  1  0  0  0
 15  9  1  0  0  0
  2 24  1  0  0  0
M  END
> <minimizedAffinity>
-10.20290

> <CNNscore>
0.3920213878

> <CNNaffinity>
6.7381806374

> <CNN_VS>
2.6415109634

> <CNNaffinity_variance>
0.2503805757

$$$$
[H]O[C@]1(C([H])([H])C([H])([H])[H])C([H])([H])C([H])([H])[C@@]2([H])[C@]3([H])C([H])([H])C([H])([H])C4=C([H])C(=O)C([H])([H])C([H])([H])[C@]4(C([H])([H])[H])[C@@]3(C([H])([H])[H])C([H])([H])C([H])([H])C([H])([H])[C@@]21C([H])([H])[H]


 26 29  0  0  0  0  0  0  0  0999 V2000
   -4.8773   20.7356  -18.9429 C   0  0  0  0  0  0  0  0  0  0  0  0
   -4.4844   19.4125  -19.0439 O   0  0  0  0  0  0  0  0  0  0  0  0
   -4.6534   21.4250  -20.2686 C   0  0  0  0  0  0  0  0  0  0  0  0
   -3.2887   22.0767  -20.2142 C   0  0  0  0  0  0  0  0  0  0  0  0
   -2.6665   21.3491  -19.0088 C   0  0  0  0  0  0  0  0  0  0  0  0
   -1.4255   21.9632  -18.5508 C   0  0  0  0  0  0  0  0  0  0  0  0
   -0.7497   22.7080  -19.6898 C   0  0  0  0  0  0  0  0  0  0  0  0
    0.1062   23.7709  -18.9791 C   0  0  0  0  0  0  0  0  0  0  0  0
    1.1673   22.9545  -18.3140 C   0  0  0  0  0  0  0  0  0  0  0  0
    2.4026   23.3637  -18.4476 C   0  0  0  0  0  0  0  0  0  0  0  0
    3.5883   22.6990  -17.8704 C   0  0  0  0  0  0  0  0  0  0  0  0
    4.7215   23.1877  -17.8582 O   0  0  0  0  0  0  0  0  0  0  0  0
    3.3347   21.3632  -17.2847 C   0  0  0  0  0  0  0  0  0  0  0  0
    2.0459   20.7993  -17.9006 C   0  0  0  0  0  0  0  0  0  0  0  0
    0.8754   21.7375  -17.5394 C   0  0  0  0  0  0  0  0  0  0  0  0
    1.0709   21.9831  -16.0499 C   0  0  0  0  0  0  0  0  0  0  0  0
   -0.4573   21.1090  -17.8015 C   0  0  0  0  0  0  0  0  0  0  0  0
   -0.2053   19.7518  -18.3866 C   0  0  0  0  0  0  0  0  0  0  0  0
   -1.1786   20.8455  -16.4602 C   0  0  0  0  0  0  0  0  0  0  0  0
   -2.3964   20.0013  -16.6090 C   0  0  0  0  0  0  0  0  0  0  0  0
   -3.6655   20.8358  -16.7462 C   0  0  0  0  0  0  0  0  0  0  0  0
   -3.8575   21.4502  -18.0754 C   0  0  0  0  0  0  0  0  0  0  0  0
   -4.3539   22.8641  -17.8998 C   0  0  0  0  0  0  0  0  0  0  0  0
   -4.8434   18.8707  -18.3126 H   0  0  0  0  0  0  0  0  0  0  0  0
   -7.2113   21.0298  -19.6602 C   0  0  0  0  0  0  0  0  0  0  0  0
   -6.2804   20.8849  -18.4516 C   0  0  0  0  0  0  0  0  0  0  0  0
 25 26  1  0  0  0
 26  1  1  0  0  0
  1  2  1  0  0  0
  1  3  1  0  0  0
  3  4  1  0  0  0
  4  5  1  0  0  0
  5  6  1  0  0  0
  6  7  1  0  0  0
  7  8  1  0  0  0
  8  9  1  0  0  0
  9 10  2  0  0  0
 10 11  1  0  0  0
 11 12  2  0  0  0
 11 13  1  0  0  0
 13 14  1  0  0  0
 14 15  1  0  0  0
 15 16  1  0  0  0
 15 17  1  0  0  0
 17 18  1  0  0  0
 17 19  1  0  0  0
 19 20  1  0  0  0
 20 21  1  0  0  0
 21 22  1  0  0  0
 22 23  1  0  0  0
 22  1  1  0  0  0
 22  5  1  0  0  0
 17  6  1  0  0  0
 15  9  1  0  0  0
  2 24  1  0  0  0
M  END
> <minimizedAffinity>
-4.90819

> <CNNscore>
0.3311455846

> <CNNaffinity>
5.0616588593

> <CNN_VS>
1.6761460304

> <CNNaffinity_variance>
0.1102512032

$$$$
[H]O[C@]1(C([H])([H])C([H])([H])[H])C([H])([H])C([H])([H])[C@@]2([H])[C@]3([H])C([H])([H])C([H])([H])C4=C([H])C(=O)C([H])([H])C([H])([H])[C@]4(C([H])([H])[H])[C@@]3(C([H])([H])[H])C([H])([H])C([H])([H])C([H])([H])[C@@]21C([H])([H])[H]


 26 29  0  0  0  0  0  0  0  0999 V2000
   -5.2016   25.0981  -28.7487 C   0  0  0  0  0  0  0  0  0  0  0  0
   -6.3137   25.9214  -28.7196 O   0  0  0  0  0  0  0  0  0  0  0  0
   -5.6288   23.6957  -29.1144 C   0  0  0  0  0  0  0  0  0  0  0  0
   -5.8554   22.9410  -27.8224 C   0  0  0  0  0  0  0  0  0  0  0  0
   -5.9442   24.1040  -26.8178 C   0  0  0  0  0  0  0  0  0  0  0  0
   -5.9014   23.6617  -25.4287 C   0  0  0  0  0  0  0  0  0  0  0  0
   -6.4106   22.2350  -25.3098 C   0  0  0  0  0  0  0  0  0  0  0  0
   -5.7394   21.7093  -24.0289 C   0  0  0  0  0  0  0  0  0  0  0  0
   -6.4153   22.4950  -22.9515 C   0  0  0  0  0  0  0  0  0  0  0  0
   -6.8429   21.8290  -21.9100 C   0  0  0  0  0  0  0  0  0  0  0  0
   -7.5332   22.4186  -20.7453 C   0  0  0  0  0  0  0  0  0  0  0  0
   -7.7744   21.8097  -19.6992 O   0  0  0  0  0  0  0  0  0  0  0  0
   -7.9361   23.8340  -20.9062 C   0  0  0  0  0  0  0  0  0  0  0  0
   -8.0133   24.1496  -22.4071 C   0  0  0  0  0  0  0  0  0  0  0  0
   -6.6135   23.9516  -23.0251 C   0  0  0  0  0  0  0  0  0  0  0  0
   -5.6950   24.6736  -22.0492 C   0  0  0  0  0  0  0  0  0  0  0  0
   -6.5072   24.5497  -24.3929 C   0  0  0  0  0  0  0  0  0  0  0  0
   -7.8495   25.1222  -24.7371 C   0  0  0  0  0  0  0  0  0  0  0  0
   -5.5469   25.7603  -24.3557 C   0  0  0  0  0  0  0  0  0  0  0  0
   -5.5726   26.5637  -25.6094 C   0  0  0  0  0  0  0  0  0  0  0  0
   -4.4775   26.1474  -26.5858 C   0  0  0  0  0  0  0  0  0  0  0  0
   -4.7478   24.8921  -27.3153 C   0  0  0  0  0  0  0  0  0  0  0  0
   -3.4824   24.0727  -27.3756 C   0  0  0  0  0  0  0  0  0  0  0  0
   -6.0654   26.8674  -28.7452 H   0  0  0  0  0  0  0  0  0  0  0  0
   -4.7182   25.8827  -31.0290 C   0  0  0  0  0  0  0  0  0  0  0  0
   -4.1226   25.6175  -29.6422 C   0  0  0  0  0  0  0  0  0  0  0  0
 25 26  1  0  0  0
 26  1  1  0  0  0
  1  2  1  0  0  0
  1  3  1  0  0  0
  3  4  1  0  0  0
  4  5  1  0  0  0
  5  6  1  0  0  0
  6  7  1  0  0  0
  7  8  1  0  0  0
  8  9  1  0  0  0
  9 10  2  0  0  0
 10 11  1  0  0  0
 11 12  2  0  0  0
 11 13  1  0  0  0
 13 14  1  0  0  0
 14 15  1  0  0  0
 15 16  1  0  0  0
 15 17  1  0  0  0
 17 18  1  0  0  0
 17 19  1  0  0  0
 19 20  1  0  0  0
 20 21  1  0  0  0
 21 22  1  0  0  0
 22 23  1  0  0  0
 22  1  1  0  0  0
 22  5  1  0  0  0
 17  6  1  0  0  0
 15  9  1  0  0  0
  2 24  1  0  0  0
M  END
> <minimizedAffinity>
-9.53466

> <CNNscore>
0.3178779185

> <CNNaffinity>
6.3278479576

> <CNN_VS>
2.0114831924

> <CNNaffinity_variance>
0.0496075563

$$$$
[H]O[C@]1(C([H])([H])C([H])([H])[H])C([H])([H])C([H])([H])[C@@]2([H])[C@]3([H])C([H])([H])C([H])([H])C4=C([H])C(=O)C([H])([H])C([H])([H])[C@]4(C([H])([H])[H])[C@@]3(C([H])([H])[H])C([H])([H])C([H])([H])C([H])([H])[C@@]21C([H])([H])[H]


 26 29  0  0  0  0  0  0  0  0999 V2000
   -7.5846   24.7006  -21.8000 C   0  0  0  0  0  0  0  0  0  0  0  0
   -6.4935   24.8536  -22.6375 O   0  0  0  0  0  0  0  0  0  0  0  0
   -7.5877   25.8123  -20.7768 C   0  0  0  0  0  0  0  0  0  0  0  0
   -6.8745   25.2958  -19.5461 C   0  0  0  0  0  0  0  0  0  0  0  0
   -6.1506   24.0662  -20.1238 C   0  0  0  0  0  0  0  0  0  0  0  0
   -5.5800   23.2050  -19.0943 C   0  0  0  0  0  0  0  0  0  0  0  0
   -5.2819   24.0055  -17.8377 C   0  0  0  0  0  0  0  0  0  0  0  0
   -5.3186   22.9552  -16.7138 C   0  0  0  0  0  0  0  0  0  0  0  0
   -4.1046   22.1279  -16.9909 C   0  0  0  0  0  0  0  0  0  0  0  0
   -3.3259   21.8571  -15.9752 C   0  0  0  0  0  0  0  0  0  0  0  0
   -2.0849   21.0595  -16.0409 C   0  0  0  0  0  0  0  0  0  0  0  0
   -1.4573   20.6685  -15.0527 O   0  0  0  0  0  0  0  0  0  0  0  0
   -1.6160   20.7418  -17.4086 C   0  0  0  0  0  0  0  0  0  0  0  0
   -2.2285   21.7603  -18.3812 C   0  0  0  0  0  0  0  0  0  0  0  0
   -3.7648   21.6262  -18.3323 C   0  0  0  0  0  0  0  0  0  0  0  0
   -3.9878   20.1230  -18.4213 C   0  0  0  0  0  0  0  0  0  0  0  0
   -4.4324   22.3285  -19.4728 C   0  0  0  0  0  0  0  0  0  0  0  0
   -3.3572   22.9859  -20.2851 C   0  0  0  0  0  0  0  0  0  0  0  0
   -5.0756   21.2875  -20.4171 C   0  0  0  0  0  0  0  0  0  0  0  0
   -5.5453   21.8770  -21.7015 C   0  0  0  0  0  0  0  0  0  0  0  0
   -7.0214   22.2580  -21.6576 C   0  0  0  0  0  0  0  0  0  0  0  0
   -7.3149   23.4991  -20.9129 C   0  0  0  0  0  0  0  0  0  0  0  0
   -8.5531   23.2927  -20.0759 C   0  0  0  0  0  0  0  0  0  0  0  0
   -6.5882   24.3267  -23.4564 H   0  0  0  0  0  0  0  0  0  0  0  0
   -9.5961   25.9569  -22.4515 C   0  0  0  0  0  0  0  0  0  0  0  0
   -8.8758   24.6075  -22.5458 C   0  0  0  0  0  0  0  0  0  0  0  0
 25 26  1  0  0  0
 26  1  1  0  0  0
  1  2  1  0  0  0
  1  3  1  0  0  0
  3  4  1  0  0  0
  4  5  1  0  0  0
  5  6  1  0  0  0
  6  7  1  0  0  0
  7  8  1  0  0  0
  8  9  1  0  0  0
  9 10  2  0  0  0
 10 11  1  0  0  0
 11 12  2  0  0  0
 11 13  1  0  0  0
 13 14  1  0  0  0
 14 15  1  0  0  0
 15 16  1  0  0  0
 15 17  1  0  0  0
 17 18  1  0  0  0
 17 19  1  0  0  0
 19 20  1  0  0  0
 20 21  1  0  0  0
 21 22  1  0  0  0
 22 23  1  0  0  0
 22  1  1  0  0  0
 22  5  1  0  0  0
 17  6  1  0  0  0
 15  9  1  0  0  0
  2 24  1  0  0  0
M  END
> <minimizedAffinity>
-4.87188

> <CNNscore>
0.3067753017

> <CNNaffinity>
5.1327023506

> <CNN_VS>
1.5745862722

> <CNNaffinity_variance>
0.0596342199

$$$$
[H]O[C@]1(C([H])([H])C([H])([H])[H])C([H])([H])C([H])([H])[C@@]2([H])[C@]3([H])C([H])([H])C([H])([H])C4=C([H])C(=O)C([H])([H])C([H])([H])[C@]4(C([H])([H])[H])[C@@]3(C([H])([H])[H])C([H])([H])C([H])([H])C([H])([H])[C@@]21C([H])([H])[H]


 26 29  0  0  0  0  0  0  0  0999 V2000
   -1.2128   22.7386  -23.4689 C   0  0  0  0  0  0  0  0  0  0  0  0
    0.1304   23.0686  -23.4245 O   0  0  0  0  0  0  0  0  0  0  0  0
   -2.0295   23.9023  -22.9574 C   0  0  0  0  0  0  0  0  0  0  0  0
   -2.2687   23.6721  -21.4809 C   0  0  0  0  0  0  0  0  0  0  0  0
   -1.2071   22.5995  -21.1779 C   0  0  0  0  0  0  0  0  0  0  0  0
   -1.3760   21.9851  -19.8660 C   0  0  0  0  0  0  0  0  0  0  0  0
   -2.0913   22.9370  -18.9220 C   0  0  0  0  0  0  0  0  0  0  0  0
   -2.7471   22.0065  -17.8868 C   0  0  0  0  0  0  0  0  0  0  0  0
   -1.5738   21.4629  -17.1365 C   0  0  0  0  0  0  0  0  0  0  0  0
   -1.6499   21.4677  -15.8306 C   0  0  0  0  0  0  0  0  0  0  0  0
   -0.6015   20.9772  -14.9135 C   0  0  0  0  0  0  0  0  0  0  0  0
   -0.7560   20.8282  -13.6981 O   0  0  0  0  0  0  0  0  0  0  0  0
    0.6947   20.6616  -15.5551 C   0  0  0  0  0  0  0  0  0  0  0  0
    0.7764   21.4235  -16.8860 C   0  0  0  0  0  0  0  0  0  0  0  0
   -0.3685   20.9413  -17.8011 C   0  0  0  0  0  0  0  0  0  0  0  0
   -0.2968   19.4254  -17.6818 C   0  0  0  0  0  0  0  0  0  0  0  0
   -0.1778   21.3698  -19.2223 C   0  0  0  0  0  0  0  0  0  0  0  0
    1.0779   22.1870  -19.2792 C   0  0  0  0  0  0  0  0  0  0  0  0
    0.1033   20.1314  -20.1034 C   0  0  0  0  0  0  0  0  0  0  0  0
    0.5487   20.4842  -21.4800 C   0  0  0  0  0  0  0  0  0  0  0  0
   -0.6089   20.5146  -22.4725 C   0  0  0  0  0  0  0  0  0  0  0  0
   -1.4676   21.7125  -22.3801 C   0  0  0  0  0  0  0  0  0  0  0  0
   -2.9123   21.2965  -22.5072 C   0  0  0  0  0  0  0  0  0  0  0  0
    0.6703   22.4664  -23.9750 H   0  0  0  0  0  0  0  0  0  0  0  0
   -0.4634   22.3935  -25.7858 C   0  0  0  0  0  0  0  0  0  0  0  0
   -1.6510   22.2853  -24.8235 C   0  0  0  0  0  0  0  0  0  0  0  0
 25 26  1  0  0  0
 26  1  1  0  0  0
  1  2  1  0  0  0
  1  3  1  0  0  0
  3  4  1  0  0  0
  4  5  1  0  0  0
  5  6  1  0  0  0
  6  7  1  0  0  0
  7  8  1  0  0  0
  8  9  1  0  0  0
  9 10  2  0  0  0
 10 11  1  0  0  0
 11 12  2  0  0  0
 11 13  1  0  0  0
 13 14  1  0  0  0
 14 15  1  0  0  0
 15 16  1  0  0  0
 15 17  1  0  0  0
 17 18  1  0  0  0
 17 19  1  0  0  0
 19 20  1  0  0  0
 20 21  1  0  0  0
 21 22  1  0  0  0
 22 23  1  0  0  0
 22  1  1  0  0  0
 22  5  1  0  0  0
 17  6  1  0  0  0
 15  9  1  0  0  0
  2 24  1  0  0  0
M  END
> <minimizedAffinity>
-4.96228

> <CNNscore>
0.3054344356

> <CNNaffinity>
5.4952754974

> <CNN_VS>
1.6784464121

> <CNNaffinity_variance>
0.3034296036

$$$$
[H]O[C@]1(C([H])([H])C([H])([H])[H])C([H])([H])C([H])([H])[C@@]2([H])[C@]3([H])C([H])([H])C([H])([H])C4=C([H])C(=O)C([H])([H])C([H])([H])[C@]4(C([H])([H])[H])[C@@]3(C([H])([H])[H])C([H])([H])C([H])([H])C([H])([H])[C@@]21C([H])([H])[H]


 26 29  0  0  0  0  0  0  0  0999 V2000
   -5.3310   24.5303  -28.3774 C   0  0  0  0  0  0  0  0  0  0  0  0
   -6.1807   23.4434  -28.4866 O   0  0  0  0  0  0  0  0  0  0  0  0
   -3.8991   24.0526  -28.4440 C   0  0  0  0  0  0  0  0  0  0  0  0
   -3.4255   23.8446  -27.0219 C   0  0  0  0  0  0  0  0  0  0  0  0
   -4.7679   23.8197  -26.2688 C   0  0  0  0  0  0  0  0  0  0  0  0
   -4.6105   23.8928  -24.8208 C   0  0  0  0  0  0  0  0  0  0  0  0
   -3.2543   23.3473  -24.4059 C   0  0  0  0  0  0  0  0  0  0  0  0
   -2.9723   24.0425  -23.0625 C   0  0  0  0  0  0  0  0  0  0  0  0
   -3.9796   23.4225  -22.1482 C   0  0  0  0  0  0  0  0  0  0  0  0
   -3.5496   23.0085  -20.9841 C   0  0  0  0  0  0  0  0  0  0  0  0
   -4.3828   22.3713  -19.9447 C   0  0  0  0  0  0  0  0  0  0  0  0
   -4.0034   22.1454  -18.7922 O   0  0  0  0  0  0  0  0  0  0  0  0
   -5.7505   22.0039  -20.3761 C   0  0  0  0  0  0  0  0  0  0  0  0
   -5.7627   21.8895  -21.9075 C   0  0  0  0  0  0  0  0  0  0  0  0
   -5.3981   23.2634  -22.5073 C   0  0  0  0  0  0  0  0  0  0  0  0
   -6.2687   24.2316  -21.7187 C   0  0  0  0  0  0  0  0  0  0  0  0
   -5.7073   23.3444  -23.9694 C   0  0  0  0  0  0  0  0  0  0  0  0
   -6.2447   22.0089  -24.3883 C   0  0  0  0  0  0  0  0  0  0  0  0
   -6.8677   24.3393  -24.1991 C   0  0  0  0  0  0  0  0  0  0  0  0
   -7.4052   24.2978  -25.5874 C   0  0  0  0  0  0  0  0  0  0  0  0
   -6.7656   25.3501  -26.4870 C   0  0  0  0  0  0  0  0  0  0  0  0
   -5.3999   25.0220  -26.9433 C   0  0  0  0  0  0  0  0  0  0  0  0
   -4.5425   26.2613  -26.8693 C   0  0  0  0  0  0  0  0  0  0  0  0
   -7.0936   23.7174  -28.7074 H   0  0  0  0  0  0  0  0  0  0  0  0
   -4.4838   25.6345  -30.4052 C   0  0  0  0  0  0  0  0  0  0  0  0
   -5.6248   25.5956  -29.3830 C   0  0  0  0  0  0  0  0  0  0  0  0
 25 26  1  0  0  0
 26  1  1  0  0  0
  1  2  1  0  0  0
  1  3  1  0  0  0
  3  4  1  0  0  0
  4  5  1  0  0  0
  5  6  1  0  0  0
  6  7  1  0  0  0
  7  8  1  0  0  0
  8  9  1  0  0  0
  9 10  2  0  0  0
 10 11  1  0  0  0
 11 12  2  0  0  0
 11 13  1  0  0  0
 13 14  1  0  0  0
 14 15  1  0  0  0
 15 16  1  0  0  0
 15 17  1  0  0  0
 17 18  1  0  0  0
 17 19  1  0  0  0
 19 20  1  0  0  0
 20 21  1  0  0  0
 21 22  1  0  0  0
 22 23  1  0  0  0
 22  1  1  0  0  0
 22  5  1  0  0  0
 17  6  1  0  0  0
 15  9  1  0  0  0
  2 24  1  0  0  0
M  END
> <minimizedAffinity>
-9.22339

> <CNNscore>
0.2806818783

> <CNNaffinity>
6.3739290237

> <CNN_VS>
1.7890464067

> <CNNaffinity_variance>
0.0766352266

$$$$
[H]O[C@]1(C([H])([H])C([H])([H])[H])C([H])([H])C([H])([H])[C@@]2([H])[C@]3([H])C([H])([H])C([H])([H])C4=C([H])C(=O)C([H])([H])C([H])([H])[C@]4(C([H])([H])[H])[C@@]3(C([H])([H])[H])C([H])([H])C([H])([H])C([H])([H])[C@@]21C([H])([H])[H]


 26 29  0  0  0  0  0  0  0  0999 V2000
   -6.2149   24.9803  -21.7213 C   0  0  0  0  0  0  0  0  0  0  0  0
   -4.8770   25.2984  -21.5666 O   0  0  0  0  0  0  0  0  0  0  0  0
   -7.0290   25.7370  -20.6978 C   0  0  0  0  0  0  0  0  0  0  0  0
   -7.2004   24.8315  -19.4975 C   0  0  0  0  0  0  0  0  0  0  0  0
   -6.1081   23.7809  -19.7672 C   0  0  0  0  0  0  0  0  0  0  0  0
   -6.2095   22.6165  -18.8950 C   0  0  0  0  0  0  0  0  0  0  0  0
   -6.9001   22.9867  -17.5931 C   0  0  0  0  0  0  0  0  0  0  0  0
   -7.4943   21.6561  -17.0992 C   0  0  0  0  0  0  0  0  0  0  0  0
   -6.2805   20.8659  -16.7288 C   0  0  0  0  0  0  0  0  0  0  0  0
   -6.3003   20.2537  -15.5729 C   0  0  0  0  0  0  0  0  0  0  0  0
   -5.2050   19.4274  -15.0267 C   0  0  0  0  0  0  0  0  0  0  0  0
   -5.3044   18.7192  -14.0208 O   0  0  0  0  0  0  0  0  0  0  0  0
   -3.9323   19.4970  -15.7796 C   0  0  0  0  0  0  0  0  0  0  0  0
   -3.9214   20.7974  -16.5965 C   0  0  0  0  0  0  0  0  0  0  0  0
   -5.0960   20.7613  -17.5962 C   0  0  0  0  0  0  0  0  0  0  0  0
   -4.9927   19.3709  -18.2073 C   0  0  0  0  0  0  0  0  0  0  0  0
   -4.9742   21.8140  -18.6530 C   0  0  0  0  0  0  0  0  0  0  0  0
   -3.7366   22.6064  -18.3556 C   0  0  0  0  0  0  0  0  0  0  0  0
   -4.7097   21.1460  -20.0215 C   0  0  0  0  0  0  0  0  0  0  0  0
   -4.3303   22.1201  -21.0822 C   0  0  0  0  0  0  0  0  0  0  0  0
   -5.5298   22.5721  -21.9084 C   0  0  0  0  0  0  0  0  0  0  0  0
   -6.4046   23.5545  -21.2371 C   0  0  0  0  0  0  0  0  0  0  0  0
   -7.8460   23.1958  -21.5021 C   0  0  0  0  0  0  0  0  0  0  0  0
   -4.3509   25.0453  -22.3517 H   0  0  0  0  0  0  0  0  0  0  0  0
   -5.5132   25.6003  -23.9954 C   0  0  0  0  0  0  0  0  0  0  0  0
   -6.7031   25.2015  -23.1159 C   0  0  0  0  0  0  0  0  0  0  0  0
 25 26  1  0  0  0
 26  1  1  0  0  0
  1  2  1  0  0  0
  1  3  1  0  0  0
  3  4  1  0  0  0
  4  5  1  0  0  0
  5  6  1  0  0  0
  6  7  1  0  0  0
  7  8  1  0  0  0
  8  9  1  0  0  0
  9 10  2  0  0  0
 10 11  1  0  0  0
 11 12  2  0  0  0
 11 13  1  0  0  0
 13 14  1  0  0  0
 14 15  1  0  0  0
 15 16  1  0  0  0
 15 17  1  0  0  0
 17 18  1  0  0  0
 17 19  1  0  0  0
 19 20  1  0  0  0
 20 21  1  0  0  0
 21 22  1  0  0  0
 22 23  1  0  0  0
 22  1  1  0  0  0
 22  5  1  0  0  0
 17  6  1  0  0  0
 15  9  1  0  0  0
  2 24  1  0  0  0
M  END
> <minimizedAffinity>
-5.24878

> <CNNscore>
0.2764211595

> <CNNaffinity>
5.1151857376

> <CNN_VS>
1.4139455557

> <CNNaffinity_variance>
0.0156591721

$$$$
[H]N=C(N([H])[H])N([H])C([H])([H])C([H])([H])C([H])([H])[C@@]([H])(C(=O)c1nc([H])c([H])s1)N([H])C(=O)[C@@]([H])(N([H])C(=O)[C@@]1([H])N(C(=O)[C@]([H])(N([H])C(=O)OC([H])([H])c2c([H])c([H])c([H])c([H])c2[H])C([H])([H])c2c([H])c([H])c([H])c([H])c2[H])C([H])([H])C([H])([H])C1([H])[H])C([H])([H])C([H])([H])C([H])([H])N([H])C(=N[H])N([H])[H]


 66 69  0  0  0  0  0  0  0  0999 V2000
   -9.0098   23.5967  -20.1525 C   0  0  0  0  0  0  0  0  0  0  0  0
   -7.8209   23.7096  -20.8834 N   0  0  0  0  0  0  0  0  0  0  0  0
   -7.4246   22.5975  -21.6965 C   0  0  0  0  0  0  0  0  0  0  0  0
   -8.2255   21.6075  -21.6690 O   0  0  0  0  0  0  0  0  0  0  0  0
   -7.2058   24.5698  -20.8614 H   0  0  0  0  0  0  0  0  0  0  0  0
   -6.2413   22.4910  -22.5122 C   0  0  0  0  0  0  0  0  0  0  0  0
   -5.2445   21.4944  -21.8258 C   0  0  0  0  0  0  0  0  0  0  0  0
   -4.6504   22.3015  -20.6885 C   0  0  0  0  0  0  0  0  0  0  0  0
   -5.0384   23.7329  -21.0248 C   0  0  0  0  0  0  0  0  0  0  0  0
   -5.3758   23.6596  -22.4440 N   0  0  0  0  0  0  0  0  0  0  0  0
   -4.8558   24.4168  -23.4736 C   0  0  0  0  0  0  0  0  0  0  0  0
   -4.2503   25.4722  -23.2523 O   0  0  0  0  0  0  0  0  0  0  0  0
   -4.9860   23.9788  -24.9200 C   0  0  0  0  0  0  0  0  0  0  0  0
   -3.6150   23.6088  -25.2724 N   0  0  0  0  0  0  0  0  0  0  0  0
   -3.2303   22.2222  -25.2987 C   0  0  0  0  0  0  0  0  0  0  0  0
   -4.0623   21.3321  -25.0281 O   0  0  0  0  0  0  0  0  0  0  0  0
   -2.9143   24.3137  -25.4958 H   0  0  0  0  0  0  0  0  0  0  0  0
   -1.9397   21.8415  -25.6100 O   0  0  0  0  0  0  0  0  0  0  0  0
   -0.8267   22.2069  -24.8648 C   0  0  0  0  0  0  0  0  0  0  0  0
   -0.8829   22.1852  -23.4235 C   0  0  0  0  0  0  0  0  0  0  0  0
   -0.5507   21.0147  -22.7700 C   0  0  0  0  0  0  0  0  0  0  0  0
   -0.5911   20.8911  -21.3792 C   0  0  0  0  0  0  0  0  0  0  0  0
   -0.9761   21.9744  -20.6277 C   0  0  0  0  0  0  0  0  0  0  0  0
   -1.3125   23.1565  -21.3065 C   0  0  0  0  0  0  0  0  0  0  0  0
   -1.2662   23.2578  -22.6726 C   0  0  0  0  0  0  0  0  0  0  0  0
   -5.5788   24.9706  -25.8149 C   0  0  0  0  0  0  0  0  0  0  0  0
   -5.4334   24.6978  -27.2764 C   0  0  0  0  0  0  0  0  0  0  0  0
   -4.8965   25.6736  -28.0684 C   0  0  0  0  0  0  0  0  0  0  0  0
   -4.7379   25.4985  -29.4104 C   0  0  0  0  0  0  0  0  0  0  0  0
   -5.1261   24.2954  -30.0360 C   0  0  0  0  0  0  0  0  0  0  0  0
   -5.6634   23.3397  -29.1993 C   0  0  0  0  0  0  0  0  0  0  0  0
   -5.8222   23.5177  -27.8392 C   0  0  0  0  0  0  0  0  0  0  0  0
   -9.2537   22.2995  -19.4606 C   0  0  0  0  0  0  0  0  0  0  0  0
  -10.4122   21.8351  -19.4320 O   0  0  0  0  0  0  0  0  0  0  0  0
   -8.1952   21.6291  -18.8645 N   0  0  0  0  0  0  0  0  0  0  0  0
   -7.2392   22.1253  -18.9895 H   0  0  0  0  0  0  0  0  0  0  0  0
   -8.1306   20.3640  -18.0918 C   0  0  0  0  0  0  0  0  0  0  0  0
   -8.7100   20.7044  -16.8010 C   0  0  0  0  0  0  0  0  0  0  0  0
   -8.2687   21.7091  -16.1322 O   0  0  0  0  0  0  0  0  0  0  0  0
   -9.8120   19.9840  -16.1788 C   0  0  0  0  0  0  0  0  0  0  0  0
  -11.0653   19.7951  -16.6039 N   0  0  0  0  0  0  0  0  0  0  0  0
  -11.8943   19.1231  -15.8796 C   0  0  0  0  0  0  0  0  0  0  0  0
  -11.4661   18.6194  -14.6872 C   0  0  0  0  0  0  0  0  0  0  0  0
   -9.8409   19.1516  -14.6651 S   0  0  0  0  0  0  0  0  0  0  0  0
   -6.7330   19.8873  -18.1786 C   0  0  0  0  0  0  0  0  0  0  0  0
   -5.6357   20.0209  -17.2670 C   0  0  0  0  0  0  0  0  0  0  0  0
   -4.8924   21.2297  -16.9312 C   0  0  0  0  0  0  0  0  0  0  0  0
   -5.2884   22.5483  -17.1048 N   0  0  0  0  0  0  0  0  0  0  0  0
   -5.4132   22.8575  -18.1419 H   0  0  0  0  0  0  0  0  0  0  0  0
   -5.5634   23.5804  -16.1973 C   0  0  0  0  0  0  0  0  0  0  0  0
   -4.7138   23.8031  -15.0537 N   0  0  0  0  0  0  0  0  0  0  0  0
   -6.5636   24.3528  -16.3056 N   0  0  0  0  0  0  0  0  0  0  0  0
   -4.8476   24.5947  -14.4037 H   0  0  0  0  0  0  0  0  0  0  0  0
   -3.9284   23.1149  -14.9057 H   0  0  0  0  0  0  0  0  0  0  0  0
   -7.2546   24.2536  -17.0944 H   0  0  0  0  0  0  0  0  0  0  0  0
  -10.2012   24.0389  -20.9934 C   0  0  0  0  0  0  0  0  0  0  0  0
  -10.7510   25.3535  -20.4905 C   0  0  0  0  0  0  0  0  0  0  0  0
  -10.8758   26.3693  -21.5615 C   0  0  0  0  0  0  0  0  0  0  0  0
  -11.4464   27.6083  -21.1194 N   0  0  0  0  0  0  0  0  0  0  0  0
  -11.8269   27.8083  -20.2041 H   0  0  0  0  0  0  0  0  0  0  0  0
  -11.7009   28.1198  -23.4532 N   0  0  0  0  0  0  0  0  0  0  0  0
  -11.4634   28.6693  -22.1143 C   0  0  0  0  0  0  0  0  0  0  0  0
  -11.2666   29.8392  -21.9088 N   0  0  0  0  0  0  0  0  0  0  0  0
  -11.6866   28.7836  -24.2396 H   0  0  0  0  0  0  0  0  0  0  0  0
  -11.8824   27.1259  -23.6159 H   0  0  0  0  0  0  0  0  0  0  0  0
  -11.1192   30.7121  -21.7502 H   0  0  0  0  0  0  0  0  0  0  0  0
 61 62  1  0  0  0
 62 63  2  0  0  0
 62 59  1  0  0  0
 59 58  1  0  0  0
 58 57  1  0  0  0
 57 56  1  0  0  0
 56  1  1  0  0  0
  1  2  1  0  0  0
  2  3  1  0  0  0
  3  4  2  0  0  0
  3  6  1  0  0  0
  6  7  1  0  0  0
  7  8  1  0  0  0
  8  9  1  0  0  0
  9 10  1  0  0  0
 10 11  1  0  0  0
 11 12  2  0  0  0
 11 13  1  0  0  0
 13 26  1  0  0  0
 26 27  1  0  0  0
 27 28  2  0  0  0
 28 29  1  0  0  0
 29 30  2  0  0  0
 30 31  1  0  0  0
 31 32  2  0  0  0
 13 14  1  0  0  0
 14 15  1  0  0  0
 15 16  2  0  0  0
 15 18  1  0  0  0
 18 19  1  0  0  0
 19 20  1  0  0  0
 20 21  2  0  0  0
 21 22  1  0  0  0
 22 23  2  0  0  0
 23 24  1  0  0  0
 24 25  2  0  0  0
  1 33  1  0  0  0
 33 34  2  0  0  0
 33 35  1  0  0  0
 35 37  1  0  0  0
 37 45  1  0  0  0
 45 46  1  0  0  0
 46 47  1  0  0  0
 47 48  1  0  0  0
 48 50  1  0  0  0
 50 51  1  0  0  0
 50 52  2  0  0  0
 37 38  1  0  0  0
 38 39  2  0  0  0
 38 40  1  0  0  0
 40 41  2  0  0  0
 41 42  1  0  0  0
 42 43  2  0  0  0
 43 44  1  0  0  0
 10  6  1  0  0  0
 32 27  1  0  0  0
 25 20  1  0  0  0
 44 40  1  0  0  0
 61 64  1  0  0  0
 61 65  1  0  0  0
 63 66  1  0  0  0
 59 60  1  0  0  0
  2  5  1  0  0  0
 14 17  1  0  0  0
 35 36  1  0  0  0
 48 49  1  0  0  0
 51 53  1  0  0  0
 51 54  1  0  0  0
 52 55  1  0  0  0
M  END
> <minimizedAffinity>
-7.46043

> <CNNscore>
0.1047957838

> <CNNaffinity>
6.7920455933

> <CNN_VS>
0.7117777467

> <CNNaffinity_variance>
0.7113863230

$$$$
[H]N=C(N([H])[H])N([H])C([H])([H])C([H])([H])C([H])([H])[C@@]([H])(C(=O)c1nc([H])c([H])s1)N([H])C(=O)[C@@]([H])(N([H])C(=O)[C@@]1([H])N(C(=O)[C@]([H])(N([H])C(=O)OC([H])([H])c2c([H])c([H])c([H])c([H])c2[H])C([H])([H])c2c([H])c([H])c([H])c([H])c2[H])C([H])([H])C([H])([H])C1([H])[H])C([H])([H])C([H])([H])C([H])([H])N([H])C(=N[H])N([H])[H]


 66 69  0  0  0  0  0  0  0  0999 V2000
   -0.9037   21.5857  -19.3128 C   0  0  0  0  0  0  0  0  0  0  0  0
   -1.6309   21.9226  -20.4609 N   0  0  0  0  0  0  0  0  0  0  0  0
   -2.8636   22.6343  -20.2899 C   0  0  0  0  0  0  0  0  0  0  0  0
   -3.1625   22.8954  -19.0796 O   0  0  0  0  0  0  0  0  0  0  0  0
   -1.3162   21.6761  -21.4402 H   0  0  0  0  0  0  0  0  0  0  0  0
   -3.7729   23.0644  -21.3218 C   0  0  0  0  0  0  0  0  0  0  0  0
   -5.0944   23.5728  -20.6488 C   0  0  0  0  0  0  0  0  0  0  0  0
   -5.8106   22.2983  -20.2480 C   0  0  0  0  0  0  0  0  0  0  0  0
   -5.0741   21.2157  -21.0213 C   0  0  0  0  0  0  0  0  0  0  0  0
   -4.3791   21.9677  -22.0628 N   0  0  0  0  0  0  0  0  0  0  0  0
   -4.4370   21.7681  -23.4268 C   0  0  0  0  0  0  0  0  0  0  0  0
   -4.8628   20.7093  -23.9036 O   0  0  0  0  0  0  0  0  0  0  0  0
   -4.0004   22.8449  -24.4019 C   0  0  0  0  0  0  0  0  0  0  0  0
   -5.1566   23.7408  -24.4362 N   0  0  0  0  0  0  0  0  0  0  0  0
   -5.0018   25.1258  -24.0771 C   0  0  0  0  0  0  0  0  0  0  0  0
   -3.8843   25.5690  -23.7420 O   0  0  0  0  0  0  0  0  0  0  0  0
   -6.0811   23.4067  -24.7037 H   0  0  0  0  0  0  0  0  0  0  0  0
   -6.0769   25.9929  -24.0822 O   0  0  0  0  0  0  0  0  0  0  0  0
   -7.4009   25.5802  -24.0165 C   0  0  0  0  0  0  0  0  0  0  0  0
   -8.1020   25.5983  -22.7559 C   0  0  0  0  0  0  0  0  0  0  0  0
   -9.4279   25.2124  -22.7352 C   0  0  0  0  0  0  0  0  0  0  0  0
  -10.1943   25.2127  -21.5673 C   0  0  0  0  0  0  0  0  0  0  0  0
   -9.6099   25.6121  -20.3903 C   0  0  0  0  0  0  0  0  0  0  0  0
   -8.2619   26.0032  -20.4278 C   0  0  0  0  0  0  0  0  0  0  0  0
   -7.5266   25.9956  -21.5844 C   0  0  0  0  0  0  0  0  0  0  0  0
   -3.5913   22.3577  -25.7177 C   0  0  0  0  0  0  0  0  0  0  0  0
   -2.1201   22.3381  -25.9759 C   0  0  0  0  0  0  0  0  0  0  0  0
   -1.6786   22.6267  -27.2366 C   0  0  0  0  0  0  0  0  0  0  0  0
   -0.3520   22.6233  -27.5479 C   0  0  0  0  0  0  0  0  0  0  0  0
    0.6211   22.3181  -26.5736 C   0  0  0  0  0  0  0  0  0  0  0  0
    0.1309   22.0324  -25.3165 C   0  0  0  0  0  0  0  0  0  0  0  0
   -1.2137   22.0378  -25.0019 C   0  0  0  0  0  0  0  0  0  0  0  0
    0.0934   22.5831  -18.8310 C   0  0  0  0  0  0  0  0  0  0  0  0
    0.0681   23.7408  -19.2975 O   0  0  0  0  0  0  0  0  0  0  0  0
    1.0277   22.2135  -17.8742 N   0  0  0  0  0  0  0  0  0  0  0  0
    0.9195   21.1903  -17.5318 H   0  0  0  0  0  0  0  0  0  0  0  0
    2.1419   22.9569  -17.2358 C   0  0  0  0  0  0  0  0  0  0  0  0
    3.3371   22.4253  -17.8735 C   0  0  0  0  0  0  0  0  0  0  0  0
    3.3381   21.2416  -18.3738 O   0  0  0  0  0  0  0  0  0  0  0  0
    4.5866   23.1588  -18.0190 C   0  0  0  0  0  0  0  0  0  0  0  0
    4.9064   24.3984  -17.6339 N   0  0  0  0  0  0  0  0  0  0  0  0
    6.0858   24.8613  -17.8753 C   0  0  0  0  0  0  0  0  0  0  0  0
    6.9832   24.0664  -18.5245 C   0  0  0  0  0  0  0  0  0  0  0  0
    6.0597   22.6467  -18.7625 S   0  0  0  0  0  0  0  0  0  0  0  0
    1.9554   22.8238  -15.7744 C   0  0  0  0  0  0  0  0  0  0  0  0
    1.5987   21.6923  -14.9712 C   0  0  0  0  0  0  0  0  0  0  0  0
    0.2992   21.3832  -14.3862 C   0  0  0  0  0  0  0  0  0  0  0  0
   -0.4483   22.1614  -13.5136 N   0  0  0  0  0  0  0  0  0  0  0  0
   -0.4275   23.2310  -13.7194 H   0  0  0  0  0  0  0  0  0  0  0  0
   -1.2374   21.8415  -12.4003 C   0  0  0  0  0  0  0  0  0  0  0  0
   -1.8629   20.5473  -12.2869 N   0  0  0  0  0  0  0  0  0  0  0  0
   -1.4666   22.6546  -11.4542 N   0  0  0  0  0  0  0  0  0  0  0  0
   -2.3938   20.2545  -11.4506 H   0  0  0  0  0  0  0  0  0  0  0  0
   -1.7501   19.8930  -13.1064 H   0  0  0  0  0  0  0  0  0  0  0  0
   -1.0730   23.6316  -11.4587 H   0  0  0  0  0  0  0  0  0  0  0  0
   -0.3098   20.1884  -19.4442 C   0  0  0  0  0  0  0  0  0  0  0  0
    0.3276   20.0047  -20.8017 C   0  0  0  0  0  0  0  0  0  0  0  0
    1.7229   19.5145  -20.7177 C   0  0  0  0  0  0  0  0  0  0  0  0
    2.4247   19.5507  -21.9677 N   0  0  0  0  0  0  0  0  0  0  0  0
    2.3955   18.8538  -22.6998 H   0  0  0  0  0  0  0  0  0  0  0  0
    3.3479   21.0502  -23.6023 N   0  0  0  0  0  0  0  0  0  0  0  0
    3.2555   20.7266  -22.1748 C   0  0  0  0  0  0  0  0  0  0  0  0
    3.8390   21.3436  -21.3213 N   0  0  0  0  0  0  0  0  0  0  0  0
    3.9519   21.8416  -23.8635 H   0  0  0  0  0  0  0  0  0  0  0  0
    2.8359   20.5291  -24.3190 H   0  0  0  0  0  0  0  0  0  0  0  0
    4.2728   21.8014  -20.6802 H   0  0  0  0  0  0  0  0  0  0  0  0
 61 62  1  0  0  0
 62 63  2  0  0  0
 62 59  1  0  0  0
 59 58  1  0  0  0
 58 57  1  0  0  0
 57 56  1  0  0  0
 56  1  1  0  0  0
  1  2  1  0  0  0
  2  3  1  0  0  0
  3  4  2  0  0  0
  3  6  1  0  0  0
  6  7  1  0  0  0
  7  8  1  0  0  0
  8  9  1  0  0  0
  9 10  1  0  0  0
 10 11  1  0  0  0
 11 12  2  0  0  0
 11 13  1  0  0  0
 13 26  1  0  0  0
 26 27  1  0  0  0
 27 28  2  0  0  0
 28 29  1  0  0  0
 29 30  2  0  0  0
 30 31  1  0  0  0
 31 32  2  0  0  0
 13 14  1  0  0  0
 14 15  1  0  0  0
 15 16  2  0  0  0
 15 18  1  0  0  0
 18 19  1  0  0  0
 19 20  1  0  0  0
 20 21  2  0  0  0
 21 22  1  0  0  0
 22 23  2  0  0  0
 23 24  1  0  0  0
 24 25  2  0  0  0
  1 33  1  0  0  0
 33 34  2  0  0  0
 33 35  1  0  0  0
 35 37  1  0  0  0
 37 45  1  0  0  0
 45 46  1  0  0  0
 46 47  1  0  0  0
 47 48  1  0  0  0
 48 50  1  0  0  0
 50 51  1  0  0  0
 50 52  2  0  0  0
 37 38  1  0  0  0
 38 39  2  0  0  0
 38 40  1  0  0  0
 40 41  2  0  0  0
 41 42  1  0  0  0
 42 43  2  0  0  0
 43 44  1  0  0  0
 10  6  1  0  0  0
 32 27  1  0  0  0
 25 20  1  0  0  0
 44 40  1  0  0  0
 61 64  1  0  0  0
 61 65  1  0  0  0
 63 66  1  0  0  0
 59 60  1  0  0  0
  2  5  1  0  0  0
 14 17  1  0  0  0
 35 36  1  0  0  0
 48 49  1  0  0  0
 51 53  1  0  0  0
 51 54  1  0  0  0
 52 55  1  0  0  0
M  END
> <minimizedAffinity>
-7.71500

> <CNNscore>
0.1021614745

> <CNNaffinity>
6.4376144409

> <CNN_VS>
0.6576761603

> <CNNaffinity_variance>
1.2939358950

$$$$
[H]N=C(N([H])[H])N([H])C([H])([H])C([H])([H])C([H])([H])[C@@]([H])(C(=O)c1nc([H])c([H])s1)N([H])C(=O)[C@@]([H])(N([H])C(=O)[C@@]1([H])N(C(=O)[C@]([H])(N([H])C(=O)OC([H])([H])c2c([H])c([H])c([H])c([H])c2[H])C([H])([H])c2c([H])c([H])c([H])c([H])c2[H])C([H])([H])C([H])([H])C1([H])[H])C([H])([H])C([H])([H])C([H])([H])N([H])C(=N[H])N([H])[H]


 66 69  0  0  0  0  0  0  0  0999 V2000
   -3.8183   21.7706  -19.7325 C   0  0  0  0  0  0  0  0  0  0  0  0
   -3.9389   22.8353  -20.6339 N   0  0  0  0  0  0  0  0  0  0  0  0
   -3.9698   22.5292  -22.0341 C   0  0  0  0  0  0  0  0  0  0  0  0
   -3.8910   21.2878  -22.3082 O   0  0  0  0  0  0  0  0  0  0  0  0
   -4.0053   23.8467  -20.3316 H   0  0  0  0  0  0  0  0  0  0  0  0
   -4.0717   23.4610  -23.1287 C   0  0  0  0  0  0  0  0  0  0  0  0
   -4.3242   24.8950  -22.5475 C   0  0  0  0  0  0  0  0  0  0  0  0
   -5.7862   24.8717  -22.1475 C   0  0  0  0  0  0  0  0  0  0  0  0
   -6.3279   23.6329  -22.8435 C   0  0  0  0  0  0  0  0  0  0  0  0
   -5.3222   23.3623  -23.8675 N   0  0  0  0  0  0  0  0  0  0  0  0
   -5.5200   23.2202  -25.2256 C   0  0  0  0  0  0  0  0  0  0  0  0
   -6.6450   23.0043  -25.6917 O   0  0  0  0  0  0  0  0  0  0  0  0
   -4.3709   23.3425  -26.2082 C   0  0  0  0  0  0  0  0  0  0  0  0
   -3.2139   22.9421  -25.4071 N   0  0  0  0  0  0  0  0  0  0  0  0
   -2.1193   22.2432  -26.0271 C   0  0  0  0  0  0  0  0  0  0  0  0
   -2.1487   21.9817  -27.2471 O   0  0  0  0  0  0  0  0  0  0  0  0
   -3.1633   23.1404  -24.4091 H   0  0  0  0  0  0  0  0  0  0  0  0
   -1.0212   21.8361  -25.2950 O   0  0  0  0  0  0  0  0  0  0  0  0
   -0.7984   22.1974  -23.9731 C   0  0  0  0  0  0  0  0  0  0  0  0
    0.2561   21.5649  -23.2188 C   0  0  0  0  0  0  0  0  0  0  0  0
    1.5161   21.4963  -23.7801 C   0  0  0  0  0  0  0  0  0  0  0  0
    2.5960   20.8890  -23.1349 C   0  0  0  0  0  0  0  0  0  0  0  0
    2.4014   20.3368  -21.8924 C   0  0  0  0  0  0  0  0  0  0  0  0
    1.1147   20.4129  -21.3358 C   0  0  0  0  0  0  0  0  0  0  0  0
    0.0677   21.0135  -21.9852 C   0  0  0  0  0  0  0  0  0  0  0  0
   -4.2302   24.6558  -26.8339 C   0  0  0  0  0  0  0  0  0  0  0  0
   -4.6710   24.7487  -28.2582 C   0  0  0  0  0  0  0  0  0  0  0  0
   -5.1228   23.6148  -28.8729 C   0  0  0  0  0  0  0  0  0  0  0  0
   -5.5364   23.6216  -30.1712 C   0  0  0  0  0  0  0  0  0  0  0  0
   -5.5119   24.8076  -30.9342 C   0  0  0  0  0  0  0  0  0  0  0  0
   -5.0481   25.9265  -30.2745 C   0  0  0  0  0  0  0  0  0  0  0  0
   -4.6308   25.9186  -28.9583 C   0  0  0  0  0  0  0  0  0  0  0  0
   -5.0713   21.0486  -19.3725 C   0  0  0  0  0  0  0  0  0  0  0  0
   -5.0042   19.8499  -19.0298 O   0  0  0  0  0  0  0  0  0  0  0  0
   -6.2868   21.7160  -19.4200 N   0  0  0  0  0  0  0  0  0  0  0  0
   -6.2003   22.7593  -19.7026 H   0  0  0  0  0  0  0  0  0  0  0  0
   -7.6764   21.2675  -19.1562 C   0  0  0  0  0  0  0  0  0  0  0  0
   -8.4518   21.8523  -20.2400 C   0  0  0  0  0  0  0  0  0  0  0  0
   -8.6274   21.2083  -21.3380 O   0  0  0  0  0  0  0  0  0  0  0  0
   -9.0938   23.1580  -20.1800 C   0  0  0  0  0  0  0  0  0  0  0  0
   -8.5576   24.3823  -20.2071 N   0  0  0  0  0  0  0  0  0  0  0  0
   -9.3209   25.4191  -20.1303 C   0  0  0  0  0  0  0  0  0  0  0  0
  -10.6676   25.2366  -20.0210 C   0  0  0  0  0  0  0  0  0  0  0  0
  -10.7748   23.5298  -20.0362 S   0  0  0  0  0  0  0  0  0  0  0  0
   -7.9747   21.6218  -17.7513 C   0  0  0  0  0  0  0  0  0  0  0  0
   -8.4132   20.8155  -16.6511 C   0  0  0  0  0  0  0  0  0  0  0  0
   -8.6018   21.2206  -15.2631 C   0  0  0  0  0  0  0  0  0  0  0  0
   -9.3205   22.3065  -14.7835 N   0  0  0  0  0  0  0  0  0  0  0  0
  -10.1980   22.5724  -15.3717 H   0  0  0  0  0  0  0  0  0  0  0  0
   -9.1396   23.1452  -13.6752 C   0  0  0  0  0  0  0  0  0  0  0  0
   -9.4572   22.6886  -12.3448 N   0  0  0  0  0  0  0  0  0  0  0  0
   -8.7171   24.3376  -13.7676 N   0  0  0  0  0  0  0  0  0  0  0  0
   -9.2728   23.2547  -11.5007 H   0  0  0  0  0  0  0  0  0  0  0  0
   -9.8892   21.7299  -12.2635 H   0  0  0  0  0  0  0  0  0  0  0  0
   -8.4809   24.7687  -14.6992 H   0  0  0  0  0  0  0  0  0  0  0  0
   -3.0193   22.1935  -18.5058 C   0  0  0  0  0  0  0  0  0  0  0  0
   -3.7140   21.7529  -17.2383 C   0  0  0  0  0  0  0  0  0  0  0  0
   -4.0307   22.8841  -16.3359 C   0  0  0  0  0  0  0  0  0  0  0  0
   -5.4065   23.2864  -16.3740 N   0  0  0  0  0  0  0  0  0  0  0  0
   -6.1970   22.7798  -15.9986 H   0  0  0  0  0  0  0  0  0  0  0  0
   -5.0302   25.6576  -16.2801 N   0  0  0  0  0  0  0  0  0  0  0  0
   -5.6584   24.5621  -17.0259 C   0  0  0  0  0  0  0  0  0  0  0  0
   -6.3244   24.7359  -18.0138 N   0  0  0  0  0  0  0  0  0  0  0  0
   -5.1863   26.6120  -16.6324 H   0  0  0  0  0  0  0  0  0  0  0  0
   -4.4533   25.4983  -15.4501 H   0  0  0  0  0  0  0  0  0  0  0  0
   -6.8226   24.8606  -18.7521 H   0  0  0  0  0  0  0  0  0  0  0  0
 61 62  1  0  0  0
 62 63  2  0  0  0
 62 59  1  0  0  0
 59 58  1  0  0  0
 58 57  1  0  0  0
 57 56  1  0  0  0
 56  1  1  0  0  0
  1  2  1  0  0  0
  2  3  1  0  0  0
  3  4  2  0  0  0
  3  6  1  0  0  0
  6  7  1  0  0  0
  7  8  1  0  0  0
  8  9  1  0  0  0
  9 10  1  0  0  0
 10 11  1  0  0  0
 11 12  2  0  0  0
 11 13  1  0  0  0
 13 26  1  0  0  0
 26 27  1  0  0  0
 27 28  2  0  0  0
 28 29  1  0  0  0
 29 30  2  0  0  0
 30 31  1  0  0  0
 31 32  2  0  0  0
 13 14  1  0  0  0
 14 15  1  0  0  0
 15 16  2  0  0  0
 15 18  1  0  0  0
 18 19  1  0  0  0
 19 20  1  0  0  0
 20 21  2  0  0  0
 21 22  1  0  0  0
 22 23  2  0  0  0
 23 24  1  0  0  0
 24 25  2  0  0  0
  1 33  1  0  0  0
 33 34  2  0  0  0
 33 35  1  0  0  0
 35 37  1  0  0  0
 37 45  1  0  0  0
 45 46  1  0  0  0
 46 47  1  0  0  0
 47 48  1  0  0  0
 48 50  1  0  0  0
 50 51  1  0  0  0
 50 52  2  0  0  0
 37 38  1  0  0  0
 38 39  2  0  0  0
 38 40  1  0  0  0
 40 41  2  0  0  0
 41 42  1  0  0  0
 42 43  2  0  0  0
 43 44  1  0  0  0
 10  6  1  0  0  0
 32 27  1  0  0  0
 25 20  1  0  0  0
 44 40  1  0  0  0
 61 64  1  0  0  0
 61 65  1  0  0  0
 63 66  1  0  0  0
 59 60  1  0  0  0
  2  5  1  0  0  0
 14 17  1  0  0  0
 35 36  1  0  0  0
 48 49  1  0  0  0
 51 53  1  0  0  0
 51 54  1  0  0  0
 52 55  1  0  0  0
M  END
> <minimizedAffinity>
-7.93545

> <CNNscore>
0.0913218409

> <CNNaffinity>
6.7518453598

> <CNN_VS>
0.6165909767

> <CNNaffinity_variance>
0.6116956472

$$$$
[H]N=C(N([H])[H])N([H])C([H])([H])C([H])([H])C([H])([H])[C@@]([H])(C(=O)c1nc([H])c([H])s1)N([H])C(=O)[C@@]([H])(N([H])C(=O)[C@@]1([H])N(C(=O)[C@]([H])(N([H])C(=O)OC([H])([H])c2c([H])c([H])c([H])c([H])c2[H])C([H])([H])c2c([H])c([H])c([H])c([H])c2[H])C([H])([H])C([H])([H])C1([H])[H])C([H])([H])C([H])([H])C([H])([H])N([H])C(=N[H])N([H])[H]


 66 69  0  0  0  0  0  0  0  0999 V2000
   -3.0562   20.7607  -18.8360 C   0  0  0  0  0  0  0  0  0  0  0  0
   -3.5142   21.0946  -20.1164 N   0  0  0  0  0  0  0  0  0  0  0  0
   -3.8349   22.4672  -20.3778 C   0  0  0  0  0  0  0  0  0  0  0  0
   -3.6533   23.2522  -19.3913 O   0  0  0  0  0  0  0  0  0  0  0  0
   -3.6357   20.3860  -20.8922 H   0  0  0  0  0  0  0  0  0  0  0  0
   -4.3334   23.0274  -21.6084 C   0  0  0  0  0  0  0  0  0  0  0  0
   -5.3895   24.1344  -21.2664 C   0  0  0  0  0  0  0  0  0  0  0  0
   -6.6240   23.3482  -20.8719 C   0  0  0  0  0  0  0  0  0  0  0  0
   -6.3228   21.9401  -21.3608 C   0  0  0  0  0  0  0  0  0  0  0  0
   -5.2457   22.1480  -22.3251 N   0  0  0  0  0  0  0  0  0  0  0  0
   -5.2051   21.7420  -23.6432 C   0  0  0  0  0  0  0  0  0  0  0  0
   -5.9740   20.8732  -24.0716 O   0  0  0  0  0  0  0  0  0  0  0  0
   -4.2305   22.3570  -24.6295 C   0  0  0  0  0  0  0  0  0  0  0  0
   -5.1014   23.1554  -25.4925 N   0  0  0  0  0  0  0  0  0  0  0  0
   -4.9330   24.5832  -25.5577 C   0  0  0  0  0  0  0  0  0  0  0  0
   -4.0432   25.1442  -24.8861 O   0  0  0  0  0  0  0  0  0  0  0  0
   -5.8372   22.7250  -26.0503 H   0  0  0  0  0  0  0  0  0  0  0  0
   -5.7502   25.3666  -26.3489 O   0  0  0  0  0  0  0  0  0  0  0  0
   -5.3350   25.9667  -27.5300 C   0  0  0  0  0  0  0  0  0  0  0  0
   -5.4408   25.2533  -28.7794 C   0  0  0  0  0  0  0  0  0  0  0  0
   -5.5891   25.9827  -29.9426 C   0  0  0  0  0  0  0  0  0  0  0  0
   -5.7167   25.3819  -31.1973 C   0  0  0  0  0  0  0  0  0  0  0  0
   -5.6942   24.0112  -31.2819 C   0  0  0  0  0  0  0  0  0  0  0  0
   -5.5446   23.2836  -30.0905 C   0  0  0  0  0  0  0  0  0  0  0  0
   -5.4207   23.8921  -28.8687 C   0  0  0  0  0  0  0  0  0  0  0  0
   -3.3980   21.3990  -25.3543 C   0  0  0  0  0  0  0  0  0  0  0  0
   -2.1165   21.9353  -25.9036 C   0  0  0  0  0  0  0  0  0  0  0  0
   -2.1095   22.4153  -27.1831 C   0  0  0  0  0  0  0  0  0  0  0  0
   -0.9772   22.9152  -27.7530 C   0  0  0  0  0  0  0  0  0  0  0  0
    0.2383   22.9545  -27.0384 C   0  0  0  0  0  0  0  0  0  0  0  0
    0.1851   22.4593  -25.7523 C   0  0  0  0  0  0  0  0  0  0  0  0
   -0.9634   21.9545  -25.1753 C   0  0  0  0  0  0  0  0  0  0  0  0
   -1.5870   20.5689  -18.6758 C   0  0  0  0  0  0  0  0  0  0  0  0
   -1.1689   19.5623  -18.0670 O   0  0  0  0  0  0  0  0  0  0  0  0
   -0.7101   21.5048  -19.2054 N   0  0  0  0  0  0  0  0  0  0  0  0
   -1.2026   22.3124  -19.7354 H   0  0  0  0  0  0  0  0  0  0  0  0
    0.7702   21.6033  -19.1806 C   0  0  0  0  0  0  0  0  0  0  0  0
    1.0302   22.9427  -18.6745 C   0  0  0  0  0  0  0  0  0  0  0  0
    0.2704   23.9245  -19.0064 O   0  0  0  0  0  0  0  0  0  0  0  0
    2.1164   23.2816  -17.7658 C   0  0  0  0  0  0  0  0  0  0  0  0
    3.0524   24.2314  -17.8602 N   0  0  0  0  0  0  0  0  0  0  0  0
    3.9397   24.3526  -16.9321 C   0  0  0  0  0  0  0  0  0  0  0  0
    3.8997   23.4993  -15.8696 C   0  0  0  0  0  0  0  0  0  0  0  0
    2.5447   22.5347  -16.2679 S   0  0  0  0  0  0  0  0  0  0  0  0
    1.2419   21.2110  -20.5267 C   0  0  0  0  0  0  0  0  0  0  0  0
    1.2176   19.9465  -21.2000 C   0  0  0  0  0  0  0  0  0  0  0  0
    0.9799   18.6288  -20.6226 C   0  0  0  0  0  0  0  0  0  0  0  0
   -0.2066   17.9094  -20.6032 N   0  0  0  0  0  0  0  0  0  0  0  0
   -1.0299   18.3667  -21.1507 H   0  0  0  0  0  0  0  0  0  0  0  0
   -0.5645   16.6915  -20.0089 C   0  0  0  0  0  0  0  0  0  0  0  0
   -1.6874   16.6122  -19.1079 N   0  0  0  0  0  0  0  0  0  0  0  0
    0.0717   15.6111  -20.2008 N   0  0  0  0  0  0  0  0  0  0  0  0
   -2.0198   15.7205  -18.7061 H   0  0  0  0  0  0  0  0  0  0  0  0
   -2.1720   17.5192  -18.8737 H   0  0  0  0  0  0  0  0  0  0  0  0
    0.9202   15.5735  -20.8239 H   0  0  0  0  0  0  0  0  0  0  0  0
   -3.8589   19.5981  -18.2647 C   0  0  0  0  0  0  0  0  0  0  0  0
   -4.3124   19.9037  -16.8562 C   0  0  0  0  0  0  0  0  0  0  0  0
   -5.1225   21.1409  -16.7710 C   0  0  0  0  0  0  0  0  0  0  0  0
   -4.3692   22.3003  -16.3912 N   0  0  0  0  0  0  0  0  0  0  0  0
   -3.4792   22.3148  -15.9114 H   0  0  0  0  0  0  0  0  0  0  0  0
   -6.2590   23.3646  -17.4252 N   0  0  0  0  0  0  0  0  0  0  0  0
   -4.9742   23.5737  -16.7494 C   0  0  0  0  0  0  0  0  0  0  0  0
   -4.4933   24.6634  -16.5733 N   0  0  0  0  0  0  0  0  0  0  0  0
   -6.7509   24.2033  -17.7628 H   0  0  0  0  0  0  0  0  0  0  0  0
   -6.6667   22.4352  -17.5566 H   0  0  0  0  0  0  0  0  0  0  0  0
   -4.1300   25.4751  -16.4393 H   0  0  0  0  0  0  0  0  0  0  0  0
 61 62  1  0  0  0
 62 63  2  0  0  0
 62 59  1  0  0  0
 59 58  1  0  0  0
 58 57  1  0  0  0
 57 56  1  0  0  0
 56  1  1  0  0  0
  1  2  1  0  0  0
  2  3  1  0  0  0
  3  4  2  0  0  0
  3  6  1  0  0  0
  6  7  1  0  0  0
  7  8  1  0  0  0
  8  9  1  0  0  0
  9 10  1  0  0  0
 10 11  1  0  0  0
 11 12  2  0  0  0
 11 13  1  0  0  0
 13 26  1  0  0  0
 26 27  1  0  0  0
 27 28  2  0  0  0
 28 29  1  0  0  0
 29 30  2  0  0  0
 30 31  1  0  0  0
 31 32  2  0  0  0
 13 14  1  0  0  0
 14 15  1  0  0  0
 15 16  2  0  0  0
 15 18  1  0  0  0
 18 19  1  0  0  0
 19 20  1  0  0  0
 20 21  2  0  0  0
 21 22  1  0  0  0
 22 23  2  0  0  0
 23 24  1  0  0  0
 24 25  2  0  0  0
  1 33  1  0  0  0
 33 34  2  0  0  0
 33 35  1  0  0  0
 35 37  1  0  0  0
 37 45  1  0  0  0
 45 46  1  0  0  0
 46 47  1  0  0  0
 47 48  1  0  0  0
 48 50  1  0  0  0
 50 51  1  0  0  0
 50 52  2  0  0  0
 37 38  1  0  0  0
 38 39  2  0  0  0
 38 40  1  0  0  0
 40 41  2  0  0  0
 41 42  1  0  0  0
 42 43  2  0  0  0
 43 44  1  0  0  0
 10  6  1  0  0  0
 32 27  1  0  0  0
 25 20  1  0  0  0
 44 40  1  0  0  0
 61 64  1  0  0  0
 61 65  1  0  0  0
 63 66  1  0  0  0
 59 60  1  0  0  0
  2  5  1  0  0  0
 14 17  1  0  0  0
 35 36  1  0  0  0
 48 49  1  0  0  0
 51 53  1  0  0  0
 51 54  1  0  0  0
 52 55  1  0  0  0
M  END
> <minimizedAffinity>
-8.34441

> <CNNscore>
0.0802277476

> <CNNaffinity>
6.3402233124

> <CNN_VS>
0.5086618066

> <CNNaffinity_variance>
1.7239401340

$$$$
[H]N=C(N([H])[H])N([H])C([H])([H])C([H])([H])C([H])([H])[C@@]([H])(C(=O)c1nc([H])c([H])s1)N([H])C(=O)[C@@]([H])(N([H])C(=O)[C@@]1([H])N(C(=O)[C@]([H])(N([H])C(=O)OC([H])([H])c2c([H])c([H])c([H])c([H])c2[H])C([H])([H])c2c([H])c([H])c([H])c([H])c2[H])C([H])([H])C([H])([H])C1([H])[H])C([H])([H])C([H])([H])C([H])([H])N([H])C(=N[H])N([H])[H]


 66 69  0  0  0  0  0  0  0  0999 V2000
   -3.8286   22.5819  -17.7943 C   0  0  0  0  0  0  0  0  0  0  0  0
   -4.4839   22.5782  -19.0317 N   0  0  0  0  0  0  0  0  0  0  0  0
   -5.3248   23.6949  -19.3494 C   0  0  0  0  0  0  0  0  0  0  0  0
   -5.3756   24.5945  -18.4492 O   0  0  0  0  0  0  0  0  0  0  0  0
   -4.3895   21.7944  -19.7358 H   0  0  0  0  0  0  0  0  0  0  0  0
   -6.0996   23.8901  -20.5487 C   0  0  0  0  0  0  0  0  0  0  0  0
   -7.2049   24.9649  -20.2648 C   0  0  0  0  0  0  0  0  0  0  0  0
   -8.2438   24.2121  -19.4573 C   0  0  0  0  0  0  0  0  0  0  0  0
   -7.8648   22.7532  -19.6583 C   0  0  0  0  0  0  0  0  0  0  0  0
   -7.0107   22.7933  -20.8424 N   0  0  0  0  0  0  0  0  0  0  0  0
   -7.1567   22.0744  -22.0110 C   0  0  0  0  0  0  0  0  0  0  0  0
   -7.8776   21.0708  -22.0620 O   0  0  0  0  0  0  0  0  0  0  0  0
   -6.4563   22.4942  -23.2894 C   0  0  0  0  0  0  0  0  0  0  0  0
   -5.0413   22.4144  -22.9262 N   0  0  0  0  0  0  0  0  0  0  0  0
   -4.2199   21.3640  -23.4677 C   0  0  0  0  0  0  0  0  0  0  0  0
   -4.7070   20.5233  -24.2510 O   0  0  0  0  0  0  0  0  0  0  0  0
   -4.6170   23.0853  -22.2878 H   0  0  0  0  0  0  0  0  0  0  0  0
   -2.8853   21.2507  -23.1306 O   0  0  0  0  0  0  0  0  0  0  0  0
   -1.9299   22.2128  -23.4295 C   0  0  0  0  0  0  0  0  0  0  0  0
   -1.3910   22.3061  -24.7643 C   0  0  0  0  0  0  0  0  0  0  0  0
   -2.2436   22.6489  -25.7952 C   0  0  0  0  0  0  0  0  0  0  0  0
   -1.8191   22.7478  -27.1224 C   0  0  0  0  0  0  0  0  0  0  0  0
   -0.5020   22.4947  -27.4184 C   0  0  0  0  0  0  0  0  0  0  0  0
    0.3519   22.1456  -26.3600 C   0  0  0  0  0  0  0  0  0  0  0  0
   -0.0841   22.0541  -25.0638 C   0  0  0  0  0  0  0  0  0  0  0  0
   -6.8587   23.7972  -23.8150 C   0  0  0  0  0  0  0  0  0  0  0  0
   -6.1007   24.2799  -25.0084 C   0  0  0  0  0  0  0  0  0  0  0  0
   -6.2787   23.6291  -26.1969 C   0  0  0  0  0  0  0  0  0  0  0  0
   -5.6177   24.0093  -27.3262 C   0  0  0  0  0  0  0  0  0  0  0  0
   -4.7179   25.0954  -27.3094 C   0  0  0  0  0  0  0  0  0  0  0  0
   -4.5686   25.7216  -26.0896 C   0  0  0  0  0  0  0  0  0  0  0  0
   -5.2403   25.3365  -24.9462 C   0  0  0  0  0  0  0  0  0  0  0  0
   -2.3386   22.5711  -17.8220 C   0  0  0  0  0  0  0  0  0  0  0  0
   -1.7397   23.3605  -18.5815 O   0  0  0  0  0  0  0  0  0  0  0  0
   -1.6426   21.6913  -17.0055 N   0  0  0  0  0  0  0  0  0  0  0  0
   -2.2819   21.0845  -16.3738 H   0  0  0  0  0  0  0  0  0  0  0  0
   -0.1918   21.4293  -16.8378 C   0  0  0  0  0  0  0  0  0  0  0  0
    0.0843   20.3431  -17.7661 C   0  0  0  0  0  0  0  0  0  0  0  0
   -0.2065   19.1303  -17.4563 O   0  0  0  0  0  0  0  0  0  0  0  0
    0.6717   20.5198  -19.0868 C   0  0  0  0  0  0  0  0  0  0  0  0
    0.0991   20.8689  -20.2432 N   0  0  0  0  0  0  0  0  0  0  0  0
    0.8148   20.9581  -21.3125 C   0  0  0  0  0  0  0  0  0  0  0  0
    2.1491   20.6897  -21.2341 C   0  0  0  0  0  0  0  0  0  0  0  0
    2.3160   20.3120  -19.5745 S   0  0  0  0  0  0  0  0  0  0  0  0
    0.0394   21.2472  -15.3881 C   0  0  0  0  0  0  0  0  0  0  0  0
    0.8519   21.9834  -14.4657 C   0  0  0  0  0  0  0  0  0  0  0  0
    2.3037   22.1194  -14.4619 C   0  0  0  0  0  0  0  0  0  0  0  0
    3.1870   21.7875  -13.4444 N   0  0  0  0  0  0  0  0  0  0  0  0
    3.3292   20.7185  -13.2903 H   0  0  0  0  0  0  0  0  0  0  0  0
    3.9452   22.5657  -12.5590 C   0  0  0  0  0  0  0  0  0  0  0  0
    3.3154   23.5595  -11.7254 N   0  0  0  0  0  0  0  0  0  0  0  0
    5.2051   22.4665  -12.4505 N   0  0  0  0  0  0  0  0  0  0  0  0
    3.8326   24.1022  -11.0148 H   0  0  0  0  0  0  0  0  0  0  0  0
    2.2814   23.7109  -11.8675 H   0  0  0  0  0  0  0  0  0  0  0  0
    5.7573   21.7855  -13.0342 H   0  0  0  0  0  0  0  0  0  0  0  0
   -4.3999   21.5043  -16.8808 C   0  0  0  0  0  0  0  0  0  0  0  0
   -4.9025   22.1095  -15.5907 C   0  0  0  0  0  0  0  0  0  0  0  0
   -6.3315   22.4942  -15.6571 C   0  0  0  0  0  0  0  0  0  0  0  0
   -6.5434   23.8878  -15.9196 N   0  0  0  0  0  0  0  0  0  0  0  0
   -6.7957   24.3067  -16.8047 H   0  0  0  0  0  0  0  0  0  0  0  0
   -6.9828   24.1770  -13.5752 N   0  0  0  0  0  0  0  0  0  0  0  0
   -6.3718   24.7648  -14.7719 C   0  0  0  0  0  0  0  0  0  0  0  0
   -5.8484   25.8492  -14.7782 N   0  0  0  0  0  0  0  0  0  0  0  0
   -6.9576   24.7396  -12.7137 H   0  0  0  0  0  0  0  0  0  0  0  0
   -7.4119   23.2480  -13.5762 H   0  0  0  0  0  0  0  0  0  0  0  0
   -5.4563   26.6585  -14.7880 H   0  0  0  0  0  0  0  0  0  0  0  0
 61 62  1  0  0  0
 62 63  2  0  0  0
 62 59  1  0  0  0
 59 58  1  0  0  0
 58 57  1  0  0  0
 57 56  1  0  0  0
 56  1  1  0  0  0
  1  2  1  0  0  0
  2  3  1  0  0  0
  3  4  2  0  0  0
  3  6  1  0  0  0
  6  7  1  0  0  0
  7  8  1  0  0  0
  8  9  1  0  0  0
  9 10  1  0  0  0
 10 11  1  0  0  0
 11 12  2  0  0  0
 11 13  1  0  0  0
 13 26  1  0  0  0
 26 27  1  0  0  0
 27 28  2  0  0  0
 28 29  1  0  0  0
 29 30  2  0  0  0
 30 31  1  0  0  0
 31 32  2  0  0  0
 13 14  1  0  0  0
 14 15  1  0  0  0
 15 16  2  0  0  0
 15 18  1  0  0  0
 18 19  1  0  0  0
 19 20  1  0  0  0
 20 21  2  0  0  0
 21 22  1  0  0  0
 22 23  2  0  0  0
 23 24  1  0  0  0
 24 25  2  0  0  0
  1 33  1  0  0  0
 33 34  2  0  0  0
 33 35  1  0  0  0
 35 37  1  0  0  0
 37 45  1  0  0  0
 45 46  1  0  0  0
 46 47  1  0  0  0
 47 48  1  0  0  0
 48 50  1  0  0  0
 50 51  1  0  0  0
 50 52  2  0  0  0
 37 38  1  0  0  0
 38 39  2  0  0  0
 38 40  1  0  0  0
 40 41  2  0  0  0
 41 42  1  0  0  0
 42 43  2  0  0  0
 43 44  1  0  0  0
 10  6  1  0  0  0
 32 27  1  0  0  0
 25 20  1  0  0  0
 44 40  1  0  0  0
 61 64  1  0  0  0
 61 65  1  0  0  0
 63 66  1  0  0  0
 59 60  1  0  0  0
  2  5  1  0  0  0
 14 17  1  0  0  0
 35 36  1  0  0  0
 48 49  1  0  0  0
 51 53  1  0  0  0
 51 54  1  0  0  0
 52 55  1  0  0  0
M  END
> <minimizedAffinity>
-7.04053

> <CNNscore>
0.0779187307

> <CNNaffinity>
6.4004836082

> <CNN_VS>
0.4987175465

> <CNNaffinity_variance>
1.1321480274

$$$$
[H]N=C(N([H])[H])N([H])C([H])([H])C([H])([H])C([H])([H])[C@@]([H])(C(=O)c1nc([H])c([H])s1)N([H])C(=O)[C@@]([H])(N([H])C(=O)[C@@]1([H])N(C(=O)[C@]([H])(N([H])C(=O)OC([H])([H])c2c([H])c([H])c([H])c([H])c2[H])C([H])([H])c2c([H])c([H])c([H])c([H])c2[H])C([H])([H])C([H])([H])C1([H])[H])C([H])([H])C([H])([H])C([H])([H])N([H])C(=N[H])N([H])[H]


 66 69  0  0  0  0  0  0  0  0999 V2000
   -9.5613   23.3459  -19.4945 C   0  0  0  0  0  0  0  0  0  0  0  0
   -8.3796   23.2127  -20.2336 N   0  0  0  0  0  0  0  0  0  0  0  0
   -7.3300   24.1603  -19.9981 C   0  0  0  0  0  0  0  0  0  0  0  0
   -7.5943   25.0360  -19.1116 O   0  0  0  0  0  0  0  0  0  0  0  0
   -8.2281   22.4526  -20.9535 H   0  0  0  0  0  0  0  0  0  0  0  0
   -6.0467   24.2209  -20.6509 C   0  0  0  0  0  0  0  0  0  0  0  0
   -5.9902   25.5170  -21.5311 C   0  0  0  0  0  0  0  0  0  0  0  0
   -6.8322   25.1694  -22.7428 C   0  0  0  0  0  0  0  0  0  0  0  0
   -6.9789   23.6584  -22.6549 C   0  0  0  0  0  0  0  0  0  0  0  0
   -5.9017   23.2735  -21.7467 N   0  0  0  0  0  0  0  0  0  0  0  0
   -4.9009   22.3504  -21.9703 C   0  0  0  0  0  0  0  0  0  0  0  0
   -4.9911   21.5116  -22.8745 O   0  0  0  0  0  0  0  0  0  0  0  0
   -3.6376   22.3362  -21.1309 C   0  0  0  0  0  0  0  0  0  0  0  0
   -2.6072   21.9628  -22.1002 N   0  0  0  0  0  0  0  0  0  0  0  0
   -1.5840   22.9088  -22.4597 C   0  0  0  0  0  0  0  0  0  0  0  0
   -1.5670   24.0452  -21.9442 O   0  0  0  0  0  0  0  0  0  0  0  0
   -2.5971   21.0432  -22.5385 H   0  0  0  0  0  0  0  0  0  0  0  0
   -0.6080   22.5932  -23.3846 O   0  0  0  0  0  0  0  0  0  0  0  0
   -0.8000   21.7084  -24.4372 C   0  0  0  0  0  0  0  0  0  0  0  0
   -1.4788   22.1442  -25.6331 C   0  0  0  0  0  0  0  0  0  0  0  0
   -0.7207   22.4375  -26.7497 C   0  0  0  0  0  0  0  0  0  0  0  0
   -1.2850   22.8825  -27.9475 C   0  0  0  0  0  0  0  0  0  0  0  0
   -2.6478   23.0361  -28.0222 C   0  0  0  0  0  0  0  0  0  0  0  0
   -3.4047   22.7357  -26.8784 C   0  0  0  0  0  0  0  0  0  0  0  0
   -2.8318   22.2999  -25.7120 C   0  0  0  0  0  0  0  0  0  0  0  0
   -3.6861   21.4679  -19.9562 C   0  0  0  0  0  0  0  0  0  0  0  0
   -2.4296   21.3904  -19.1518 C   0  0  0  0  0  0  0  0  0  0  0  0
   -1.8225   22.5578  -18.7826 C   0  0  0  0  0  0  0  0  0  0  0  0
   -0.6716   22.5656  -18.0532 C   0  0  0  0  0  0  0  0  0  0  0  0
   -0.0595   21.3603  -17.6507 C   0  0  0  0  0  0  0  0  0  0  0  0
   -0.7055   20.2076  -18.0458 C   0  0  0  0  0  0  0  0  0  0  0  0
   -1.8727   20.2010  -18.7837 C   0  0  0  0  0  0  0  0  0  0  0  0
   -9.8929   22.2411  -18.5508 C   0  0  0  0  0  0  0  0  0  0  0  0
  -11.0705   21.8315  -18.4853 O   0  0  0  0  0  0  0  0  0  0  0  0
   -8.8933   21.6848  -17.7658 N   0  0  0  0  0  0  0  0  0  0  0  0
   -7.9120   22.1107  -17.9433 H   0  0  0  0  0  0  0  0  0  0  0  0
   -8.9194   20.6194  -16.7334 C   0  0  0  0  0  0  0  0  0  0  0  0
   -9.1117   21.3387  -15.4831 C   0  0  0  0  0  0  0  0  0  0  0  0
   -9.1781   22.6220  -15.4721 O   0  0  0  0  0  0  0  0  0  0  0  0
   -9.2622   20.7010  -14.1826 C   0  0  0  0  0  0  0  0  0  0  0  0
   -9.7894   19.5152  -13.8618 N   0  0  0  0  0  0  0  0  0  0  0  0
   -9.8321   19.1447  -12.6271 C   0  0  0  0  0  0  0  0  0  0  0  0
   -9.3347   19.9814  -11.6726 C   0  0  0  0  0  0  0  0  0  0  0  0
   -8.8116   21.3012  -12.6264 S   0  0  0  0  0  0  0  0  0  0  0  0
   -7.7059   19.7996  -16.9422 C   0  0  0  0  0  0  0  0  0  0  0  0
   -6.4017   19.8840  -16.3549 C   0  0  0  0  0  0  0  0  0  0  0  0
   -5.3875   20.9096  -16.5693 C   0  0  0  0  0  0  0  0  0  0  0  0
   -5.5829   22.2503  -16.8693 N   0  0  0  0  0  0  0  0  0  0  0  0
   -5.3708   22.5255  -17.9018 H   0  0  0  0  0  0  0  0  0  0  0  0
   -6.0046   23.3406  -16.0961 C   0  0  0  0  0  0  0  0  0  0  0  0
   -6.1389   23.2224  -14.6653 N   0  0  0  0  0  0  0  0  0  0  0  0
   -6.3097   24.4675  -16.5919 N   0  0  0  0  0  0  0  0  0  0  0  0
   -6.3812   24.0226  -14.0587 H   0  0  0  0  0  0  0  0  0  0  0  0
   -5.9705   22.2673  -14.2509 H   0  0  0  0  0  0  0  0  0  0  0  0
   -6.2662   24.6440  -17.6295 H   0  0  0  0  0  0  0  0  0  0  0  0
  -10.7290   23.6992  -20.4077 C   0  0  0  0  0  0  0  0  0  0  0  0
  -11.0409   25.1755  -20.3286 C   0  0  0  0  0  0  0  0  0  0  0  0
  -11.0140   25.8384  -21.6531 C   0  0  0  0  0  0  0  0  0  0  0  0
  -11.9492   26.9181  -21.7783 N   0  0  0  0  0  0  0  0  0  0  0  0
  -12.6893   27.1573  -21.1321 H   0  0  0  0  0  0  0  0  0  0  0  0
  -12.2998   27.0375  -24.1523 N   0  0  0  0  0  0  0  0  0  0  0  0
  -11.7891   27.7379  -22.9692 C   0  0  0  0  0  0  0  0  0  0  0  0
  -11.2712   28.8237  -23.0200 N   0  0  0  0  0  0  0  0  0  0  0  0
  -12.1927   27.5130  -25.0588 H   0  0  0  0  0  0  0  0  0  0  0  0
  -12.7522   26.1213  -24.0967 H   0  0  0  0  0  0  0  0  0  0  0  0
  -10.8838   29.6346  -23.0528 H   0  0  0  0  0  0  0  0  0  0  0  0
 61 62  1  0  0  0
 62 63  2  0  0  0
 62 59  1  0  0  0
 59 58  1  0  0  0
 58 57  1  0  0  0
 57 56  1  0  0  0
 56  1  1  0  0  0
  1  2  1  0  0  0
  2  3  1  0  0  0
  3  4  2  0  0  0
  3  6  1  0  0  0
  6  7  1  0  0  0
  7  8  1  0  0  0
  8  9  1  0  0  0
  9 10  1  0  0  0
 10 11  1  0  0  0
 11 12  2  0  0  0
 11 13  1  0  0  0
 13 26  1  0  0  0
 26 27  1  0  0  0
 27 28  2  0  0  0
 28 29  1  0  0  0
 29 30  2  0  0  0
 30 31  1  0  0  0
 31 32  2  0  0  0
 13 14  1  0  0  0
 14 15  1  0  0  0
 15 16  2  0  0  0
 15 18  1  0  0  0
 18 19  1  0  0  0
 19 20  1  0  0  0
 20 21  2  0  0  0
 21 22  1  0  0  0
 22 23  2  0  0  0
 23 24  1  0  0  0
 24 25  2  0  0  0
  1 33  1  0  0  0
 33 34  2  0  0  0
 33 35  1  0  0  0
 35 37  1  0  0  0
 37 45  1  0  0  0
 45 46  1  0  0  0
 46 47  1  0  0  0
 47 48  1  0  0  0
 48 50  1  0  0  0
 50 51  1  0  0  0
 50 52  2  0  0  0
 37 38  1  0  0  0
 38 39  2  0  0  0
 38 40  1  0  0  0
 40 41  2  0  0  0
 41 42  1  0  0  0
 42 43  2  0  0  0
 43 44  1  0  0  0
 10  6  1  0  0  0
 32 27  1  0  0  0
 25 20  1  0  0  0
 44 40  1  0  0  0
 61 64  1  0  0  0
 61 65  1  0  0  0
 63 66  1  0  0  0
 59 60  1  0  0  0
  2  5  1  0  0  0
 14 17  1  0  0  0
 35 36  1  0  0  0
 48 49  1  0  0  0
 51 53  1  0  0  0
 51 54  1  0  0  0
 52 55  1  0  0  0
M  END
> <minimizedAffinity>
-6.95365

> <CNNscore>
0.0745333061

> <CNNaffinity>
6.4296102524

> <CNN_VS>
0.4792201221

> <CNNaffinity_variance>
0.6414330006

$$$$
[H]N=C(N([H])[H])N([H])C([H])([H])C([H])([H])C([H])([H])[C@@]([H])(C(=O)c1nc([H])c([H])s1)N([H])C(=O)[C@@]([H])(N([H])C(=O)[C@@]1([H])N(C(=O)[C@]([H])(N([H])C(=O)OC([H])([H])c2c([H])c([H])c([H])c([H])c2[H])C([H])([H])c2c([H])c([H])c([H])c([H])c2[H])C([H])([H])C([H])([H])C1([H])[H])C([H])([H])C([H])([H])C([H])([H])N([H])C(=N[H])N([H])[H]


 66 69  0  0  0  0  0  0  0  0999 V2000
   -5.6856   22.4131  -23.9796 C   0  0  0  0  0  0  0  0  0  0  0  0
   -5.7114   22.6332  -22.5970 N   0  0  0  0  0  0  0  0  0  0  0  0
   -6.7198   21.9633  -21.8293 C   0  0  0  0  0  0  0  0  0  0  0  0
   -7.4950   21.2150  -22.5087 O   0  0  0  0  0  0  0  0  0  0  0  0
   -5.0281   23.2678  -22.0978 H   0  0  0  0  0  0  0  0  0  0  0  0
   -6.9394   22.0559  -20.4080 C   0  0  0  0  0  0  0  0  0  0  0  0
   -8.4485   21.7525  -20.1107 C   0  0  0  0  0  0  0  0  0  0  0  0
   -9.1620   23.0251  -20.5224 C   0  0  0  0  0  0  0  0  0  0  0  0
   -8.0371   24.0400  -20.6521 C   0  0  0  0  0  0  0  0  0  0  0  0
   -6.9456   23.4217  -19.9041 N   0  0  0  0  0  0  0  0  0  0  0  0
   -6.2247   23.9661  -18.8612 C   0  0  0  0  0  0  0  0  0  0  0  0
   -6.2301   25.1835  -18.6432 O   0  0  0  0  0  0  0  0  0  0  0  0
   -5.4104   23.0946  -17.9240 C   0  0  0  0  0  0  0  0  0  0  0  0
   -6.4315   22.2706  -17.2767 N   0  0  0  0  0  0  0  0  0  0  0  0
   -6.2321   20.8511  -17.1479 C   0  0  0  0  0  0  0  0  0  0  0  0
   -5.1892   20.3193  -17.5803 O   0  0  0  0  0  0  0  0  0  0  0  0
   -7.2933   22.6767  -16.9162 H   0  0  0  0  0  0  0  0  0  0  0  0
   -7.1846   20.0434  -16.5580 O   0  0  0  0  0  0  0  0  0  0  0  0
   -8.1527   19.3470  -17.2689 C   0  0  0  0  0  0  0  0  0  0  0  0
   -7.9279   17.9709  -17.6389 C   0  0  0  0  0  0  0  0  0  0  0  0
   -8.6873   16.9930  -17.0271 C   0  0  0  0  0  0  0  0  0  0  0  0
   -8.5309   15.6332  -17.3064 C   0  0  0  0  0  0  0  0  0  0  0  0
   -7.5853   15.2491  -18.2255 C   0  0  0  0  0  0  0  0  0  0  0  0
   -6.8200   16.2546  -18.8375 C   0  0  0  0  0  0  0  0  0  0  0  0
   -6.9889   17.5840  -18.5498 C   0  0  0  0  0  0  0  0  0  0  0  0
   -4.5581   23.8235  -16.9869 C   0  0  0  0  0  0  0  0  0  0  0  0
   -5.0006   23.8115  -15.5601 C   0  0  0  0  0  0  0  0  0  0  0  0
   -5.9695   24.6946  -15.1738 C   0  0  0  0  0  0  0  0  0  0  0  0
   -6.4196   24.7451  -13.8886 C   0  0  0  0  0  0  0  0  0  0  0  0
   -5.8972   23.8825  -12.9025 C   0  0  0  0  0  0  0  0  0  0  0  0
   -4.9217   23.0094  -13.3363 C   0  0  0  0  0  0  0  0  0  0  0  0
   -4.4675   22.9580  -14.6394 C   0  0  0  0  0  0  0  0  0  0  0  0
   -4.5342   21.6332  -24.5154 C   0  0  0  0  0  0  0  0  0  0  0  0
   -4.5016   20.3981  -24.3363 O   0  0  0  0  0  0  0  0  0  0  0  0
   -3.5226   22.2870  -25.2042 N   0  0  0  0  0  0  0  0  0  0  0  0
   -3.6895   23.3526  -25.3156 H   0  0  0  0  0  0  0  0  0  0  0  0
   -2.2611   21.7990  -25.8139 C   0  0  0  0  0  0  0  0  0  0  0  0
   -1.2236   22.2564  -24.9017 C   0  0  0  0  0  0  0  0  0  0  0  0
   -0.0474   22.5351  -25.3381 O   0  0  0  0  0  0  0  0  0  0  0  0
   -1.4150   22.4542  -23.4717 C   0  0  0  0  0  0  0  0  0  0  0  0
   -1.8850   23.5134  -22.8052 N   0  0  0  0  0  0  0  0  0  0  0  0
   -1.9624   23.4791  -21.5182 C   0  0  0  0  0  0  0  0  0  0  0  0
   -1.5573   22.3528  -20.8655 C   0  0  0  0  0  0  0  0  0  0  0  0
   -1.0712   21.3657  -22.1749 S   0  0  0  0  0  0  0  0  0  0  0  0
   -2.2689   22.2540  -27.2214 C   0  0  0  0  0  0  0  0  0  0  0  0
   -3.0360   23.2715  -27.8764 C   0  0  0  0  0  0  0  0  0  0  0  0
   -4.2633   23.1111  -28.6474 C   0  0  0  0  0  0  0  0  0  0  0  0
   -4.6586   23.8169  -29.7749 N   0  0  0  0  0  0  0  0  0  0  0  0
   -4.0727   23.6163  -30.6711 H   0  0  0  0  0  0  0  0  0  0  0  0
   -5.6778   24.7536  -29.9950 C   0  0  0  0  0  0  0  0  0  0  0  0
   -6.1613   25.0182  -31.3274 N   0  0  0  0  0  0  0  0  0  0  0  0
   -6.2132   25.4295  -29.0648 N   0  0  0  0  0  0  0  0  0  0  0  0
   -6.9555   25.6504  -31.5185 H   0  0  0  0  0  0  0  0  0  0  0  0
   -5.6661   24.5257  -32.1178 H   0  0  0  0  0  0  0  0  0  0  0  0
   -5.9108   25.3238  -28.0614 H   0  0  0  0  0  0  0  0  0  0  0  0
   -5.9046   23.7181  -24.7354 C   0  0  0  0  0  0  0  0  0  0  0  0
   -7.0260   24.5151  -24.1106 C   0  0  0  0  0  0  0  0  0  0  0  0
   -6.5969   25.8653  -23.6779 C   0  0  0  0  0  0  0  0  0  0  0  0
   -6.5842   26.8343  -24.7348 N   0  0  0  0  0  0  0  0  0  0  0  0
   -7.3515   27.4257  -25.0246 H   0  0  0  0  0  0  0  0  0  0  0  0
   -4.2241   27.2228  -24.5064 N   0  0  0  0  0  0  0  0  0  0  0  0
   -5.3201   26.9569  -25.4440 C   0  0  0  0  0  0  0  0  0  0  0  0
   -5.1664   26.9007  -26.6369 N   0  0  0  0  0  0  0  0  0  0  0  0
   -3.2896   27.3726  -24.9110 H   0  0  0  0  0  0  0  0  0  0  0  0
   -4.3622   27.2535  -23.4930 H   0  0  0  0  0  0  0  0  0  0  0  0
   -5.0565   26.8577  -27.5285 H   0  0  0  0  0  0  0  0  0  0  0  0
 61 62  1  0  0  0
 62 63  2  0  0  0
 62 59  1  0  0  0
 59 58  1  0  0  0
 58 57  1  0  0  0
 57 56  1  0  0  0
 56  1  1  0  0  0
  1  2  1  0  0  0
  2  3  1  0  0  0
  3  4  2  0  0  0
  3  6  1  0  0  0
  6  7  1  0  0  0
  7  8  1  0  0  0
  8  9  1  0  0  0
  9 10  1  0  0  0
 10 11  1  0  0  0
 11 12  2  0  0  0
 11 13  1  0  0  0
 13 26  1  0  0  0
 26 27  1  0  0  0
 27 28  2  0  0  0
 28 29  1  0  0  0
 29 30  2  0  0  0
 30 31  1  0  0  0
 31 32  2  0  0  0
 13 14  1  0  0  0
 14 15  1  0  0  0
 15 16  2  0  0  0
 15 18  1  0  0  0
 18 19  1  0  0  0
 19 20  1  0  0  0
 20 21  2  0  0  0
 21 22  1  0  0  0
 22 23  2  0  0  0
 23 24  1  0  0  0
 24 25  2  0  0  0
  1 33  1  0  0  0
 33 34  2  0  0  0
 33 35  1  0  0  0
 35 37  1  0  0  0
 37 45  1  0  0  0
 45 46  1  0  0  0
 46 47  1  0  0  0
 47 48  1  0  0  0
 48 50  1  0  0  0
 50 51  1  0  0  0
 50 52  2  0  0  0
 37 38  1  0  0  0
 38 39  2  0  0  0
 38 40  1  0  0  0
 40 41  2  0  0  0
 41 42  1  0  0  0
 42 43  2  0  0  0
 43 44  1  0  0  0
 10  6  1  0  0  0
 32 27  1  0  0  0
 25 20  1  0  0  0
 44 40  1  0  0  0
 61 64  1  0  0  0
 61 65  1  0  0  0
 63 66  1  0  0  0
 59 60  1  0  0  0
  2  5  1  0  0  0
 14 17  1  0  0  0
 35 36  1  0  0  0
 48 49  1  0  0  0
 51 53  1  0  0  0
 51 54  1  0  0  0
 52 55  1  0  0  0
M  END
> <minimizedAffinity>
-7.47972

> <CNNscore>
0.0742795542

> <CNNaffinity>
6.7789297104

> <CNN_VS>
0.5035358667

> <CNNaffinity_variance>
1.1489681005

$$$$
[H]N=C(N([H])[H])N([H])C([H])([H])C([H])([H])C([H])([H])[C@@]([H])(C(=O)c1nc([H])c([H])s1)N([H])C(=O)[C@@]([H])(N([H])C(=O)[C@@]1([H])N(C(=O)[C@]([H])(N([H])C(=O)OC([H])([H])c2c([H])c([H])c([H])c([H])c2[H])C([H])([H])c2c([H])c([H])c([H])c([H])c2[H])C([H])([H])C([H])([H])C1([H])[H])C([H])([H])C([H])([H])C([H])([H])N([H])C(=N[H])N([H])[H]


 66 69  0  0  0  0  0  0  0  0999 V2000
   -4.5261   22.1595  -17.6035 C   0  0  0  0  0  0  0  0  0  0  0  0
   -4.7740   22.9646  -18.7219 N   0  0  0  0  0  0  0  0  0  0  0  0
   -4.6773   22.3608  -20.0185 C   0  0  0  0  0  0  0  0  0  0  0  0
   -4.3774   21.1230  -20.0068 O   0  0  0  0  0  0  0  0  0  0  0  0
   -5.0249   23.9900  -18.6545 H   0  0  0  0  0  0  0  0  0  0  0  0
   -4.8742   22.9996  -21.2952 C   0  0  0  0  0  0  0  0  0  0  0  0
   -5.8304   24.2269  -21.1022 C   0  0  0  0  0  0  0  0  0  0  0  0
   -7.2028   23.5986  -20.9618 C   0  0  0  0  0  0  0  0  0  0  0  0
   -6.9939   22.1715  -21.4438 C   0  0  0  0  0  0  0  0  0  0  0  0
   -5.7439   22.2555  -22.1947 N   0  0  0  0  0  0  0  0  0  0  0  0
   -5.5176   21.8687  -23.4996 C   0  0  0  0  0  0  0  0  0  0  0  0
   -6.2978   21.1121  -24.0898 O   0  0  0  0  0  0  0  0  0  0  0  0
   -4.3136   22.3697  -24.2744 C   0  0  0  0  0  0  0  0  0  0  0  0
   -4.9180   23.2190  -25.3011 N   0  0  0  0  0  0  0  0  0  0  0  0
   -4.8472   24.6513  -25.1803 C   0  0  0  0  0  0  0  0  0  0  0  0
   -4.2671   25.1738  -24.2066 O   0  0  0  0  0  0  0  0  0  0  0  0
   -5.3996   22.8206  -26.1056 H   0  0  0  0  0  0  0  0  0  0  0  0
   -5.4230   25.4803  -26.1231 O   0  0  0  0  0  0  0  0  0  0  0  0
   -4.7941   25.8638  -27.3000 C   0  0  0  0  0  0  0  0  0  0  0  0
   -5.0951   25.1827  -28.5355 C   0  0  0  0  0  0  0  0  0  0  0  0
   -5.2428   25.9368  -29.6830 C   0  0  0  0  0  0  0  0  0  0  0  0
   -5.5509   25.3702  -30.9221 C   0  0  0  0  0  0  0  0  0  0  0  0
   -5.7144   24.0092  -31.0071 C   0  0  0  0  0  0  0  0  0  0  0  0
   -5.5629   23.2564  -29.8317 C   0  0  0  0  0  0  0  0  0  0  0  0
   -5.2601   23.8314  -28.6249 C   0  0  0  0  0  0  0  0  0  0  0  0
   -3.4444   21.3238  -24.8096 C   0  0  0  0  0  0  0  0  0  0  0  0
   -2.1956   21.7954  -25.4802 C   0  0  0  0  0  0  0  0  0  0  0  0
   -1.0545   21.8903  -24.7342 C   0  0  0  0  0  0  0  0  0  0  0  0
    0.1206   22.3174  -25.2760 C   0  0  0  0  0  0  0  0  0  0  0  0
    0.2025   22.6812  -26.6363 C   0  0  0  0  0  0  0  0  0  0  0  0
   -0.9723   22.5709  -27.3503 C   0  0  0  0  0  0  0  0  0  0  0  0
   -2.1622   22.1364  -26.8005 C   0  0  0  0  0  0  0  0  0  0  0  0
   -5.6581   21.3243  -17.1115 C   0  0  0  0  0  0  0  0  0  0  0  0
   -5.4261   20.1684  -16.7007 O   0  0  0  0  0  0  0  0  0  0  0  0
   -6.9455   21.8417  -17.1140 N   0  0  0  0  0  0  0  0  0  0  0  0
   -7.0030   22.8657  -17.4662 H   0  0  0  0  0  0  0  0  0  0  0  0
   -8.2517   21.2551  -16.7251 C   0  0  0  0  0  0  0  0  0  0  0  0
   -9.0058   21.2071  -17.9688 C   0  0  0  0  0  0  0  0  0  0  0  0
   -8.6716   20.3909  -18.9034 O   0  0  0  0  0  0  0  0  0  0  0  0
  -10.1740   22.0283  -18.2541 C   0  0  0  0  0  0  0  0  0  0  0  0
  -10.2707   23.1869  -18.9139 N   0  0  0  0  0  0  0  0  0  0  0  0
  -11.4201   23.7575  -19.0438 C   0  0  0  0  0  0  0  0  0  0  0  0
  -12.5163   23.1583  -18.4980 C   0  0  0  0  0  0  0  0  0  0  0  0
  -11.8201   21.7588  -17.8040 S   0  0  0  0  0  0  0  0  0  0  0  0
   -8.7491   22.0524  -15.5827 C   0  0  0  0  0  0  0  0  0  0  0  0
   -8.3821   22.0415  -14.1977 C   0  0  0  0  0  0  0  0  0  0  0  0
   -8.6873   23.0426  -13.1824 C   0  0  0  0  0  0  0  0  0  0  0  0
   -9.8460   23.7946  -13.0497 N   0  0  0  0  0  0  0  0  0  0  0  0
  -10.7727   23.2382  -13.1853 H   0  0  0  0  0  0  0  0  0  0  0  0
  -10.0667   25.1507  -12.7726 C   0  0  0  0  0  0  0  0  0  0  0  0
  -10.9742   25.5517  -11.7263 N   0  0  0  0  0  0  0  0  0  0  0  0
   -9.5151   26.0912  -13.4208 N   0  0  0  0  0  0  0  0  0  0  0  0
  -11.1086   26.5381  -11.4507 H   0  0  0  0  0  0  0  0  0  0  0  0
  -11.5034   24.7816  -11.2372 H   0  0  0  0  0  0  0  0  0  0  0  0
   -8.8548   25.8985  -14.2185 H   0  0  0  0  0  0  0  0  0  0  0  0
   -3.8778   22.9725  -16.4896 C   0  0  0  0  0  0  0  0  0  0  0  0
   -4.8094   23.0948  -15.3063 C   0  0  0  0  0  0  0  0  0  0  0  0
   -4.1475   22.7735  -14.0206 C   0  0  0  0  0  0  0  0  0  0  0  0
   -4.9283   23.1147  -12.8673 N   0  0  0  0  0  0  0  0  0  0  0  0
   -5.7375   22.6211  -12.5151 H   0  0  0  0  0  0  0  0  0  0  0  0
   -3.3728   23.9713  -11.2486 N   0  0  0  0  0  0  0  0  0  0  0  0
   -4.4831   24.2988  -12.1493 C   0  0  0  0  0  0  0  0  0  0  0  0
   -4.9665   25.3990  -12.2244 N   0  0  0  0  0  0  0  0  0  0  0  0
   -3.0114   24.7321  -10.6572 H   0  0  0  0  0  0  0  0  0  0  0  0
   -2.9587   23.0366  -11.2031 H   0  0  0  0  0  0  0  0  0  0  0  0
   -5.3309   26.2190  -12.2842 H   0  0  0  0  0  0  0  0  0  0  0  0
 61 62  1  0  0  0
 62 63  2  0  0  0
 62 59  1  0  0  0
 59 58  1  0  0  0
 58 57  1  0  0  0
 57 56  1  0  0  0
 56  1  1  0  0  0
  1  2  1  0  0  0
  2  3  1  0  0  0
  3  4  2  0  0  0
  3  6  1  0  0  0
  6  7  1  0  0  0
  7  8  1  0  0  0
  8  9  1  0  0  0
  9 10  1  0  0  0
 10 11  1  0  0  0
 11 12  2  0  0  0
 11 13  1  0  0  0
 13 26  1  0  0  0
 26 27  1  0  0  0
 27 28  2  0  0  0
 28 29  1  0  0  0
 29 30  2  0  0  0
 30 31  1  0  0  0
 31 32  2  0  0  0
 13 14  1  0  0  0
 14 15  1  0  0  0
 15 16  2  0  0  0
 15 18  1  0  0  0
 18 19  1  0  0  0
 19 20  1  0  0  0
 20 21  2  0  0  0
 21 22  1  0  0  0
 22 23  2  0  0  0
 23 24  1  0  0  0
 24 25  2  0  0  0
  1 33  1  0  0  0
 33 34  2  0  0  0
 33 35  1  0  0  0
 35 37  1  0  0  0
 37 45  1  0  0  0
 45 46  1  0  0  0
 46 47  1  0  0  0
 47 48  1  0  0  0
 48 50  1  0  0  0
 50 51  1  0  0  0
 50 52  2  0  0  0
 37 38  1  0  0  0
 38 39  2  0  0  0
 38 40  1  0  0  0
 40 41  2  0  0  0
 41 42  1  0  0  0
 42 43  2  0  0  0
 43 44  1  0  0  0
 10  6  1  0  0  0
 32 27  1  0  0  0
 25 20  1  0  0  0
 44 40  1  0  0  0
 61 64  1  0  0  0
 61 65  1  0  0  0
 63 66  1  0  0  0
 59 60  1  0  0  0
  2  5  1  0  0  0
 14 17  1  0  0  0
 35 36  1  0  0  0
 48 49  1  0  0  0
 51 53  1  0  0  0
 51 54  1  0  0  0
 52 55  1  0  0  0
M  END
> <minimizedAffinity>
-8.18815

> <CNNscore>
0.0706155449

> <CNNaffinity>
6.2122826576

> <CNN_VS>
0.4386837184

> <CNNaffinity_variance>
0.3831736147

$$$$
[H]N=C(N([H])[H])N([H])C([H])([H])C([H])([H])C([H])([H])[C@@]([H])(C(=O)c1nc([H])c([H])s1)N([H])C(=O)[C@@]([H])(N([H])C(=O)[C@@]1([H])N(C(=O)[C@]([H])(N([H])C(=O)OC([H])([H])c2c([H])c([H])c([H])c([H])c2[H])C([H])([H])c2c([H])c([H])c([H])c([H])c2[H])C([H])([H])C([H])([H])C1([H])[H])C([H])([H])C([H])([H])C([H])([H])N([H])C(=N[H])N([H])[H]


 66 69  0  0  0  0  0  0  0  0999 V2000
   -5.8231   24.4218  -20.9955 C   0  0  0  0  0  0  0  0  0  0  0  0
   -5.7517   24.3092  -22.3893 N   0  0  0  0  0  0  0  0  0  0  0  0
   -4.6740   24.9734  -23.0621 C   0  0  0  0  0  0  0  0  0  0  0  0
   -3.8750   25.6012  -22.2941 O   0  0  0  0  0  0  0  0  0  0  0  0
   -6.4520   23.7632  -22.9639 H   0  0  0  0  0  0  0  0  0  0  0  0
   -4.4178   25.0043  -24.4799 C   0  0  0  0  0  0  0  0  0  0  0  0
   -4.3483   26.4994  -24.9466 C   0  0  0  0  0  0  0  0  0  0  0  0
   -5.7995   26.9365  -24.9803 C   0  0  0  0  0  0  0  0  0  0  0  0
   -6.5692   25.6269  -24.9101 C   0  0  0  0  0  0  0  0  0  0  0  0
   -5.5683   24.6338  -25.2913 N   0  0  0  0  0  0  0  0  0  0  0  0
   -5.6555   23.6932  -26.2969 C   0  0  0  0  0  0  0  0  0  0  0  0
   -6.7439   23.3888  -26.7991 O   0  0  0  0  0  0  0  0  0  0  0  0
   -4.4193   23.0059  -26.8449 C   0  0  0  0  0  0  0  0  0  0  0  0
   -3.6869   22.6388  -25.6327 N   0  0  0  0  0  0  0  0  0  0  0  0
   -2.3771   22.0516  -25.7360 C   0  0  0  0  0  0  0  0  0  0  0  0
   -1.8591   21.8592  -26.8550 O   0  0  0  0  0  0  0  0  0  0  0  0
   -4.0854   22.7823  -24.7061 H   0  0  0  0  0  0  0  0  0  0  0  0
   -1.6676   21.6777  -24.6115 O   0  0  0  0  0  0  0  0  0  0  0  0
   -0.5286   22.3339  -24.1646 C   0  0  0  0  0  0  0  0  0  0  0  0
    0.4825   21.6101  -23.4332 C   0  0  0  0  0  0  0  0  0  0  0  0
    1.7393   21.4897  -23.9928 C   0  0  0  0  0  0  0  0  0  0  0  0
    2.7778   20.7940  -23.3693 C   0  0  0  0  0  0  0  0  0  0  0  0
    2.5440   20.2045  -22.1510 C   0  0  0  0  0  0  0  0  0  0  0  0
    1.2609   20.3341  -21.5959 C   0  0  0  0  0  0  0  0  0  0  0  0
    0.2549   21.0214  -22.2237 C   0  0  0  0  0  0  0  0  0  0  0  0
   -3.6374   23.8017  -27.7892 C   0  0  0  0  0  0  0  0  0  0  0  0
   -4.3647   24.2633  -29.0097 C   0  0  0  0  0  0  0  0  0  0  0  0
   -5.0668   23.3415  -29.7342 C   0  0  0  0  0  0  0  0  0  0  0  0
   -5.7501   23.6876  -30.8612 C   0  0  0  0  0  0  0  0  0  0  0  0
   -5.7568   25.0196  -31.3253 C   0  0  0  0  0  0  0  0  0  0  0  0
   -5.0349   25.9152  -30.5644 C   0  0  0  0  0  0  0  0  0  0  0  0
   -4.3442   25.5635  -29.4216 C   0  0  0  0  0  0  0  0  0  0  0  0
   -6.0078   23.1583  -20.2270 C   0  0  0  0  0  0  0  0  0  0  0  0
   -6.2315   22.0979  -20.8468 O   0  0  0  0  0  0  0  0  0  0  0  0
   -5.9257   23.1783  -18.8421 N   0  0  0  0  0  0  0  0  0  0  0  0
   -5.6963   24.1560  -18.4331 H   0  0  0  0  0  0  0  0  0  0  0  0
   -6.0926   22.1133  -17.8225 C   0  0  0  0  0  0  0  0  0  0  0  0
   -7.0366   22.6769  -16.8691 C   0  0  0  0  0  0  0  0  0  0  0  0
   -8.3024   22.5492  -17.0510 O   0  0  0  0  0  0  0  0  0  0  0  0
   -6.6552   23.3905  -15.6585 C   0  0  0  0  0  0  0  0  0  0  0  0
   -6.5658   24.7040  -15.4261 N   0  0  0  0  0  0  0  0  0  0  0  0
   -6.1929   25.1266  -14.2660 C   0  0  0  0  0  0  0  0  0  0  0  0
   -5.8955   24.2132  -13.2986 C   0  0  0  0  0  0  0  0  0  0  0  0
   -6.1769   22.7448  -14.1290 S   0  0  0  0  0  0  0  0  0  0  0  0
   -4.7322   21.7300  -17.3859 C   0  0  0  0  0  0  0  0  0  0  0  0
   -3.5209   22.4911  -17.3063 C   0  0  0  0  0  0  0  0  0  0  0  0
   -2.4719   22.6127  -18.3119 C   0  0  0  0  0  0  0  0  0  0  0  0
   -2.4419   22.0553  -19.5824 N   0  0  0  0  0  0  0  0  0  0  0  0
   -2.3616   20.9691  -19.6055 H   0  0  0  0  0  0  0  0  0  0  0  0
   -2.4937   22.6198  -20.8642 C   0  0  0  0  0  0  0  0  0  0  0  0
   -3.1905   21.9532  -21.9363 N   0  0  0  0  0  0  0  0  0  0  0  0
   -1.9275   23.7143  -21.1650 N   0  0  0  0  0  0  0  0  0  0  0  0
   -3.3061   22.3721  -22.8733 H   0  0  0  0  0  0  0  0  0  0  0  0
   -3.5925   21.0022  -21.7210 H   0  0  0  0  0  0  0  0  0  0  0  0
   -1.3749   24.2629  -20.4557 H   0  0  0  0  0  0  0  0  0  0  0  0
   -6.8257   25.4969  -20.5942 C   0  0  0  0  0  0  0  0  0  0  0  0
   -8.0553   24.8754  -19.9737 C   0  0  0  0  0  0  0  0  0  0  0  0
   -9.2242   24.8871  -20.8836 C   0  0  0  0  0  0  0  0  0  0  0  0
   -9.8778   26.1605  -20.9688 N   0  0  0  0  0  0  0  0  0  0  0  0
  -10.0857   26.7878  -20.2034 H   0  0  0  0  0  0  0  0  0  0  0  0
   -9.8342   25.5710  -23.2977 N   0  0  0  0  0  0  0  0  0  0  0  0
  -10.2688   26.5646  -22.3103 C   0  0  0  0  0  0  0  0  0  0  0  0
  -10.8294   27.5874  -22.6092 N   0  0  0  0  0  0  0  0  0  0  0  0
  -10.0215   25.7833  -24.2872 H   0  0  0  0  0  0  0  0  0  0  0  0
   -9.3719   24.6974  -23.0324 H   0  0  0  0  0  0  0  0  0  0  0  0
  -11.2484   28.3527  -22.8274 H   0  0  0  0  0  0  0  0  0  0  0  0
 61 62  1  0  0  0
 62 63  2  0  0  0
 62 59  1  0  0  0
 59 58  1  0  0  0
 58 57  1  0  0  0
 57 56  1  0  0  0
 56  1  1  0  0  0
  1  2  1  0  0  0
  2  3  1  0  0  0
  3  4  2  0  0  0
  3  6  1  0  0  0
  6  7  1  0  0  0
  7  8  1  0  0  0
  8  9  1  0  0  0
  9 10  1  0  0  0
 10 11  1  0  0  0
 11 12  2  0  0  0
 11 13  1  0  0  0
 13 26  1  0  0  0
 26 27  1  0  0  0
 27 28  2  0  0  0
 28 29  1  0  0  0
 29 30  2  0  0  0
 30 31  1  0  0  0
 31 32  2  0  0  0
 13 14  1  0  0  0
 14 15  1  0  0  0
 15 16  2  0  0  0
 15 18  1  0  0  0
 18 19  1  0  0  0
 19 20  1  0  0  0
 20 21  2  0  0  0
 21 22  1  0  0  0
 22 23  2  0  0  0
 23 24  1  0  0  0
 24 25  2  0  0  0
  1 33  1  0  0  0
 33 34  2  0  0  0
 33 35  1  0  0  0
 35 37  1  0  0  0
 37 45  1  0  0  0
 45 46  1  0  0  0
 46 47  1  0  0  0
 47 48  1  0  0  0
 48 50  1  0  0  0
 50 51  1  0  0  0
 50 52  2  0  0  0
 37 38  1  0  0  0
 38 39  2  0  0  0
 38 40  1  0  0  0
 40 41  2  0  0  0
 41 42  1  0  0  0
 42 43  2  0  0  0
 43 44  1  0  0  0
 10  6  1  0  0  0
 32 27  1  0  0  0
 25 20  1  0  0  0
 44 40  1  0  0  0
 61 64  1  0  0  0
 61 65  1  0  0  0
 63 66  1  0  0  0
 59 60  1  0  0  0
  2  5  1  0  0  0
 14 17  1  0  0  0
 35 36  1  0  0  0
 48 49  1  0  0  0
 51 53  1  0  0  0
 51 54  1  0  0  0
 52 55  1  0  0  0
M  END
> <minimizedAffinity>
-8.43612

> <CNNscore>
0.0694637746

> <CNNaffinity>
6.8661637306

> <CNN_VS>
0.4769496620

> <CNNaffinity_variance>
0.9580832720

$$$$
[H]c1nc(N([H])c2c([H])c([H])c(N3C([H])([H])C([H])([H])C([H])(N(C([H])([H])[H])C([H])([H])[H])C([H])([H])C3([H])[H])c([H])c2OC([H])([H])[H])nc(N([H])c2c([H])c([H])c([H])c([H])c2S(=O)(=O)C([H])(C([H])([H])[H])C([H])([H])[H])c1Cl


 40 43  0  0  0  0  0  0  0  0999 V2000
   -0.9006   21.4264  -23.3806 C   0  0  0  0  0  0  0  0  0  0  0  0
    0.3190   21.7354  -23.8080 N   0  0  0  0  0  0  0  0  0  0  0  0
    0.5702   22.1917  -25.0414 C   0  0  0  0  0  0  0  0  0  0  0  0
   -0.4448   22.3655  -25.9425 C   0  0  0  0  0  0  0  0  0  0  0  0
   -0.1753   22.9670  -27.5626 Cl  0  0  0  0  0  0  0  0  0  0  0  0
   -1.7646   22.0526  -25.5435 C   0  0  0  0  0  0  0  0  0  0  0  0
   -1.8835   21.6139  -24.3099 N   0  0  0  0  0  0  0  0  0  0  0  0
   -1.2596   20.9378  -22.0954 N   0  0  0  0  0  0  0  0  0  0  0  0
   -2.3186   20.9028  -21.8727 H   0  0  0  0  0  0  0  0  0  0  0  0
   -0.1414   21.3906  -20.0195 C   0  0  0  0  0  0  0  0  0  0  0  0
    0.6789   20.9662  -19.0209 C   0  0  0  0  0  0  0  0  0  0  0  0
    1.2471   19.7204  -18.9860 C   0  0  0  0  0  0  0  0  0  0  0  0
    0.9615   18.8698  -20.0226 C   0  0  0  0  0  0  0  0  0  0  0  0
    0.1309   19.2457  -21.0709 C   0  0  0  0  0  0  0  0  0  0  0  0
   -0.4254   20.4975  -21.0829 C   0  0  0  0  0  0  0  0  0  0  0  0
    2.1130   19.2749  -17.9277 N   0  0  0  0  0  0  0  0  0  0  0  0
    2.1973   20.1440  -16.7796 C   0  0  0  0  0  0  0  0  0  0  0  0
    2.9417   19.6031  -15.6143 C   0  0  0  0  0  0  0  0  0  0  0  0
    3.1327   18.1191  -15.6770 C   0  0  0  0  0  0  0  0  0  0  0  0
    3.8207   17.7820  -16.9838 C   0  0  0  0  0  0  0  0  0  0  0  0
    2.8133   18.0412  -18.0749 C   0  0  0  0  0  0  0  0  0  0  0  0
    3.8609   17.6441  -14.5258 N   0  0  0  0  0  0  0  0  0  0  0  0
    4.7651   16.5790  -14.8405 C   0  0  0  0  0  0  0  0  0  0  0  0
    4.4816   18.7101  -13.7746 C   0  0  0  0  0  0  0  0  0  0  0  0
   -0.4786   23.5449  -18.9936 C   0  0  0  0  0  0  0  0  0  0  0  0
   -0.7086   22.6498  -20.0432 O   0  0  0  0  0  0  0  0  0  0  0  0
   -2.8176   22.1876  -26.4748 N   0  0  0  0  0  0  0  0  0  0  0  0
   -2.5613   21.9749  -27.4606 H   0  0  0  0  0  0  0  0  0  0  0  0
   -4.1167   22.5993  -26.1912 C   0  0  0  0  0  0  0  0  0  0  0  0
   -4.7180   22.4443  -24.9419 C   0  0  0  0  0  0  0  0  0  0  0  0
   -5.9680   22.9736  -24.6581 C   0  0  0  0  0  0  0  0  0  0  0  0
   -6.6636   23.6749  -25.6026 C   0  0  0  0  0  0  0  0  0  0  0  0
   -6.0747   23.8263  -26.8282 C   0  0  0  0  0  0  0  0  0  0  0  0
   -4.8166   23.3106  -27.1670 C   0  0  0  0  0  0  0  0  0  0  0  0
   -4.2913   23.4944  -28.7856 S   0  0  0  0  0  0  0  0  0  0  0  0
   -2.8469   24.0456  -28.7464 O   0  0  0  0  0  0  0  0  0  0  0  0
   -4.1294   22.2045  -29.5521 O   0  0  0  0  0  0  0  0  0  0  0  0
   -5.1820   24.6664  -29.7564 C   0  0  0  0  0  0  0  0  0  0  0  0
   -4.2591   25.8014  -30.2109 C   0  0  0  0  0  0  0  0  0  0  0  0
   -5.8432   24.1382  -30.9610 C   0  0  0  0  0  0  0  0  0  0  0  0
 25 26  1  0  0  0
 26 10  1  0  0  0
 10 11  2  0  0  0
 11 12  1  0  0  0
 12 13  2  0  0  0
 13 14  1  0  0  0
 14 15  2  0  0  0
 15  8  1  0  0  0
  8  1  1  0  0  0
  1  2  2  0  0  0
  2  3  1  0  0  0
  3  4  2  0  0  0
  4  5  1  0  0  0
  4  6  1  0  0  0
  6 27  1  0  0  0
 27 29  1  0  0  0
 29 30  2  0  0  0
 30 31  1  0  0  0
 31 32  2  0  0  0
 32 33  1  0  0  0
 33 34  2  0  0  0
 34 35  1  0  0  0
 35 36  2  0  0  0
 35 37  2  0  0  0
 35 38  1  0  0  0
 38 39  1  0  0  0
 38 40  1  0  0  0
  6  7  2  0  0  0
 12 16  1  0  0  0
 16 17  1  0  0  0
 17 18  1  0  0  0
 18 19  1  0  0  0
 19 20  1  0  0  0
 20 21  1  0  0  0
 19 22  1  0  0  0
 22 23  1  0  0  0
 22 24  1  0  0  0
 15 10  1  0  0  0
  7  1  1  0  0  0
 21 16  1  0  0  0
 34 29  1  0  0  0
  8  9  1  0  0  0
 27 28  1  0  0  0
M  END
> <minimizedAffinity>
-7.37567

> <CNNscore>
0.3499401212

> <CNNaffinity>
6.7952790260

> <CNN_VS>
2.3779406548

> <CNNaffinity_variance>
0.0518673658

$$$$
[H]c1nc(N([H])c2c([H])c([H])c(N3C([H])([H])C([H])([H])C([H])(N(C([H])([H])[H])C([H])([H])[H])C([H])([H])C3([H])[H])c([H])c2OC([H])([H])[H])nc(N([H])c2c([H])c([H])c([H])c([H])c2S(=O)(=O)C([H])(C([H])([H])[H])C([H])([H])[H])c1Cl


 40 43  0  0  0  0  0  0  0  0999 V2000
   -0.8483   21.4884  -23.1191 C   0  0  0  0  0  0  0  0  0  0  0  0
    0.3606   21.8129  -23.5647 N   0  0  0  0  0  0  0  0  0  0  0  0
    0.6100   22.1355  -24.8400 C   0  0  0  0  0  0  0  0  0  0  0  0
   -0.3956   22.1460  -25.7678 C   0  0  0  0  0  0  0  0  0  0  0  0
   -0.1286   22.5684  -27.4439 Cl  0  0  0  0  0  0  0  0  0  0  0  0
   -1.7040   21.8087  -25.3511 C   0  0  0  0  0  0  0  0  0  0  0  0
   -1.8222   21.5111  -24.0761 N   0  0  0  0  0  0  0  0  0  0  0  0
   -1.2046   21.1339  -21.7899 N   0  0  0  0  0  0  0  0  0  0  0  0
   -2.1194   20.5669  -21.6722 H   0  0  0  0  0  0  0  0  0  0  0  0
    0.3157   20.4215  -20.0735 C   0  0  0  0  0  0  0  0  0  0  0  0
    0.9819   20.6955  -18.9197 C   0  0  0  0  0  0  0  0  0  0  0  0
    0.8810   21.8872  -18.2520 C   0  0  0  0  0  0  0  0  0  0  0  0
    0.0592   22.8427  -18.7917 C   0  0  0  0  0  0  0  0  0  0  0  0
   -0.6471   22.6219  -19.9675 C   0  0  0  0  0  0  0  0  0  0  0  0
   -0.5294   21.4214  -20.6167 C   0  0  0  0  0  0  0  0  0  0  0  0
    1.5881   22.1735  -17.0329 N   0  0  0  0  0  0  0  0  0  0  0  0
    2.6241   23.1726  -17.1294 C   0  0  0  0  0  0  0  0  0  0  0  0
    3.2287   23.6013  -15.8428 C   0  0  0  0  0  0  0  0  0  0  0  0
    2.4016   23.2270  -14.6518 C   0  0  0  0  0  0  0  0  0  0  0  0
    2.1660   21.7311  -14.6863 C   0  0  0  0  0  0  0  0  0  0  0  0
    1.2332   21.4733  -15.8422 C   0  0  0  0  0  0  0  0  0  0  0  0
    3.0315   23.6633  -13.4294 N   0  0  0  0  0  0  0  0  0  0  0  0
    2.1198   24.3105  -12.5345 C   0  0  0  0  0  0  0  0  0  0  0  0
    3.8057   22.6227  -12.7940 C   0  0  0  0  0  0  0  0  0  0  0  0
    0.0778   18.0236  -20.0942 C   0  0  0  0  0  0  0  0  0  0  0  0
    0.4259   19.2154  -20.7377 O   0  0  0  0  0  0  0  0  0  0  0  0
   -2.7450   21.7751  -26.3048 N   0  0  0  0  0  0  0  0  0  0  0  0
   -3.0027   20.8242  -26.6397 H   0  0  0  0  0  0  0  0  0  0  0  0
   -3.4074   22.8780  -26.8363 C   0  0  0  0  0  0  0  0  0  0  0  0
   -3.0476   23.4859  -28.0394 C   0  0  0  0  0  0  0  0  0  0  0  0
   -3.8015   24.5055  -28.6009 C   0  0  0  0  0  0  0  0  0  0  0  0
   -4.9378   24.9561  -27.9895 C   0  0  0  0  0  0  0  0  0  0  0  0
   -5.2904   24.3607  -26.8092 C   0  0  0  0  0  0  0  0  0  0  0  0
   -4.5637   23.3298  -26.1986 C   0  0  0  0  0  0  0  0  0  0  0  0
   -5.0891   22.7885  -24.6622 S   0  0  0  0  0  0  0  0  0  0  0  0
   -6.5997   23.1000  -24.5505 O   0  0  0  0  0  0  0  0  0  0  0  0
   -5.0474   21.2927  -24.4665 O   0  0  0  0  0  0  0  0  0  0  0  0
   -4.3697   23.6001  -23.2719 C   0  0  0  0  0  0  0  0  0  0  0  0
   -5.0428   24.9550  -23.0317 C   0  0  0  0  0  0  0  0  0  0  0  0
   -4.4154   22.8629  -21.9984 C   0  0  0  0  0  0  0  0  0  0  0  0
 25 26  1  0  0  0
 26 10  1  0  0  0
 10 11  2  0  0  0
 11 12  1  0  0  0
 12 13  2  0  0  0
 13 14  1  0  0  0
 14 15  2  0  0  0
 15  8  1  0  0  0
  8  1  1  0  0  0
  1  2  2  0  0  0
  2  3  1  0  0  0
  3  4  2  0  0  0
  4  5  1  0  0  0
  4  6  1  0  0  0
  6 27  1  0  0  0
 27 29  1  0  0  0
 29 30  2  0  0  0
 30 31  1  0  0  0
 31 32  2  0  0  0
 32 33  1  0  0  0
 33 34  2  0  0  0
 34 35  1  0  0  0
 35 36  2  0  0  0
 35 37  2  0  0  0
 35 38  1  0  0  0
 38 39  1  0  0  0
 38 40  1  0  0  0
  6  7  2  0  0  0
 12 16  1  0  0  0
 16 17  1  0  0  0
 17 18  1  0  0  0
 18 19  1  0  0  0
 19 20  1  0  0  0
 20 21  1  0  0  0
 19 22  1  0  0  0
 22 23  1  0  0  0
 22 24  1  0  0  0
 15 10  1  0  0  0
  7  1  1  0  0  0
 21 16  1  0  0  0
 34 29  1  0  0  0
  8  9  1  0  0  0
 27 28  1  0  0  0
M  END
> <minimizedAffinity>
-7.74503

> <CNNscore>
0.3436182737

> <CNNaffinity>
7.0244264603

> <CNN_VS>
2.4137213230

> <CNNaffinity_variance>
0.0801706761

$$$$
[H]c1nc(N([H])c2c([H])c([H])c(N3C([H])([H])C([H])([H])C([H])(N(C([H])([H])[H])C([H])([H])[H])C([H])([H])C3([H])[H])c([H])c2OC([H])([H])[H])nc(N([H])c2c([H])c([H])c([H])c([H])c2S(=O)(=O)C([H])(C([H])([H])[H])C([H])([H])[H])c1Cl


 40 43  0  0  0  0  0  0  0  0999 V2000
   -1.0485   22.7565  -23.9484 C   0  0  0  0  0  0  0  0  0  0  0  0
    0.1569   22.7697  -24.5073 N   0  0  0  0  0  0  0  0  0  0  0  0
    0.3513   22.7593  -25.8319 C   0  0  0  0  0  0  0  0  0  0  0  0
   -0.7110   22.7339  -26.6941 C   0  0  0  0  0  0  0  0  0  0  0  0
   -0.5156   22.7289  -28.4321 Cl  0  0  0  0  0  0  0  0  0  0  0  0
   -2.0186   22.7187  -26.1562 C   0  0  0  0  0  0  0  0  0  0  0  0
   -2.0799   22.7312  -24.8430 N   0  0  0  0  0  0  0  0  0  0  0  0
   -1.3488   22.7658  -22.5594 N   0  0  0  0  0  0  0  0  0  0  0  0
   -1.8754   23.6354  -22.1870 H   0  0  0  0  0  0  0  0  0  0  0  0
   -1.7013   21.8822  -20.3550 C   0  0  0  0  0  0  0  0  0  0  0  0
   -1.4152   20.9381  -19.4184 C   0  0  0  0  0  0  0  0  0  0  0  0
   -0.5335   19.9103  -19.6242 C   0  0  0  0  0  0  0  0  0  0  0  0
    0.0840   19.8469  -20.8467 C   0  0  0  0  0  0  0  0  0  0  0  0
   -0.1670   20.7817  -21.8433 C   0  0  0  0  0  0  0  0  0  0  0  0
   -1.0532   21.8005  -21.6130 C   0  0  0  0  0  0  0  0  0  0  0  0
   -0.2347   18.9133  -18.6318 N   0  0  0  0  0  0  0  0  0  0  0  0
   -1.2772   17.9490  -18.3789 C   0  0  0  0  0  0  0  0  0  0  0  0
   -0.9068   16.8156  -17.4941 C   0  0  0  0  0  0  0  0  0  0  0  0
    0.5736   16.6513  -17.3391 C   0  0  0  0  0  0  0  0  0  0  0  0
    1.1486   17.9604  -16.8389 C   0  0  0  0  0  0  0  0  0  0  0  0
    1.0331   18.9397  -17.9791 C   0  0  0  0  0  0  0  0  0  0  0  0
    0.8807   15.5407  -16.4710 N   0  0  0  0  0  0  0  0  0  0  0  0
    1.4575   15.9510  -15.2261 C   0  0  0  0  0  0  0  0  0  0  0  0
   -0.2293   14.6313  -16.3082 C   0  0  0  0  0  0  0  0  0  0  0  0
   -3.9610   22.6492  -20.0204 C   0  0  0  0  0  0  0  0  0  0  0  0
   -2.5927   22.9141  -20.1352 O   0  0  0  0  0  0  0  0  0  0  0  0
   -3.1244   22.6512  -27.0318 N   0  0  0  0  0  0  0  0  0  0  0  0
   -3.4547   21.6884  -27.2480 H   0  0  0  0  0  0  0  0  0  0  0  0
   -3.7636   23.7324  -27.6320 C   0  0  0  0  0  0  0  0  0  0  0  0
   -3.3743   24.2734  -28.8575 C   0  0  0  0  0  0  0  0  0  0  0  0
   -4.1055   25.2708  -29.4851 C   0  0  0  0  0  0  0  0  0  0  0  0
   -5.2475   25.7648  -28.9196 C   0  0  0  0  0  0  0  0  0  0  0  0
   -5.6290   25.2351  -27.7172 C   0  0  0  0  0  0  0  0  0  0  0  0
   -4.9262   24.2291  -27.0406 C   0  0  0  0  0  0  0  0  0  0  0  0
   -5.4864   23.7736  -25.4887 S   0  0  0  0  0  0  0  0  0  0  0  0
   -7.0045   24.0641  -25.4382 O   0  0  0  0  0  0  0  0  0  0  0  0
   -5.4259   22.2936  -25.1999 O   0  0  0  0  0  0  0  0  0  0  0  0
   -4.8204   24.6818  -24.1319 C   0  0  0  0  0  0  0  0  0  0  0  0
   -4.3274   26.0565  -24.5943 C   0  0  0  0  0  0  0  0  0  0  0  0
   -5.7304   24.9081  -22.9970 C   0  0  0  0  0  0  0  0  0  0  0  0
 25 26  1  0  0  0
 26 10  1  0  0  0
 10 11  2  0  0  0
 11 12  1  0  0  0
 12 13  2  0  0  0
 13 14  1  0  0  0
 14 15  2  0  0  0
 15  8  1  0  0  0
  8  1  1  0  0  0
  1  2  2  0  0  0
  2  3  1  0  0  0
  3  4  2  0  0  0
  4  5  1  0  0  0
  4  6  1  0  0  0
  6 27  1  0  0  0
 27 29  1  0  0  0
 29 30  2  0  0  0
 30 31  1  0  0  0
 31 32  2  0  0  0
 32 33  1  0  0  0
 33 34  2  0  0  0
 34 35  1  0  0  0
 35 36  2  0  0  0
 35 37  2  0  0  0
 35 38  1  0  0  0
 38 39  1  0  0  0
 38 40  1  0  0  0
  6  7  2  0  0  0
 12 16  1  0  0  0
 16 17  1  0  0  0
 17 18  1  0  0  0
 18 19  1  0  0  0
 19 20  1  0  0  0
 20 21  1  0  0  0
 19 22  1  0  0  0
 22 23  1  0  0  0
 22 24  1  0  0  0
 15 10  1  0  0  0
  7  1  1  0  0  0
 21 16  1  0  0  0
 34 29  1  0  0  0
  8  9  1  0  0  0
 27 28  1  0  0  0
M  END
> <minimizedAffinity>
-7.05901

> <CNNscore>
0.2957822382

> <CNNaffinity>
7.1831293106

> <CNN_VS>
2.1246421337

> <CNNaffinity_variance>
0.0696420521

$$$$
[H]c1nc(N([H])c2c([H])c([H])c(N3C([H])([H])C([H])([H])C([H])(N(C([H])([H])[H])C([H])([H])[H])C([H])([H])C3([H])[H])c([H])c2OC([H])([H])[H])nc(N([H])c2c([H])c([H])c([H])c([H])c2S(=O)(=O)C([H])(C([H])([H])[H])C([H])([H])[H])c1Cl


 40 43  0  0  0  0  0  0  0  0999 V2000
   -1.3153   21.6450  -23.4313 C   0  0  0  0  0  0  0  0  0  0  0  0
   -0.1542   21.5652  -24.0723 N   0  0  0  0  0  0  0  0  0  0  0  0
    0.0188   21.9851  -25.3318 C   0  0  0  0  0  0  0  0  0  0  0  0
   -1.0203   22.5304  -26.0356 C   0  0  0  0  0  0  0  0  0  0  0  0
   -0.8487   23.1037  -27.6790 Cl  0  0  0  0  0  0  0  0  0  0  0  0
   -2.2807   22.6409  -25.4044 C   0  0  0  0  0  0  0  0  0  0  0  0
   -2.3248   22.1946  -24.1686 N   0  0  0  0  0  0  0  0  0  0  0  0
   -1.5901   21.2267  -22.1013 N   0  0  0  0  0  0  0  0  0  0  0  0
   -2.4818   20.6293  -21.9596 H   0  0  0  0  0  0  0  0  0  0  0  0
   -0.0259   20.4568  -20.4504 C   0  0  0  0  0  0  0  0  0  0  0  0
    0.6933   20.7026  -19.3223 C   0  0  0  0  0  0  0  0  0  0  0  0
    0.6555   21.8923  -18.6447 C   0  0  0  0  0  0  0  0  0  0  0  0
   -0.1572   22.8761  -19.1462 C   0  0  0  0  0  0  0  0  0  0  0  0
   -0.9158   22.6848  -20.2943 C   0  0  0  0  0  0  0  0  0  0  0  0
   -0.8607   21.4856  -20.9542 C   0  0  0  0  0  0  0  0  0  0  0  0
    1.4185   22.1488  -17.4529 N   0  0  0  0  0  0  0  0  0  0  0  0
    2.4725   23.1251  -17.5819 C   0  0  0  0  0  0  0  0  0  0  0  0
    3.1392   23.5255  -16.3170 C   0  0  0  0  0  0  0  0  0  0  0  0
    2.3533   23.1568  -15.0968 C   0  0  0  0  0  0  0  0  0  0  0  0
    2.0819   21.6671  -15.1369 C   0  0  0  0  0  0  0  0  0  0  0  0
    1.0967   21.4435  -16.2558 C   0  0  0  0  0  0  0  0  0  0  0  0
    3.0428   23.5648  -13.8971 N   0  0  0  0  0  0  0  0  0  0  0  0
    2.1582   24.0787  -12.8949 C   0  0  0  0  0  0  0  0  0  0  0  0
    3.9413   22.5524  -13.3936 C   0  0  0  0  0  0  0  0  0  0  0  0
    0.1079   18.0510  -20.4145 C   0  0  0  0  0  0  0  0  0  0  0  0
    0.0209   19.2524  -21.1250 O   0  0  0  0  0  0  0  0  0  0  0  0
   -3.3730   23.1636  -26.1309 N   0  0  0  0  0  0  0  0  0  0  0  0
   -3.7087   22.5629  -26.9114 H   0  0  0  0  0  0  0  0  0  0  0  0
   -3.9926   24.3908  -25.9122 C   0  0  0  0  0  0  0  0  0  0  0  0
   -3.8363   25.1344  -24.7421 C   0  0  0  0  0  0  0  0  0  0  0  0
   -4.3691   26.4074  -24.6046 C   0  0  0  0  0  0  0  0  0  0  0  0
   -5.0738   26.9865  -25.6224 C   0  0  0  0  0  0  0  0  0  0  0  0
   -5.2281   26.2571  -26.7697 C   0  0  0  0  0  0  0  0  0  0  0  0
   -4.7127   24.9679  -26.9592 C   0  0  0  0  0  0  0  0  0  0  0  0
   -5.1077   24.1597  -28.4154 S   0  0  0  0  0  0  0  0  0  0  0  0
   -3.9610   23.1687  -28.7234 O   0  0  0  0  0  0  0  0  0  0  0  0
   -6.3114   23.2531  -28.3332 O   0  0  0  0  0  0  0  0  0  0  0  0
   -5.2111   25.1724  -29.8551 C   0  0  0  0  0  0  0  0  0  0  0  0
   -3.8322   25.7306  -30.2209 C   0  0  0  0  0  0  0  0  0  0  0  0
   -5.7497   24.5253  -31.0629 C   0  0  0  0  0  0  0  0  0  0  0  0
 25 26  1  0  0  0
 26 10  1  0  0  0
 10 11  2  0  0  0
 11 12  1  0  0  0
 12 13  2  0  0  0
 13 14  1  0  0  0
 14 15  2  0  0  0
 15  8  1  0  0  0
  8  1  1  0  0  0
  1  2  2  0  0  0
  2  3  1  0  0  0
  3  4  2  0  0  0
  4  5  1  0  0  0
  4  6  1  0  0  0
  6 27  1  0  0  0
 27 29  1  0  0  0
 29 30  2  0  0  0
 30 31  1  0  0  0
 31 32  2  0  0  0
 32 33  1  0  0  0
 33 34  2  0  0  0
 34 35  1  0  0  0
 35 36  2  0  0  0
 35 37  2  0  0  0
 35 38  1  0  0  0
 38 39  1  0  0  0
 38 40  1  0  0  0
  6  7  2  0  0  0
 12 16  1  0  0  0
 16 17  1  0  0  0
 17 18  1  0  0  0
 18 19  1  0  0  0
 19 20  1  0  0  0
 20 21  1  0  0  0
 19 22  1  0  0  0
 22 23  1  0  0  0
 22 24  1  0  0  0
 15 10  1  0  0  0
  7  1  1  0  0  0
 21 16  1  0  0  0
 34 29  1  0  0  0
  8  9  1  0  0  0
 27 28  1  0  0  0
M  END
> <minimizedAffinity>
-8.80882

> <CNNscore>
0.2530972064

> <CNNaffinity>
7.0121626854

> <CNN_VS>
1.7747588158

> <CNNaffinity_variance>
0.0372174121

$$$$
[H]c1nc(N([H])c2c([H])c([H])c(N3C([H])([H])C([H])([H])C([H])(N(C([H])([H])[H])C([H])([H])[H])C([H])([H])C3([H])[H])c([H])c2OC([H])([H])[H])nc(N([H])c2c([H])c([H])c([H])c([H])c2S(=O)(=O)C([H])(C([H])([H])[H])C([H])([H])[H])c1Cl


 40 43  0  0  0  0  0  0  0  0999 V2000
   -0.9385   22.6513  -23.5830 C   0  0  0  0  0  0  0  0  0  0  0  0
    0.2584   22.6846  -24.1590 N   0  0  0  0  0  0  0  0  0  0  0  0
    0.4350   22.6519  -25.4858 C   0  0  0  0  0  0  0  0  0  0  0  0
   -0.6379   22.5808  -26.3321 C   0  0  0  0  0  0  0  0  0  0  0  0
   -0.4660   22.5451  -28.0723 Cl  0  0  0  0  0  0  0  0  0  0  0  0
   -1.9371   22.5424  -25.7756 C   0  0  0  0  0  0  0  0  0  0  0  0
   -1.9809   22.5803  -24.4623 N   0  0  0  0  0  0  0  0  0  0  0  0
   -1.2200   22.6813  -22.1904 N   0  0  0  0  0  0  0  0  0  0  0  0
   -1.6550   23.5958  -21.8073 H   0  0  0  0  0  0  0  0  0  0  0  0
   -1.7350   21.7529  -20.0369 C   0  0  0  0  0  0  0  0  0  0  0  0
   -1.5320   20.7794  -19.1088 C   0  0  0  0  0  0  0  0  0  0  0  0
   -0.6626   19.7356  -19.2842 C   0  0  0  0  0  0  0  0  0  0  0  0
    0.0312   19.6870  -20.4657 C   0  0  0  0  0  0  0  0  0  0  0  0
   -0.1330   20.6518  -21.4517 C   0  0  0  0  0  0  0  0  0  0  0  0
   -1.0087   21.6862  -21.2524 C   0  0  0  0  0  0  0  0  0  0  0  0
   -0.4518   18.7075  -18.3009 N   0  0  0  0  0  0  0  0  0  0  0  0
   -1.2601   17.5223  -18.4507 C   0  0  0  0  0  0  0  0  0  0  0  0
   -0.9179   16.3903  -17.5527 C   0  0  0  0  0  0  0  0  0  0  0  0
    0.4390   16.5220  -16.9331 C   0  0  0  0  0  0  0  0  0  0  0  0
    0.5045   17.8497  -16.2068 C   0  0  0  0  0  0  0  0  0  0  0  0
    0.5120   18.9175  -17.2709 C   0  0  0  0  0  0  0  0  0  0  0  0
    0.7226   15.4010  -16.0703 N   0  0  0  0  0  0  0  0  0  0  0  0
    2.0430   14.8780  -16.2541 C   0  0  0  0  0  0  0  0  0  0  0  0
    0.4051   15.6632  -14.6860 C   0  0  0  0  0  0  0  0  0  0  0  0
   -3.9911   22.5607  -19.7833 C   0  0  0  0  0  0  0  0  0  0  0  0
   -2.6149   22.8006  -19.8481 O   0  0  0  0  0  0  0  0  0  0  0  0
   -3.0526   22.4277  -26.6340 N   0  0  0  0  0  0  0  0  0  0  0  0
   -2.8451   22.0279  -27.5720 H   0  0  0  0  0  0  0  0  0  0  0  0
   -4.3553   22.8235  -26.3447 C   0  0  0  0  0  0  0  0  0  0  0  0
   -4.9366   22.6952  -25.0829 C   0  0  0  0  0  0  0  0  0  0  0  0
   -6.1926   23.2095  -24.7976 C   0  0  0  0  0  0  0  0  0  0  0  0
   -6.9141   23.8689  -25.7528 C   0  0  0  0  0  0  0  0  0  0  0  0
   -6.3447   23.9941  -26.9905 C   0  0  0  0  0  0  0  0  0  0  0  0
   -5.0817   23.4918  -27.3315 C   0  0  0  0  0  0  0  0  0  0  0  0
   -4.5820   23.6364  -28.9621 S   0  0  0  0  0  0  0  0  0  0  0  0
   -3.1744   24.2769  -28.9624 O   0  0  0  0  0  0  0  0  0  0  0  0
   -4.3464   22.3265  -29.6735 O   0  0  0  0  0  0  0  0  0  0  0  0
   -5.5516   24.7072  -29.9731 C   0  0  0  0  0  0  0  0  0  0  0  0
   -4.8038   26.0168  -30.2423 C   0  0  0  0  0  0  0  0  0  0  0  0
   -5.9610   24.1667  -31.2799 C   0  0  0  0  0  0  0  0  0  0  0  0
 25 26  1  0  0  0
 26 10  1  0  0  0
 10 11  2  0  0  0
 11 12  1  0  0  0
 12 13  2  0  0  0
 13 14  1  0  0  0
 14 15  2  0  0  0
 15  8  1  0  0  0
  8  1  1  0  0  0
  1  2  2  0  0  0
  2  3  1  0  0  0
  3  4  2  0  0  0
  4  5  1  0  0  0
  4  6  1  0  0  0
  6 27  1  0  0  0
 27 29  1  0  0  0
 29 30  2  0  0  0
 30 31  1  0  0  0
 31 32  2  0  0  0
 32 33  1  0  0  0
 33 34  2  0  0  0
 34 35  1  0  0  0
 35 36  2  0  0  0
 35 37  2  0  0  0
 35 38  1  0  0  0
 38 39  1  0  0  0
 38 40  1  0  0  0
  6  7  2  0  0  0
 12 16  1  0  0  0
 16 17  1  0  0  0
 17 18  1  0  0  0
 18 19  1  0  0  0
 19 20  1  0  0  0
 20 21  1  0  0  0
 19 22  1  0  0  0
 22 23  1  0  0  0
 22 24  1  0  0  0
 15 10  1  0  0  0
  7  1  1  0  0  0
 21 16  1  0  0  0
 34 29  1  0  0  0
  8  9  1  0  0  0
 27 28  1  0  0  0
M  END
> <minimizedAffinity>
-7.27754

> <CNNscore>
0.2392634898

> <CNNaffinity>
6.8765068054

> <CNN_VS>
1.6452970505

> <CNNaffinity_variance>
0.0577403083

$$$$
[H]c1nc(N([H])c2c([H])c([H])c(N3C([H])([H])C([H])([H])C([H])(N(C([H])([H])[H])C([H])([H])[H])C([H])([H])C3([H])[H])c([H])c2OC([H])([H])[H])nc(N([H])c2c([H])c([H])c([H])c([H])c2S(=O)(=O)C([H])(C([H])([H])[H])C([H])([H])[H])c1Cl


 40 43  0  0  0  0  0  0  0  0999 V2000
   -1.1598   21.5420  -23.3605 C   0  0  0  0  0  0  0  0  0  0  0  0
    0.0176   21.4900  -23.9740 N   0  0  0  0  0  0  0  0  0  0  0  0
    0.2089   21.9099  -25.2308 C   0  0  0  0  0  0  0  0  0  0  0  0
   -0.8272   22.4258  -25.9607 C   0  0  0  0  0  0  0  0  0  0  0  0
   -0.6321   22.9977  -27.6020 Cl  0  0  0  0  0  0  0  0  0  0  0  0
   -2.1044   22.5058  -25.3594 C   0  0  0  0  0  0  0  0  0  0  0  0
   -2.1658   22.0628  -24.1232 N   0  0  0  0  0  0  0  0  0  0  0  0
   -1.4547   21.1212  -22.0355 N   0  0  0  0  0  0  0  0  0  0  0  0
   -2.3509   20.5275  -21.9077 H   0  0  0  0  0  0  0  0  0  0  0  0
   -1.4325   21.9415  -19.7791 C   0  0  0  0  0  0  0  0  0  0  0  0
   -0.7369   22.1942  -18.6378 C   0  0  0  0  0  0  0  0  0  0  0  0
    0.5990   21.9298  -18.4912 C   0  0  0  0  0  0  0  0  0  0  0  0
    1.2527   21.3807  -19.5639 C   0  0  0  0  0  0  0  0  0  0  0  0
    0.5968   21.1000  -20.7560 C   0  0  0  0  0  0  0  0  0  0  0  0
   -0.7399   21.3737  -20.8778 C   0  0  0  0  0  0  0  0  0  0  0  0
    1.3306   22.1973  -17.2823 N   0  0  0  0  0  0  0  0  0  0  0  0
    0.6668   21.8328  -16.0546 C   0  0  0  0  0  0  0  0  0  0  0  0
    1.4878   21.9368  -14.8218 C   0  0  0  0  0  0  0  0  0  0  0  0
    2.9572   22.0160  -15.1000 C   0  0  0  0  0  0  0  0  0  0  0  0
    3.2032   23.1828  -16.0340 C   0  0  0  0  0  0  0  0  0  0  0  0
    2.6255   22.7886  -17.3695 C   0  0  0  0  0  0  0  0  0  0  0  0
    3.7092   22.1171  -13.8729 N   0  0  0  0  0  0  0  0  0  0  0  0
    5.0694   22.5115  -14.0853 C   0  0  0  0  0  0  0  0  0  0  0  0
    3.0403   22.9097  -12.8678 C   0  0  0  0  0  0  0  0  0  0  0  0
   -3.7146   21.5546  -19.1090 C   0  0  0  0  0  0  0  0  0  0  0  0
   -2.7800   22.2127  -19.9146 O   0  0  0  0  0  0  0  0  0  0  0  0
   -3.1926   22.9977  -26.1131 N   0  0  0  0  0  0  0  0  0  0  0  0
   -3.5011   22.3809  -26.8923 H   0  0  0  0  0  0  0  0  0  0  0  0
   -3.8405   24.2148  -25.9216 C   0  0  0  0  0  0  0  0  0  0  0  0
   -3.8294   24.9110  -24.7127 C   0  0  0  0  0  0  0  0  0  0  0  0
   -4.3817   26.1771  -24.5896 C   0  0  0  0  0  0  0  0  0  0  0  0
   -4.9627   26.7960  -25.6606 C   0  0  0  0  0  0  0  0  0  0  0  0
   -4.9746   26.1132  -26.8461 C   0  0  0  0  0  0  0  0  0  0  0  0
   -4.4333   24.8329  -27.0236 C   0  0  0  0  0  0  0  0  0  0  0  0
   -4.6468   24.0834  -28.5475 S   0  0  0  0  0  0  0  0  0  0  0  0
   -3.2722   23.5306  -28.9909 O   0  0  0  0  0  0  0  0  0  0  0  0
   -5.5088   22.8448  -28.5319 O   0  0  0  0  0  0  0  0  0  0  0  0
   -5.1389   25.1454  -29.8664 C   0  0  0  0  0  0  0  0  0  0  0  0
   -3.9295   25.8954  -30.4335 C   0  0  0  0  0  0  0  0  0  0  0  0
   -5.8156   24.4957  -31.0009 C   0  0  0  0  0  0  0  0  0  0  0  0
 25 26  1  0  0  0
 26 10  1  0  0  0
 10 11  2  0  0  0
 11 12  1  0  0  0
 12 13  2  0  0  0
 13 14  1  0  0  0
 14 15  2  0  0  0
 15  8  1  0  0  0
  8  1  1  0  0  0
  1  2  2  0  0  0
  2  3  1  0  0  0
  3  4  2  0  0  0
  4  5  1  0  0  0
  4  6  1  0  0  0
  6 27  1  0  0  0
 27 29  1  0  0  0
 29 30  2  0  0  0
 30 31  1  0  0  0
 31 32  2  0  0  0
 32 33  1  0  0  0
 33 34  2  0  0  0
 34 35  1  0  0  0
 35 36  2  0  0  0
 35 37  2  0  0  0
 35 38  1  0  0  0
 38 39  1  0  0  0
 38 40  1  0  0  0
  6  7  2  0  0  0
 12 16  1  0  0  0
 16 17  1  0  0  0
 17 18  1  0  0  0
 18 19  1  0  0  0
 19 20  1  0  0  0
 20 21  1  0  0  0
 19 22  1  0  0  0
 22 23  1  0  0  0
 22 24  1  0  0  0
 15 10  1  0  0  0
  7  1  1  0  0  0
 21 16  1  0  0  0
 34 29  1  0  0  0
  8  9  1  0  0  0
 27 28  1  0  0  0
M  END
> <minimizedAffinity>
-8.25402

> <CNNscore>
0.2257995307

> <CNNaffinity>
6.8726682663

> <CNN_VS>
1.5518453121

> <CNNaffinity_variance>
0.0829009861

$$$$
[H]c1nc(N([H])c2c([H])c([H])c(N3C([H])([H])C([H])([H])C([H])(N(C([H])([H])[H])C([H])([H])[H])C([H])([H])C3([H])[H])c([H])c2OC([H])([H])[H])nc(N([H])c2c([H])c([H])c([H])c([H])c2S(=O)(=O)C([H])(C([H])([H])[H])C([H])([H])[H])c1Cl


 40 43  0  0  0  0  0  0  0  0999 V2000
   -0.5399   22.1606  -22.5685 C   0  0  0  0  0  0  0  0  0  0  0  0
    0.6697   22.0686  -23.1107 N   0  0  0  0  0  0  0  0  0  0  0  0
    0.8753   21.9353  -24.4269 C   0  0  0  0  0  0  0  0  0  0  0  0
   -0.1792   21.8864  -25.2976 C   0  0  0  0  0  0  0  0  0  0  0  0
    0.0314   21.7229  -27.0262 Cl  0  0  0  0  0  0  0  0  0  0  0  0
   -1.4907   21.9794  -24.7776 C   0  0  0  0  0  0  0  0  0  0  0  0
   -1.5632   22.1075  -23.4712 N   0  0  0  0  0  0  0  0  0  0  0  0
   -0.8519   22.3033  -21.1895 N   0  0  0  0  0  0  0  0  0  0  0  0
   -0.0613   22.6823  -20.5543 H   0  0  0  0  0  0  0  0  0  0  0  0
   -3.1223   22.9234  -20.7146 C   0  0  0  0  0  0  0  0  0  0  0  0
   -4.2973   22.6516  -20.0855 C   0  0  0  0  0  0  0  0  0  0  0  0
   -4.4968   21.5491  -19.2976 C   0  0  0  0  0  0  0  0  0  0  0  0
   -3.4432   20.6848  -19.1471 C   0  0  0  0  0  0  0  0  0  0  0  0
   -2.2187   20.9083  -19.7641 C   0  0  0  0  0  0  0  0  0  0  0  0
   -2.0441   22.0185  -20.5474 C   0  0  0  0  0  0  0  0  0  0  0  0
   -5.7412   21.2646  -18.6351 N   0  0  0  0  0  0  0  0  0  0  0  0
   -6.5012   22.4141  -18.2092 C   0  0  0  0  0  0  0  0  0  0  0  0
   -7.8642   22.1309  -17.6926 C   0  0  0  0  0  0  0  0  0  0  0  0
   -8.3628   20.7693  -18.0668 C   0  0  0  0  0  0  0  0  0  0  0  0
   -7.3584   19.7442  -17.5820 C   0  0  0  0  0  0  0  0  0  0  0  0
   -6.1335   19.9065  -18.4455 C   0  0  0  0  0  0  0  0  0  0  0  0
   -9.6870   20.5430  -17.5410 N   0  0  0  0  0  0  0  0  0  0  0  0
   -9.7435   19.4362  -16.6339 C   0  0  0  0  0  0  0  0  0  0  0  0
  -10.2931   21.7415  -17.0099 C   0  0  0  0  0  0  0  0  0  0  0  0
   -3.9245   24.4361  -22.4102 C   0  0  0  0  0  0  0  0  0  0  0  0
   -2.9335   24.0389  -21.5069 O   0  0  0  0  0  0  0  0  0  0  0  0
   -2.5906   21.8894  -25.6587 N   0  0  0  0  0  0  0  0  0  0  0  0
   -2.3406   21.7976  -26.6646 H   0  0  0  0  0  0  0  0  0  0  0  0
   -3.9350   21.9443  -25.3020 C   0  0  0  0  0  0  0  0  0  0  0  0
   -4.4965   21.1605  -24.2937 C   0  0  0  0  0  0  0  0  0  0  0  0
   -5.8102   21.3257  -23.8812 C   0  0  0  0  0  0  0  0  0  0  0  0
   -6.6111   22.2738  -24.4534 C   0  0  0  0  0  0  0  0  0  0  0  0
   -6.0611   23.0420  -25.4429 C   0  0  0  0  0  0  0  0  0  0  0  0
   -4.7418   22.9147  -25.8981 C   0  0  0  0  0  0  0  0  0  0  0  0
   -4.2626   23.8800  -27.2277 S   0  0  0  0  0  0  0  0  0  0  0  0
   -4.0197   25.3129  -26.6989 O   0  0  0  0  0  0  0  0  0  0  0  0
   -2.9245   23.5200  -27.8255 O   0  0  0  0  0  0  0  0  0  0  0  0
   -5.4608   24.0810  -28.5056 C   0  0  0  0  0  0  0  0  0  0  0  0
   -5.4021   25.4997  -29.0804 C   0  0  0  0  0  0  0  0  0  0  0  0
   -5.3569   23.1498  -29.6411 C   0  0  0  0  0  0  0  0  0  0  0  0
 25 26  1  0  0  0
 26 10  1  0  0  0
 10 11  2  0  0  0
 11 12  1  0  0  0
 12 13  2  0  0  0
 13 14  1  0  0  0
 14 15  2  0  0  0
 15  8  1  0  0  0
  8  1  1  0  0  0
  1  2  2  0  0  0
  2  3  1  0  0  0
  3  4  2  0  0  0
  4  5  1  0  0  0
  4  6  1  0  0  0
  6 27  1  0  0  0
 27 29  1  0  0  0
 29 30  2  0  0  0
 30 31  1  0  0  0
 31 32  2  0  0  0
 32 33  1  0  0  0
 33 34  2  0  0  0
 34 35  1  0  0  0
 35 36  2  0  0  0
 35 37  2  0  0  0
 35 38  1  0  0  0
 38 39  1  0  0  0
 38 40  1  0  0  0
  6  7  2  0  0  0
 12 16  1  0  0  0
 16 17  1  0  0  0
 17 18  1  0  0  0
 18 19  1  0  0  0
 19 20  1  0  0  0
 20 21  1  0  0  0
 19 22  1  0  0  0
 22 23  1  0  0  0
 22 24  1  0  0  0
 15 10  1  0  0  0
  7  1  1  0  0  0
 21 16  1  0  0  0
 34 29  1  0  0  0
  8  9  1  0  0  0
 27 28  1  0  0  0
M  END
> <minimizedAffinity>
-7.42262

> <CNNscore>
0.1945862174

> <CNNaffinity>
6.8871321678

> <CNN_VS>
1.3401409388

> <CNNaffinity_variance>
0.2684807479

$$$$
[H]c1nc(N([H])c2c([H])c([H])c(N3C([H])([H])C([H])([H])C([H])(N(C([H])([H])[H])C([H])([H])[H])C([H])([H])C3([H])[H])c([H])c2OC([H])([H])[H])nc(N([H])c2c([H])c([H])c([H])c([H])c2S(=O)(=O)C([H])(C([H])([H])[H])C([H])([H])[H])c1Cl


 40 43  0  0  0  0  0  0  0  0999 V2000
   -1.0976   21.6888  -23.7929 C   0  0  0  0  0  0  0  0  0  0  0  0
    0.1372   21.6064  -24.2766 N   0  0  0  0  0  0  0  0  0  0  0  0
    0.4727   22.0190  -25.5053 C   0  0  0  0  0  0  0  0  0  0  0  0
   -0.4659   22.5590  -26.3418 C   0  0  0  0  0  0  0  0  0  0  0  0
   -0.0817   23.1227  -27.9523 Cl  0  0  0  0  0  0  0  0  0  0  0  0
   -1.7979   22.6718  -25.8810 C   0  0  0  0  0  0  0  0  0  0  0  0
   -2.0026   22.2328  -24.6589 N   0  0  0  0  0  0  0  0  0  0  0  0
   -1.5433   21.2780  -22.5076 N   0  0  0  0  0  0  0  0  0  0  0  0
   -0.8701   20.6435  -21.9452 H   0  0  0  0  0  0  0  0  0  0  0  0
   -2.6953   21.8934  -20.4929 C   0  0  0  0  0  0  0  0  0  0  0  0
   -3.8630   22.1954  -19.8640 C   0  0  0  0  0  0  0  0  0  0  0  0
   -5.0786   22.2188  -20.4949 C   0  0  0  0  0  0  0  0  0  0  0  0
   -5.0986   21.9188  -21.8325 C   0  0  0  0  0  0  0  0  0  0  0  0
   -3.9392   21.6023  -22.5296 C   0  0  0  0  0  0  0  0  0  0  0  0
   -2.7355   21.5857  -21.8760 C   0  0  0  0  0  0  0  0  0  0  0  0
   -6.3109   22.5400  -19.8267 N   0  0  0  0  0  0  0  0  0  0  0  0
   -7.2629   23.2997  -20.5994 C   0  0  0  0  0  0  0  0  0  0  0  0
   -8.6019   23.4747  -19.9819 C   0  0  0  0  0  0  0  0  0  0  0  0
   -8.8631   22.5130  -18.8640 C   0  0  0  0  0  0  0  0  0  0  0  0
   -7.7543   22.6576  -17.8421 C   0  0  0  0  0  0  0  0  0  0  0  0
   -6.5084   22.1022  -18.4838 C   0  0  0  0  0  0  0  0  0  0  0  0
  -10.1730   22.7245  -18.2978 N   0  0  0  0  0  0  0  0  0  0  0  0
  -11.0244   23.5066  -19.1430 C   0  0  0  0  0  0  0  0  0  0  0  0
  -10.7936   21.5014  -17.8453 C   0  0  0  0  0  0  0  0  0  0  0  0
   -0.9152   23.0603  -19.3633 C   0  0  0  0  0  0  0  0  0  0  0  0
   -1.4754   21.8732  -19.8454 O   0  0  0  0  0  0  0  0  0  0  0  0
   -2.7863   23.1891  -26.7469 N   0  0  0  0  0  0  0  0  0  0  0  0
   -2.7741   22.7970  -27.7106 H   0  0  0  0  0  0  0  0  0  0  0  0
   -3.7215   24.1708  -26.4318 C   0  0  0  0  0  0  0  0  0  0  0  0
   -3.9440   24.6341  -25.1348 C   0  0  0  0  0  0  0  0  0  0  0  0
   -4.7951   25.6968  -24.8708 C   0  0  0  0  0  0  0  0  0  0  0  0
   -5.4536   26.3364  -25.8834 C   0  0  0  0  0  0  0  0  0  0  0  0
   -5.2363   25.8816  -27.1553 C   0  0  0  0  0  0  0  0  0  0  0  0
   -4.3896   24.8121  -27.4760 C   0  0  0  0  0  0  0  0  0  0  0  0
   -4.3336   24.3042  -29.1096 S   0  0  0  0  0  0  0  0  0  0  0  0
   -2.9881   24.7856  -29.7008 O   0  0  0  0  0  0  0  0  0  0  0  0
   -4.2634   22.8099  -29.3089 O   0  0  0  0  0  0  0  0  0  0  0  0
   -5.5548   24.9992  -30.1749 C   0  0  0  0  0  0  0  0  0  0  0  0
   -5.0360   26.2882  -30.8197 C   0  0  0  0  0  0  0  0  0  0  0  0
   -6.0305   24.1316  -31.2650 C   0  0  0  0  0  0  0  0  0  0  0  0
 25 26  1  0  0  0
 26 10  1  0  0  0
 10 11  2  0  0  0
 11 12  1  0  0  0
 12 13  2  0  0  0
 13 14  1  0  0  0
 14 15  2  0  0  0
 15  8  1  0  0  0
  8  1  1  0  0  0
  1  2  2  0  0  0
  2  3  1  0  0  0
  3  4  2  0  0  0
  4  5  1  0  0  0
  4  6  1  0  0  0
  6 27  1  0  0  0
 27 29  1  0  0  0
 29 30  2  0  0  0
 30 31  1  0  0  0
 31 32  2  0  0  0
 32 33  1  0  0  0
 33 34  2  0  0  0
 34 35  1  0  0  0
 35 36  2  0  0  0
 35 37  2  0  0  0
 35 38  1  0  0  0
 38 39  1  0  0  0
 38 40  1  0  0  0
  6  7  2  0  0  0
 12 16  1  0  0  0
 16 17  1  0  0  0
 17 18  1  0  0  0
 18 19  1  0  0  0
 19 20  1  0  0  0
 20 21  1  0  0  0
 19 22  1  0  0  0
 22 23  1  0  0  0
 22 24  1  0  0  0
 15 10  1  0  0  0
  7  1  1  0  0  0
 21 16  1  0  0  0
 34 29  1  0  0  0
  8  9  1  0  0  0
 27 28  1  0  0  0
M  END
> <minimizedAffinity>
-8.48663

> <CNNscore>
0.1843917519

> <CNNaffinity>
7.0292749405

> <CNN_VS>
1.2961403131

> <CNNaffinity_variance>
0.3644239902

$$$$
[H]c1nc(N([H])c2c([H])c([H])c(N3C([H])([H])C([H])([H])C([H])(N(C([H])([H])[H])C([H])([H])[H])C([H])([H])C3([H])[H])c([H])c2OC([H])([H])[H])nc(N([H])c2c([H])c([H])c([H])c([H])c2S(=O)(=O)C([H])(C([H])([H])[H])C([H])([H])[H])c1Cl


 40 43  0  0  0  0  0  0  0  0999 V2000
   -1.4755   22.4896  -23.0704 C   0  0  0  0  0  0  0  0  0  0  0  0
   -0.2066   22.3312  -23.4314 N   0  0  0  0  0  0  0  0  0  0  0  0
    0.1844   22.2178  -24.7069 C   0  0  0  0  0  0  0  0  0  0  0  0
   -0.7294   22.2611  -25.7245 C   0  0  0  0  0  0  0  0  0  0  0  0
   -0.2738   22.1276  -27.4078 Cl  0  0  0  0  0  0  0  0  0  0  0  0
   -2.0955   22.4279  -25.4003 C   0  0  0  0  0  0  0  0  0  0  0  0
   -2.3540   22.5274  -24.1152 N   0  0  0  0  0  0  0  0  0  0  0  0
   -1.9803   22.6179  -21.7482 N   0  0  0  0  0  0  0  0  0  0  0  0
   -1.2492   22.7931  -20.9692 H   0  0  0  0  0  0  0  0  0  0  0  0
   -4.1118   23.6933  -21.4934 C   0  0  0  0  0  0  0  0  0  0  0  0
   -5.4052   23.6328  -21.0767 C   0  0  0  0  0  0  0  0  0  0  0  0
   -5.9637   22.5228  -20.5004 C   0  0  0  0  0  0  0  0  0  0  0  0
   -5.1594   21.4237  -20.3436 C   0  0  0  0  0  0  0  0  0  0  0  0
   -3.8306   21.4246  -20.7491 C   0  0  0  0  0  0  0  0  0  0  0  0
   -3.2953   22.5473  -21.3231 C   0  0  0  0  0  0  0  0  0  0  0  0
   -7.3322   22.4623  -20.0623 N   0  0  0  0  0  0  0  0  0  0  0  0
   -7.6975   21.2877  -19.3091 C   0  0  0  0  0  0  0  0  0  0  0  0
   -9.0521   21.3065  -18.7013 C   0  0  0  0  0  0  0  0  0  0  0  0
   -9.6471   22.6792  -18.6358 C   0  0  0  0  0  0  0  0  0  0  0  0
   -9.6549   23.2625  -20.0337 C   0  0  0  0  0  0  0  0  0  0  0  0
   -8.2154   23.5330  -20.3904 C   0  0  0  0  0  0  0  0  0  0  0  0
  -10.9607   22.6435  -18.0402 N   0  0  0  0  0  0  0  0  0  0  0  0
  -11.8984   23.4932  -18.7107 C   0  0  0  0  0  0  0  0  0  0  0  0
  -11.4530   21.2998  -17.8456 C   0  0  0  0  0  0  0  0  0  0  0  0
   -4.2003   25.4413  -23.1498 C   0  0  0  0  0  0  0  0  0  0  0  0
   -3.5601   24.8189  -22.0735 O   0  0  0  0  0  0  0  0  0  0  0  0
   -3.0551   22.4334  -26.4364 N   0  0  0  0  0  0  0  0  0  0  0  0
   -2.6878   22.1779  -27.3759 H   0  0  0  0  0  0  0  0  0  0  0  0
   -4.3989   22.7731  -26.3090 C   0  0  0  0  0  0  0  0  0  0  0  0
   -5.1265   22.6074  -25.1302 C   0  0  0  0  0  0  0  0  0  0  0  0
   -6.4283   23.0673  -25.0002 C   0  0  0  0  0  0  0  0  0  0  0  0
   -7.0525   23.7077  -26.0337 C   0  0  0  0  0  0  0  0  0  0  0  0
   -6.3396   23.8696  -27.1902 C   0  0  0  0  0  0  0  0  0  0  0  0
   -5.0244   23.4225  -27.3744 C   0  0  0  0  0  0  0  0  0  0  0  0
   -4.3326   23.6054  -28.9293 S   0  0  0  0  0  0  0  0  0  0  0  0
   -2.9068   24.1738  -28.7404 O   0  0  0  0  0  0  0  0  0  0  0  0
   -4.0758   22.3140  -29.6669 O   0  0  0  0  0  0  0  0  0  0  0  0
   -5.1286   24.7623  -29.9956 C   0  0  0  0  0  0  0  0  0  0  0  0
   -4.1148   25.7659  -30.5538 C   0  0  0  0  0  0  0  0  0  0  0  0
   -5.8497   24.1914  -31.1452 C   0  0  0  0  0  0  0  0  0  0  0  0
 25 26  1  0  0  0
 26 10  1  0  0  0
 10 11  2  0  0  0
 11 12  1  0  0  0
 12 13  2  0  0  0
 13 14  1  0  0  0
 14 15  2  0  0  0
 15  8  1  0  0  0
  8  1  1  0  0  0
  1  2  2  0  0  0
  2  3  1  0  0  0
  3  4  2  0  0  0
  4  5  1  0  0  0
  4  6  1  0  0  0
  6 27  1  0  0  0
 27 29  1  0  0  0
 29 30  2  0  0  0
 30 31  1  0  0  0
 31 32  2  0  0  0
 32 33  1  0  0  0
 33 34  2  0  0  0
 34 35  1  0  0  0
 35 36  2  0  0  0
 35 37  2  0  0  0
 35 38  1  0  0  0
 38 39  1  0  0  0
 38 40  1  0  0  0
  6  7  2  0  0  0
 12 16  1  0  0  0
 16 17  1  0  0  0
 17 18  1  0  0  0
 18 19  1  0  0  0
 19 20  1  0  0  0
 20 21  1  0  0  0
 19 22  1  0  0  0
 22 23  1  0  0  0
 22 24  1  0  0  0
 15 10  1  0  0  0
  7  1  1  0  0  0
 21 16  1  0  0  0
 34 29  1  0  0  0
  8  9  1  0  0  0
 27 28  1  0  0  0
M  END
> <minimizedAffinity>
-8.24333

> <CNNscore>
0.1353385299

> <CNNaffinity>
6.8208341599

> <CNN_VS>
0.9231216908

> <CNNaffinity_variance>
0.4889189303

$$$$
[H]N=C(N([H])[H])N([H])C([H])([H])C([H])([H])C([H])([H])[C@@]([H])(C(=O)c1nc([H])c([H])s1)N([H])C(=O)[C@@]([H])(N([H])C(=O)[C@@]([H])(N([H])C(=O)OC([H])([H])c1c([H])c([H])c([H])c([H])c1[H])C([H])([H])c1c([H])c([H])c([H])c([H])c1[H])C([H])([H])C([H])([H])C([H])([H])N([H])C(=N[H])N([H])[H]


 59 61  0  0  0  0  0  0  0  0999 V2000
   -3.0783   22.5255  -20.1196 C   0  0  0  0  0  0  0  0  0  0  0  0
   -3.5003   22.0458  -21.4204 N   0  0  0  0  0  0  0  0  0  0  0  0
   -3.9290   22.9270  -22.4427 C   0  0  0  0  0  0  0  0  0  0  0  0
   -3.9110   24.1746  -22.1402 O   0  0  0  0  0  0  0  0  0  0  0  0
   -3.4920   21.0250  -21.6252 H   0  0  0  0  0  0  0  0  0  0  0  0
   -4.3907   22.5770  -23.7931 C   0  0  0  0  0  0  0  0  0  0  0  0
   -4.3740   23.7660  -24.6388 N   0  0  0  0  0  0  0  0  0  0  0  0
   -5.4949   24.3451  -25.2526 C   0  0  0  0  0  0  0  0  0  0  0  0
   -6.6182   23.8183  -25.0798 O   0  0  0  0  0  0  0  0  0  0  0  0
   -3.4267   24.1994  -24.7744 H   0  0  0  0  0  0  0  0  0  0  0  0
   -5.4250   25.4770  -26.0438 O   0  0  0  0  0  0  0  0  0  0  0  0
   -4.6000   25.6929  -27.1332 C   0  0  0  0  0  0  0  0  0  0  0  0
   -4.9545   25.0231  -28.3809 C   0  0  0  0  0  0  0  0  0  0  0  0
   -5.0398   23.6641  -28.5699 C   0  0  0  0  0  0  0  0  0  0  0  0
   -5.3748   23.0909  -29.7667 C   0  0  0  0  0  0  0  0  0  0  0  0
   -5.6421   23.8959  -30.8440 C   0  0  0  0  0  0  0  0  0  0  0  0
   -5.5735   25.2654  -30.7190 C   0  0  0  0  0  0  0  0  0  0  0  0
   -5.2370   25.8050  -29.5111 C   0  0  0  0  0  0  0  0  0  0  0  0
   -3.6770   21.4369  -24.4528 C   0  0  0  0  0  0  0  0  0  0  0  0
   -2.4301   21.7722  -25.1344 C   0  0  0  0  0  0  0  0  0  0  0  0
   -1.2468   21.8946  -24.4522 C   0  0  0  0  0  0  0  0  0  0  0  0
   -0.0962   22.2286  -25.1480 C   0  0  0  0  0  0  0  0  0  0  0  0
   -0.1550   22.4327  -26.5138 C   0  0  0  0  0  0  0  0  0  0  0  0
   -1.3319   22.3148  -27.2231 C   0  0  0  0  0  0  0  0  0  0  0  0
   -2.4639   21.9804  -26.4987 C   0  0  0  0  0  0  0  0  0  0  0  0
   -1.6002   22.6687  -20.1205 C   0  0  0  0  0  0  0  0  0  0  0  0
   -1.0882   23.7841  -20.3047 O   0  0  0  0  0  0  0  0  0  0  0  0
   -0.7456   21.5453  -19.9119 N   0  0  0  0  0  0  0  0  0  0  0  0
   -1.1817   20.6218  -19.7510 H   0  0  0  0  0  0  0  0  0  0  0  0
    0.6984   21.6524  -19.9146 C   0  0  0  0  0  0  0  0  0  0  0  0
    1.2720   20.6283  -20.7622 C   0  0  0  0  0  0  0  0  0  0  0  0
    1.4509   20.8790  -22.0063 O   0  0  0  0  0  0  0  0  0  0  0  0
    1.6609   19.3144  -20.2645 C   0  0  0  0  0  0  0  0  0  0  0  0
    2.6410   18.9120  -19.4758 N   0  0  0  0  0  0  0  0  0  0  0  0
    2.7675   17.6658  -19.1710 C   0  0  0  0  0  0  0  0  0  0  0  0
    1.8609   16.7788  -19.6865 C   0  0  0  0  0  0  0  0  0  0  0  0
    0.8552   17.8214  -20.6028 S   0  0  0  0  0  0  0  0  0  0  0  0
    1.2143   21.7613  -18.5197 C   0  0  0  0  0  0  0  0  0  0  0  0
    2.3756   22.6246  -18.2524 C   0  0  0  0  0  0  0  0  0  0  0  0
    2.2194   24.0922  -18.3949 C   0  0  0  0  0  0  0  0  0  0  0  0
    3.4079   24.7354  -17.7801 N   0  0  0  0  0  0  0  0  0  0  0  0
    3.7652   25.6422  -18.1441 H   0  0  0  0  0  0  0  0  0  0  0  0
    4.0429   24.1049  -16.7018 C   0  0  0  0  0  0  0  0  0  0  0  0
    5.2979   23.4655  -16.8674 N   0  0  0  0  0  0  0  0  0  0  0  0
    3.4946   24.0987  -15.5414 N   0  0  0  0  0  0  0  0  0  0  0  0
    5.6216   23.2320  -17.8268 H   0  0  0  0  0  0  0  0  0  0  0  0
    5.8900   23.2307  -16.0503 H   0  0  0  0  0  0  0  0  0  0  0  0
    3.9452   23.6391  -14.7293 H   0  0  0  0  0  0  0  0  0  0  0  0
   -3.3685   21.4063  -19.1353 C   0  0  0  0  0  0  0  0  0  0  0  0
   -4.4065   21.7143  -18.1206 C   0  0  0  0  0  0  0  0  0  0  0  0
   -3.8813   22.2788  -16.8418 C   0  0  0  0  0  0  0  0  0  0  0  0
   -4.2036   23.7090  -16.8568 N   0  0  0  0  0  0  0  0  0  0  0  0
   -3.5876   24.3646  -17.3793 H   0  0  0  0  0  0  0  0  0  0  0  0
   -5.3168   24.4142  -14.7819 N   0  0  0  0  0  0  0  0  0  0  0  0
   -5.3189   24.2324  -16.1881 C   0  0  0  0  0  0  0  0  0  0  0  0
   -6.3680   24.5570  -16.8544 N   0  0  0  0  0  0  0  0  0  0  0  0
   -6.1778   24.1441  -14.2550 H   0  0  0  0  0  0  0  0  0  0  0  0
   -4.4610   24.8088  -14.3330 H   0  0  0  0  0  0  0  0  0  0  0  0
   -6.4448   24.4543  -17.8743 H   0  0  0  0  0  0  0  0  0  0  0  0
 54 55  1  0  0  0
 55 56  2  0  0  0
 55 52  1  0  0  0
 52 51  1  0  0  0
 51 50  1  0  0  0
 50 49  1  0  0  0
 49  1  1  0  0  0
  1  2  1  0  0  0
  2  3  1  0  0  0
  3  4  2  0  0  0
  3  6  1  0  0  0
  6 19  1  0  0  0
 19 20  1  0  0  0
 20 21  2  0  0  0
 21 22  1  0  0  0
 22 23  2  0  0  0
 23 24  1  0  0  0
 24 25  2  0  0  0
  6  7  1  0  0  0
  7  8  1  0  0  0
  8  9  2  0  0  0
  8 11  1  0  0  0
 11 12  1  0  0  0
 12 13  1  0  0  0
 13 14  2  0  0  0
 14 15  1  0  0  0
 15 16  2  0  0  0
 16 17  1  0  0  0
 17 18  2  0  0  0
  1 26  1  0  0  0
 26 27  2  0  0  0
 26 28  1  0  0  0
 28 30  1  0  0  0
 30 38  1  0  0  0
 38 39  1  0  0  0
 39 40  1  0  0  0
 40 41  1  0  0  0
 41 43  1  0  0  0
 43 44  1  0  0  0
 43 45  2  0  0  0
 30 31  1  0  0  0
 31 32  2  0  0  0
 31 33  1  0  0  0
 33 34  2  0  0  0
 34 35  1  0  0  0
 35 36  2  0  0  0
 36 37  1  0  0  0
 25 20  1  0  0  0
 18 13  1  0  0  0
 37 33  1  0  0  0
 54 57  1  0  0  0
 54 58  1  0  0  0
 56 59  1  0  0  0
 52 53  1  0  0  0
  2  5  1  0  0  0
  7 10  1  0  0  0
 28 29  1  0  0  0
 41 42  1  0  0  0
 44 46  1  0  0  0
 44 47  1  0  0  0
 45 48  1  0  0  0
M  END
> <minimizedAffinity>
-7.93589

> <CNNscore>
0.1521659791

> <CNNaffinity>
6.3923578262

> <CNN_VS>
0.9726994038

> <CNNaffinity_variance>
0.7284723520

$$$$
[H]N=C(N([H])[H])N([H])C([H])([H])C([H])([H])C([H])([H])[C@@]([H])(C(=O)c1nc([H])c([H])s1)N([H])C(=O)[C@@]([H])(N([H])C(=O)[C@@]([H])(N([H])C(=O)OC([H])([H])c1c([H])c([H])c([H])c([H])c1[H])C([H])([H])c1c([H])c([H])c([H])c([H])c1[H])C([H])([H])C([H])([H])C([H])([H])N([H])C(=N[H])N([H])[H]


 59 61  0  0  0  0  0  0  0  0999 V2000
   -8.1859   24.9765  -21.5934 C   0  0  0  0  0  0  0  0  0  0  0  0
   -7.3974   24.4626  -22.6954 N   0  0  0  0  0  0  0  0  0  0  0  0
   -6.8328   25.3142  -23.6759 C   0  0  0  0  0  0  0  0  0  0  0  0
   -7.0614   26.5675  -23.5170 O   0  0  0  0  0  0  0  0  0  0  0  0
   -7.2308   23.4385  -22.7814 H   0  0  0  0  0  0  0  0  0  0  0  0
   -6.0280   24.9280  -24.8432 C   0  0  0  0  0  0  0  0  0  0  0  0
   -5.1442   23.8240  -24.4838 N   0  0  0  0  0  0  0  0  0  0  0  0
   -3.9092   23.9486  -23.8297 C   0  0  0  0  0  0  0  0  0  0  0  0
   -3.5038   25.0917  -23.5166 O   0  0  0  0  0  0  0  0  0  0  0  0
   -5.4962   22.8706  -24.7499 H   0  0  0  0  0  0  0  0  0  0  0  0
   -3.1097   22.8672  -23.5083 O   0  0  0  0  0  0  0  0  0  0  0  0
   -2.7315   21.8247  -24.3355 C   0  0  0  0  0  0  0  0  0  0  0  0
   -1.8518   22.1475  -25.4549 C   0  0  0  0  0  0  0  0  0  0  0  0
   -0.4786   22.1969  -25.4124 C   0  0  0  0  0  0  0  0  0  0  0  0
    0.2965   22.5095  -26.4962 C   0  0  0  0  0  0  0  0  0  0  0  0
   -0.3084   22.7911  -27.6940 C   0  0  0  0  0  0  0  0  0  0  0  0
   -1.6807   22.7586  -27.8013 C   0  0  0  0  0  0  0  0  0  0  0  0
   -2.4246   22.4427  -26.7012 C   0  0  0  0  0  0  0  0  0  0  0  0
   -6.7950   24.6192  -26.0925 C   0  0  0  0  0  0  0  0  0  0  0  0
   -6.0069   24.5167  -27.3173 C   0  0  0  0  0  0  0  0  0  0  0  0
   -5.9768   23.3644  -28.0600 C   0  0  0  0  0  0  0  0  0  0  0  0
   -5.2003   23.3185  -29.2065 C   0  0  0  0  0  0  0  0  0  0  0  0
   -4.4698   24.4290  -29.5854 C   0  0  0  0  0  0  0  0  0  0  0  0
   -4.4836   25.5998  -28.8566 C   0  0  0  0  0  0  0  0  0  0  0  0
   -5.2690   25.6133  -27.7161 C   0  0  0  0  0  0  0  0  0  0  0  0
   -8.0416   24.0588  -20.4349 C   0  0  0  0  0  0  0  0  0  0  0  0
   -9.0509   23.6660  -19.8290 O   0  0  0  0  0  0  0  0  0  0  0  0
   -6.7591   23.6121  -19.9972 N   0  0  0  0  0  0  0  0  0  0  0  0
   -5.9248   23.9380  -20.5136 H   0  0  0  0  0  0  0  0  0  0  0  0
   -6.5863   22.7236  -18.8670 C   0  0  0  0  0  0  0  0  0  0  0  0
   -5.4883   23.1780  -18.0398 C   0  0  0  0  0  0  0  0  0  0  0  0
   -4.3161   23.2590  -18.5517 O   0  0  0  0  0  0  0  0  0  0  0  0
   -5.6529   23.5527  -16.6407 C   0  0  0  0  0  0  0  0  0  0  0  0
   -6.5377   24.3093  -16.0166 N   0  0  0  0  0  0  0  0  0  0  0  0
   -6.4698   24.4807  -14.7407 C   0  0  0  0  0  0  0  0  0  0  0  0
   -5.4592   23.8587  -14.0575 C   0  0  0  0  0  0  0  0  0  0  0  0
   -4.6476   23.0435  -15.3282 S   0  0  0  0  0  0  0  0  0  0  0  0
   -6.5655   21.3032  -19.3206 C   0  0  0  0  0  0  0  0  0  0  0  0
   -7.6806   20.4178  -18.9492 C   0  0  0  0  0  0  0  0  0  0  0  0
   -8.5349   20.7938  -17.7971 C   0  0  0  0  0  0  0  0  0  0  0  0
   -9.8949   21.0826  -18.3176 N   0  0  0  0  0  0  0  0  0  0  0  0
  -10.0208   21.5133  -19.2563 H   0  0  0  0  0  0  0  0  0  0  0  0
  -11.0084   20.7673  -17.5275 C   0  0  0  0  0  0  0  0  0  0  0  0
  -11.8757   19.7026  -17.8817 N   0  0  0  0  0  0  0  0  0  0  0  0
  -11.2595   21.4411  -16.4645 N   0  0  0  0  0  0  0  0  0  0  0  0
  -11.8458   19.3298  -18.8512 H   0  0  0  0  0  0  0  0  0  0  0  0
  -12.5326   19.2961  -17.1915 H   0  0  0  0  0  0  0  0  0  0  0  0
  -12.0767   21.2264  -15.8646 H   0  0  0  0  0  0  0  0  0  0  0  0
   -9.6398   24.8586  -22.0151 C   0  0  0  0  0  0  0  0  0  0  0  0
  -10.5013   26.0040  -21.6308 C   0  0  0  0  0  0  0  0  0  0  0  0
  -11.6964   26.2066  -22.5028 C   0  0  0  0  0  0  0  0  0  0  0  0
  -12.3282   27.4522  -22.0572 N   0  0  0  0  0  0  0  0  0  0  0  0
  -13.1531   27.4073  -21.4248 H   0  0  0  0  0  0  0  0  0  0  0  0
  -12.0923   29.8671  -21.6639 N   0  0  0  0  0  0  0  0  0  0  0  0
  -11.8607   28.7128  -22.4540 C   0  0  0  0  0  0  0  0  0  0  0  0
  -11.2081   28.8340  -23.5537 N   0  0  0  0  0  0  0  0  0  0  0  0
  -12.3727   30.7453  -22.1558 H   0  0  0  0  0  0  0  0  0  0  0  0
  -11.9734   29.7934  -20.6295 H   0  0  0  0  0  0  0  0  0  0  0  0
  -11.0014   28.0447  -24.1789 H   0  0  0  0  0  0  0  0  0  0  0  0
 54 55  1  0  0  0
 55 56  2  0  0  0
 55 52  1  0  0  0
 52 51  1  0  0  0
 51 50  1  0  0  0
 50 49  1  0  0  0
 49  1  1  0  0  0
  1  2  1  0  0  0
  2  3  1  0  0  0
  3  4  2  0  0  0
  3  6  1  0  0  0
  6 19  1  0  0  0
 19 20  1  0  0  0
 20 21  2  0  0  0
 21 22  1  0  0  0
 22 23  2  0  0  0
 23 24  1  0  0  0
 24 25  2  0  0  0
  6  7  1  0  0  0
  7  8  1  0  0  0
  8  9  2  0  0  0
  8 11  1  0  0  0
 11 12  1  0  0  0
 12 13  1  0  0  0
 13 14  2  0  0  0
 14 15  1  0  0  0
 15 16  2  0  0  0
 16 17  1  0  0  0
 17 18  2  0  0  0
  1 26  1  0  0  0
 26 27  2  0  0  0
 26 28  1  0  0  0
 28 30  1  0  0  0
 30 38  1  0  0  0
 38 39  1  0  0  0
 39 40  1  0  0  0
 40 41  1  0  0  0
 41 43  1  0  0  0
 43 44  1  0  0  0
 43 45  2  0  0  0
 30 31  1  0  0  0
 31 32  2  0  0  0
 31 33  1  0  0  0
 33 34  2  0  0  0
 34 35  1  0  0  0
 35 36  2  0  0  0
 36 37  1  0  0  0
 25 20  1  0  0  0
 18 13  1  0  0  0
 37 33  1  0  0  0
 54 57  1  0  0  0
 54 58  1  0  0  0
 56 59  1  0  0  0
 52 53  1  0  0  0
  2  5  1  0  0  0
  7 10  1  0  0  0
 28 29  1  0  0  0
 41 42  1  0  0  0
 44 46  1  0  0  0
 44 47  1  0  0  0
 45 48  1  0  0  0
M  END
> <minimizedAffinity>
-8.21042

> <CNNscore>
0.1460397094

> <CNNaffinity>
6.7148199081

> <CNN_VS>
0.9806303382

> <CNNaffinity_variance>
0.3391196132

$$$$
[H]N=C(N([H])[H])N([H])C([H])([H])C([H])([H])C([H])([H])[C@@]([H])(C(=O)c1nc([H])c([H])s1)N([H])C(=O)[C@@]([H])(N([H])C(=O)[C@@]([H])(N([H])C(=O)OC([H])([H])c1c([H])c([H])c([H])c([H])c1[H])C([H])([H])c1c([H])c([H])c([H])c([H])c1[H])C([H])([H])C([H])([H])C([H])([H])N([H])C(=N[H])N([H])[H]


 59 61  0  0  0  0  0  0  0  0999 V2000
   -5.9703   22.5447  -22.4022 C   0  0  0  0  0  0  0  0  0  0  0  0
   -4.7569   21.9177  -21.9177 N   0  0  0  0  0  0  0  0  0  0  0  0
   -4.0363   22.4312  -20.8121 C   0  0  0  0  0  0  0  0  0  0  0  0
   -4.5345   23.4817  -20.2677 O   0  0  0  0  0  0  0  0  0  0  0  0
   -4.3923   21.0619  -22.3854 H   0  0  0  0  0  0  0  0  0  0  0  0
   -2.7946   21.9051  -20.2284 C   0  0  0  0  0  0  0  0  0  0  0  0
   -1.9840   21.2918  -21.2752 N   0  0  0  0  0  0  0  0  0  0  0  0
   -1.2234   21.9855  -22.2285 C   0  0  0  0  0  0  0  0  0  0  0  0
   -1.2217   23.2379  -22.2051 O   0  0  0  0  0  0  0  0  0  0  0  0
   -1.9923   20.2413  -21.2830 H   0  0  0  0  0  0  0  0  0  0  0  0
   -0.4681   21.3546  -23.1998 O   0  0  0  0  0  0  0  0  0  0  0  0
    0.3048   21.9475  -24.1822 C   0  0  0  0  0  0  0  0  0  0  0  0
   -0.3407   22.2234  -25.4623 C   0  0  0  0  0  0  0  0  0  0  0  0
   -1.6862   22.1205  -25.7250 C   0  0  0  0  0  0  0  0  0  0  0  0
   -2.2361   22.3898  -26.9489 C   0  0  0  0  0  0  0  0  0  0  0  0
   -1.4204   22.7832  -27.9784 C   0  0  0  0  0  0  0  0  0  0  0  0
   -0.0634   22.9050  -27.7789 C   0  0  0  0  0  0  0  0  0  0  0  0
    0.4529   22.6293  -26.5457 C   0  0  0  0  0  0  0  0  0  0  0  0
   -1.9882   22.8771  -19.4227 C   0  0  0  0  0  0  0  0  0  0  0  0
   -1.3096   22.3286  -18.2519 C   0  0  0  0  0  0  0  0  0  0  0  0
   -2.0044   21.7378  -17.2279 C   0  0  0  0  0  0  0  0  0  0  0  0
   -1.3101   21.2467  -16.1341 C   0  0  0  0  0  0  0  0  0  0  0  0
    0.0669   21.3577  -16.0893 C   0  0  0  0  0  0  0  0  0  0  0  0
    0.7890   21.9465  -17.1061 C   0  0  0  0  0  0  0  0  0  0  0  0
    0.0657   22.4275  -18.1847 C   0  0  0  0  0  0  0  0  0  0  0  0
   -7.1299   21.9591  -21.6826 C   0  0  0  0  0  0  0  0  0  0  0  0
   -7.7328   20.9896  -22.1691 O   0  0  0  0  0  0  0  0  0  0  0  0
   -7.5720   22.4878  -20.4333 N   0  0  0  0  0  0  0  0  0  0  0  0
   -7.0581   23.2902  -20.0320 H   0  0  0  0  0  0  0  0  0  0  0  0
   -8.7033   21.9431  -19.7121 C   0  0  0  0  0  0  0  0  0  0  0  0
   -9.5689   23.0130  -19.2624 C   0  0  0  0  0  0  0  0  0  0  0  0
   -9.9349   23.0424  -18.0344 O   0  0  0  0  0  0  0  0  0  0  0  0
  -10.0477   24.0690  -20.1460 C   0  0  0  0  0  0  0  0  0  0  0  0
   -9.6093   24.5338  -21.3021 N   0  0  0  0  0  0  0  0  0  0  0  0
  -10.2304   25.4911  -21.9018 C   0  0  0  0  0  0  0  0  0  0  0  0
  -11.3506   26.0074  -21.3074 C   0  0  0  0  0  0  0  0  0  0  0  0
  -11.4431   25.0574  -19.8838 S   0  0  0  0  0  0  0  0  0  0  0  0
   -8.2442   20.9543  -18.6947 C   0  0  0  0  0  0  0  0  0  0  0  0
   -6.8704   21.0479  -18.1758 C   0  0  0  0  0  0  0  0  0  0  0  0
   -6.6140   21.9000  -16.9897 C   0  0  0  0  0  0  0  0  0  0  0  0
   -5.4959   22.8173  -17.3250 N   0  0  0  0  0  0  0  0  0  0  0  0
   -4.5583   22.4394  -17.5713 H   0  0  0  0  0  0  0  0  0  0  0  0
   -5.7196   24.2005  -17.3055 C   0  0  0  0  0  0  0  0  0  0  0  0
   -5.0559   25.0333  -16.3689 N   0  0  0  0  0  0  0  0  0  0  0  0
   -6.5326   24.7365  -18.1416 N   0  0  0  0  0  0  0  0  0  0  0  0
   -4.6141   24.6001  -15.5341 H   0  0  0  0  0  0  0  0  0  0  0  0
   -5.0070   26.0590  -16.5063 H   0  0  0  0  0  0  0  0  0  0  0  0
   -6.7139   25.7566  -18.1463 H   0  0  0  0  0  0  0  0  0  0  0  0
   -6.1341   22.1029  -23.8457 C   0  0  0  0  0  0  0  0  0  0  0  0
   -5.3226   22.8594  -24.8311 C   0  0  0  0  0  0  0  0  0  0  0  0
   -5.8479   24.2177  -25.1612 C   0  0  0  0  0  0  0  0  0  0  0  0
   -4.6784   25.0887  -25.3130 N   0  0  0  0  0  0  0  0  0  0  0  0
   -4.1048   25.0251  -26.1785 H   0  0  0  0  0  0  0  0  0  0  0  0
   -4.0276   27.3649  -24.6520 N   0  0  0  0  0  0  0  0  0  0  0  0
   -4.2990   26.0115  -24.3283 C   0  0  0  0  0  0  0  0  0  0  0  0
   -4.1931   25.6324  -23.1056 N   0  0  0  0  0  0  0  0  0  0  0  0
   -3.1977   27.8154  -24.2044 H   0  0  0  0  0  0  0  0  0  0  0  0
   -4.6641   27.8536  -25.3196 H   0  0  0  0  0  0  0  0  0  0  0  0
   -4.3729   24.6694  -22.7942 H   0  0  0  0  0  0  0  0  0  0  0  0
 54 55  1  0  0  0
 55 56  2  0  0  0
 55 52  1  0  0  0
 52 51  1  0  0  0
 51 50  1  0  0  0
 50 49  1  0  0  0
 49  1  1  0  0  0
  1  2  1  0  0  0
  2  3  1  0  0  0
  3  4  2  0  0  0
  3  6  1  0  0  0
  6 19  1  0  0  0
 19 20  1  0  0  0
 20 21  2  0  0  0
 21 22  1  0  0  0
 22 23  2  0  0  0
 23 24  1  0  0  0
 24 25  2  0  0  0
  6  7  1  0  0  0
  7  8  1  0  0  0
  8  9  2  0  0  0
  8 11  1  0  0  0
 11 12  1  0  0  0
 12 13  1  0  0  0
 13 14  2  0  0  0
 14 15  1  0  0  0
 15 16  2  0  0  0
 16 17  1  0  0  0
 17 18  2  0  0  0
  1 26  1  0  0  0
 26 27  2  0  0  0
 26 28  1  0  0  0
 28 30  1  0  0  0
 30 38  1  0  0  0
 38 39  1  0  0  0
 39 40  1  0  0  0
 40 41  1  0  0  0
 41 43  1  0  0  0
 43 44  1  0  0  0
 43 45  2  0  0  0
 30 31  1  0  0  0
 31 32  2  0  0  0
 31 33  1  0  0  0
 33 34  2  0  0  0
 34 35  1  0  0  0
 35 36  2  0  0  0
 36 37  1  0  0  0
 25 20  1  0  0  0
 18 13  1  0  0  0
 37 33  1  0  0  0
 54 57  1  0  0  0
 54 58  1  0  0  0
 56 59  1  0  0  0
 52 53  1  0  0  0
  2  5  1  0  0  0
  7 10  1  0  0  0
 28 29  1  0  0  0
 41 42  1  0  0  0
 44 46  1  0  0  0
 44 47  1  0  0  0
 45 48  1  0  0  0
M  END
> <minimizedAffinity>
-7.35100

> <CNNscore>
0.1118594930

> <CNNaffinity>
5.7901968956

> <CNN_VS>
0.6476885080

> <CNNaffinity_variance>
1.9483613968

$$$$
[H]N=C(N([H])[H])N([H])C([H])([H])C([H])([H])C([H])([H])[C@@]([H])(C(=O)c1nc([H])c([H])s1)N([H])C(=O)[C@@]([H])(N([H])C(=O)[C@@]([H])(N([H])C(=O)OC([H])([H])c1c([H])c([H])c([H])c([H])c1[H])C([H])([H])c1c([H])c([H])c([H])c([H])c1[H])C([H])([H])C([H])([H])C([H])([H])N([H])C(=N[H])N([H])[H]


 59 61  0  0  0  0  0  0  0  0999 V2000
   -0.7382   22.6756  -23.6279 C   0  0  0  0  0  0  0  0  0  0  0  0
   -1.1464   21.8975  -22.4755 N   0  0  0  0  0  0  0  0  0  0  0  0
   -1.6031   22.5069  -21.2816 C   0  0  0  0  0  0  0  0  0  0  0  0
   -1.6366   23.7903  -21.2942 O   0  0  0  0  0  0  0  0  0  0  0  0
   -1.1099   20.8576  -22.5117 H   0  0  0  0  0  0  0  0  0  0  0  0
   -2.0335   21.8428  -20.0434 C   0  0  0  0  0  0  0  0  0  0  0  0
   -3.3617   21.2692  -20.2328 N   0  0  0  0  0  0  0  0  0  0  0  0
   -4.5756   21.9546  -20.0738 C   0  0  0  0  0  0  0  0  0  0  0  0
   -4.5488   23.1616  -19.7400 O   0  0  0  0  0  0  0  0  0  0  0  0
   -3.3707   20.2571  -20.5144 H   0  0  0  0  0  0  0  0  0  0  0  0
   -5.8104   21.3637  -20.2692 O   0  0  0  0  0  0  0  0  0  0  0  0
   -6.7622   21.0659  -19.3104 C   0  0  0  0  0  0  0  0  0  0  0  0
   -8.0488   21.7480  -19.4140 C   0  0  0  0  0  0  0  0  0  0  0  0
   -8.3705   22.7278  -20.3231 C   0  0  0  0  0  0  0  0  0  0  0  0
   -9.5957   23.3358  -20.3714 C   0  0  0  0  0  0  0  0  0  0  0  0
  -10.5647   22.9631  -19.4759 C   0  0  0  0  0  0  0  0  0  0  0  0
  -10.3043   21.9872  -18.5401 C   0  0  0  0  0  0  0  0  0  0  0  0
   -9.0720   21.4004  -18.5192 C   0  0  0  0  0  0  0  0  0  0  0  0
   -1.0842   20.8292  -19.4815 C   0  0  0  0  0  0  0  0  0  0  0  0
    0.0816   21.3636  -18.7834 C   0  0  0  0  0  0  0  0  0  0  0  0
    0.0264   21.7250  -17.4617 C   0  0  0  0  0  0  0  0  0  0  0  0
    1.1596   22.2399  -16.8532 C   0  0  0  0  0  0  0  0  0  0  0  0
    2.3255   22.3817  -17.5820 C   0  0  0  0  0  0  0  0  0  0  0  0
    2.4073   22.0249  -18.9118 C   0  0  0  0  0  0  0  0  0  0  0  0
    1.2576   21.5141  -19.4906 C   0  0  0  0  0  0  0  0  0  0  0  0
   -1.7562   22.5145  -24.6971 C   0  0  0  0  0  0  0  0  0  0  0  0
   -1.4336   22.0147  -25.7863 O   0  0  0  0  0  0  0  0  0  0  0  0
   -3.1092   22.9229  -24.5013 N   0  0  0  0  0  0  0  0  0  0  0  0
   -3.3701   23.3303  -23.5875 H   0  0  0  0  0  0  0  0  0  0  0  0
   -4.1219   22.7853  -25.5270 C   0  0  0  0  0  0  0  0  0  0  0  0
   -4.3062   24.0449  -26.2167 C   0  0  0  0  0  0  0  0  0  0  0  0
   -4.0558   25.1371  -25.5945 O   0  0  0  0  0  0  0  0  0  0  0  0
   -4.7655   24.1321  -27.5975 C   0  0  0  0  0  0  0  0  0  0  0  0
   -4.9790   23.2186  -28.5274 N   0  0  0  0  0  0  0  0  0  0  0  0
   -5.4040   23.5594  -29.6958 C   0  0  0  0  0  0  0  0  0  0  0  0
   -5.6256   24.8881  -29.9411 C   0  0  0  0  0  0  0  0  0  0  0  0
   -5.1970   25.5834  -28.4342 S   0  0  0  0  0  0  0  0  0  0  0  0
   -5.3355   22.1186  -24.9734 C   0  0  0  0  0  0  0  0  0  0  0  0
   -5.7927   22.4750  -23.6209 C   0  0  0  0  0  0  0  0  0  0  0  0
   -6.8422   23.5122  -23.4744 C   0  0  0  0  0  0  0  0  0  0  0  0
   -6.1669   24.8324  -23.4043 N   0  0  0  0  0  0  0  0  0  0  0  0
   -6.2541   25.5125  -24.1868 H   0  0  0  0  0  0  0  0  0  0  0  0
   -5.4097   25.1513  -22.2692 C   0  0  0  0  0  0  0  0  0  0  0  0
   -6.0390   25.4695  -21.0388 N   0  0  0  0  0  0  0  0  0  0  0  0
   -4.1276   25.1585  -22.3274 N   0  0  0  0  0  0  0  0  0  0  0  0
   -7.0461   25.7255  -21.0395 H   0  0  0  0  0  0  0  0  0  0  0  0
   -5.5111   25.4499  -20.1476 H   0  0  0  0  0  0  0  0  0  0  0  0
   -3.5468   25.3910  -21.5014 H   0  0  0  0  0  0  0  0  0  0  0  0
    0.5158   22.0130  -24.1700 C   0  0  0  0  0  0  0  0  0  0  0  0
    1.3197   21.2718  -23.1669 C   0  0  0  0  0  0  0  0  0  0  0  0
    2.7444   21.0452  -23.5525 C   0  0  0  0  0  0  0  0  0  0  0  0
    3.4990   20.9285  -22.3009 N   0  0  0  0  0  0  0  0  0  0  0  0
    3.6680   21.7794  -21.7267 H   0  0  0  0  0  0  0  0  0  0  0  0
    3.8586   18.5157  -22.6024 N   0  0  0  0  0  0  0  0  0  0  0  0
    4.0068   19.7045  -21.8440 C   0  0  0  0  0  0  0  0  0  0  0  0
    4.6206   19.6492  -20.7169 N   0  0  0  0  0  0  0  0  0  0  0  0
    3.5990   17.6418  -22.0918 H   0  0  0  0  0  0  0  0  0  0  0  0
    4.0146   18.5613  -23.6336 H   0  0  0  0  0  0  0  0  0  0  0  0
    4.7669   20.4670  -20.1116 H   0  0  0  0  0  0  0  0  0  0  0  0
 54 55  1  0  0  0
 55 56  2  0  0  0
 55 52  1  0  0  0
 52 51  1  0  0  0
 51 50  1  0  0  0
 50 49  1  0  0  0
 49  1  1  0  0  0
  1  2  1  0  0  0
  2  3  1  0  0  0
  3  4  2  0  0  0
  3  6  1  0  0  0
  6 19  1  0  0  0
 19 20  1  0  0  0
 20 21  2  0  0  0
 21 22  1  0  0  0
 22 23  2  0  0  0
 23 24  1  0  0  0
 24 25  2  0  0  0
  6  7  1  0  0  0
  7  8  1  0  0  0
  8  9  2  0  0  0
  8 11  1  0  0  0
 11 12  1  0  0  0
 12 13  1  0  0  0
 13 14  2  0  0  0
 14 15  1  0  0  0
 15 16  2  0  0  0
 16 17  1  0  0  0
 17 18  2  0  0  0
  1 26  1  0  0  0
 26 27  2  0  0  0
 26 28  1  0  0  0
 28 30  1  0  0  0
 30 38  1  0  0  0
 38 39  1  0  0  0
 39 40  1  0  0  0
 40 41  1  0  0  0
 41 43  1  0  0  0
 43 44  1  0  0  0
 43 45  2  0  0  0
 30 31  1  0  0  0
 31 32  2  0  0  0
 31 33  1  0  0  0
 33 34  2  0  0  0
 34 35  1  0  0  0
 35 36  2  0  0  0
 36 37  1  0  0  0
 25 20  1  0  0  0
 18 13  1  0  0  0
 37 33  1  0  0  0
 54 57  1  0  0  0
 54 58  1  0  0  0
 56 59  1  0  0  0
 52 53  1  0  0  0
  2  5  1  0  0  0
  7 10  1  0  0  0
 28 29  1  0  0  0
 41 42  1  0  0  0
 44 46  1  0  0  0
 44 47  1  0  0  0
 45 48  1  0  0  0
M  END
> <minimizedAffinity>
-6.80635

> <CNNscore>
0.1072040349

> <CNNaffinity>
6.7477035522

> <CNN_VS>
0.7233810425

> <CNNaffinity_variance>
0.2822281718

$$$$
[H]N=C(N([H])[H])N([H])C([H])([H])C([H])([H])C([H])([H])[C@@]([H])(C(=O)c1nc([H])c([H])s1)N([H])C(=O)[C@@]([H])(N([H])C(=O)[C@@]([H])(N([H])C(=O)OC([H])([H])c1c([H])c([H])c([H])c([H])c1[H])C([H])([H])c1c([H])c([H])c([H])c([H])c1[H])C([H])([H])C([H])([H])C([H])([H])N([H])C(=N[H])N([H])[H]


 59 61  0  0  0  0  0  0  0  0999 V2000
   -5.7854   23.0625  -19.5637 C   0  0  0  0  0  0  0  0  0  0  0  0
   -5.3742   22.9094  -20.9449 N   0  0  0  0  0  0  0  0  0  0  0  0
   -5.1019   24.0239  -21.7751 C   0  0  0  0  0  0  0  0  0  0  0  0
   -5.2375   25.1732  -21.2192 O   0  0  0  0  0  0  0  0  0  0  0  0
   -5.2697   21.9574  -21.3531 H   0  0  0  0  0  0  0  0  0  0  0  0
   -4.6908   24.0121  -23.1858 C   0  0  0  0  0  0  0  0  0  0  0  0
   -3.5483   23.1204  -23.3545 N   0  0  0  0  0  0  0  0  0  0  0  0
   -2.2204   23.4250  -23.0190 C   0  0  0  0  0  0  0  0  0  0  0  0
   -1.9627   24.5505  -22.5333 O   0  0  0  0  0  0  0  0  0  0  0  0
   -3.7776   22.1792  -23.7609 H   0  0  0  0  0  0  0  0  0  0  0  0
   -1.1723   22.5407  -23.1964 O   0  0  0  0  0  0  0  0  0  0  0  0
   -1.0278   21.5964  -24.1972 C   0  0  0  0  0  0  0  0  0  0  0  0
   -0.9476   22.0870  -25.5699 C   0  0  0  0  0  0  0  0  0  0  0  0
    0.2003   22.4667  -26.2241 C   0  0  0  0  0  0  0  0  0  0  0  0
    0.2145   22.9231  -27.5143 C   0  0  0  0  0  0  0  0  0  0  0  0
   -0.9657   23.0141  -28.2062 C   0  0  0  0  0  0  0  0  0  0  0  0
   -2.1500   22.6490  -27.6062 C   0  0  0  0  0  0  0  0  0  0  0  0
   -2.1293   22.1973  -26.3182 C   0  0  0  0  0  0  0  0  0  0  0  0
   -5.7689   23.6997  -24.1780 C   0  0  0  0  0  0  0  0  0  0  0  0
   -5.5110   24.1151  -25.5539 C   0  0  0  0  0  0  0  0  0  0  0  0
   -6.0051   23.4125  -26.6228 C   0  0  0  0  0  0  0  0  0  0  0  0
   -5.7173   23.8442  -27.9075 C   0  0  0  0  0  0  0  0  0  0  0  0
   -4.9402   24.9719  -28.0945 C   0  0  0  0  0  0  0  0  0  0  0  0
   -4.4322   25.6964  -27.0366 C   0  0  0  0  0  0  0  0  0  0  0  0
   -4.7375   25.2387  -25.7657 C   0  0  0  0  0  0  0  0  0  0  0  0
   -4.5781   23.0273  -18.6998 C   0  0  0  0  0  0  0  0  0  0  0  0
   -4.5778   23.6292  -17.6145 O   0  0  0  0  0  0  0  0  0  0  0  0
   -3.4072   22.3110  -19.0895 N   0  0  0  0  0  0  0  0  0  0  0  0
   -3.4201   21.8057  -19.9915 H   0  0  0  0  0  0  0  0  0  0  0  0
   -2.2129   22.2645  -18.2722 C   0  0  0  0  0  0  0  0  0  0  0  0
   -1.0515   22.6019  -19.0682 C   0  0  0  0  0  0  0  0  0  0  0  0
   -0.6814   23.8268  -19.1403 O   0  0  0  0  0  0  0  0  0  0  0  0
   -0.2747   21.6068  -19.7973 C   0  0  0  0  0  0  0  0  0  0  0  0
   -0.6184   20.6329  -20.6207 N   0  0  0  0  0  0  0  0  0  0  0  0
    0.2801   19.8784  -21.1550 C   0  0  0  0  0  0  0  0  0  0  0  0
    1.5922   20.1163  -20.8445 C   0  0  0  0  0  0  0  0  0  0  0  0
    1.4477   21.4471  -19.7741 S   0  0  0  0  0  0  0  0  0  0  0  0
   -2.1673   20.9959  -17.4898 C   0  0  0  0  0  0  0  0  0  0  0  0
   -2.9542   19.8418  -17.9527 C   0  0  0  0  0  0  0  0  0  0  0  0
   -2.4405   18.4767  -17.6859 C   0  0  0  0  0  0  0  0  0  0  0  0
   -1.4848   18.1334  -18.7687 N   0  0  0  0  0  0  0  0  0  0  0  0
   -0.7646   18.8191  -19.0748 H   0  0  0  0  0  0  0  0  0  0  0  0
   -1.5650   16.8722  -19.3742 C   0  0  0  0  0  0  0  0  0  0  0  0
   -0.5953   16.4551  -20.3213 N   0  0  0  0  0  0  0  0  0  0  0  0
   -2.5226   16.0711  -19.0768 N   0  0  0  0  0  0  0  0  0  0  0  0
    0.0164   17.1692  -20.7637 H   0  0  0  0  0  0  0  0  0  0  0  0
   -0.4908   15.4561  -20.5747 H   0  0  0  0  0  0  0  0  0  0  0  0
   -2.6026   15.1339  -19.5113 H   0  0  0  0  0  0  0  0  0  0  0  0
   -6.5656   21.8095  -19.2075 C   0  0  0  0  0  0  0  0  0  0  0  0
   -8.0358   21.9137  -19.3790 C   0  0  0  0  0  0  0  0  0  0  0  0
   -8.5619   23.3106  -19.4219 C   0  0  0  0  0  0  0  0  0  0  0  0
   -9.6835   23.3022  -20.3661 N   0  0  0  0  0  0  0  0  0  0  0  0
   -9.6542   22.6629  -21.1863 H   0  0  0  0  0  0  0  0  0  0  0  0
  -10.6710   25.5380  -20.1058 N   0  0  0  0  0  0  0  0  0  0  0  0
  -10.8035   24.1299  -20.2060 C   0  0  0  0  0  0  0  0  0  0  0  0
  -11.9771   23.6111  -20.1482 N   0  0  0  0  0  0  0  0  0  0  0  0
  -11.2496   26.0314  -19.3891 H   0  0  0  0  0  0  0  0  0  0  0  0
  -10.0057   26.0216  -20.7485 H   0  0  0  0  0  0  0  0  0  0  0  0
  -12.1528   22.6004  -20.2131 H   0  0  0  0  0  0  0  0  0  0  0  0
 54 55  1  0  0  0
 55 56  2  0  0  0
 55 52  1  0  0  0
 52 51  1  0  0  0
 51 50  1  0  0  0
 50 49  1  0  0  0
 49  1  1  0  0  0
  1  2  1  0  0  0
  2  3  1  0  0  0
  3  4  2  0  0  0
  3  6  1  0  0  0
  6 19  1  0  0  0
 19 20  1  0  0  0
 20 21  2  0  0  0
 21 22  1  0  0  0
 22 23  2  0  0  0
 23 24  1  0  0  0
 24 25  2  0  0  0
  6  7  1  0  0  0
  7  8  1  0  0  0
  8  9  2  0  0  0
  8 11  1  0  0  0
 11 12  1  0  0  0
 12 13  1  0  0  0
 13 14  2  0  0  0
 14 15  1  0  0  0
 15 16  2  0  0  0
 16 17  1  0  0  0
 17 18  2  0  0  0
  1 26  1  0  0  0
 26 27  2  0  0  0
 26 28  1  0  0  0
 28 30  1  0  0  0
 30 38  1  0  0  0
 38 39  1  0  0  0
 39 40  1  0  0  0
 40 41  1  0  0  0
 41 43  1  0  0  0
 43 44  1  0  0  0
 43 45  2  0  0  0
 30 31  1  0  0  0
 31 32  2  0  0  0
 31 33  1  0  0  0
 33 34  2  0  0  0
 34 35  1  0  0  0
 35 36  2  0  0  0
 36 37  1  0  0  0
 25 20  1  0  0  0
 18 13  1  0  0  0
 37 33  1  0  0  0
 54 57  1  0  0  0
 54 58  1  0  0  0
 56 59  1  0  0  0
 52 53  1  0  0  0
  2  5  1  0  0  0
  7 10  1  0  0  0
 28 29  1  0  0  0
 41 42  1  0  0  0
 44 46  1  0  0  0
 44 47  1  0  0  0
 45 48  1  0  0  0
M  END
> <minimizedAffinity>
-6.97578

> <CNNscore>
0.1019847766

> <CNNaffinity>
6.4120888710

> <CNN_VS>
0.6539354324

> <CNNaffinity_variance>
0.8199254870

$$$$
[H]N=C(N([H])[H])N([H])C([H])([H])C([H])([H])C([H])([H])[C@@]([H])(C(=O)c1nc([H])c([H])s1)N([H])C(=O)[C@@]([H])(N([H])C(=O)[C@@]([H])(N([H])C(=O)OC([H])([H])c1c([H])c([H])c([H])c([H])c1[H])C([H])([H])c1c([H])c([H])c([H])c([H])c1[H])C([H])([H])C([H])([H])C([H])([H])N([H])C(=N[H])N([H])[H]


 59 61  0  0  0  0  0  0  0  0999 V2000
   -6.5256   23.5931  -24.1016 C   0  0  0  0  0  0  0  0  0  0  0  0
   -5.3073   23.6043  -24.8864 N   0  0  0  0  0  0  0  0  0  0  0  0
   -5.3235   23.5089  -26.2992 C   0  0  0  0  0  0  0  0  0  0  0  0
   -6.4874   23.4195  -26.8337 O   0  0  0  0  0  0  0  0  0  0  0  0
   -4.3844   23.6859  -24.4115 H   0  0  0  0  0  0  0  0  0  0  0  0
   -4.1708   23.4966  -27.2105 C   0  0  0  0  0  0  0  0  0  0  0  0
   -3.0663   22.7712  -26.5917 N   0  0  0  0  0  0  0  0  0  0  0  0
   -1.7684   22.6630  -27.1135 C   0  0  0  0  0  0  0  0  0  0  0  0
   -1.5060   23.2246  -28.2020 O   0  0  0  0  0  0  0  0  0  0  0  0
   -3.2985   22.3064  -25.6786 H   0  0  0  0  0  0  0  0  0  0  0  0
   -0.7547   21.9645  -26.4840 O   0  0  0  0  0  0  0  0  0  0  0  0
    0.2465   22.4772  -25.6785 C   0  0  0  0  0  0  0  0  0  0  0  0
    0.4021   21.8877  -24.3520 C   0  0  0  0  0  0  0  0  0  0  0  0
    1.5877   21.4908  -23.7806 C   0  0  0  0  0  0  0  0  0  0  0  0
    1.6728   20.9398  -22.5307 C   0  0  0  0  0  0  0  0  0  0  0  0
    0.5286   20.7661  -21.7954 C   0  0  0  0  0  0  0  0  0  0  0  0
   -0.6906   21.1435  -22.3122 C   0  0  0  0  0  0  0  0  0  0  0  0
   -0.7404   21.6906  -23.5619 C   0  0  0  0  0  0  0  0  0  0  0  0
   -4.4380   22.9917  -28.5954 C   0  0  0  0  0  0  0  0  0  0  0  0
   -4.7540   24.0071  -29.5959 C   0  0  0  0  0  0  0  0  0  0  0  0
   -5.7015   23.7938  -30.5640 C   0  0  0  0  0  0  0  0  0  0  0  0
   -5.9509   24.7872  -31.4971 C   0  0  0  0  0  0  0  0  0  0  0  0
   -5.2455   25.9745  -31.4405 C   0  0  0  0  0  0  0  0  0  0  0  0
   -4.2885   26.2140  -30.4767 C   0  0  0  0  0  0  0  0  0  0  0  0
   -4.0626   25.2014  -29.5594 C   0  0  0  0  0  0  0  0  0  0  0  0
   -6.3827   24.5620  -22.9853 C   0  0  0  0  0  0  0  0  0  0  0  0
   -5.3235   25.1940  -22.8482 O   0  0  0  0  0  0  0  0  0  0  0  0
   -7.4433   24.7874  -22.0579 N   0  0  0  0  0  0  0  0  0  0  0  0
   -8.3248   24.2624  -22.1854 H   0  0  0  0  0  0  0  0  0  0  0  0
   -7.3309   25.7197  -20.9557 C   0  0  0  0  0  0  0  0  0  0  0  0
   -6.8720   25.0322  -19.7670 C   0  0  0  0  0  0  0  0  0  0  0  0
   -5.8124   25.4482  -19.1780 O   0  0  0  0  0  0  0  0  0  0  0  0
   -7.5636   23.8803  -19.2014 C   0  0  0  0  0  0  0  0  0  0  0  0
   -7.5446   23.3271  -18.0021 N   0  0  0  0  0  0  0  0  0  0  0  0
   -8.2719   22.2942  -17.7449 C   0  0  0  0  0  0  0  0  0  0  0  0
   -9.0589   21.7921  -18.7465 C   0  0  0  0  0  0  0  0  0  0  0  0
   -8.6937   22.8666  -20.0309 S   0  0  0  0  0  0  0  0  0  0  0  0
   -8.5700   26.5416  -20.8414 C   0  0  0  0  0  0  0  0  0  0  0  0
   -9.7802   26.1143  -21.5613 C   0  0  0  0  0  0  0  0  0  0  0  0
  -11.0827   26.7126  -21.1820 C   0  0  0  0  0  0  0  0  0  0  0  0
  -10.8563   28.1546  -20.9107 N   0  0  0  0  0  0  0  0  0  0  0  0
  -10.4110   28.4613  -20.0219 H   0  0  0  0  0  0  0  0  0  0  0  0
  -11.2504   29.0984  -21.8685 C   0  0  0  0  0  0  0  0  0  0  0  0
  -11.6175   30.4142  -21.4874 N   0  0  0  0  0  0  0  0  0  0  0  0
  -11.2834   28.7836  -23.1123 N   0  0  0  0  0  0  0  0  0  0  0  0
  -11.8504   30.6041  -20.4927 H   0  0  0  0  0  0  0  0  0  0  0  0
  -11.6558   31.1811  -22.1829 H   0  0  0  0  0  0  0  0  0  0  0  0
  -11.5712   29.4645  -23.8384 H   0  0  0  0  0  0  0  0  0  0  0  0
   -6.5953   22.2293  -23.4377 C   0  0  0  0  0  0  0  0  0  0  0  0
   -5.4302   21.3460  -23.6910 C   0  0  0  0  0  0  0  0  0  0  0  0
   -4.2985   21.5146  -22.7314 C   0  0  0  0  0  0  0  0  0  0  0  0
   -4.9016   21.7026  -21.4084 N   0  0  0  0  0  0  0  0  0  0  0  0
   -5.7620   21.1729  -21.1608 H   0  0  0  0  0  0  0  0  0  0  0  0
   -4.5462   22.3605  -19.0669 N   0  0  0  0  0  0  0  0  0  0  0  0
   -4.3598   22.5766  -20.4557 C   0  0  0  0  0  0  0  0  0  0  0  0
   -3.6790   23.5961  -20.8393 N   0  0  0  0  0  0  0  0  0  0  0  0
   -4.7694   23.1894  -18.4710 H   0  0  0  0  0  0  0  0  0  0  0  0
   -4.4529   21.3884  -18.6982 H   0  0  0  0  0  0  0  0  0  0  0  0
   -3.5014   23.8187  -21.8270 H   0  0  0  0  0  0  0  0  0  0  0  0
 54 55  1  0  0  0
 55 56  2  0  0  0
 55 52  1  0  0  0
 52 51  1  0  0  0
 51 50  1  0  0  0
 50 49  1  0  0  0
 49  1  1  0  0  0
  1  2  1  0  0  0
  2  3  1  0  0  0
  3  4  2  0  0  0
  3  6  1  0  0  0
  6 19  1  0  0  0
 19 20  1  0  0  0
 20 21  2  0  0  0
 21 22  1  0  0  0
 22 23  2  0  0  0
 23 24  1  0  0  0
 24 25  2  0  0  0
  6  7  1  0  0  0
  7  8  1  0  0  0
  8  9  2  0  0  0
  8 11  1  0  0  0
 11 12  1  0  0  0
 12 13  1  0  0  0
 13 14  2  0  0  0
 14 15  1  0  0  0
 15 16  2  0  0  0
 16 17  1  0  0  0
 17 18  2  0  0  0
  1 26  1  0  0  0
 26 27  2  0  0  0
 26 28  1  0  0  0
 28 30  1  0  0  0
 30 38  1  0  0  0
 38 39  1  0  0  0
 39 40  1  0  0  0
 40 41  1  0  0  0
 41 43  1  0  0  0
 43 44  1  0  0  0
 43 45  2  0  0  0
 30 31  1  0  0  0
 31 32  2  0  0  0
 31 33  1  0  0  0
 33 34  2  0  0  0
 34 35  1  0  0  0
 35 36  2  0  0  0
 36 37  1  0  0  0
 25 20  1  0  0  0
 18 13  1  0  0  0
 37 33  1  0  0  0
 54 57  1  0  0  0
 54 58  1  0  0  0
 56 59  1  0  0  0
 52 53  1  0  0  0
  2  5  1  0  0  0
  7 10  1  0  0  0
 28 29  1  0  0  0
 41 42  1  0  0  0
 44 46  1  0  0  0
 44 47  1  0  0  0
 45 48  1  0  0  0
M  END
> <minimizedAffinity>
-8.61822

> <CNNscore>
0.1000144705

> <CNNaffinity>
6.7588448524

> <CNN_VS>
0.6759822965

> <CNNaffinity_variance>
0.4539783895

$$$$
[H]N=C(N([H])[H])N([H])C([H])([H])C([H])([H])C([H])([H])[C@@]([H])(C(=O)c1nc([H])c([H])s1)N([H])C(=O)[C@@]([H])(N([H])C(=O)[C@@]([H])(N([H])C(=O)OC([H])([H])c1c([H])c([H])c([H])c([H])c1[H])C([H])([H])c1c([H])c([H])c([H])c([H])c1[H])C([H])([H])C([H])([H])C([H])([H])N([H])C(=N[H])N([H])[H]


 59 61  0  0  0  0  0  0  0  0999 V2000
   -7.2482   25.0786  -21.6394 C   0  0  0  0  0  0  0  0  0  0  0  0
   -6.5405   24.6060  -22.8124 N   0  0  0  0  0  0  0  0  0  0  0  0
   -6.3354   25.4277  -23.9473 C   0  0  0  0  0  0  0  0  0  0  0  0
   -6.8119   26.6168  -23.8619 O   0  0  0  0  0  0  0  0  0  0  0  0
   -6.1641   23.6355  -22.8357 H   0  0  0  0  0  0  0  0  0  0  0  0
   -5.6505   25.0743  -25.1984 C   0  0  0  0  0  0  0  0  0  0  0  0
   -5.0354   23.7580  -25.0638 N   0  0  0  0  0  0  0  0  0  0  0  0
   -3.9074   23.4616  -24.2839 C   0  0  0  0  0  0  0  0  0  0  0  0
   -3.3593   24.3848  -23.6386 O   0  0  0  0  0  0  0  0  0  0  0  0
   -5.5052   22.9921  -25.6082 H   0  0  0  0  0  0  0  0  0  0  0  0
   -3.3648   22.1934  -24.1878 O   0  0  0  0  0  0  0  0  0  0  0  0
   -2.0518   21.8202  -24.4134 C   0  0  0  0  0  0  0  0  0  0  0  0
   -1.4525   22.2243  -25.6818 C   0  0  0  0  0  0  0  0  0  0  0  0
   -0.1129   22.4317  -25.9102 C   0  0  0  0  0  0  0  0  0  0  0  0
    0.3927   22.8142  -27.1231 C   0  0  0  0  0  0  0  0  0  0  0  0
   -0.4640   23.0057  -28.1762 C   0  0  0  0  0  0  0  0  0  0  0  0
   -1.8176   22.8142  -28.0114 C   0  0  0  0  0  0  0  0  0  0  0  0
   -2.2892   22.4322  -26.7887 C   0  0  0  0  0  0  0  0  0  0  0  0
   -6.4800   25.1564  -26.4433 C   0  0  0  0  0  0  0  0  0  0  0  0
   -5.7938   24.8331  -27.6909 C   0  0  0  0  0  0  0  0  0  0  0  0
   -5.9709   23.6268  -28.3185 C   0  0  0  0  0  0  0  0  0  0  0  0
   -5.2833   23.3679  -29.4932 C   0  0  0  0  0  0  0  0  0  0  0  0
   -4.4322   24.3239  -30.0150 C   0  0  0  0  0  0  0  0  0  0  0  0
   -4.2374   25.5448  -29.4038 C   0  0  0  0  0  0  0  0  0  0  0  0
   -4.9387   25.7724  -28.2316 C   0  0  0  0  0  0  0  0  0  0  0  0
   -6.7830   24.3074  -20.4586 C   0  0  0  0  0  0  0  0  0  0  0  0
   -6.1856   24.8877  -19.5386 O   0  0  0  0  0  0  0  0  0  0  0  0
   -7.0088   22.9025  -20.3539 N   0  0  0  0  0  0  0  0  0  0  0  0
   -7.5149   22.4295  -21.1216 H   0  0  0  0  0  0  0  0  0  0  0  0
   -6.5609   22.1228  -19.2190 C   0  0  0  0  0  0  0  0  0  0  0  0
   -7.3587   22.4378  -18.0526 C   0  0  0  0  0  0  0  0  0  0  0  0
   -6.7676   22.7947  -16.9728 O   0  0  0  0  0  0  0  0  0  0  0  0
   -8.8149   22.3696  -18.0469 C   0  0  0  0  0  0  0  0  0  0  0  0
   -9.7415   23.0007  -18.7453 N   0  0  0  0  0  0  0  0  0  0  0  0
  -10.9914   22.7496  -18.5537 C   0  0  0  0  0  0  0  0  0  0  0  0
  -11.3260   21.8152  -17.6105 C   0  0  0  0  0  0  0  0  0  0  0  0
   -9.7793   21.3430  -17.0426 S   0  0  0  0  0  0  0  0  0  0  0  0
   -5.0783   22.2066  -19.0831 C   0  0  0  0  0  0  0  0  0  0  0  0
   -4.2298   21.5958  -20.1187 C   0  0  0  0  0  0  0  0  0  0  0  0
   -2.9506   22.2571  -20.4722 C   0  0  0  0  0  0  0  0  0  0  0  0
   -1.9704   21.1946  -20.8103 N   0  0  0  0  0  0  0  0  0  0  0  0
   -2.2913   20.2278  -21.0219 H   0  0  0  0  0  0  0  0  0  0  0  0
   -0.6057   21.5110  -20.8412 C   0  0  0  0  0  0  0  0  0  0  0  0
    0.2538   20.9376  -21.8126 N   0  0  0  0  0  0  0  0  0  0  0  0
   -0.1117   22.3307  -19.9860 N   0  0  0  0  0  0  0  0  0  0  0  0
   -0.0613   20.0919  -22.3277 H   0  0  0  0  0  0  0  0  0  0  0  0
    1.1837   21.3484  -22.0127 H   0  0  0  0  0  0  0  0  0  0  0  0
    0.8940   22.5798  -19.9893 H   0  0  0  0  0  0  0  0  0  0  0  0
   -8.7016   24.6808  -21.8264 C   0  0  0  0  0  0  0  0  0  0  0  0
   -9.6689   25.8060  -21.8111 C   0  0  0  0  0  0  0  0  0  0  0  0
  -11.0235   25.4722  -22.3435 C   0  0  0  0  0  0  0  0  0  0  0  0
  -11.4137   26.5870  -23.2120 N   0  0  0  0  0  0  0  0  0  0  0  0
  -11.4272   26.4490  -24.2431 H   0  0  0  0  0  0  0  0  0  0  0  0
  -12.6974   27.9696  -21.6364 N   0  0  0  0  0  0  0  0  0  0  0  0
  -11.7718   27.8431  -22.7031 C   0  0  0  0  0  0  0  0  0  0  0  0
  -11.2559   28.9062  -23.2065 N   0  0  0  0  0  0  0  0  0  0  0  0
  -13.4173   28.7240  -21.7036 H   0  0  0  0  0  0  0  0  0  0  0  0
  -12.6221   27.3085  -20.8320 H   0  0  0  0  0  0  0  0  0  0  0  0
  -10.5792   28.8950  -23.9802 H   0  0  0  0  0  0  0  0  0  0  0  0
 54 55  1  0  0  0
 55 56  2  0  0  0
 55 52  1  0  0  0
 52 51  1  0  0  0
 51 50  1  0  0  0
 50 49  1  0  0  0
 49  1  1  0  0  0
  1  2  1  0  0  0
  2  3  1  0  0  0
  3  4  2  0  0  0
  3  6  1  0  0  0
  6 19  1  0  0  0
 19 20  1  0  0  0
 20 21  2  0  0  0
 21 22  1  0  0  0
 22 23  2  0  0  0
 23 24  1  0  0  0
 24 25  2  0  0  0
  6  7  1  0  0  0
  7  8  1  0  0  0
  8  9  2  0  0  0
  8 11  1  0  0  0
 11 12  1  0  0  0
 12 13  1  0  0  0
 13 14  2  0  0  0
 14 15  1  0  0  0
 15 16  2  0  0  0
 16 17  1  0  0  0
 17 18  2  0  0  0
  1 26  1  0  0  0
 26 27  2  0  0  0
 26 28  1  0  0  0
 28 30  1  0  0  0
 30 38  1  0  0  0
 38 39  1  0  0  0
 39 40  1  0  0  0
 40 41  1  0  0  0
 41 43  1  0  0  0
 43 44  1  0  0  0
 43 45  2  0  0  0
 30 31  1  0  0  0
 31 32  2  0  0  0
 31 33  1  0  0  0
 33 34  2  0  0  0
 34 35  1  0  0  0
 35 36  2  0  0  0
 36 37  1  0  0  0
 25 20  1  0  0  0
 18 13  1  0  0  0
 37 33  1  0  0  0
 54 57  1  0  0  0
 54 58  1  0  0  0
 56 59  1  0  0  0
 52 53  1  0  0  0
  2  5  1  0  0  0
  7 10  1  0  0  0
 28 29  1  0  0  0
 41 42  1  0  0  0
 44 46  1  0  0  0
 44 47  1  0  0  0
 45 48  1  0  0  0
M  END
> <minimizedAffinity>
-7.88538

> <CNNscore>
0.0965920165

> <CNNaffinity>
6.6250152588

> <CNN_VS>
0.6399235725

> <CNNaffinity_variance>
0.7603796721

$$$$
[H]N=C(N([H])[H])N([H])C([H])([H])C([H])([H])C([H])([H])[C@@]([H])(C(=O)c1nc([H])c([H])s1)N([H])C(=O)[C@@]([H])(N([H])C(=O)[C@@]([H])(N([H])C(=O)OC([H])([H])c1c([H])c([H])c([H])c([H])c1[H])C([H])([H])c1c([H])c([H])c([H])c([H])c1[H])C([H])([H])C([H])([H])C([H])([H])N([H])C(=N[H])N([H])[H]


 59 61  0  0  0  0  0  0  0  0999 V2000
   -5.9220   24.3553  -20.6385 C   0  0  0  0  0  0  0  0  0  0  0  0
   -5.6250   23.7068  -21.9001 N   0  0  0  0  0  0  0  0  0  0  0  0
   -4.3217   23.7031  -22.4539 C   0  0  0  0  0  0  0  0  0  0  0  0
   -3.4249   24.3054  -21.7601 O   0  0  0  0  0  0  0  0  0  0  0  0
   -6.3823   23.2234  -22.4263 H   0  0  0  0  0  0  0  0  0  0  0  0
   -3.8872   23.0982  -23.7206 C   0  0  0  0  0  0  0  0  0  0  0  0
   -3.7798   24.1323  -24.7445 N   0  0  0  0  0  0  0  0  0  0  0  0
   -4.8578   24.8045  -25.3399 C   0  0  0  0  0  0  0  0  0  0  0  0
   -6.0229   24.5127  -24.9841 O   0  0  0  0  0  0  0  0  0  0  0  0
   -2.7978   24.3692  -25.0329 H   0  0  0  0  0  0  0  0  0  0  0  0
   -4.7010   25.7814  -26.3058 O   0  0  0  0  0  0  0  0  0  0  0  0
   -5.5528   26.0703  -27.3571 C   0  0  0  0  0  0  0  0  0  0  0  0
   -5.5393   25.1572  -28.4961 C   0  0  0  0  0  0  0  0  0  0  0  0
   -5.4453   23.7873  -28.4296 C   0  0  0  0  0  0  0  0  0  0  0  0
   -5.4343   22.9798  -29.5346 C   0  0  0  0  0  0  0  0  0  0  0  0
   -5.5199   23.5468  -30.7800 C   0  0  0  0  0  0  0  0  0  0  0  0
   -5.6161   24.9139  -30.9134 C   0  0  0  0  0  0  0  0  0  0  0  0
   -5.6249   25.6907  -29.7909 C   0  0  0  0  0  0  0  0  0  0  0  0
   -2.6390   22.2723  -23.6562 C   0  0  0  0  0  0  0  0  0  0  0  0
   -1.8196   22.2573  -24.8646 C   0  0  0  0  0  0  0  0  0  0  0  0
   -2.3679   22.0481  -26.1039 C   0  0  0  0  0  0  0  0  0  0  0  0
   -1.5409   22.0300  -27.2154 C   0  0  0  0  0  0  0  0  0  0  0  0
   -0.1808   22.2223  -27.0618 C   0  0  0  0  0  0  0  0  0  0  0  0
    0.3951   22.4355  -25.8269 C   0  0  0  0  0  0  0  0  0  0  0  0
   -0.4583   22.4475  -24.7364 C   0  0  0  0  0  0  0  0  0  0  0  0
   -5.8671   23.3403  -19.5559 C   0  0  0  0  0  0  0  0  0  0  0  0
   -4.7968   23.1243  -18.9660 O   0  0  0  0  0  0  0  0  0  0  0  0
   -7.0255   22.6007  -19.1726 N   0  0  0  0  0  0  0  0  0  0  0  0
   -7.9143   22.7938  -19.6641 H   0  0  0  0  0  0  0  0  0  0  0  0
   -7.0013   21.6000  -18.1263 C   0  0  0  0  0  0  0  0  0  0  0  0
   -7.9511   20.5480  -18.4216 C   0  0  0  0  0  0  0  0  0  0  0  0
   -7.5895   19.5775  -19.1768 O   0  0  0  0  0  0  0  0  0  0  0  0
   -9.3108   20.5378  -17.8959 C   0  0  0  0  0  0  0  0  0  0  0  0
   -9.9198   19.7722  -17.0085 N   0  0  0  0  0  0  0  0  0  0  0  0
  -11.1550   19.9785  -16.7025 C   0  0  0  0  0  0  0  0  0  0  0  0
  -11.8112   21.0085  -17.3215 C   0  0  0  0  0  0  0  0  0  0  0  0
  -10.5764   21.6332  -18.3329 S   0  0  0  0  0  0  0  0  0  0  0  0
   -7.0846   22.2474  -16.7855 C   0  0  0  0  0  0  0  0  0  0  0  0
   -6.2099   21.7669  -15.7041 C   0  0  0  0  0  0  0  0  0  0  0  0
   -5.3371   22.7427  -15.0079 C   0  0  0  0  0  0  0  0  0  0  0  0
   -5.6897   24.0977  -15.5015 N   0  0  0  0  0  0  0  0  0  0  0  0
   -5.5693   24.3420  -16.5056 H   0  0  0  0  0  0  0  0  0  0  0  0
   -6.1875   25.0447  -14.5965 C   0  0  0  0  0  0  0  0  0  0  0  0
   -5.6426   26.3526  -14.5365 N   0  0  0  0  0  0  0  0  0  0  0  0
   -7.1510   24.7398  -13.8053 N   0  0  0  0  0  0  0  0  0  0  0  0
   -4.7131   26.5312  -14.9654 H   0  0  0  0  0  0  0  0  0  0  0  0
   -6.1558   27.1247  -14.0741 H   0  0  0  0  0  0  0  0  0  0  0  0
   -7.5356   25.4232  -13.1280 H   0  0  0  0  0  0  0  0  0  0  0  0
   -7.3772   24.7832  -20.7087 C   0  0  0  0  0  0  0  0  0  0  0  0
   -7.8738   25.1039  -22.0697 C   0  0  0  0  0  0  0  0  0  0  0  0
   -9.3454   25.3418  -22.1574 C   0  0  0  0  0  0  0  0  0  0  0  0
   -9.8315   25.4445  -20.7781 N   0  0  0  0  0  0  0  0  0  0  0  0
   -9.5316   24.7357  -20.0781 H   0  0  0  0  0  0  0  0  0  0  0  0
  -10.5043   27.8086  -20.7864 N   0  0  0  0  0  0  0  0  0  0  0  0
  -10.6931   26.4690  -20.3620 C   0  0  0  0  0  0  0  0  0  0  0  0
  -11.6762   26.1980  -19.5809 N   0  0  0  0  0  0  0  0  0  0  0  0
  -10.6204   28.5654  -20.0752 H   0  0  0  0  0  0  0  0  0  0  0  0
  -10.2593   27.9835  -21.7859 H   0  0  0  0  0  0  0  0  0  0  0  0
  -11.8770   25.2525  -19.2313 H   0  0  0  0  0  0  0  0  0  0  0  0
 54 55  1  0  0  0
 55 56  2  0  0  0
 55 52  1  0  0  0
 52 51  1  0  0  0
 51 50  1  0  0  0
 50 49  1  0  0  0
 49  1  1  0  0  0
  1  2  1  0  0  0
  2  3  1  0  0  0
  3  4  2  0  0  0
  3  6  1  0  0  0
  6 19  1  0  0  0
 19 20  1  0  0  0
 20 21  2  0  0  0
 21 22  1  0  0  0
 22 23  2  0  0  0
 23 24  1  0  0  0
 24 25  2  0  0  0
  6  7  1  0  0  0
  7  8  1  0  0  0
  8  9  2  0  0  0
  8 11  1  0  0  0
 11 12  1  0  0  0
 12 13  1  0  0  0
 13 14  2  0  0  0
 14 15  1  0  0  0
 15 16  2  0  0  0
 16 17  1  0  0  0
 17 18  2  0  0  0
  1 26  1  0  0  0
 26 27  2  0  0  0
 26 28  1  0  0  0
 28 30  1  0  0  0
 30 38  1  0  0  0
 38 39  1  0  0  0
 39 40  1  0  0  0
 40 41  1  0  0  0
 41 43  1  0  0  0
 43 44  1  0  0  0
 43 45  2  0  0  0
 30 31  1  0  0  0
 31 32  2  0  0  0
 31 33  1  0  0  0
 33 34  2  0  0  0
 34 35  1  0  0  0
 35 36  2  0  0  0
 36 37  1  0  0  0
 25 20  1  0  0  0
 18 13  1  0  0  0
 37 33  1  0  0  0
 54 57  1  0  0  0
 54 58  1  0  0  0
 56 59  1  0  0  0
 52 53  1  0  0  0
  2  5  1  0  0  0
  7 10  1  0  0  0
 28 29  1  0  0  0
 41 42  1  0  0  0
 44 46  1  0  0  0
 44 47  1  0  0  0
 45 48  1  0  0  0
M  END
> <minimizedAffinity>
-7.62021

> <CNNscore>
0.0960543379

> <CNNaffinity>
6.2127246857

> <CNN_VS>
0.5967591405

> <CNNaffinity_variance>
0.5797327161

$$$$
[H]N=C(N([H])[H])N([H])C([H])([H])C([H])([H])C([H])([H])[C@@]([H])(C(=O)c1nc([H])c([H])s1)N([H])C(=O)[C@@]([H])(N([H])C(=O)[C@@]([H])(N([H])C(=O)OC([H])([H])c1c([H])c([H])c([H])c([H])c1[H])C([H])([H])c1c([H])c([H])c([H])c([H])c1[H])C([H])([H])C([H])([H])C([H])([H])N([H])C(=N[H])N([H])[H]


 59 61  0  0  0  0  0  0  0  0999 V2000
   -5.6052   22.6704  -24.6564 C   0  0  0  0  0  0  0  0  0  0  0  0
   -5.9828   23.4736  -23.5108 N   0  0  0  0  0  0  0  0  0  0  0  0
   -6.6369   22.9158  -22.3855 C   0  0  0  0  0  0  0  0  0  0  0  0
   -6.8645   21.6538  -22.4481 O   0  0  0  0  0  0  0  0  0  0  0  0
   -5.7720   24.4932  -23.4993 H   0  0  0  0  0  0  0  0  0  0  0  0
   -7.0829   23.6123  -21.1709 C   0  0  0  0  0  0  0  0  0  0  0  0
   -6.2582   23.1995  -20.0402 N   0  0  0  0  0  0  0  0  0  0  0  0
   -4.8612   23.3082  -19.9679 C   0  0  0  0  0  0  0  0  0  0  0  0
   -4.2418   23.7952  -20.9417 O   0  0  0  0  0  0  0  0  0  0  0  0
   -6.7894   22.7945  -19.2294 H   0  0  0  0  0  0  0  0  0  0  0  0
   -4.1258   22.9040  -18.8690 O   0  0  0  0  0  0  0  0  0  0  0  0
   -3.3249   21.7813  -18.7586 C   0  0  0  0  0  0  0  0  0  0  0  0
   -1.8848   21.9975  -18.6552 C   0  0  0  0  0  0  0  0  0  0  0  0
   -1.1966   23.0856  -19.1372 C   0  0  0  0  0  0  0  0  0  0  0  0
    0.1584   23.2334  -19.0136 C   0  0  0  0  0  0  0  0  0  0  0  0
    0.8841   22.2576  -18.3805 C   0  0  0  0  0  0  0  0  0  0  0  0
    0.2530   21.1428  -17.8757 C   0  0  0  0  0  0  0  0  0  0  0  0
   -1.0999   21.0264  -18.0153 C   0  0  0  0  0  0  0  0  0  0  0  0
   -7.1598   25.1055  -21.2647 C   0  0  0  0  0  0  0  0  0  0  0  0
   -8.4927   25.6651  -21.4701 C   0  0  0  0  0  0  0  0  0  0  0  0
   -9.2731   25.2945  -22.5351 C   0  0  0  0  0  0  0  0  0  0  0  0
  -10.5248   25.8683  -22.6888 C   0  0  0  0  0  0  0  0  0  0  0  0
  -10.9689   26.8019  -21.7714 C   0  0  0  0  0  0  0  0  0  0  0  0
  -10.2041   27.1909  -20.6916 C   0  0  0  0  0  0  0  0  0  0  0  0
   -8.9582   26.5993  -20.5666 C   0  0  0  0  0  0  0  0  0  0  0  0
   -4.2404   23.0663  -25.0875 C   0  0  0  0  0  0  0  0  0  0  0  0
   -3.5482   23.7918  -24.3563 O   0  0  0  0  0  0  0  0  0  0  0  0
   -3.6992   22.6284  -26.3330 N   0  0  0  0  0  0  0  0  0  0  0  0
   -4.2803   22.0174  -26.9313 H   0  0  0  0  0  0  0  0  0  0  0  0
   -2.3753   23.0036  -26.7835 C   0  0  0  0  0  0  0  0  0  0  0  0
   -2.4078   23.3531  -28.1881 C   0  0  0  0  0  0  0  0  0  0  0  0
   -1.3608   23.1595  -28.9015 O   0  0  0  0  0  0  0  0  0  0  0  0
   -3.5847   23.9181  -28.8368 C   0  0  0  0  0  0  0  0  0  0  0  0
   -3.9505   25.1600  -29.0992 N   0  0  0  0  0  0  0  0  0  0  0  0
   -5.0620   25.4017  -29.7058 C   0  0  0  0  0  0  0  0  0  0  0  0
   -5.8459   24.3388  -30.0671 C   0  0  0  0  0  0  0  0  0  0  0  0
   -4.9094   23.0218  -29.4959 S   0  0  0  0  0  0  0  0  0  0  0  0
   -1.3713   21.9904  -26.3484 C   0  0  0  0  0  0  0  0  0  0  0  0
   -0.1841   22.4354  -25.6015 C   0  0  0  0  0  0  0  0  0  0  0  0
    0.0469   21.8909  -24.2418 C   0  0  0  0  0  0  0  0  0  0  0  0
   -1.0893   22.3148  -23.3856 N   0  0  0  0  0  0  0  0  0  0  0  0
   -1.4514   23.2891  -23.4325 H   0  0  0  0  0  0  0  0  0  0  0  0
   -1.6689   21.3849  -22.5122 C   0  0  0  0  0  0  0  0  0  0  0  0
   -0.8679   20.4572  -21.7987 N   0  0  0  0  0  0  0  0  0  0  0  0
   -2.9410   21.3606  -22.3437 N   0  0  0  0  0  0  0  0  0  0  0  0
    0.1070   20.2858  -22.1148 H   0  0  0  0  0  0  0  0  0  0  0  0
   -1.2402   19.9531  -20.9737 H   0  0  0  0  0  0  0  0  0  0  0  0
   -3.3921   20.6824  -21.7033 H   0  0  0  0  0  0  0  0  0  0  0  0
   -6.5188   23.0904  -25.7942 C   0  0  0  0  0  0  0  0  0  0  0  0
   -7.1625   24.4169  -25.6273 C   0  0  0  0  0  0  0  0  0  0  0  0
   -6.7313   25.4490  -26.6166 C   0  0  0  0  0  0  0  0  0  0  0  0
   -5.4554   25.9824  -26.1295 N   0  0  0  0  0  0  0  0  0  0  0  0
   -4.5972   25.8535  -26.7031 H   0  0  0  0  0  0  0  0  0  0  0  0
   -4.0884   26.8565  -24.2832 N   0  0  0  0  0  0  0  0  0  0  0  0
   -5.3457   26.6647  -24.9099 C   0  0  0  0  0  0  0  0  0  0  0  0
   -6.3998   27.1292  -24.3416 N   0  0  0  0  0  0  0  0  0  0  0  0
   -4.0335   26.7159  -23.2492 H   0  0  0  0  0  0  0  0  0  0  0  0
   -3.2739   27.1293  -24.8763 H   0  0  0  0  0  0  0  0  0  0  0  0
   -7.3447   27.0297  -24.7340 H   0  0  0  0  0  0  0  0  0  0  0  0
 54 55  1  0  0  0
 55 56  2  0  0  0
 55 52  1  0  0  0
 52 51  1  0  0  0
 51 50  1  0  0  0
 50 49  1  0  0  0
 49  1  1  0  0  0
  1  2  1  0  0  0
  2  3  1  0  0  0
  3  4  2  0  0  0
  3  6  1  0  0  0
  6 19  1  0  0  0
 19 20  1  0  0  0
 20 21  2  0  0  0
 21 22  1  0  0  0
 22 23  2  0  0  0
 23 24  1  0  0  0
 24 25  2  0  0  0
  6  7  1  0  0  0
  7  8  1  0  0  0
  8  9  2  0  0  0
  8 11  1  0  0  0
 11 12  1  0  0  0
 12 13  1  0  0  0
 13 14  2  0  0  0
 14 15  1  0  0  0
 15 16  2  0  0  0
 16 17  1  0  0  0
 17 18  2  0  0  0
  1 26  1  0  0  0
 26 27  2  0  0  0
 26 28  1  0  0  0
 28 30  1  0  0  0
 30 38  1  0  0  0
 38 39  1  0  0  0
 39 40  1  0  0  0
 40 41  1  0  0  0
 41 43  1  0  0  0
 43 44  1  0  0  0
 43 45  2  0  0  0
 30 31  1  0  0  0
 31 32  2  0  0  0
 31 33  1  0  0  0
 33 34  2  0  0  0
 34 35  1  0  0  0
 35 36  2  0  0  0
 36 37  1  0  0  0
 25 20  1  0  0  0
 18 13  1  0  0  0
 37 33  1  0  0  0
 54 57  1  0  0  0
 54 58  1  0  0  0
 56 59  1  0  0  0
 52 53  1  0  0  0
  2  5  1  0  0  0
  7 10  1  0  0  0
 28 29  1  0  0  0
 41 42  1  0  0  0
 44 46  1  0  0  0
 44 47  1  0  0  0
 45 48  1  0  0  0
M  END
> <minimizedAffinity>
-7.67350

> <CNNscore>
0.0934826732

> <CNNaffinity>
6.5768904686

> <CNN_VS>
0.6148253083

> <CNNaffinity_variance>
1.1646566391

$$$$
[H]OC(c1nn(-c2c([H])c([H])c(C([H])([H])[H])c([H])c2[H])c(N([H])C(=O)N([H])c2c([H])c([H])c(Oc3c([H])c([H])nc4c3nc([H])c(=O)n4[H])c3c([H])c([H])c([H])c([H])c23)c1[H])(C([H])([H])[H])C([H])([H])[H]


 46 51  0  0  0  0  0  0  0  0999 V2000
    0.1390   21.3850  -20.3734 N   0  0  0  0  0  0  0  0  0  0  0  0
   -0.6979   21.7509  -21.4285 C   0  0  0  0  0  0  0  0  0  0  0  0
   -1.0080   22.9848  -21.4839 O   0  0  0  0  0  0  0  0  0  0  0  0
   -1.2428   20.9219  -22.4273 N   0  0  0  0  0  0  0  0  0  0  0  0
    0.4074   22.2001  -19.7158 H   0  0  0  0  0  0  0  0  0  0  0  0
   -1.0124   19.9212  -22.3659 H   0  0  0  0  0  0  0  0  0  0  0  0
   -2.0641   21.3367  -23.4908 C   0  0  0  0  0  0  0  0  0  0  0  0
   -3.4332   21.4222  -23.4625 C   0  0  0  0  0  0  0  0  0  0  0  0
   -4.2019   21.8962  -24.4837 C   0  0  0  0  0  0  0  0  0  0  0  0
   -3.5999   22.3365  -25.6585 C   0  0  0  0  0  0  0  0  0  0  0  0
   -2.2356   22.2605  -25.7063 C   0  0  0  0  0  0  0  0  0  0  0  0
   -1.5352   22.6757  -26.8408 C   0  0  0  0  0  0  0  0  0  0  0  0
   -0.1815   22.6215  -26.9525 C   0  0  0  0  0  0  0  0  0  0  0  0
    0.5616   22.1403  -25.9194 C   0  0  0  0  0  0  0  0  0  0  0  0
   -0.0793   21.7072  -24.7501 C   0  0  0  0  0  0  0  0  0  0  0  0
   -1.4421   21.7744  -24.6616 C   0  0  0  0  0  0  0  0  0  0  0  0
   -4.4277   22.7886  -26.6157 O   0  0  0  0  0  0  0  0  0  0  0  0
   -4.8455   23.9784  -27.0725 C   0  0  0  0  0  0  0  0  0  0  0  0
   -4.9410   25.1054  -26.3091 C   0  0  0  0  0  0  0  0  0  0  0  0
   -5.3787   26.2775  -26.8621 C   0  0  0  0  0  0  0  0  0  0  0  0
   -5.7238   26.3511  -28.1603 N   0  0  0  0  0  0  0  0  0  0  0  0
   -5.6416   25.2567  -28.9435 C   0  0  0  0  0  0  0  0  0  0  0  0
   -5.9991   25.3429  -30.2556 N   0  0  0  0  0  0  0  0  0  0  0  0
   -5.9342   24.2680  -31.0609 C   0  0  0  0  0  0  0  0  0  0  0  0
   -6.2672   24.3386  -32.2932 O   0  0  0  0  0  0  0  0  0  0  0  0
   -5.4968   23.1006  -30.5037 C   0  0  0  0  0  0  0  0  0  0  0  0
   -5.1385   22.9861  -29.2185 N   0  0  0  0  0  0  0  0  0  0  0  0
   -5.2121   24.0812  -28.4260 C   0  0  0  0  0  0  0  0  0  0  0  0
   -6.3210   26.2441  -30.6217 H   0  0  0  0  0  0  0  0  0  0  0  0
    1.9170   20.0735  -19.3170 N   0  0  0  0  0  0  0  0  0  0  0  0
    2.3098   18.8228  -19.3029 N   0  0  0  0  0  0  0  0  0  0  0  0
    1.5322   18.0229  -20.0084 C   0  0  0  0  0  0  0  0  0  0  0  0
    0.5381   18.8735  -20.5237 C   0  0  0  0  0  0  0  0  0  0  0  0
    0.7836   20.1582  -20.0873 C   0  0  0  0  0  0  0  0  0  0  0  0
    4.2525   24.4880  -16.5913 C   0  0  0  0  0  0  0  0  0  0  0  0
    3.6467   23.3491  -17.2988 C   0  0  0  0  0  0  0  0  0  0  0  0
    2.5886   22.6601  -16.7573 C   0  0  0  0  0  0  0  0  0  0  0  0
    2.0197   21.5772  -17.4321 C   0  0  0  0  0  0  0  0  0  0  0  0
    2.5138   21.1850  -18.6523 C   0  0  0  0  0  0  0  0  0  0  0  0
    3.5688   21.8790  -19.1833 C   0  0  0  0  0  0  0  0  0  0  0  0
    4.1487   22.9566  -18.5306 C   0  0  0  0  0  0  0  0  0  0  0  0
    1.6067   16.5611  -20.2692 C   0  0  0  0  0  0  0  0  0  0  0  0
    1.5876   15.7867  -18.9681 C   0  0  0  0  0  0  0  0  0  0  0  0
    2.7808   16.2629  -21.1390 C   0  0  0  0  0  0  0  0  0  0  0  0
    0.4494   16.2519  -21.0025 O   0  0  0  0  0  0  0  0  0  0  0  0
    0.5528   16.7292  -21.8797 H   0  0  0  0  0  0  0  0  0  0  0  0
 35 36  1  0  0  0
 36 37  2  0  0  0
 37 38  1  0  0  0
 38 39  2  0  0  0
 39 40  1  0  0  0
 40 41  2  0  0  0
 39 30  1  0  0  0
 30 31  1  0  0  0
 31 32  2  0  0  0
 32 33  1  0  0  0
 33 34  2  0  0  0
 34  1  1  0  0  0
  1  2  1  0  0  0
  2  3  2  0  0  0
  2  4  1  0  0  0
  4  7  1  0  0  0
  7  8  2  0  0  0
  8  9  1  0  0  0
  9 10  2  0  0  0
 10 17  1  0  0  0
 17 18  1  0  0  0
 18 19  2  0  0  0
 19 20  1  0  0  0
 20 21  2  0  0  0
 21 22  1  0  0  0
 22 23  1  0  0  0
 23 24  1  0  0  0
 24 25  2  0  0  0
 24 26  1  0  0  0
 26 27  2  0  0  0
 27 28  1  0  0  0
 10 11  1  0  0  0
 11 12  2  0  0  0
 12 13  1  0  0  0
 13 14  2  0  0  0
 14 15  1  0  0  0
 15 16  2  0  0  0
 32 42  1  0  0  0
 42 43  1  0  0  0
 42 44  1  0  0  0
 42 45  1  0  0  0
 41 36  1  0  0  0
 34 30  1  0  0  0
 16  7  1  0  0  0
 28 18  1  0  0  0
 16 11  1  0  0  0
 28 22  2  0  0  0
  1  5  1  0  0  0
  4  6  1  0  0  0
 23 29  1  0  0  0
 45 46  1  0  0  0
M  END
> <minimizedAffinity>
-11.15857

> <CNNscore>
0.1932139248

> <CNNaffinity>
6.7563161850

> <CNN_VS>
1.3054143190

> <CNNaffinity_variance>
0.1898843497

$$$$
[H]OC(c1nn(-c2c([H])c([H])c(C([H])([H])[H])c([H])c2[H])c(N([H])C(=O)N([H])c2c([H])c([H])c(Oc3c([H])c([H])nc4c3nc([H])c(=O)n4[H])c3c([H])c([H])c([H])c([H])c23)c1[H])(C([H])([H])[H])C([H])([H])[H]


 46 51  0  0  0  0  0  0  0  0999 V2000
   -0.7318   22.7384  -18.2497 N   0  0  0  0  0  0  0  0  0  0  0  0
   -1.0497   22.7350  -19.6085 C   0  0  0  0  0  0  0  0  0  0  0  0
   -0.9710   23.8621  -20.1961 O   0  0  0  0  0  0  0  0  0  0  0  0
   -1.4522   21.6422  -20.3995 N   0  0  0  0  0  0  0  0  0  0  0  0
   -0.4740   23.7118  -17.8560 H   0  0  0  0  0  0  0  0  0  0  0  0
   -1.5404   20.7377  -19.9176 H   0  0  0  0  0  0  0  0  0  0  0  0
   -1.7397   21.6774  -21.7757 C   0  0  0  0  0  0  0  0  0  0  0  0
   -0.8215   21.5840  -22.7909 C   0  0  0  0  0  0  0  0  0  0  0  0
   -1.1331   21.5483  -24.1176 C   0  0  0  0  0  0  0  0  0  0  0  0
   -2.4641   21.6078  -24.5193 C   0  0  0  0  0  0  0  0  0  0  0  0
   -3.3951   21.7001  -23.5222 C   0  0  0  0  0  0  0  0  0  0  0  0
   -4.7578   21.7670  -23.8197 C   0  0  0  0  0  0  0  0  0  0  0  0
   -5.7313   21.8646  -22.8758 C   0  0  0  0  0  0  0  0  0  0  0  0
   -5.3922   21.9021  -21.5588 C   0  0  0  0  0  0  0  0  0  0  0  0
   -4.0408   21.8380  -21.1911 C   0  0  0  0  0  0  0  0  0  0  0  0
   -3.0807   21.7378  -22.1594 C   0  0  0  0  0  0  0  0  0  0  0  0
   -2.6861   21.5669  -25.8441 O   0  0  0  0  0  0  0  0  0  0  0  0
   -2.3387   22.2860  -26.9216 C   0  0  0  0  0  0  0  0  0  0  0  0
   -1.0701   22.3643  -27.4183 C   0  0  0  0  0  0  0  0  0  0  0  0
   -0.8088   23.1249  -28.5248 C   0  0  0  0  0  0  0  0  0  0  0  0
   -1.7847   23.8100  -29.1476 N   0  0  0  0  0  0  0  0  0  0  0  0
   -3.0495   23.7551  -28.6836 C   0  0  0  0  0  0  0  0  0  0  0  0
   -4.0282   24.4579  -29.3202 N   0  0  0  0  0  0  0  0  0  0  0  0
   -5.2979   24.4287  -28.8783 C   0  0  0  0  0  0  0  0  0  0  0  0
   -6.2232   25.0843  -29.4686 O   0  0  0  0  0  0  0  0  0  0  0  0
   -5.5531   23.6680  -27.7735 C   0  0  0  0  0  0  0  0  0  0  0  0
   -4.6124   22.9669  -27.1279 N   0  0  0  0  0  0  0  0  0  0  0  0
   -3.3408   23.0112  -27.5901 C   0  0  0  0  0  0  0  0  0  0  0  0
   -3.7808   25.0132  -30.1450 H   0  0  0  0  0  0  0  0  0  0  0  0
   -1.6459   21.0225  -16.7605 N   0  0  0  0  0  0  0  0  0  0  0  0
   -1.1798   20.1433  -15.9071 N   0  0  0  0  0  0  0  0  0  0  0  0
    0.1383   20.1280  -15.8400 C   0  0  0  0  0  0  0  0  0  0  0  0
    0.5426   21.1132  -16.7584 C   0  0  0  0  0  0  0  0  0  0  0  0
   -0.5797   21.6711  -17.3331 C   0  0  0  0  0  0  0  0  0  0  0  0
   -7.0935   21.9889  -18.0876 C   0  0  0  0  0  0  0  0  0  0  0  0
   -5.6836   21.7415  -17.7476 C   0  0  0  0  0  0  0  0  0  0  0  0
   -5.0773   20.5494  -18.0625 C   0  0  0  0  0  0  0  0  0  0  0  0
   -3.7391   20.3190  -17.7339 C   0  0  0  0  0  0  0  0  0  0  0  0
   -3.0085   21.2862  -17.0879 C   0  0  0  0  0  0  0  0  0  0  0  0
   -3.6226   22.4711  -16.7788 C   0  0  0  0  0  0  0  0  0  0  0  0
   -4.9495   22.7209  -17.0954 C   0  0  0  0  0  0  0  0  0  0  0  0
    1.0697   19.3123  -15.0169 C   0  0  0  0  0  0  0  0  0  0  0  0
    2.5046   19.7232  -15.2720 C   0  0  0  0  0  0  0  0  0  0  0  0
    0.8019   17.8622  -15.2396 C   0  0  0  0  0  0  0  0  0  0  0  0
    0.7415   19.6014  -13.6822 O   0  0  0  0  0  0  0  0  0  0  0  0
   -0.1861   19.2407  -13.5504 H   0  0  0  0  0  0  0  0  0  0  0  0
 35 36  1  0  0  0
 36 37  2  0  0  0
 37 38  1  0  0  0
 38 39  2  0  0  0
 39 40  1  0  0  0
 40 41  2  0  0  0
 39 30  1  0  0  0
 30 31  1  0  0  0
 31 32  2  0  0  0
 32 33  1  0  0  0
 33 34  2  0  0  0
 34  1  1  0  0  0
  1  2  1  0  0  0
  2  3  2  0  0  0
  2  4  1  0  0  0
  4  7  1  0  0  0
  7  8  2  0  0  0
  8  9  1  0  0  0
  9 10  2  0  0  0
 10 17  1  0  0  0
 17 18  1  0  0  0
 18 19  2  0  0  0
 19 20  1  0  0  0
 20 21  2  0  0  0
 21 22  1  0  0  0
 22 23  1  0  0  0
 23 24  1  0  0  0
 24 25  2  0  0  0
 24 26  1  0  0  0
 26 27  2  0  0  0
 27 28  1  0  0  0
 10 11  1  0  0  0
 11 12  2  0  0  0
 12 13  1  0  0  0
 13 14  2  0  0  0
 14 15  1  0  0  0
 15 16  2  0  0  0
 32 42  1  0  0  0
 42 43  1  0  0  0
 42 44  1  0  0  0
 42 45  1  0  0  0
 41 36  1  0  0  0
 34 30  1  0  0  0
 16  7  1  0  0  0
 28 18  1  0  0  0
 16 11  1  0  0  0
 28 22  2  0  0  0
  1  5  1  0  0  0
  4  6  1  0  0  0
 23 29  1  0  0  0
 45 46  1  0  0  0
M  END
> <minimizedAffinity>
-8.16900

> <CNNscore>
0.1424552798

> <CNNaffinity>
7.0416784286

> <CNN_VS>
1.0031242371

> <CNNaffinity_variance>
0.1124103814

$$$$
[H]OC(c1nn(-c2c([H])c([H])c(C([H])([H])[H])c([H])c2[H])c(N([H])C(=O)N([H])c2c([H])c([H])c(Oc3c([H])c([H])nc4c3nc([H])c(=O)n4[H])c3c([H])c([H])c([H])c([H])c23)c1[H])(C([H])([H])[H])C([H])([H])[H]


 46 51  0  0  0  0  0  0  0  0999 V2000
    0.6525   21.4761  -20.3892 N   0  0  0  0  0  0  0  0  0  0  0  0
   -0.2971   21.8005  -21.3591 C   0  0  0  0  0  0  0  0  0  0  0  0
   -0.9623   22.8651  -21.1452 O   0  0  0  0  0  0  0  0  0  0  0  0
   -0.6102   21.0908  -22.5339 N   0  0  0  0  0  0  0  0  0  0  0  0
    0.6923   22.1662  -19.5579 H   0  0  0  0  0  0  0  0  0  0  0  0
   -0.0902   20.2174  -22.6921 H   0  0  0  0  0  0  0  0  0  0  0  0
   -1.5598   21.4672  -23.5005 C   0  0  0  0  0  0  0  0  0  0  0  0
   -2.9176   21.5265  -23.3124 C   0  0  0  0  0  0  0  0  0  0  0  0
   -3.8112   21.9639  -24.2443 C   0  0  0  0  0  0  0  0  0  0  0  0
   -3.3614   22.3911  -25.4900 C   0  0  0  0  0  0  0  0  0  0  0  0
   -2.0108   22.3406  -25.6971 C   0  0  0  0  0  0  0  0  0  0  0  0
   -1.4580   22.7454  -26.9139 C   0  0  0  0  0  0  0  0  0  0  0  0
   -0.1260   22.7151  -27.1836 C   0  0  0  0  0  0  0  0  0  0  0  0
    0.7438   22.2703  -26.2367 C   0  0  0  0  0  0  0  0  0  0  0  0
    0.2545   21.8495  -24.9920 C   0  0  0  0  0  0  0  0  0  0  0  0
   -1.0895   21.8921  -24.7445 C   0  0  0  0  0  0  0  0  0  0  0  0
   -4.3058   22.8067  -26.3509 O   0  0  0  0  0  0  0  0  0  0  0  0
   -4.7704   23.9782  -26.8099 C   0  0  0  0  0  0  0  0  0  0  0  0
   -4.9122   25.1015  -26.0483 C   0  0  0  0  0  0  0  0  0  0  0  0
   -5.3960   26.2543  -26.6035 C   0  0  0  0  0  0  0  0  0  0  0  0
   -5.7421   26.3121  -27.9022 N   0  0  0  0  0  0  0  0  0  0  0  0
   -5.6149   25.2208  -28.6837 C   0  0  0  0  0  0  0  0  0  0  0  0
   -5.9739   25.2908  -29.9964 N   0  0  0  0  0  0  0  0  0  0  0  0
   -5.8649   24.2182  -30.8001 C   0  0  0  0  0  0  0  0  0  0  0  0
   -6.1989   24.2737  -32.0329 O   0  0  0  0  0  0  0  0  0  0  0  0
   -5.3816   23.0702  -30.2407 C   0  0  0  0  0  0  0  0  0  0  0  0
   -5.0206   22.9719  -28.9549 N   0  0  0  0  0  0  0  0  0  0  0  0
   -5.1392   24.0643  -28.1641 C   0  0  0  0  0  0  0  0  0  0  0  0
   -6.3314   26.1778  -30.3642 H   0  0  0  0  0  0  0  0  0  0  0  0
    2.5165   20.3015  -19.3201 N   0  0  0  0  0  0  0  0  0  0  0  0
    3.3533   19.3417  -19.6321 N   0  0  0  0  0  0  0  0  0  0  0  0
    3.1300   18.8207  -20.8241 C   0  0  0  0  0  0  0  0  0  0  0  0
    2.0250   19.5394  -21.3139 C   0  0  0  0  0  0  0  0  0  0  0  0
    1.6439   20.4666  -20.3672 C   0  0  0  0  0  0  0  0  0  0  0  0
    2.3608   23.3893  -14.5438 C   0  0  0  0  0  0  0  0  0  0  0  0
    2.4033   22.5878  -15.7769 C   0  0  0  0  0  0  0  0  0  0  0  0
    3.2271   22.9356  -16.8201 C   0  0  0  0  0  0  0  0  0  0  0  0
    3.2605   22.1727  -17.9899 C   0  0  0  0  0  0  0  0  0  0  0  0
    2.4657   21.0592  -18.1132 C   0  0  0  0  0  0  0  0  0  0  0  0
    1.6482   20.7214  -17.0671 C   0  0  0  0  0  0  0  0  0  0  0  0
    1.5991   21.4643  -15.8971 C   0  0  0  0  0  0  0  0  0  0  0  0
    3.8268   17.7386  -21.5684 C   0  0  0  0  0  0  0  0  0  0  0  0
    3.0897   16.4252  -21.4121 C   0  0  0  0  0  0  0  0  0  0  0  0
    5.2597   17.6862  -21.1586 C   0  0  0  0  0  0  0  0  0  0  0  0
    3.7881   18.1270  -22.9176 O   0  0  0  0  0  0  0  0  0  0  0  0
    4.3524   18.9555  -22.9740 H   0  0  0  0  0  0  0  0  0  0  0  0
 35 36  1  0  0  0
 36 37  2  0  0  0
 37 38  1  0  0  0
 38 39  2  0  0  0
 39 40  1  0  0  0
 40 41  2  0  0  0
 39 30  1  0  0  0
 30 31  1  0  0  0
 31 32  2  0  0  0
 32 33  1  0  0  0
 33 34  2  0  0  0
 34  1  1  0  0  0
  1  2  1  0  0  0
  2  3  2  0  0  0
  2  4  1  0  0  0
  4  7  1  0  0  0
  7  8  2  0  0  0
  8  9  1  0  0  0
  9 10  2  0  0  0
 10 17  1  0  0  0
 17 18  1  0  0  0
 18 19  2  0  0  0
 19 20  1  0  0  0
 20 21  2  0  0  0
 21 22  1  0  0  0
 22 23  1  0  0  0
 23 24  1  0  0  0
 24 25  2  0  0  0
 24 26  1  0  0  0
 26 27  2  0  0  0
 27 28  1  0  0  0
 10 11  1  0  0  0
 11 12  2  0  0  0
 12 13  1  0  0  0
 13 14  2  0  0  0
 14 15  1  0  0  0
 15 16  2  0  0  0
 32 42  1  0  0  0
 42 43  1  0  0  0
 42 44  1  0  0  0
 42 45  1  0  0  0
 41 36  1  0  0  0
 34 30  1  0  0  0
 16  7  1  0  0  0
 28 18  1  0  0  0
 16 11  1  0  0  0
 28 22  2  0  0  0
  1  5  1  0  0  0
  4  6  1  0  0  0
 23 29  1  0  0  0
 45 46  1  0  0  0
M  END
> <minimizedAffinity>
-10.89602

> <CNNscore>
0.1218895987

> <CNNaffinity>
6.7279143333

> <CNN_VS>
0.8200627565

> <CNNaffinity_variance>
0.1549076140

$$$$
[H]OC(c1nn(-c2c([H])c([H])c(C([H])([H])[H])c([H])c2[H])c(N([H])C(=O)N([H])c2c([H])c([H])c(Oc3c([H])c([H])nc4c3nc([H])c(=O)n4[H])c3c([H])c([H])c([H])c([H])c23)c1[H])(C([H])([H])[H])C([H])([H])[H]


 46 51  0  0  0  0  0  0  0  0999 V2000
   -0.9331   22.0413  -19.0028 N   0  0  0  0  0  0  0  0  0  0  0  0
   -1.4468   22.4319  -20.2402 C   0  0  0  0  0  0  0  0  0  0  0  0
   -1.5579   23.6878  -20.4195 O   0  0  0  0  0  0  0  0  0  0  0  0
   -1.8615   21.6076  -21.3033 N   0  0  0  0  0  0  0  0  0  0  0  0
   -0.7090   22.8620  -18.3356 H   0  0  0  0  0  0  0  0  0  0  0  0
   -1.7955   20.5930  -21.1469 H   0  0  0  0  0  0  0  0  0  0  0  0
   -2.3513   22.0440  -22.5472 C   0  0  0  0  0  0  0  0  0  0  0  0
   -1.5893   22.3792  -23.6379 C   0  0  0  0  0  0  0  0  0  0  0  0
   -2.0908   22.7305  -24.8559 C   0  0  0  0  0  0  0  0  0  0  0  0
   -3.4676   22.7658  -25.0553 C   0  0  0  0  0  0  0  0  0  0  0  0
   -4.2447   22.4340  -23.9803 C   0  0  0  0  0  0  0  0  0  0  0  0
   -5.6379   22.4397  -24.0758 C   0  0  0  0  0  0  0  0  0  0  0  0
   -6.4652   22.1249  -23.0441 C   0  0  0  0  0  0  0  0  0  0  0  0
   -5.9381   21.7814  -21.8378 C   0  0  0  0  0  0  0  0  0  0  0  0
   -4.5459   21.7549  -21.6743 C   0  0  0  0  0  0  0  0  0  0  0  0
   -3.7353   22.0733  -22.7282 C   0  0  0  0  0  0  0  0  0  0  0  0
   -3.8800   23.1216  -26.2838 O   0  0  0  0  0  0  0  0  0  0  0  0
   -4.4672   24.1840  -26.8541 C   0  0  0  0  0  0  0  0  0  0  0  0
   -4.6613   25.3826  -26.2315 C   0  0  0  0  0  0  0  0  0  0  0  0
   -5.2713   26.4125  -26.8935 C   0  0  0  0  0  0  0  0  0  0  0  0
   -5.6926   26.2740  -28.1636 N   0  0  0  0  0  0  0  0  0  0  0  0
   -5.5168   25.1034  -28.8090 C   0  0  0  0  0  0  0  0  0  0  0  0
   -5.9528   24.9740  -30.0936 N   0  0  0  0  0  0  0  0  0  0  0  0
   -5.7979   23.8176  -30.7621 C   0  0  0  0  0  0  0  0  0  0  0  0
   -6.2033   23.6862  -31.9674 O   0  0  0  0  0  0  0  0  0  0  0  0
   -5.1886   22.7928  -30.0964 C   0  0  0  0  0  0  0  0  0  0  0  0
   -4.7498   22.8908  -28.8351 N   0  0  0  0  0  0  0  0  0  0  0  0
   -4.9165   24.0644  -28.1811 C   0  0  0  0  0  0  0  0  0  0  0  0
   -6.4042   25.7754  -30.5451 H   0  0  0  0  0  0  0  0  0  0  0  0
    0.6549   20.5318  -17.9087 N   0  0  0  0  0  0  0  0  0  0  0  0
    0.7396   19.2495  -17.6497 N   0  0  0  0  0  0  0  0  0  0  0  0
   -0.3220   18.5670  -18.0363 C   0  0  0  0  0  0  0  0  0  0  0  0
   -1.1683   19.5364  -18.6034 C   0  0  0  0  0  0  0  0  0  0  0  0
   -0.5515   20.7667  -18.5209 C   0  0  0  0  0  0  0  0  0  0  0  0
    4.4753   24.6024  -16.8102 C   0  0  0  0  0  0  0  0  0  0  0  0
    3.4898   23.5469  -17.0924 C   0  0  0  0  0  0  0  0  0  0  0  0
    3.3340   23.0439  -18.3615 C   0  0  0  0  0  0  0  0  0  0  0  0
    2.3942   22.0442  -18.6241 C   0  0  0  0  0  0  0  0  0  0  0  0
    1.6093   21.5488  -17.6115 C   0  0  0  0  0  0  0  0  0  0  0  0
    1.7729   22.0572  -16.3501 C   0  0  0  0  0  0  0  0  0  0  0  0
    2.6995   23.0496  -16.0671 C   0  0  0  0  0  0  0  0  0  0  0  0
   -0.6420   17.1177  -17.9499 C   0  0  0  0  0  0  0  0  0  0  0  0
   -2.0965   16.9149  -17.5808 C   0  0  0  0  0  0  0  0  0  0  0  0
    0.3199   16.4424  -17.0319 C   0  0  0  0  0  0  0  0  0  0  0  0
   -0.4223   16.6080  -19.2401 O   0  0  0  0  0  0  0  0  0  0  0  0
    0.5648   16.6987  -19.3993 H   0  0  0  0  0  0  0  0  0  0  0  0
 35 36  1  0  0  0
 36 37  2  0  0  0
 37 38  1  0  0  0
 38 39  2  0  0  0
 39 40  1  0  0  0
 40 41  2  0  0  0
 39 30  1  0  0  0
 30 31  1  0  0  0
 31 32  2  0  0  0
 32 33  1  0  0  0
 33 34  2  0  0  0
 34  1  1  0  0  0
  1  2  1  0  0  0
  2  3  2  0  0  0
  2  4  1  0  0  0
  4  7  1  0  0  0
  7  8  2  0  0  0
  8  9  1  0  0  0
  9 10  2  0  0  0
 10 17  1  0  0  0
 17 18  1  0  0  0
 18 19  2  0  0  0
 19 20  1  0  0  0
 20 21  2  0  0  0
 21 22  1  0  0  0
 22 23  1  0  0  0
 23 24  1  0  0  0
 24 25  2  0  0  0
 24 26  1  0  0  0
 26 27  2  0  0  0
 27 28  1  0  0  0
 10 11  1  0  0  0
 11 12  2  0  0  0
 12 13  1  0  0  0
 13 14  2  0  0  0
 14 15  1  0  0  0
 15 16  2  0  0  0
 32 42  1  0  0  0
 42 43  1  0  0  0
 42 44  1  0  0  0
 42 45  1  0  0  0
 41 36  1  0  0  0
 34 30  1  0  0  0
 16  7  1  0  0  0
 28 18  1  0  0  0
 16 11  1  0  0  0
 28 22  2  0  0  0
  1  5  1  0  0  0
  4  6  1  0  0  0
 23 29  1  0  0  0
 45 46  1  0  0  0
M  END
> <minimizedAffinity>
-9.31924

> <CNNscore>
0.1200992092

> <CNNaffinity>
6.6076636314

> <CNN_VS>
0.7935751677

> <CNNaffinity_variance>
0.1420607716

$$$$
[H]OC(c1nn(-c2c([H])c([H])c(C([H])([H])[H])c([H])c2[H])c(N([H])C(=O)N([H])c2c([H])c([H])c(Oc3c([H])c([H])nc4c3nc([H])c(=O)n4[H])c3c([H])c([H])c([H])c([H])c23)c1[H])(C([H])([H])[H])C([H])([H])[H]


 46 51  0  0  0  0  0  0  0  0999 V2000
   -0.8215   22.7309  -20.8512 N   0  0  0  0  0  0  0  0  0  0  0  0
   -2.2167   22.7205  -20.8227 C   0  0  0  0  0  0  0  0  0  0  0  0
   -2.7802   23.8493  -20.9959 O   0  0  0  0  0  0  0  0  0  0  0  0
   -3.0691   21.6188  -20.6185 N   0  0  0  0  0  0  0  0  0  0  0  0
   -0.3873   23.7099  -20.9992 H   0  0  0  0  0  0  0  0  0  0  0  0
   -2.6119   20.7123  -20.4529 H   0  0  0  0  0  0  0  0  0  0  0  0
   -4.4751   21.6477  -20.6224 C   0  0  0  0  0  0  0  0  0  0  0  0
   -5.2784   21.8059  -19.5215 C   0  0  0  0  0  0  0  0  0  0  0  0
   -6.6377   21.9027  -19.5607 C   0  0  0  0  0  0  0  0  0  0  0  0
   -7.3024   21.8425  -20.7818 C   0  0  0  0  0  0  0  0  0  0  0  0
   -6.5193   21.6860  -21.8916 C   0  0  0  0  0  0  0  0  0  0  0  0
   -7.0888   21.6127  -23.1645 C   0  0  0  0  0  0  0  0  0  0  0  0
   -6.3667   21.4531  -24.3051 C   0  0  0  0  0  0  0  0  0  0  0  0
   -5.0114   21.3554  -24.2370 C   0  0  0  0  0  0  0  0  0  0  0  0
   -4.3756   21.4221  -22.9892 C   0  0  0  0  0  0  0  0  0  0  0  0
   -5.1243   21.5855  -21.8569 C   0  0  0  0  0  0  0  0  0  0  0  0
   -8.6414   21.9458  -20.7337 O   0  0  0  0  0  0  0  0  0  0  0  0
   -9.5470   22.6928  -20.0851 C   0  0  0  0  0  0  0  0  0  0  0  0
  -10.2593   22.2696  -19.0008 C   0  0  0  0  0  0  0  0  0  0  0  0
  -11.1642   23.1029  -18.4024 C   0  0  0  0  0  0  0  0  0  0  0  0
  -11.3752   24.3496  -18.8615 N   0  0  0  0  0  0  0  0  0  0  0  0
  -10.6888   24.8002  -19.9310 C   0  0  0  0  0  0  0  0  0  0  0  0
  -10.9156   26.0632  -20.3897 N   0  0  0  0  0  0  0  0  0  0  0  0
  -10.2517   26.5394  -21.4577 C   0  0  0  0  0  0  0  0  0  0  0  0
  -10.4572   27.7228  -21.8956 O   0  0  0  0  0  0  0  0  0  0  0  0
   -9.3498   25.7034  -22.0511 C   0  0  0  0  0  0  0  0  0  0  0  0
   -9.1058   24.4584  -21.6226 N   0  0  0  0  0  0  0  0  0  0  0  0
   -9.7859   23.9996  -20.5458 C   0  0  0  0  0  0  0  0  0  0  0  0
  -11.6044   26.6479  -19.9065 H   0  0  0  0  0  0  0  0  0  0  0  0
    0.5581   21.0488  -21.9758 N   0  0  0  0  0  0  0  0  0  0  0  0
    1.3471   20.0624  -21.6251 N   0  0  0  0  0  0  0  0  0  0  0  0
    1.4868   19.9442  -20.3179 C   0  0  0  0  0  0  0  0  0  0  0  0
    0.6916   20.9773  -19.7907 C   0  0  0  0  0  0  0  0  0  0  0  0
    0.1115   21.6671  -20.8341 C   0  0  0  0  0  0  0  0  0  0  0  0
   -0.7561   22.6925  -27.2619 C   0  0  0  0  0  0  0  0  0  0  0  0
   -0.4177   22.2711  -25.8934 C   0  0  0  0  0  0  0  0  0  0  0  0
    0.8857   22.2535  -25.4593 C   0  0  0  0  0  0  0  0  0  0  0  0
    1.2013   21.8490  -24.1599 C   0  0  0  0  0  0  0  0  0  0  0  0
    0.2072   21.4612  -23.2949 C   0  0  0  0  0  0  0  0  0  0  0  0
   -1.0889   21.4827  -23.7379 C   0  0  0  0  0  0  0  0  0  0  0  0
   -1.4246   21.8805  -25.0234 C   0  0  0  0  0  0  0  0  0  0  0  0
    2.2652   18.9794  -19.4973 C   0  0  0  0  0  0  0  0  0  0  0  0
    2.2710   19.4009  -18.0429 C   0  0  0  0  0  0  0  0  0  0  0  0
    3.6238   18.7980  -20.0850 C   0  0  0  0  0  0  0  0  0  0  0  0
    1.5877   17.7548  -19.6158 O   0  0  0  0  0  0  0  0  0  0  0  0
    1.6816   17.4890  -20.5794 H   0  0  0  0  0  0  0  0  0  0  0  0
 35 36  1  0  0  0
 36 37  2  0  0  0
 37 38  1  0  0  0
 38 39  2  0  0  0
 39 40  1  0  0  0
 40 41  2  0  0  0
 39 30  1  0  0  0
 30 31  1  0  0  0
 31 32  2  0  0  0
 32 33  1  0  0  0
 33 34  2  0  0  0
 34  1  1  0  0  0
  1  2  1  0  0  0
  2  3  2  0  0  0
  2  4  1  0  0  0
  4  7  1  0  0  0
  7  8  2  0  0  0
  8  9  1  0  0  0
  9 10  2  0  0  0
 10 17  1  0  0  0
 17 18  1  0  0  0
 18 19  2  0  0  0
 19 20  1  0  0  0
 20 21  2  0  0  0
 21 22  1  0  0  0
 22 23  1  0  0  0
 23 24  1  0  0  0
 24 25  2  0  0  0
 24 26  1  0  0  0
 26 27  2  0  0  0
 27 28  1  0  0  0
 10 11  1  0  0  0
 11 12  2  0  0  0
 12 13  1  0  0  0
 13 14  2  0  0  0
 14 15  1  0  0  0
 15 16  2  0  0  0
 32 42  1  0  0  0
 42 43  1  0  0  0
 42 44  1  0  0  0
 42 45  1  0  0  0
 41 36  1  0  0  0
 34 30  1  0  0  0
 16  7  1  0  0  0
 28 18  1  0  0  0
 16 11  1  0  0  0
 28 22  2  0  0  0
  1  5  1  0  0  0
  4  6  1  0  0  0
 23 29  1  0  0  0
 45 46  1  0  0  0
M  END
> <minimizedAffinity>
-9.27786

> <CNNscore>
0.0916629508

> <CNNaffinity>
6.5781602859

> <CNN_VS>
0.6029735804

> <CNNaffinity_variance>
0.2648641765

$$$$
[H]OC(c1nn(-c2c([H])c([H])c(C([H])([H])[H])c([H])c2[H])c(N([H])C(=O)N([H])c2c([H])c([H])c(Oc3c([H])c([H])nc4c3nc([H])c(=O)n4[H])c3c([H])c([H])c([H])c([H])c23)c1[H])(C([H])([H])[H])C([H])([H])[H]


 46 51  0  0  0  0  0  0  0  0999 V2000
   -1.9739   21.5727  -18.9466 N   0  0  0  0  0  0  0  0  0  0  0  0
   -2.3240   21.9580  -20.2414 C   0  0  0  0  0  0  0  0  0  0  0  0
   -2.4635   23.2104  -20.4253 O   0  0  0  0  0  0  0  0  0  0  0  0
   -2.5478   21.1314  -21.3588 N   0  0  0  0  0  0  0  0  0  0  0  0
   -1.8824   22.3929  -18.2483 H   0  0  0  0  0  0  0  0  0  0  0  0
   -2.4603   20.1185  -21.2022 H   0  0  0  0  0  0  0  0  0  0  0  0
   -2.8754   21.5636  -22.6563 C   0  0  0  0  0  0  0  0  0  0  0  0
   -4.1350   21.8661  -23.1082 C   0  0  0  0  0  0  0  0  0  0  0  0
   -4.4174   22.3523  -24.3502 C   0  0  0  0  0  0  0  0  0  0  0  0
   -3.3873   22.5743  -25.2590 C   0  0  0  0  0  0  0  0  0  0  0  0
   -2.1237   22.2799  -24.8273 C   0  0  0  0  0  0  0  0  0  0  0  0
   -1.0207   22.4657  -25.6632 C   0  0  0  0  0  0  0  0  0  0  0  0
    0.2584   22.1880  -25.2960 C   0  0  0  0  0  0  0  0  0  0  0  0
    0.5118   21.7000  -24.0516 C   0  0  0  0  0  0  0  0  0  0  0  0
   -0.5512   21.4907  -23.1617 C   0  0  0  0  0  0  0  0  0  0  0  0
   -1.8285   21.7802  -23.5543 C   0  0  0  0  0  0  0  0  0  0  0  0
   -3.7497   23.0545  -26.4606 O   0  0  0  0  0  0  0  0  0  0  0  0
   -4.3623   24.1480  -26.9380 C   0  0  0  0  0  0  0  0  0  0  0  0
   -4.5367   25.3026  -26.2320 C   0  0  0  0  0  0  0  0  0  0  0  0
   -5.1755   26.3694  -26.8021 C   0  0  0  0  0  0  0  0  0  0  0  0
   -5.6449   26.3107  -28.0614 N   0  0  0  0  0  0  0  0  0  0  0  0
   -5.4899   25.1853  -28.7876 C   0  0  0  0  0  0  0  0  0  0  0  0
   -5.9746   25.1365  -30.0603 N   0  0  0  0  0  0  0  0  0  0  0  0
   -5.8414   24.0267  -30.8078 C   0  0  0  0  0  0  0  0  0  0  0  0
   -6.2925   23.9710  -32.0027 O   0  0  0  0  0  0  0  0  0  0  0  0
   -5.2031   22.9648  -30.2337 C   0  0  0  0  0  0  0  0  0  0  0  0
   -4.7163   22.9838  -28.9863 N   0  0  0  0  0  0  0  0  0  0  0  0
   -4.8621   24.1116  -28.2518 C   0  0  0  0  0  0  0  0  0  0  0  0
   -6.4459   25.9627  -30.4413 H   0  0  0  0  0  0  0  0  0  0  0  0
   -0.3378   20.0193  -17.9940 N   0  0  0  0  0  0  0  0  0  0  0  0
   -0.3022   18.7564  -17.6439 N   0  0  0  0  0  0  0  0  0  0  0  0
   -1.4582   18.1385  -17.7982 C   0  0  0  0  0  0  0  0  0  0  0  0
   -2.3159   19.1314  -18.3042 C   0  0  0  0  0  0  0  0  0  0  0  0
   -1.6089   20.3089  -18.4250 C   0  0  0  0  0  0  0  0  0  0  0  0
    3.9022   23.8110  -17.8625 C   0  0  0  0  0  0  0  0  0  0  0  0
    2.8080   22.8279  -17.8940 C   0  0  0  0  0  0  0  0  0  0  0  0
    2.5869   22.0490  -19.0040 C   0  0  0  0  0  0  0  0  0  0  0  0
    1.5441   21.1197  -19.0293 C   0  0  0  0  0  0  0  0  0  0  0  0
    0.7217   20.9721  -17.9391 C   0  0  0  0  0  0  0  0  0  0  0  0
    0.9510   21.7536  -16.8376 C   0  0  0  0  0  0  0  0  0  0  0  0
    1.9801   22.6822  -16.7909 C   0  0  0  0  0  0  0  0  0  0  0  0
   -1.8609   16.7309  -17.5396 C   0  0  0  0  0  0  0  0  0  0  0  0
   -3.1984   16.6815  -16.8314 C   0  0  0  0  0  0  0  0  0  0  0  0
   -0.7651   16.0160  -16.8239 C   0  0  0  0  0  0  0  0  0  0  0  0
   -1.9924   16.1400  -18.8070 O   0  0  0  0  0  0  0  0  0  0  0  0
   -1.0668   16.1315  -19.1957 H   0  0  0  0  0  0  0  0  0  0  0  0
 35 36  1  0  0  0
 36 37  2  0  0  0
 37 38  1  0  0  0
 38 39  2  0  0  0
 39 40  1  0  0  0
 40 41  2  0  0  0
 39 30  1  0  0  0
 30 31  1  0  0  0
 31 32  2  0  0  0
 32 33  1  0  0  0
 33 34  2  0  0  0
 34  1  1  0  0  0
  1  2  1  0  0  0
  2  3  2  0  0  0
  2  4  1  0  0  0
  4  7  1  0  0  0
  7  8  2  0  0  0
  8  9  1  0  0  0
  9 10  2  0  0  0
 10 17  1  0  0  0
 17 18  1  0  0  0
 18 19  2  0  0  0
 19 20  1  0  0  0
 20 21  2  0  0  0
 21 22  1  0  0  0
 22 23  1  0  0  0
 23 24  1  0  0  0
 24 25  2  0  0  0
 24 26  1  0  0  0
 26 27  2  0  0  0
 27 28  1  0  0  0
 10 11  1  0  0  0
 11 12  2  0  0  0
 12 13  1  0  0  0
 13 14  2  0  0  0
 14 15  1  0  0  0
 15 16  2  0  0  0
 32 42  1  0  0  0
 42 43  1  0  0  0
 42 44  1  0  0  0
 42 45  1  0  0  0
 41 36  1  0  0  0
 34 30  1  0  0  0
 16  7  1  0  0  0
 28 18  1  0  0  0
 16 11  1  0  0  0
 28 22  2  0  0  0
  1  5  1  0  0  0
  4  6  1  0  0  0
 23 29  1  0  0  0
 45 46  1  0  0  0
M  END
> <minimizedAffinity>
-9.65196

> <CNNscore>
0.0821415037

> <CNNaffinity>
6.6297531128

> <CNN_VS>
0.5445778966

> <CNNaffinity_variance>
0.1331938505

$$$$
[H]OC(c1nn(-c2c([H])c([H])c(C([H])([H])[H])c([H])c2[H])c(N([H])C(=O)N([H])c2c([H])c([H])c(Oc3c([H])c([H])nc4c3nc([H])c(=O)n4[H])c3c([H])c([H])c([H])c([H])c23)c1[H])(C([H])([H])[H])C([H])([H])[H]


 46 51  0  0  0  0  0  0  0  0999 V2000
   -6.7137   21.9005  -17.2585 N   0  0  0  0  0  0  0  0  0  0  0  0
   -6.6641   21.9099  -18.6532 C   0  0  0  0  0  0  0  0  0  0  0  0
   -7.2995   20.9715  -19.2339 O   0  0  0  0  0  0  0  0  0  0  0  0
   -5.9926   22.8230  -19.4882 N   0  0  0  0  0  0  0  0  0  0  0  0
   -7.2756   21.0775  -16.8394 H   0  0  0  0  0  0  0  0  0  0  0  0
   -5.4583   23.5651  -19.0170 H   0  0  0  0  0  0  0  0  0  0  0  0
   -5.9891   22.8110  -20.8945 C   0  0  0  0  0  0  0  0  0  0  0  0
   -5.2628   21.9601  -21.6888 C   0  0  0  0  0  0  0  0  0  0  0  0
   -5.3318   21.9212  -23.0498 C   0  0  0  0  0  0  0  0  0  0  0  0
   -6.1859   22.7869  -23.7261 C   0  0  0  0  0  0  0  0  0  0  0  0
   -6.9196   23.6426  -22.9521 C   0  0  0  0  0  0  0  0  0  0  0  0
   -7.8051   24.5524  -23.5335 C   0  0  0  0  0  0  0  0  0  0  0  0
   -8.5584   25.4314  -22.8207 C   0  0  0  0  0  0  0  0  0  0  0  0
   -8.4672   25.4517  -21.4635 C   0  0  0  0  0  0  0  0  0  0  0  0
   -7.5971   24.5632  -20.8159 C   0  0  0  0  0  0  0  0  0  0  0  0
   -6.8521   23.6872  -21.5554 C   0  0  0  0  0  0  0  0  0  0  0  0
   -6.1949   22.6846  -25.0660 O   0  0  0  0  0  0  0  0  0  0  0  0
   -5.6541   23.3375  -26.1053 C   0  0  0  0  0  0  0  0  0  0  0  0
   -6.3061   24.2807  -26.8452 C   0  0  0  0  0  0  0  0  0  0  0  0
   -5.6731   24.8957  -27.8903 C   0  0  0  0  0  0  0  0  0  0  0  0
   -4.4036   24.5909  -28.2147 N   0  0  0  0  0  0  0  0  0  0  0  0
   -3.7297   23.6636  -27.5049 C   0  0  0  0  0  0  0  0  0  0  0  0
   -2.4461   23.3598  -27.8469 N   0  0  0  0  0  0  0  0  0  0  0  0
   -1.7496   22.4352  -27.1626 C   0  0  0  0  0  0  0  0  0  0  0  0
   -0.5449   22.1433  -27.4754 O   0  0  0  0  0  0  0  0  0  0  0  0
   -2.3863   21.8244  -26.1204 C   0  0  0  0  0  0  0  0  0  0  0  0
   -3.6460   22.1025  -25.7612 N   0  0  0  0  0  0  0  0  0  0  0  0
   -4.3284   23.0366  -26.4645 C   0  0  0  0  0  0  0  0  0  0  0  0
   -2.0170   23.8486  -28.6386 H   0  0  0  0  0  0  0  0  0  0  0  0
   -4.9367   22.9333  -15.9269 N   0  0  0  0  0  0  0  0  0  0  0  0
   -4.8449   23.8439  -14.9882 N   0  0  0  0  0  0  0  0  0  0  0  0
   -6.0025   24.4012  -14.6857 C   0  0  0  0  0  0  0  0  0  0  0  0
   -6.9251   23.7638  -15.5343 C   0  0  0  0  0  0  0  0  0  0  0  0
   -6.2521   22.8444  -16.3107 C   0  0  0  0  0  0  0  0  0  0  0  0
   -0.7135   19.9079  -18.2471 C   0  0  0  0  0  0  0  0  0  0  0  0
   -1.8084   20.6879  -17.6492 C   0  0  0  0  0  0  0  0  0  0  0  0
   -2.0901   21.9611  -18.0822 C   0  0  0  0  0  0  0  0  0  0  0  0
   -3.1288   22.6982  -17.5082 C   0  0  0  0  0  0  0  0  0  0  0  0
   -3.8857   22.1569  -16.4978 C   0  0  0  0  0  0  0  0  0  0  0  0
   -3.5964   20.8868  -16.0738 C   0  0  0  0  0  0  0  0  0  0  0  0
   -2.5702   20.1375  -16.6293 C   0  0  0  0  0  0  0  0  0  0  0  0
   -6.3571   25.4511  -13.6947 C   0  0  0  0  0  0  0  0  0  0  0  0
   -5.5649   25.2667  -12.4174 C   0  0  0  0  0  0  0  0  0  0  0  0
   -7.8350   25.4798  -13.4968 C   0  0  0  0  0  0  0  0  0  0  0  0
   -5.9878   26.6684  -14.2901 O   0  0  0  0  0  0  0  0  0  0  0  0
   -6.5942   26.7732  -15.0835 H   0  0  0  0  0  0  0  0  0  0  0  0
 35 36  1  0  0  0
 36 37  2  0  0  0
 37 38  1  0  0  0
 38 39  2  0  0  0
 39 40  1  0  0  0
 40 41  2  0  0  0
 39 30  1  0  0  0
 30 31  1  0  0  0
 31 32  2  0  0  0
 32 33  1  0  0  0
 33 34  2  0  0  0
 34  1  1  0  0  0
  1  2  1  0  0  0
  2  3  2  0  0  0
  2  4  1  0  0  0
  4  7  1  0  0  0
  7  8  2  0  0  0
  8  9  1  0  0  0
  9 10  2  0  0  0
 10 17  1  0  0  0
 17 18  1  0  0  0
 18 19  2  0  0  0
 19 20  1  0  0  0
 20 21  2  0  0  0
 21 22  1  0  0  0
 22 23  1  0  0  0
 23 24  1  0  0  0
 24 25  2  0  0  0
 24 26  1  0  0  0
 26 27  2  0  0  0
 27 28  1  0  0  0
 10 11  1  0  0  0
 11 12  2  0  0  0
 12 13  1  0  0  0
 13 14  2  0  0  0
 14 15  1  0  0  0
 15 16  2  0  0  0
 32 42  1  0  0  0
 42 43  1  0  0  0
 42 44  1  0  0  0
 42 45  1  0  0  0
 41 36  1  0  0  0
 34 30  1  0  0  0
 16  7  1  0  0  0
 28 18  1  0  0  0
 16 11  1  0  0  0
 28 22  2  0  0  0
  1  5  1  0  0  0
  4  6  1  0  0  0
 23 29  1  0  0  0
 45 46  1  0  0  0
M  END
> <minimizedAffinity>
-8.58767

> <CNNscore>
0.0787997544

> <CNNaffinity>
6.4697723389

> <CNN_VS>
0.5098164678

> <CNNaffinity_variance>
0.1284119189

$$$$
[H]OC(c1nn(-c2c([H])c([H])c(C([H])([H])[H])c([H])c2[H])c(N([H])C(=O)N([H])c2c([H])c([H])c(Oc3c([H])c([H])nc4c3nc([H])c(=O)n4[H])c3c([H])c([H])c([H])c([H])c23)c1[H])(C([H])([H])[H])C([H])([H])[H]


 46 51  0  0  0  0  0  0  0  0999 V2000
   -0.1679   21.3731  -19.9159 N   0  0  0  0  0  0  0  0  0  0  0  0
   -0.8092   21.8351  -21.0660 C   0  0  0  0  0  0  0  0  0  0  0  0
   -0.7413   23.0905  -21.2686 O   0  0  0  0  0  0  0  0  0  0  0  0
   -1.5242   21.0840  -22.0182 N   0  0  0  0  0  0  0  0  0  0  0  0
    0.2954   22.1494  -19.3230 H   0  0  0  0  0  0  0  0  0  0  0  0
   -1.6002   20.0739  -21.8393 H   0  0  0  0  0  0  0  0  0  0  0  0
   -2.1358   21.5872  -23.1802 C   0  0  0  0  0  0  0  0  0  0  0  0
   -1.5095   21.8315  -24.3763 C   0  0  0  0  0  0  0  0  0  0  0  0
   -2.1394   22.2516  -25.5100 C   0  0  0  0  0  0  0  0  0  0  0  0
   -3.5151   22.4610  -25.5022 C   0  0  0  0  0  0  0  0  0  0  0  0
   -4.1582   22.2222  -24.3194 C   0  0  0  0  0  0  0  0  0  0  0  0
   -5.5381   22.4038  -24.2061 C   0  0  0  0  0  0  0  0  0  0  0  0
   -6.2348   22.1884  -23.0588 C   0  0  0  0  0  0  0  0  0  0  0  0
   -5.5806   21.7729  -21.9406 C   0  0  0  0  0  0  0  0  0  0  0  0
   -4.1940   21.5704  -21.9863 C   0  0  0  0  0  0  0  0  0  0  0  0
   -3.5166   21.7917  -23.1531 C   0  0  0  0  0  0  0  0  0  0  0  0
   -4.0586   22.8744  -26.6596 O   0  0  0  0  0  0  0  0  0  0  0  0
   -4.5730   24.0103  -27.1536 C   0  0  0  0  0  0  0  0  0  0  0  0
   -4.6808   25.1755  -26.4517 C   0  0  0  0  0  0  0  0  0  0  0  0
   -5.2206   26.2867  -27.0391 C   0  0  0  0  0  0  0  0  0  0  0  0
   -5.6559   26.2621  -28.3117 N   0  0  0  0  0  0  0  0  0  0  0  0
   -5.5646   25.1274  -29.0344 C   0  0  0  0  0  0  0  0  0  0  0  0
   -6.0140   25.1139  -30.3207 N   0  0  0  0  0  0  0  0  0  0  0  0
   -5.9425   23.9964  -31.0653 C   0  0  0  0  0  0  0  0  0  0  0  0
   -6.3612   23.9735  -32.2730 O   0  0  0  0  0  0  0  0  0  0  0  0
   -5.4030   22.8902  -30.4739 C   0  0  0  0  0  0  0  0  0  0  0  0
   -4.9531   22.8739  -29.2128 N   0  0  0  0  0  0  0  0  0  0  0  0
   -5.0352   24.0102  -28.4815 C   0  0  0  0  0  0  0  0  0  0  0  0
   -6.4105   25.9727  -30.7145 H   0  0  0  0  0  0  0  0  0  0  0  0
   -0.5264   19.5329  -18.3402 N   0  0  0  0  0  0  0  0  0  0  0  0
   -0.0412   18.3318  -18.1389 N   0  0  0  0  0  0  0  0  0  0  0  0
    0.8577   17.9740  -19.0367 C   0  0  0  0  0  0  0  0  0  0  0  0
    0.9444   19.0813  -19.8992 C   0  0  0  0  0  0  0  0  0  0  0  0
    0.0746   20.0561  -19.4584 C   0  0  0  0  0  0  0  0  0  0  0  0
   -4.5442   22.2206  -15.3393 C   0  0  0  0  0  0  0  0  0  0  0  0
   -3.5037   21.5293  -16.1166 C   0  0  0  0  0  0  0  0  0  0  0  0
   -3.7994   20.9200  -17.3120 C   0  0  0  0  0  0  0  0  0  0  0  0
   -2.8078   20.2620  -18.0439 C   0  0  0  0  0  0  0  0  0  0  0  0
   -1.5176   20.2151  -17.5750 C   0  0  0  0  0  0  0  0  0  0  0  0
   -1.2336   20.8260  -16.3822 C   0  0  0  0  0  0  0  0  0  0  0  0
   -2.2022   21.4844  -15.6395 C   0  0  0  0  0  0  0  0  0  0  0  0
    1.6543   16.7275  -19.1853 C   0  0  0  0  0  0  0  0  0  0  0  0
    3.1362   17.0385  -19.1746 C   0  0  0  0  0  0  0  0  0  0  0  0
    1.1973   15.9773  -20.3905 C   0  0  0  0  0  0  0  0  0  0  0  0
    1.3425   15.9473  -18.0598 O   0  0  0  0  0  0  0  0  0  0  0  0
    0.3723   15.7092  -18.1595 H   0  0  0  0  0  0  0  0  0  0  0  0
 35 36  1  0  0  0
 36 37  2  0  0  0
 37 38  1  0  0  0
 38 39  2  0  0  0
 39 40  1  0  0  0
 40 41  2  0  0  0
 39 30  1  0  0  0
 30 31  1  0  0  0
 31 32  2  0  0  0
 32 33  1  0  0  0
 33 34  2  0  0  0
 34  1  1  0  0  0
  1  2  1  0  0  0
  2  3  2  0  0  0
  2  4  1  0  0  0
  4  7  1  0  0  0
  7  8  2  0  0  0
  8  9  1  0  0  0
  9 10  2  0  0  0
 10 17  1  0  0  0
 17 18  1  0  0  0
 18 19  2  0  0  0
 19 20  1  0  0  0
 20 21  2  0  0  0
 21 22  1  0  0  0
 22 23  1  0  0  0
 23 24  1  0  0  0
 24 25  2  0  0  0
 24 26  1  0  0  0
 26 27  2  0  0  0
 27 28  1  0  0  0
 10 11  1  0  0  0
 11 12  2  0  0  0
 12 13  1  0  0  0
 13 14  2  0  0  0
 14 15  1  0  0  0
 15 16  2  0  0  0
 32 42  1  0  0  0
 42 43  1  0  0  0
 42 44  1  0  0  0
 42 45  1  0  0  0
 41 36  1  0  0  0
 34 30  1  0  0  0
 16  7  1  0  0  0
 28 18  1  0  0  0
 16 11  1  0  0  0
 28 22  2  0  0  0
  1  5  1  0  0  0
  4  6  1  0  0  0
 23 29  1  0  0  0
 45 46  1  0  0  0
M  END
> <minimizedAffinity>
-8.71185

> <CNNscore>
0.0726248547

> <CNNaffinity>
6.6490859985

> <CNN_VS>
0.4828889072

> <CNNaffinity_variance>
0.0966496766

$$$$
[H]OC(c1nn(-c2c([H])c([H])c(C([H])([H])[H])c([H])c2[H])c(N([H])C(=O)N([H])c2c([H])c([H])c(Oc3c([H])c([H])nc4c3nc([H])c(=O)n4[H])c3c([H])c([H])c([H])c([H])c23)c1[H])(C([H])([H])[H])C([H])([H])[H]


 46 51  0  0  0  0  0  0  0  0999 V2000
   -0.1391   22.3055  -19.0110 N   0  0  0  0  0  0  0  0  0  0  0  0
   -0.9749   22.5192  -20.1079 C   0  0  0  0  0  0  0  0  0  0  0  0
   -1.2084   23.7379  -20.3941 O   0  0  0  0  0  0  0  0  0  0  0  0
   -1.5928   21.5536  -20.9250 N   0  0  0  0  0  0  0  0  0  0  0  0
    0.1945   23.2110  -18.5234 H   0  0  0  0  0  0  0  0  0  0  0  0
   -1.4242   20.5697  -20.6765 H   0  0  0  0  0  0  0  0  0  0  0  0
   -2.4102   21.8126  -22.0396 C   0  0  0  0  0  0  0  0  0  0  0  0
   -1.9756   22.0112  -23.3258 C   0  0  0  0  0  0  0  0  0  0  0  0
   -2.7934   22.1892  -24.4020 C   0  0  0  0  0  0  0  0  0  0  0  0
   -4.1746   22.1760  -24.2333 C   0  0  0  0  0  0  0  0  0  0  0  0
   -4.6281   21.9784  -22.9587 C   0  0  0  0  0  0  0  0  0  0  0  0
   -5.9967   21.9496  -22.6827 C   0  0  0  0  0  0  0  0  0  0  0  0
   -6.5107   21.7623  -21.4382 C   0  0  0  0  0  0  0  0  0  0  0  0
   -5.6718   21.5909  -20.3810 C   0  0  0  0  0  0  0  0  0  0  0  0
   -4.2854   21.6082  -20.5890 C   0  0  0  0  0  0  0  0  0  0  0  0
   -3.7935   21.7959  -21.8508 C   0  0  0  0  0  0  0  0  0  0  0  0
   -4.9094   22.3584  -25.3436 O   0  0  0  0  0  0  0  0  0  0  0  0
   -5.6134   23.3529  -25.9040 C   0  0  0  0  0  0  0  0  0  0  0  0
   -6.7943   23.8306  -25.4147 C   0  0  0  0  0  0  0  0  0  0  0  0
   -7.4437   24.8502  -26.0550 C   0  0  0  0  0  0  0  0  0  0  0  0
   -6.9418   25.4045  -27.1732 N   0  0  0  0  0  0  0  0  0  0  0  0
   -5.7771   24.9569  -27.6842 C   0  0  0  0  0  0  0  0  0  0  0  0
   -5.2819   25.5231  -28.8205 N   0  0  0  0  0  0  0  0  0  0  0  0
   -4.1262   25.0948  -29.3582 C   0  0  0  0  0  0  0  0  0  0  0  0
   -3.6533   25.6195  -30.4237 O   0  0  0  0  0  0  0  0  0  0  0  0
   -3.4823   24.0768  -28.7152 C   0  0  0  0  0  0  0  0  0  0  0  0
   -3.9443   23.5017  -27.5976 N   0  0  0  0  0  0  0  0  0  0  0  0
   -5.1099   23.9487  -27.0739 C   0  0  0  0  0  0  0  0  0  0  0  0
   -5.8068   26.2840  -29.2624 H   0  0  0  0  0  0  0  0  0  0  0  0
   -0.2723   20.2111  -17.7488 N   0  0  0  0  0  0  0  0  0  0  0  0
    0.5506   19.2638  -17.3692 N   0  0  0  0  0  0  0  0  0  0  0  0
    1.7846   19.4384  -17.8037 C   0  0  0  0  0  0  0  0  0  0  0  0
    1.7256   20.6348  -18.5403 C   0  0  0  0  0  0  0  0  0  0  0  0
    0.4338   21.1154  -18.5031 C   0  0  0  0  0  0  0  0  0  0  0  0
   -5.8485   20.5703  -16.6769 C   0  0  0  0  0  0  0  0  0  0  0  0
   -4.4068   20.4806  -16.9567 C   0  0  0  0  0  0  0  0  0  0  0  0
   -3.9012   19.4871  -17.7599 C   0  0  0  0  0  0  0  0  0  0  0  0
   -2.5309   19.4050  -18.0191 C   0  0  0  0  0  0  0  0  0  0  0  0
   -1.6666   20.3212  -17.4712 C   0  0  0  0  0  0  0  0  0  0  0  0
   -2.1812   21.3078  -16.6721 C   0  0  0  0  0  0  0  0  0  0  0  0
   -3.5378   21.4079  -16.4015 C   0  0  0  0  0  0  0  0  0  0  0  0
    3.0172   18.6301  -17.6094 C   0  0  0  0  0  0  0  0  0  0  0  0
    3.4248   17.9611  -18.9052 C   0  0  0  0  0  0  0  0  0  0  0  0
    2.8276   17.6871  -16.4696 C   0  0  0  0  0  0  0  0  0  0  0  0
    4.0123   19.5482  -17.2359 O   0  0  0  0  0  0  0  0  0  0  0  0
    3.7283   19.9012  -16.3399 H   0  0  0  0  0  0  0  0  0  0  0  0
 35 36  1  0  0  0
 36 37  2  0  0  0
 37 38  1  0  0  0
 38 39  2  0  0  0
 39 40  1  0  0  0
 40 41  2  0  0  0
 39 30  1  0  0  0
 30 31  1  0  0  0
 31 32  2  0  0  0
 32 33  1  0  0  0
 33 34  2  0  0  0
 34  1  1  0  0  0
  1  2  1  0  0  0
  2  3  2  0  0  0
  2  4  1  0  0  0
  4  7  1  0  0  0
  7  8  2  0  0  0
  8  9  1  0  0  0
  9 10  2  0  0  0
 10 17  1  0  0  0
 17 18  1  0  0  0
 18 19  2  0  0  0
 19 20  1  0  0  0
 20 21  2  0  0  0
 21 22  1  0  0  0
 22 23  1  0  0  0
 23 24  1  0  0  0
 24 25  2  0  0  0
 24 26  1  0  0  0
 26 27  2  0  0  0
 27 28  1  0  0  0
 10 11  1  0  0  0
 11 12  2  0  0  0
 12 13  1  0  0  0
 13 14  2  0  0  0
 14 15  1  0  0  0
 15 16  2  0  0  0
 32 42  1  0  0  0
 42 43  1  0  0  0
 42 44  1  0  0  0
 42 45  1  0  0  0
 41 36  1  0  0  0
 34 30  1  0  0  0
 16  7  1  0  0  0
 28 18  1  0  0  0
 16 11  1  0  0  0
 28 22  2  0  0  0
  1  5  1  0  0  0
  4  6  1  0  0  0
 23 29  1  0  0  0
 45 46  1  0  0  0
M  END
> <minimizedAffinity>
-8.03771

> <CNNscore>
0.0619717091

> <CNNaffinity>
6.7219414711

> <CNN_VS>
0.4165702164

> <CNNaffinity_variance>
0.1855904311

$$$$
[H]OC(=O)[C@@]([H])(N([H])C(=O)[C@@]([H])(N([H])C(=O)[C@@]([H])(C([H])([H])C(=O)N([H])O[H])C([H])([H])C([H])(C([H])([H])[H])C([H])([H])[H])C([H])([H])C([H])(C([H])([H])[H])C([H])([H])[H])C([H])([H])c1c([H])nc([H])n1[H]


 37 37  0  0  0  0  0  0  0  0999 V2000
   -4.7097   23.7441  -23.9633 C   0  0  0  0  0  0  0  0  0  0  0  0
   -3.4102   23.4417  -23.3025 N   0  0  0  0  0  0  0  0  0  0  0  0
   -2.9236   22.1144  -23.2535 C   0  0  0  0  0  0  0  0  0  0  0  0
   -3.5741   21.1897  -23.7573 O   0  0  0  0  0  0  0  0  0  0  0  0
   -2.9329   24.2771  -22.9048 H   0  0  0  0  0  0  0  0  0  0  0  0
   -1.6200   21.8685  -22.5818 C   0  0  0  0  0  0  0  0  0  0  0  0
   -1.3089   23.0028  -21.6812 C   0  0  0  0  0  0  0  0  0  0  0  0
   -1.4643   22.8447  -20.2266 C   0  0  0  0  0  0  0  0  0  0  0  0
   -2.1338   21.5488  -19.8124 C   0  0  0  0  0  0  0  0  0  0  0  0
   -0.3372   23.1996  -19.3354 C   0  0  0  0  0  0  0  0  0  0  0  0
   -0.5627   21.4461  -23.5350 C   0  0  0  0  0  0  0  0  0  0  0  0
    0.7978   21.3159  -23.0098 C   0  0  0  0  0  0  0  0  0  0  0  0
    0.9827   20.9290  -21.8286 O   0  0  0  0  0  0  0  0  0  0  0  0
    1.9565   21.6100  -23.7782 N   0  0  0  0  0  0  0  0  0  0  0  0
    3.1894   21.4776  -23.2575 O   0  0  0  0  0  0  0  0  0  0  0  0
    1.8775   21.9356  -24.7638 H   0  0  0  0  0  0  0  0  0  0  0  0
    3.1688   21.3230  -22.2715 H   0  0  0  0  0  0  0  0  0  0  0  0
   -4.4338   24.1835  -25.3341 C   0  0  0  0  0  0  0  0  0  0  0  0
   -4.1572   25.4263  -25.5049 O   0  0  0  0  0  0  0  0  0  0  0  0
   -4.4340   23.3938  -26.4890 N   0  0  0  0  0  0  0  0  0  0  0  0
   -4.6244   22.3767  -26.4783 H   0  0  0  0  0  0  0  0  0  0  0  0
   -4.1406   23.9719  -27.7910 C   0  0  0  0  0  0  0  0  0  0  0  0
   -5.3827   24.3063  -28.4847 C   0  0  0  0  0  0  0  0  0  0  0  0
   -5.5451   25.5145  -29.1296 O   0  0  0  0  0  0  0  0  0  0  0  0
   -6.3337   23.4979  -28.5093 O   0  0  0  0  0  0  0  0  0  0  0  0
   -5.9033   25.5544  -30.0805 H   0  0  0  0  0  0  0  0  0  0  0  0
   -3.3279   22.9980  -28.6259 C   0  0  0  0  0  0  0  0  0  0  0  0
   -1.8969   22.9651  -28.1923 C   0  0  0  0  0  0  0  0  0  0  0  0
   -0.8344   23.3959  -28.9279 C   0  0  0  0  0  0  0  0  0  0  0  0
    0.2716   23.1968  -28.1919 N   0  0  0  0  0  0  0  0  0  0  0  0
   -0.0821   22.6486  -27.0081 C   0  0  0  0  0  0  0  0  0  0  0  0
   -1.4222   22.5127  -27.0252 N   0  0  0  0  0  0  0  0  0  0  0  0
   -2.0265   22.1183  -26.2611 H   0  0  0  0  0  0  0  0  0  0  0  0
   -5.3092   24.8135  -23.1083 C   0  0  0  0  0  0  0  0  0  0  0  0
   -7.0154   23.1596  -22.6638 C   0  0  0  0  0  0  0  0  0  0  0  0
   -6.7476   24.6809  -22.7642 C   0  0  0  0  0  0  0  0  0  0  0  0
   -7.6430   25.1518  -23.8870 C   0  0  0  0  0  0  0  0  0  0  0  0
 35 36  1  0  0  0
 36 37  1  0  0  0
 36 34  1  0  0  0
 34  1  1  0  0  0
  1  2  1  0  0  0
  2  3  1  0  0  0
  3  4  2  0  0  0
  3  6  1  0  0  0
  6  7  1  0  0  0
  7  8  1  0  0  0
  8  9  1  0  0  0
  8 10  1  0  0  0
  6 11  1  0  0  0
 11 12  1  0  0  0
 12 13  2  0  0  0
 12 14  1  0  0  0
 14 15  1  0  0  0
  1 18  1  0  0  0
 18 19  2  0  0  0
 18 20  1  0  0  0
 20 22  1  0  0  0
 22 27  1  0  0  0
 27 28  1  0  0  0
 28 29  2  0  0  0
 29 30  1  0  0  0
 30 31  2  0  0  0
 31 32  1  0  0  0
 22 23  1  0  0  0
 23 24  1  0  0  0
 23 25  2  0  0  0
 32 28  1  0  0  0
  2  5  1  0  0  0
 14 16  1  0  0  0
 15 17  1  0  0  0
 20 21  1  0  0  0
 32 33  1  0  0  0
 24 26  1  0  0  0
M  END
> <minimizedAffinity>
-6.95557

> <CNNscore>
0.5544999838

> <CNNaffinity>
6.7790536880

> <CNN_VS>
3.7589850426

> <CNNaffinity_variance>
0.0356699191

$$$$
[H]OC(=O)[C@@]([H])(N([H])C(=O)[C@@]([H])(N([H])C(=O)[C@@]([H])(C([H])([H])C(=O)N([H])O[H])C([H])([H])C([H])(C([H])([H])[H])C([H])([H])[H])C([H])([H])C([H])(C([H])([H])[H])C([H])([H])[H])C([H])([H])c1c([H])nc([H])n1[H]


 37 37  0  0  0  0  0  0  0  0999 V2000
   -3.3215   23.3494  -23.0542 C   0  0  0  0  0  0  0  0  0  0  0  0
   -3.0777   23.7112  -24.4777 N   0  0  0  0  0  0  0  0  0  0  0  0
   -3.0823   22.7141  -25.4809 C   0  0  0  0  0  0  0  0  0  0  0  0
   -3.2867   21.5295  -25.1858 O   0  0  0  0  0  0  0  0  0  0  0  0
   -2.9132   24.7273  -24.6340 H   0  0  0  0  0  0  0  0  0  0  0  0
   -2.8337   23.1306  -26.8865 C   0  0  0  0  0  0  0  0  0  0  0  0
   -4.1080   23.1001  -27.6414 C   0  0  0  0  0  0  0  0  0  0  0  0
   -4.1390   23.5529  -29.0411 C   0  0  0  0  0  0  0  0  0  0  0  0
   -5.3061   23.0097  -29.8422 C   0  0  0  0  0  0  0  0  0  0  0  0
   -3.8656   24.9747  -29.3480 C   0  0  0  0  0  0  0  0  0  0  0  0
   -1.6698   22.4309  -27.4869 C   0  0  0  0  0  0  0  0  0  0  0  0
   -0.3701   22.6178  -26.8390 C   0  0  0  0  0  0  0  0  0  0  0  0
    0.5088   23.3314  -27.3845 O   0  0  0  0  0  0  0  0  0  0  0  0
   -0.0325   22.0227  -25.5935 N   0  0  0  0  0  0  0  0  0  0  0  0
    1.1737   22.2194  -25.0321 O   0  0  0  0  0  0  0  0  0  0  0  0
   -0.7122   21.4194  -25.0860 H   0  0  0  0  0  0  0  0  0  0  0  0
    1.8122   22.6675  -25.6552 H   0  0  0  0  0  0  0  0  0  0  0  0
   -4.5678   23.9915  -22.6265 C   0  0  0  0  0  0  0  0  0  0  0  0
   -4.4652   24.9941  -21.8300 O   0  0  0  0  0  0  0  0  0  0  0  0
   -5.8696   23.6348  -22.9944 N   0  0  0  0  0  0  0  0  0  0  0  0
   -6.0806   22.8570  -23.6435 H   0  0  0  0  0  0  0  0  0  0  0  0
   -7.0184   24.3685  -22.4868 C   0  0  0  0  0  0  0  0  0  0  0  0
   -7.9393   23.4568  -21.8110 C   0  0  0  0  0  0  0  0  0  0  0  0
   -7.7232   22.0948  -21.7956 O   0  0  0  0  0  0  0  0  0  0  0  0
   -8.9519   23.8948  -21.2267 O   0  0  0  0  0  0  0  0  0  0  0  0
   -7.7782   21.5674  -20.9278 H   0  0  0  0  0  0  0  0  0  0  0  0
   -7.7331   25.0760  -23.6246 C   0  0  0  0  0  0  0  0  0  0  0  0
   -6.7652   25.7402  -24.5515 C   0  0  0  0  0  0  0  0  0  0  0  0
   -6.5894   25.4351  -25.8674 C   0  0  0  0  0  0  0  0  0  0  0  0
   -5.6348   26.2505  -26.3454 N   0  0  0  0  0  0  0  0  0  0  0  0
   -5.2110   27.0605  -25.3497 C   0  0  0  0  0  0  0  0  0  0  0  0
   -5.9182   26.7324  -24.2512 N   0  0  0  0  0  0  0  0  0  0  0  0
   -5.8404   27.1666  -23.2972 H   0  0  0  0  0  0  0  0  0  0  0  0
   -2.1145   23.8646  -22.3389 C   0  0  0  0  0  0  0  0  0  0  0  0
   -1.3786   21.5650  -22.2184 C   0  0  0  0  0  0  0  0  0  0  0  0
   -1.3896   22.9135  -21.4585 C   0  0  0  0  0  0  0  0  0  0  0  0
   -2.1531   22.6272  -20.1860 C   0  0  0  0  0  0  0  0  0  0  0  0
 35 36  1  0  0  0
 36 37  1  0  0  0
 36 34  1  0  0  0
 34  1  1  0  0  0
  1  2  1  0  0  0
  2  3  1  0  0  0
  3  4  2  0  0  0
  3  6  1  0  0  0
  6  7  1  0  0  0
  7  8  1  0  0  0
  8  9  1  0  0  0
  8 10  1  0  0  0
  6 11  1  0  0  0
 11 12  1  0  0  0
 12 13  2  0  0  0
 12 14  1  0  0  0
 14 15  1  0  0  0
  1 18  1  0  0  0
 18 19  2  0  0  0
 18 20  1  0  0  0
 20 22  1  0  0  0
 22 27  1  0  0  0
 27 28  1  0  0  0
 28 29  2  0  0  0
 29 30  1  0  0  0
 30 31  2  0  0  0
 31 32  1  0  0  0
 22 23  1  0  0  0
 23 24  1  0  0  0
 23 25  2  0  0  0
 32 28  1  0  0  0
  2  5  1  0  0  0
 14 16  1  0  0  0
 15 17  1  0  0  0
 20 21  1  0  0  0
 32 33  1  0  0  0
 24 26  1  0  0  0
M  END
> <minimizedAffinity>
-7.73671

> <CNNscore>
0.1866527200

> <CNNaffinity>
6.3392019272

> <CNN_VS>
1.1832293272

> <CNNaffinity_variance>
0.1871319562

$$$$
[H]OC(=O)[C@@]([H])(N([H])C(=O)[C@@]([H])(N([H])C(=O)[C@@]([H])(C([H])([H])C(=O)N([H])O[H])C([H])([H])C([H])(C([H])([H])[H])C([H])([H])[H])C([H])([H])C([H])(C([H])([H])[H])C([H])([H])[H])C([H])([H])c1c([H])nc([H])n1[H]


 37 37  0  0  0  0  0  0  0  0999 V2000
   -4.8803   23.4823  -24.2874 C   0  0  0  0  0  0  0  0  0  0  0  0
   -4.5657   23.0383  -25.6733 N   0  0  0  0  0  0  0  0  0  0  0  0
   -4.1281   23.9713  -26.6421 C   0  0  0  0  0  0  0  0  0  0  0  0
   -4.0043   25.1674  -26.3490 O   0  0  0  0  0  0  0  0  0  0  0  0
   -4.6998   22.0180  -25.8317 H   0  0  0  0  0  0  0  0  0  0  0  0
   -3.8274   23.4740  -28.0108 C   0  0  0  0  0  0  0  0  0  0  0  0
   -2.6962   22.5192  -27.9499 C   0  0  0  0  0  0  0  0  0  0  0  0
   -1.3930   22.9628  -27.4303 C   0  0  0  0  0  0  0  0  0  0  0  0
   -0.9888   22.3027  -26.1265 C   0  0  0  0  0  0  0  0  0  0  0  0
   -0.2517   23.1018  -28.3622 C   0  0  0  0  0  0  0  0  0  0  0  0
   -3.7380   24.5728  -29.0056 C   0  0  0  0  0  0  0  0  0  0  0  0
   -4.9837   24.9960  -29.6482 C   0  0  0  0  0  0  0  0  0  0  0  0
   -5.9665   24.2141  -29.6931 O   0  0  0  0  0  0  0  0  0  0  0  0
   -5.1532   26.2757  -30.2422 N   0  0  0  0  0  0  0  0  0  0  0  0
   -6.3147   26.6254  -30.8233 O   0  0  0  0  0  0  0  0  0  0  0  0
   -4.3807   26.9735  -30.2417 H   0  0  0  0  0  0  0  0  0  0  0  0
   -6.9354   25.8500  -30.9242 H   0  0  0  0  0  0  0  0  0  0  0  0
   -4.0720   22.6873  -23.3584 C   0  0  0  0  0  0  0  0  0  0  0  0
   -4.6330   21.6617  -22.8259 O   0  0  0  0  0  0  0  0  0  0  0  0
   -2.7438   22.9192  -22.9850 N   0  0  0  0  0  0  0  0  0  0  0  0
   -2.1799   23.7022  -23.3590 H   0  0  0  0  0  0  0  0  0  0  0  0
   -2.0659   22.0397  -22.0455 C   0  0  0  0  0  0  0  0  0  0  0  0
   -2.0102   22.6619  -20.7242 C   0  0  0  0  0  0  0  0  0  0  0  0
   -1.2224   23.7675  -20.4810 O   0  0  0  0  0  0  0  0  0  0  0  0
   -2.6810   22.2021  -19.7770 O   0  0  0  0  0  0  0  0  0  0  0  0
   -1.5994   24.5818  -20.0024 H   0  0  0  0  0  0  0  0  0  0  0  0
   -0.6606   21.7346  -22.5333 C   0  0  0  0  0  0  0  0  0  0  0  0
    0.0142   20.7225  -21.6631 C   0  0  0  0  0  0  0  0  0  0  0  0
    1.2651   20.8367  -21.1359 C   0  0  0  0  0  0  0  0  0  0  0  0
    1.5026   19.7256  -20.4192 N   0  0  0  0  0  0  0  0  0  0  0  0
    0.4205   18.9186  -20.4897 C   0  0  0  0  0  0  0  0  0  0  0  0
   -0.4872   19.5485  -21.2602 N   0  0  0  0  0  0  0  0  0  0  0  0
   -1.4438   19.2002  -21.5217 H   0  0  0  0  0  0  0  0  0  0  0  0
   -6.3486   23.2365  -24.1541 C   0  0  0  0  0  0  0  0  0  0  0  0
   -7.7051   24.6362  -25.5840 C   0  0  0  0  0  0  0  0  0  0  0  0
   -7.2361   24.4266  -24.1238 C   0  0  0  0  0  0  0  0  0  0  0  0
   -6.4777   25.6886  -23.7827 C   0  0  0  0  0  0  0  0  0  0  0  0
 35 36  1  0  0  0
 36 37  1  0  0  0
 36 34  1  0  0  0
 34  1  1  0  0  0
  1  2  1  0  0  0
  2  3  1  0  0  0
  3  4  2  0  0  0
  3  6  1  0  0  0
  6  7  1  0  0  0
  7  8  1  0  0  0
  8  9  1  0  0  0
  8 10  1  0  0  0
  6 11  1  0  0  0
 11 12  1  0  0  0
 12 13  2  0  0  0
 12 14  1  0  0  0
 14 15  1  0  0  0
  1 18  1  0  0  0
 18 19  2  0  0  0
 18 20  1  0  0  0
 20 22  1  0  0  0
 22 27  1  0  0  0
 27 28  1  0  0  0
 28 29  2  0  0  0
 29 30  1  0  0  0
 30 31  2  0  0  0
 31 32  1  0  0  0
 22 23  1  0  0  0
 23 24  1  0  0  0
 23 25  2  0  0  0
 32 28  1  0  0  0
  2  5  1  0  0  0
 14 16  1  0  0  0
 15 17  1  0  0  0
 20 21  1  0  0  0
 32 33  1  0  0  0
 24 26  1  0  0  0
M  END
> <minimizedAffinity>
-7.41733

> <CNNscore>
0.1579213291

> <CNNaffinity>
6.2434310913

> <CNN_VS>
0.9859709144

> <CNNaffinity_variance>
0.0793934911

$$$$
[H]OC(=O)[C@@]([H])(N([H])C(=O)[C@@]([H])(N([H])C(=O)[C@@]([H])(C([H])([H])C(=O)N([H])O[H])C([H])([H])C([H])(C([H])([H])[H])C([H])([H])[H])C([H])([H])C([H])(C([H])([H])[H])C([H])([H])[H])C([H])([H])c1c([H])nc([H])n1[H]


 37 37  0  0  0  0  0  0  0  0999 V2000
   -4.7663   23.9009  -24.1008 C   0  0  0  0  0  0  0  0  0  0  0  0
   -4.3486   23.3946  -25.4371 N   0  0  0  0  0  0  0  0  0  0  0  0
   -4.0075   24.2982  -26.4706 C   0  0  0  0  0  0  0  0  0  0  0  0
   -4.0551   25.5196  -26.2758 O   0  0  0  0  0  0  0  0  0  0  0  0
   -4.3392   22.3562  -25.5126 H   0  0  0  0  0  0  0  0  0  0  0  0
   -3.5967   23.7388  -27.7856 C   0  0  0  0  0  0  0  0  0  0  0  0
   -4.7727   23.6814  -28.6848 C   0  0  0  0  0  0  0  0  0  0  0  0
   -4.9926   24.7527  -29.6692 C   0  0  0  0  0  0  0  0  0  0  0  0
   -3.7731   25.6155  -29.9286 C   0  0  0  0  0  0  0  0  0  0  0  0
   -5.7373   24.4516  -30.9123 C   0  0  0  0  0  0  0  0  0  0  0  0
   -2.7849   22.5032  -27.6467 C   0  0  0  0  0  0  0  0  0  0  0  0
   -1.4668   22.6358  -27.0232 C   0  0  0  0  0  0  0  0  0  0  0  0
   -1.3368   22.4722  -25.7841 O   0  0  0  0  0  0  0  0  0  0  0  0
   -0.2905   22.9479  -27.7570 N   0  0  0  0  0  0  0  0  0  0  0  0
    0.9021   23.0612  -27.1455 O   0  0  0  0  0  0  0  0  0  0  0  0
   -0.3247   23.0968  -28.7867 H   0  0  0  0  0  0  0  0  0  0  0  0
    0.8178   23.0669  -26.1507 H   0  0  0  0  0  0  0  0  0  0  0  0
   -4.0753   23.1119  -23.0768 C   0  0  0  0  0  0  0  0  0  0  0  0
   -4.7561   22.7739  -22.0413 O   0  0  0  0  0  0  0  0  0  0  0  0
   -2.7456   22.6778  -23.1016 N   0  0  0  0  0  0  0  0  0  0  0  0
   -2.1022   22.8715  -23.8887 H   0  0  0  0  0  0  0  0  0  0  0  0
   -2.1925   21.8972  -22.0060 C   0  0  0  0  0  0  0  0  0  0  0  0
   -2.0206   22.7399  -20.8243 C   0  0  0  0  0  0  0  0  0  0  0  0
   -2.5840   22.4036  -19.6113 O   0  0  0  0  0  0  0  0  0  0  0  0
   -1.3532   23.7931  -20.8872 O   0  0  0  0  0  0  0  0  0  0  0  0
   -2.0323   22.4200  -18.7572 H   0  0  0  0  0  0  0  0  0  0  0  0
   -0.8581   21.2965  -22.4115 C   0  0  0  0  0  0  0  0  0  0  0  0
   -0.2160   20.5685  -21.2736 C   0  0  0  0  0  0  0  0  0  0  0  0
    1.0834   20.6925  -20.8840 C   0  0  0  0  0  0  0  0  0  0  0  0
    1.2678   19.8769  -19.8326 N   0  0  0  0  0  0  0  0  0  0  0  0
    0.1047   19.2451  -19.5585 C   0  0  0  0  0  0  0  0  0  0  0  0
   -0.7990   19.6830  -20.4562 N   0  0  0  0  0  0  0  0  0  0  0  0
   -1.8071   19.3948  -20.5293 H   0  0  0  0  0  0  0  0  0  0  0  0
   -6.2492   23.7138  -24.0913 C   0  0  0  0  0  0  0  0  0  0  0  0
   -8.2497   24.9259  -23.4806 C   0  0  0  0  0  0  0  0  0  0  0  0
   -7.0825   24.8744  -24.4959 C   0  0  0  0  0  0  0  0  0  0  0  0
   -7.7506   24.6516  -25.8332 C   0  0  0  0  0  0  0  0  0  0  0  0
 35 36  1  0  0  0
 36 37  1  0  0  0
 36 34  1  0  0  0
 34  1  1  0  0  0
  1  2  1  0  0  0
  2  3  1  0  0  0
  3  4  2  0  0  0
  3  6  1  0  0  0
  6  7  1  0  0  0
  7  8  1  0  0  0
  8  9  1  0  0  0
  8 10  1  0  0  0
  6 11  1  0  0  0
 11 12  1  0  0  0
 12 13  2  0  0  0
 12 14  1  0  0  0
 14 15  1  0  0  0
  1 18  1  0  0  0
 18 19  2  0  0  0
 18 20  1  0  0  0
 20 22  1  0  0  0
 22 27  1  0  0  0
 27 28  1  0  0  0
 28 29  2  0  0  0
 29 30  1  0  0  0
 30 31  2  0  0  0
 31 32  1  0  0  0
 22 23  1  0  0  0
 23 24  1  0  0  0
 23 25  2  0  0  0
 32 28  1  0  0  0
  2  5  1  0  0  0
 14 16  1  0  0  0
 15 17  1  0  0  0
 20 21  1  0  0  0
 32 33  1  0  0  0
 24 26  1  0  0  0
M  END
> <minimizedAffinity>
-7.43441

> <CNNscore>
0.1389395595

> <CNNaffinity>
6.0465617180

> <CNN_VS>
0.8401066065

> <CNNaffinity_variance>
0.1195615530

$$$$
[H]OC(=O)[C@@]([H])(N([H])C(=O)[C@@]([H])(N([H])C(=O)[C@@]([H])(C([H])([H])C(=O)N([H])O[H])C([H])([H])C([H])(C([H])([H])[H])C([H])([H])[H])C([H])([H])C([H])(C([H])([H])[H])C([H])([H])[H])C([H])([H])c1c([H])nc([H])n1[H]


 37 37  0  0  0  0  0  0  0  0999 V2000
   -5.2501   25.1536  -26.2281 C   0  0  0  0  0  0  0  0  0  0  0  0
   -4.2999   24.0211  -26.4042 N   0  0  0  0  0  0  0  0  0  0  0  0
   -3.4283   23.6478  -25.3546 C   0  0  0  0  0  0  0  0  0  0  0  0
   -3.4445   24.2603  -24.2791 O   0  0  0  0  0  0  0  0  0  0  0  0
   -4.3528   23.5654  -27.3389 H   0  0  0  0  0  0  0  0  0  0  0  0
   -2.4999   22.5092  -25.5837 C   0  0  0  0  0  0  0  0  0  0  0  0
   -1.9296   22.6061  -26.9476 C   0  0  0  0  0  0  0  0  0  0  0  0
   -0.5073   22.3005  -27.1681 C   0  0  0  0  0  0  0  0  0  0  0  0
    0.1313   23.0985  -28.2881 C   0  0  0  0  0  0  0  0  0  0  0  0
    0.3920   22.1593  -26.0011 C   0  0  0  0  0  0  0  0  0  0  0  0
   -3.0914   21.2071  -25.1841 C   0  0  0  0  0  0  0  0  0  0  0  0
   -3.9160   21.1903  -23.9744 C   0  0  0  0  0  0  0  0  0  0  0  0
   -5.1609   21.0438  -24.0627 O   0  0  0  0  0  0  0  0  0  0  0  0
   -3.3772   21.3345  -22.6674 N   0  0  0  0  0  0  0  0  0  0  0  0
   -4.1701   21.3140  -21.5812 O   0  0  0  0  0  0  0  0  0  0  0  0
   -2.3543   21.4598  -22.5201 H   0  0  0  0  0  0  0  0  0  0  0  0
   -5.1387   21.3558  -21.8193 H   0  0  0  0  0  0  0  0  0  0  0  0
   -6.2928   24.7332  -25.2876 C   0  0  0  0  0  0  0  0  0  0  0  0
   -7.2206   23.9720  -25.7457 O   0  0  0  0  0  0  0  0  0  0  0  0
   -6.3909   25.0675  -23.9327 N   0  0  0  0  0  0  0  0  0  0  0  0
   -5.6960   25.6588  -23.4445 H   0  0  0  0  0  0  0  0  0  0  0  0
   -7.4896   24.5736  -23.1175 C   0  0  0  0  0  0  0  0  0  0  0  0
   -8.5295   25.5940  -23.0027 C   0  0  0  0  0  0  0  0  0  0  0  0
   -9.7125   25.4995  -23.7053 O   0  0  0  0  0  0  0  0  0  0  0  0
   -8.3687   26.5837  -22.2589 O   0  0  0  0  0  0  0  0  0  0  0  0
  -10.6075   25.6308  -23.2404 H   0  0  0  0  0  0  0  0  0  0  0  0
   -6.9869   24.1898  -21.7370 C   0  0  0  0  0  0  0  0  0  0  0  0
   -7.7981   23.0805  -21.1467 C   0  0  0  0  0  0  0  0  0  0  0  0
   -7.7116   21.7648  -21.4890 C   0  0  0  0  0  0  0  0  0  0  0  0
   -8.6005   21.0943  -20.7374 N   0  0  0  0  0  0  0  0  0  0  0  0
   -9.2413   21.9694  -19.9308 C   0  0  0  0  0  0  0  0  0  0  0  0
   -8.7344   23.1889  -20.1962 N   0  0  0  0  0  0  0  0  0  0  0  0
   -9.0093   24.0983  -19.7466 H   0  0  0  0  0  0  0  0  0  0  0  0
   -5.7657   25.4101  -27.6074 C   0  0  0  0  0  0  0  0  0  0  0  0
   -5.0098   25.9469  -29.8400 C   0  0  0  0  0  0  0  0  0  0  0  0
   -4.9790   24.8586  -28.7397 C   0  0  0  0  0  0  0  0  0  0  0  0
   -5.6558   23.6624  -29.3683 C   0  0  0  0  0  0  0  0  0  0  0  0
 35 36  1  0  0  0
 36 37  1  0  0  0
 36 34  1  0  0  0
 34  1  1  0  0  0
  1  2  1  0  0  0
  2  3  1  0  0  0
  3  4  2  0  0  0
  3  6  1  0  0  0
  6  7  1  0  0  0
  7  8  1  0  0  0
  8  9  1  0  0  0
  8 10  1  0  0  0
  6 11  1  0  0  0
 11 12  1  0  0  0
 12 13  2  0  0  0
 12 14  1  0  0  0
 14 15  1  0  0  0
  1 18  1  0  0  0
 18 19  2  0  0  0
 18 20  1  0  0  0
 20 22  1  0  0  0
 22 27  1  0  0  0
 27 28  1  0  0  0
 28 29  2  0  0  0
 29 30  1  0  0  0
 30 31  2  0  0  0
 31 32  1  0  0  0
 22 23  1  0  0  0
 23 24  1  0  0  0
 23 25  2  0  0  0
 32 28  1  0  0  0
  2  5  1  0  0  0
 14 16  1  0  0  0
 15 17  1  0  0  0
 20 21  1  0  0  0
 32 33  1  0  0  0
 24 26  1  0  0  0
M  END
> <minimizedAffinity>
-7.56698

> <CNNscore>
0.1316298842

> <CNNaffinity>
5.6963057518

> <CNN_VS>
0.7498040795

> <CNNaffinity_variance>
0.3822632730

$$$$
[H]OC(=O)[C@@]([H])(N([H])C(=O)[C@@]([H])(N([H])C(=O)[C@@]([H])(C([H])([H])C(=O)N([H])O[H])C([H])([H])C([H])(C([H])([H])[H])C([H])([H])[H])C([H])([H])C([H])(C([H])([H])[H])C([H])([H])[H])C([H])([H])c1c([H])nc([H])n1[H]


 37 37  0  0  0  0  0  0  0  0999 V2000
   -5.7560   23.8027  -24.3170 C   0  0  0  0  0  0  0  0  0  0  0  0
   -5.5609   23.2253  -25.6753 N   0  0  0  0  0  0  0  0  0  0  0  0
   -4.7148   23.8654  -26.6108 C   0  0  0  0  0  0  0  0  0  0  0  0
   -4.1294   24.9140  -26.3110 O   0  0  0  0  0  0  0  0  0  0  0  0
   -6.0922   22.3454  -25.8417 H   0  0  0  0  0  0  0  0  0  0  0  0
   -4.5553   23.2456  -27.9529 C   0  0  0  0  0  0  0  0  0  0  0  0
   -3.2571   23.6590  -28.5347 C   0  0  0  0  0  0  0  0  0  0  0  0
   -2.0593   22.8352  -28.3076 C   0  0  0  0  0  0  0  0  0  0  0  0
   -0.7832   23.4288  -28.8718 C   0  0  0  0  0  0  0  0  0  0  0  0
   -1.8472   22.2170  -26.9797 C   0  0  0  0  0  0  0  0  0  0  0  0
   -5.7640   23.4099  -28.7997 C   0  0  0  0  0  0  0  0  0  0  0  0
   -5.9083   24.6760  -29.5208 C   0  0  0  0  0  0  0  0  0  0  0  0
   -6.1371   25.7380  -28.8891 O   0  0  0  0  0  0  0  0  0  0  0  0
   -5.8024   24.7792  -30.9341 N   0  0  0  0  0  0  0  0  0  0  0  0
   -5.9420   25.9624  -31.5583 O   0  0  0  0  0  0  0  0  0  0  0  0
   -5.6142   23.9398  -31.5202 H   0  0  0  0  0  0  0  0  0  0  0  0
   -6.2799   26.6751  -30.9463 H   0  0  0  0  0  0  0  0  0  0  0  0
   -5.3385   22.8019  -23.3308 C   0  0  0  0  0  0  0  0  0  0  0  0
   -5.2205   21.5905  -23.7416 O   0  0  0  0  0  0  0  0  0  0  0  0
   -5.0473   23.0195  -21.9798 N   0  0  0  0  0  0  0  0  0  0  0  0
   -5.0888   23.9534  -21.5359 H   0  0  0  0  0  0  0  0  0  0  0  0
   -4.6432   21.9220  -21.1150 C   0  0  0  0  0  0  0  0  0  0  0  0
   -5.5816   21.7858  -20.0029 C   0  0  0  0  0  0  0  0  0  0  0  0
   -6.6995   20.9838  -20.0976 O   0  0  0  0  0  0  0  0  0  0  0  0
   -5.3902   22.3982  -18.9320 O   0  0  0  0  0  0  0  0  0  0  0  0
   -6.9259   20.3155  -19.3652 H   0  0  0  0  0  0  0  0  0  0  0  0
   -3.2416   22.1628  -20.5826 C   0  0  0  0  0  0  0  0  0  0  0  0
   -2.2258   22.1355  -21.6800 C   0  0  0  0  0  0  0  0  0  0  0  0
   -1.6209   23.2255  -22.2292 C   0  0  0  0  0  0  0  0  0  0  0  0
   -0.7799   22.7832  -23.1788 N   0  0  0  0  0  0  0  0  0  0  0  0
   -0.8492   21.4343  -23.2322 C   0  0  0  0  0  0  0  0  0  0  0  0
   -1.7450   21.0518  -22.3018 N   0  0  0  0  0  0  0  0  0  0  0  0
   -2.0406   20.0687  -22.0766 H   0  0  0  0  0  0  0  0  0  0  0  0
   -7.2171   24.1131  -24.2630 C   0  0  0  0  0  0  0  0  0  0  0  0
   -6.4937   26.4137  -24.4301 C   0  0  0  0  0  0  0  0  0  0  0  0
   -7.6041   25.4919  -23.8704 C   0  0  0  0  0  0  0  0  0  0  0  0
   -7.5453   25.6907  -22.3734 C   0  0  0  0  0  0  0  0  0  0  0  0
 35 36  1  0  0  0
 36 37  1  0  0  0
 36 34  1  0  0  0
 34  1  1  0  0  0
  1  2  1  0  0  0
  2  3  1  0  0  0
  3  4  2  0  0  0
  3  6  1  0  0  0
  6  7  1  0  0  0
  7  8  1  0  0  0
  8  9  1  0  0  0
  8 10  1  0  0  0
  6 11  1  0  0  0
 11 12  1  0  0  0
 12 13  2  0  0  0
 12 14  1  0  0  0
 14 15  1  0  0  0
  1 18  1  0  0  0
 18 19  2  0  0  0
 18 20  1  0  0  0
 20 22  1  0  0  0
 22 27  1  0  0  0
 27 28  1  0  0  0
 28 29  2  0  0  0
 29 30  1  0  0  0
 30 31  2  0  0  0
 31 32  1  0  0  0
 22 23  1  0  0  0
 23 24  1  0  0  0
 23 25  2  0  0  0
 32 28  1  0  0  0
  2  5  1  0  0  0
 14 16  1  0  0  0
 15 17  1  0  0  0
 20 21  1  0  0  0
 32 33  1  0  0  0
 24 26  1  0  0  0
M  END
> <minimizedAffinity>
-6.91966

> <CNNscore>
0.1102723405

> <CNNaffinity>
6.1346526146

> <CNN_VS>
0.6764824986

> <CNNaffinity_variance>
0.1167023405

$$$$
[H]OC(=O)[C@@]([H])(N([H])C(=O)[C@@]([H])(N([H])C(=O)[C@@]([H])(C([H])([H])C(=O)N([H])O[H])C([H])([H])C([H])(C([H])([H])[H])C([H])([H])[H])C([H])([H])C([H])(C([H])([H])[H])C([H])([H])[H])C([H])([H])c1c([H])nc([H])n1[H]


 37 37  0  0  0  0  0  0  0  0999 V2000
   -4.7298   25.1469  -24.6630 C   0  0  0  0  0  0  0  0  0  0  0  0
   -3.8085   23.9942  -24.8608 N   0  0  0  0  0  0  0  0  0  0  0  0
   -2.8370   23.6780  -23.8825 C   0  0  0  0  0  0  0  0  0  0  0  0
   -2.7406   24.3577  -22.8526 O   0  0  0  0  0  0  0  0  0  0  0  0
   -3.9584   23.4808  -25.7540 H   0  0  0  0  0  0  0  0  0  0  0  0
   -1.9429   22.5160  -24.1304 C   0  0  0  0  0  0  0  0  0  0  0  0
   -2.0550   22.1026  -25.5486 C   0  0  0  0  0  0  0  0  0  0  0  0
   -1.1557   22.6901  -26.5541 C   0  0  0  0  0  0  0  0  0  0  0  0
    0.2773   22.2028  -26.4636 C   0  0  0  0  0  0  0  0  0  0  0  0
   -1.6165   22.8097  -27.9555 C   0  0  0  0  0  0  0  0  0  0  0  0
   -2.0904   21.4579  -23.0991 C   0  0  0  0  0  0  0  0  0  0  0  0
   -0.8764   21.0312  -22.4005 C   0  0  0  0  0  0  0  0  0  0  0  0
    0.2527   21.2626  -22.9012 O   0  0  0  0  0  0  0  0  0  0  0  0
   -0.8989   20.3503  -21.1535 N   0  0  0  0  0  0  0  0  0  0  0  0
    0.2400   19.9748  -20.5445 O   0  0  0  0  0  0  0  0  0  0  0  0
   -1.7992   20.1257  -20.6815 H   0  0  0  0  0  0  0  0  0  0  0  0
    1.0373   20.0799  -21.1359 H   0  0  0  0  0  0  0  0  0  0  0  0
   -5.7301   24.7658  -23.6617 C   0  0  0  0  0  0  0  0  0  0  0  0
   -6.6285   23.9226  -24.0248 O   0  0  0  0  0  0  0  0  0  0  0  0
   -5.8158   25.2182  -22.3406 N   0  0  0  0  0  0  0  0  0  0  0  0
   -5.1408   25.8841  -21.9262 H   0  0  0  0  0  0  0  0  0  0  0  0
   -6.8711   24.7497  -21.4560 C   0  0  0  0  0  0  0  0  0  0  0  0
   -7.7094   25.8704  -21.0351 C   0  0  0  0  0  0  0  0  0  0  0  0
   -8.3129   26.7037  -21.9535 O   0  0  0  0  0  0  0  0  0  0  0  0
   -7.8999   26.1007  -19.8229 O   0  0  0  0  0  0  0  0  0  0  0  0
   -9.3005   26.9344  -21.8788 H   0  0  0  0  0  0  0  0  0  0  0  0
   -6.2710   24.0672  -20.2395 C   0  0  0  0  0  0  0  0  0  0  0  0
   -6.8771   22.7189  -20.0124 C   0  0  0  0  0  0  0  0  0  0  0  0
   -7.3202   21.8737  -20.9845 C   0  0  0  0  0  0  0  0  0  0  0  0
   -7.7922   20.7730  -20.3761 N   0  0  0  0  0  0  0  0  0  0  0  0
   -7.6514   20.9162  -19.0394 C   0  0  0  0  0  0  0  0  0  0  0  0
   -7.0858   22.1211  -18.8329 N   0  0  0  0  0  0  0  0  0  0  0  0
   -6.8366   22.5511  -17.9068 H   0  0  0  0  0  0  0  0  0  0  0  0
   -5.3105   25.3820  -26.0200 C   0  0  0  0  0  0  0  0  0  0  0  0
   -4.5442   25.4495  -28.3118 C   0  0  0  0  0  0  0  0  0  0  0  0
   -4.8388   24.5049  -27.1215 C   0  0  0  0  0  0  0  0  0  0  0  0
   -5.9324   23.5901  -27.6231 C   0  0  0  0  0  0  0  0  0  0  0  0
 35 36  1  0  0  0
 36 37  1  0  0  0
 36 34  1  0  0  0
 34  1  1  0  0  0
  1  2  1  0  0  0
  2  3  1  0  0  0
  3  4  2  0  0  0
  3  6  1  0  0  0
  6  7  1  0  0  0
  7  8  1  0  0  0
  8  9  1  0  0  0
  8 10  1  0  0  0
  6 11  1  0  0  0
 11 12  1  0  0  0
 12 13  2  0  0  0
 12 14  1  0  0  0
 14 15  1  0  0  0
  1 18  1  0  0  0
 18 19  2  0  0  0
 18 20  1  0  0  0
 20 22  1  0  0  0
 22 27  1  0  0  0
 27 28  1  0  0  0
 28 29  2  0  0  0
 29 30  1  0  0  0
 30 31  2  0  0  0
 31 32  1  0  0  0
 22 23  1  0  0  0
 23 24  1  0  0  0
 23 25  2  0  0  0
 32 28  1  0  0  0
  2  5  1  0  0  0
 14 16  1  0  0  0
 15 17  1  0  0  0
 20 21  1  0  0  0
 32 33  1  0  0  0
 24 26  1  0  0  0
M  END
> <minimizedAffinity>
-6.68557

> <CNNscore>
0.0984590426

> <CNNaffinity>
5.5753951073

> <CNN_VS>
0.5489480495

> <CNNaffinity_variance>
0.3062238395

$$$$
[H]OC(=O)[C@@]([H])(N([H])C(=O)[C@@]([H])(N([H])C(=O)[C@@]([H])(C([H])([H])C(=O)N([H])O[H])C([H])([H])C([H])(C([H])([H])[H])C([H])([H])[H])C([H])([H])C([H])(C([H])([H])[H])C([H])([H])[H])C([H])([H])c1c([H])nc([H])n1[H]


 37 37  0  0  0  0  0  0  0  0999 V2000
   -4.9563   24.1393  -24.5128 C   0  0  0  0  0  0  0  0  0  0  0  0
   -5.0883   23.3542  -23.2547 N   0  0  0  0  0  0  0  0  0  0  0  0
   -6.3665   23.0564  -22.7272 C   0  0  0  0  0  0  0  0  0  0  0  0
   -7.3891   23.4475  -23.3045 O   0  0  0  0  0  0  0  0  0  0  0  0
   -4.1786   23.0688  -22.8363 H   0  0  0  0  0  0  0  0  0  0  0  0
   -6.4409   22.2688  -21.4682 C   0  0  0  0  0  0  0  0  0  0  0  0
   -7.8256   21.7789  -21.2753 C   0  0  0  0  0  0  0  0  0  0  0  0
   -8.6318   22.2894  -20.1553 C   0  0  0  0  0  0  0  0  0  0  0  0
   -9.6667   23.3221  -20.5571 C   0  0  0  0  0  0  0  0  0  0  0  0
   -9.1540   21.3396  -19.1474 C   0  0  0  0  0  0  0  0  0  0  0  0
   -5.8002   22.9669  -20.3249 C   0  0  0  0  0  0  0  0  0  0  0  0
   -4.5438   22.4097  -19.8202 C   0  0  0  0  0  0  0  0  0  0  0  0
   -3.9359   22.9781  -18.8787 O   0  0  0  0  0  0  0  0  0  0  0  0
   -3.9525   21.2297  -20.3470 N   0  0  0  0  0  0  0  0  0  0  0  0
   -2.7961   20.7509  -19.8548 O   0  0  0  0  0  0  0  0  0  0  0  0
   -4.4016   20.7078  -21.1277 H   0  0  0  0  0  0  0  0  0  0  0  0
   -2.3560   21.3937  -19.2305 H   0  0  0  0  0  0  0  0  0  0  0  0
   -4.2082   23.3306  -25.4796 C   0  0  0  0  0  0  0  0  0  0  0  0
   -4.5047   22.0828  -25.5513 O   0  0  0  0  0  0  0  0  0  0  0  0
   -3.2001   23.7692  -26.3448 N   0  0  0  0  0  0  0  0  0  0  0  0
   -2.8853   24.7539  -26.3931 H   0  0  0  0  0  0  0  0  0  0  0  0
   -2.5413   22.8461  -27.2555 C   0  0  0  0  0  0  0  0  0  0  0  0
   -1.1521   22.6436  -26.8493 C   0  0  0  0  0  0  0  0  0  0  0  0
   -0.1033   22.9490  -27.6912 O   0  0  0  0  0  0  0  0  0  0  0  0
   -0.8811   22.1854  -25.7200 O   0  0  0  0  0  0  0  0  0  0  0  0
    0.6858   23.5002  -27.3631 H   0  0  0  0  0  0  0  0  0  0  0  0
   -2.5921   23.3838  -28.6747 C   0  0  0  0  0  0  0  0  0  0  0  0
   -3.9228   23.9929  -28.9832 C   0  0  0  0  0  0  0  0  0  0  0  0
   -5.0829   23.3071  -29.1820 C   0  0  0  0  0  0  0  0  0  0  0  0
   -6.0458   24.2095  -29.4329 N   0  0  0  0  0  0  0  0  0  0  0  0
   -5.5067   25.4484  -29.3941 C   0  0  0  0  0  0  0  0  0  0  0  0
   -4.1975   25.2964  -29.1157 N   0  0  0  0  0  0  0  0  0  0  0  0
   -3.4813   26.0587  -29.0129 H   0  0  0  0  0  0  0  0  0  0  0  0
   -4.2329   25.3775  -24.0914 C   0  0  0  0  0  0  0  0  0  0  0  0
   -6.3308   26.3335  -24.8188 C   0  0  0  0  0  0  0  0  0  0  0  0
   -4.8849   26.6785  -24.3870 C   0  0  0  0  0  0  0  0  0  0  0  0
   -4.2776   27.3533  -25.5953 C   0  0  0  0  0  0  0  0  0  0  0  0
 35 36  1  0  0  0
 36 37  1  0  0  0
 36 34  1  0  0  0
 34  1  1  0  0  0
  1  2  1  0  0  0
  2  3  1  0  0  0
  3  4  2  0  0  0
  3  6  1  0  0  0
  6  7  1  0  0  0
  7  8  1  0  0  0
  8  9  1  0  0  0
  8 10  1  0  0  0
  6 11  1  0  0  0
 11 12  1  0  0  0
 12 13  2  0  0  0
 12 14  1  0  0  0
 14 15  1  0  0  0
  1 18  1  0  0  0
 18 19  2  0  0  0
 18 20  1  0  0  0
 20 22  1  0  0  0
 22 27  1  0  0  0
 27 28  1  0  0  0
 28 29  2  0  0  0
 29 30  1  0  0  0
 30 31  2  0  0  0
 31 32  1  0  0  0
 22 23  1  0  0  0
 23 24  1  0  0  0
 23 25  2  0  0  0
 32 28  1  0  0  0
  2  5  1  0  0  0
 14 16  1  0  0  0
 15 17  1  0  0  0
 20 21  1  0  0  0
 32 33  1  0  0  0
 24 26  1  0  0  0
M  END
> <minimizedAffinity>
-6.71705

> <CNNscore>
0.0846026167

> <CNNaffinity>
5.8289175034

> <CNN_VS>
0.4931416810

> <CNNaffinity_variance>
0.1422317624

$$$$
[H]OC(=O)[C@@]([H])(N([H])C(=O)[C@@]([H])(N([H])C(=O)[C@@]([H])(C([H])([H])C(=O)N([H])O[H])C([H])([H])C([H])(C([H])([H])[H])C([H])([H])[H])C([H])([H])C([H])(C([H])([H])[H])C([H])([H])[H])C([H])([H])c1c([H])nc([H])n1[H]


 37 37  0  0  0  0  0  0  0  0999 V2000
   -4.3351   23.6939  -24.3316 C   0  0  0  0  0  0  0  0  0  0  0  0
   -3.6990   23.2714  -23.0535 N   0  0  0  0  0  0  0  0  0  0  0  0
   -4.3206   22.3040  -22.2298 C   0  0  0  0  0  0  0  0  0  0  0  0
   -5.4014   21.8001  -22.5614 O   0  0  0  0  0  0  0  0  0  0  0  0
   -2.7949   23.7472  -22.8529 H   0  0  0  0  0  0  0  0  0  0  0  0
   -3.6418   21.9180  -20.9644 C   0  0  0  0  0  0  0  0  0  0  0  0
   -4.6033   21.2124  -20.0856 C   0  0  0  0  0  0  0  0  0  0  0  0
   -5.2443   21.9347  -18.9755 C   0  0  0  0  0  0  0  0  0  0  0  0
   -6.6918   22.3063  -19.2321 C   0  0  0  0  0  0  0  0  0  0  0  0
   -5.0256   21.4700  -17.5875 C   0  0  0  0  0  0  0  0  0  0  0  0
   -2.8725   23.0402  -20.3695 C   0  0  0  0  0  0  0  0  0  0  0  0
   -1.4243   22.8651  -20.2428 C   0  0  0  0  0  0  0  0  0  0  0  0
   -0.7210   23.7781  -19.7420 O   0  0  0  0  0  0  0  0  0  0  0  0
   -0.7461   21.6900  -20.6651 N   0  0  0  0  0  0  0  0  0  0  0  0
    0.5868   21.5692  -20.5313 O   0  0  0  0  0  0  0  0  0  0  0  0
   -1.2661   20.8939  -21.0889 H   0  0  0  0  0  0  0  0  0  0  0  0
    1.0204   22.4305  -20.2731 H   0  0  0  0  0  0  0  0  0  0  0  0
   -3.6538   23.0043  -25.4309 C   0  0  0  0  0  0  0  0  0  0  0  0
   -3.9392   21.7647  -25.6094 O   0  0  0  0  0  0  0  0  0  0  0  0
   -2.7210   23.5500  -26.3194 N   0  0  0  0  0  0  0  0  0  0  0  0
   -2.4232   24.5406  -26.2886 H   0  0  0  0  0  0  0  0  0  0  0  0
   -2.1230   22.7389  -27.3683 C   0  0  0  0  0  0  0  0  0  0  0  0
   -0.6847   22.6075  -27.1445 C   0  0  0  0  0  0  0  0  0  0  0  0
    0.2303   22.9504  -28.1178 O   0  0  0  0  0  0  0  0  0  0  0  0
   -0.2479   22.1778  -26.0568 O   0  0  0  0  0  0  0  0  0  0  0  0
    1.0277   23.5425  -27.8990 H   0  0  0  0  0  0  0  0  0  0  0  0
   -2.3798   23.3664  -28.7270 C   0  0  0  0  0  0  0  0  0  0  0  0
   -3.7861   23.8617  -28.8454 C   0  0  0  0  0  0  0  0  0  0  0  0
   -4.8914   23.0822  -29.0071 C   0  0  0  0  0  0  0  0  0  0  0  0
   -5.9549   23.9003  -29.0715 N   0  0  0  0  0  0  0  0  0  0  0  0
   -5.5324   25.1788  -28.9527 C   0  0  0  0  0  0  0  0  0  0  0  0
   -4.1932   25.1366  -28.8141 N   0  0  0  0  0  0  0  0  0  0  0  0
   -3.5444   25.9554  -28.6985 H   0  0  0  0  0  0  0  0  0  0  0  0
   -4.1467   25.1765  -24.3557 C   0  0  0  0  0  0  0  0  0  0  0  0
   -4.3843   27.3400  -25.4077 C   0  0  0  0  0  0  0  0  0  0  0  0
   -5.0662   25.9638  -25.2157 C   0  0  0  0  0  0  0  0  0  0  0  0
   -6.3669   26.2781  -24.5130 C   0  0  0  0  0  0  0  0  0  0  0  0
 35 36  1  0  0  0
 36 37  1  0  0  0
 36 34  1  0  0  0
 34  1  1  0  0  0
  1  2  1  0  0  0
  2  3  1  0  0  0
  3  4  2  0  0  0
  3  6  1  0  0  0
  6  7  1  0  0  0
  7  8  1  0  0  0
  8  9  1  0  0  0
  8 10  1  0  0  0
  6 11  1  0  0  0
 11 12  1  0  0  0
 12 13  2  0  0  0
 12 14  1  0  0  0
 14 15  1  0  0  0
  1 18  1  0  0  0
 18 19  2  0  0  0
 18 20  1  0  0  0
 20 22  1  0  0  0
 22 27  1  0  0  0
 27 28  1  0  0  0
 28 29  2  0  0  0
 29 30  1  0  0  0
 30 31  2  0  0  0
 31 32  1  0  0  0
 22 23  1  0  0  0
 23 24  1  0  0  0
 23 25  2  0  0  0
 32 28  1  0  0  0
  2  5  1  0  0  0
 14 16  1  0  0  0
 15 17  1  0  0  0
 20 21  1  0  0  0
 32 33  1  0  0  0
 24 26  1  0  0  0
M  END
> <minimizedAffinity>
-6.40850

> <CNNscore>
0.0699850842

> <CNNaffinity>
5.9169149399

> <CNN_VS>
0.4140957892

> <CNNaffinity_variance>
0.1534953117

$$$$
[H]Oc1c([H])c2c(c([H])c1O[H])[C@@]1([H])C([H])([H])C([H])([H])[C@]3(C([H])([H])[H])[C@@]([H])(N([H])S(=O)(=O)c4c([H])c([H])c([H])c([H])c4[H])C([H])([H])C([H])([H])[C@@]3([H])[C@]1([H])C([H])([H])C2([H])[H]


 33 37  0  0  0  0  0  0  0  0999 V2000
   -4.3868   25.2029  -22.7142 C   0  0  0  0  0  0  0  0  0  0  0  0
   -5.4296   24.1988  -23.0919 C   0  0  0  0  0  0  0  0  0  0  0  0
   -4.9973   22.8055  -22.8088 C   0  0  0  0  0  0  0  0  0  0  0  0
   -3.7826   22.4629  -23.5933 C   0  0  0  0  0  0  0  0  0  0  0  0
   -3.9017   22.7790  -25.0538 C   0  0  0  0  0  0  0  0  0  0  0  0
   -4.4511   24.1778  -25.3094 C   0  0  0  0  0  0  0  0  0  0  0  0
   -4.6629   24.3875  -26.7692 C   0  0  0  0  0  0  0  0  0  0  0  0
   -4.0312   23.3671  -27.6561 C   0  0  0  0  0  0  0  0  0  0  0  0
   -2.6870   22.9650  -27.1372 C   0  0  0  0  0  0  0  0  0  0  0  0
   -1.5823   22.8999  -27.9441 C   0  0  0  0  0  0  0  0  0  0  0  0
   -0.3910   22.5162  -27.3588 C   0  0  0  0  0  0  0  0  0  0  0  0
    0.7489   22.4472  -28.1825 O   0  0  0  0  0  0  0  0  0  0  0  0
   -0.2876   22.2077  -26.0305 C   0  0  0  0  0  0  0  0  0  0  0  0
    0.9209   21.8253  -25.4690 O   0  0  0  0  0  0  0  0  0  0  0  0
   -1.4445   22.2890  -25.2471 C   0  0  0  0  0  0  0  0  0  0  0  0
   -2.6362   22.6624  -25.7838 C   0  0  0  0  0  0  0  0  0  0  0  0
   -5.7365   24.2336  -24.5962 C   0  0  0  0  0  0  0  0  0  0  0  0
   -6.5486   25.4559  -24.7118 C   0  0  0  0  0  0  0  0  0  0  0  0
   -7.5984   25.1578  -23.6381 C   0  0  0  0  0  0  0  0  0  0  0  0
   -6.7629   24.5799  -22.5168 C   0  0  0  0  0  0  0  0  0  0  0  0
    0.7015   22.6692  -29.1655 H   0  0  0  0  0  0  0  0  0  0  0  0
    1.7301   21.7804  -26.0717 H   0  0  0  0  0  0  0  0  0  0  0  0
   -6.5659   25.6219  -21.5365 N   0  0  0  0  0  0  0  0  0  0  0  0
   -7.0683   26.4802  -21.8334 H   0  0  0  0  0  0  0  0  0  0  0  0
   -7.0533   25.2018  -19.9608 S   0  0  0  0  0  0  0  0  0  0  0  0
   -8.3418   25.9489  -19.6756 O   0  0  0  0  0  0  0  0  0  0  0  0
   -6.0793   25.6064  -18.9105 O   0  0  0  0  0  0  0  0  0  0  0  0
   -7.4646   23.4871  -19.8171 C   0  0  0  0  0  0  0  0  0  0  0  0
   -6.5246   22.5413  -19.4695 C   0  0  0  0  0  0  0  0  0  0  0  0
   -6.7918   21.1940  -19.3447 C   0  0  0  0  0  0  0  0  0  0  0  0
   -8.0862   20.7815  -19.5859 C   0  0  0  0  0  0  0  0  0  0  0  0
   -9.0602   21.7011  -19.9377 C   0  0  0  0  0  0  0  0  0  0  0  0
   -8.7531   23.0470  -20.0533 C   0  0  0  0  0  0  0  0  0  0  0  0
  2  1  1  0  0  0
  2  3  1  0  0  0
  3  4  1  0  0  0
  4  5  1  0  0  0
  5  6  1  0  0  0
  6  7  1  0  0  0
  7  8  1  0  0  0
  8  9  1  0  0  0
  9 10  2  0  0  0
 10 11  1  0  0  0
 11 12  1  0  0  0
 11 13  2  0  0  0
 13 14  1  0  0  0
 13 15  1  0  0  0
 15 16  2  0  0  0
  6 17  1  0  0  0
 17 18  1  0  0  0
 18 19  1  0  0  0
 19 20  1  0  0  0
 20 23  1  0  0  0
 23 25  1  0  0  0
 25 26  2  0  0  0
 25 27  2  0  0  0
 25 28  1  0  0  0
 28 29  2  0  0  0
 29 30  1  0  0  0
 30 31  2  0  0  0
 31 32  1  0  0  0
 32 33  2  0  0  0
 17  2  1  0  0  0
 33 28  1  0  0  0
 20  2  1  0  0  0
 16  5  1  0  0  0
 16  9  1  0  0  0
 12 21  1  0  0  0
 14 22  1  0  0  0
 23 24  1  0  0  0
M  END
> <minimizedAffinity>
-10.37448

> <CNNscore>
0.5600150228

> <CNNaffinity>
6.8084259033

> <CNN_VS>
3.8128206730

> <CNNaffinity_variance>
0.0565190800

$$$$
[H]Oc1c([H])c2c(c([H])c1O[H])[C@@]1([H])C([H])([H])C([H])([H])[C@]3(C([H])([H])[H])[C@@]([H])(N([H])S(=O)(=O)c4c([H])c([H])c([H])c([H])c4[H])C([H])([H])C([H])([H])[C@@]3([H])[C@]1([H])C([H])([H])C2([H])[H]


 33 37  0  0  0  0  0  0  0  0999 V2000
   -5.3692   25.4825  -24.0171 C   0  0  0  0  0  0  0  0  0  0  0  0
   -6.1951   24.3181  -24.4644 C   0  0  0  0  0  0  0  0  0  0  0  0
   -5.7877   23.0521  -23.8014 C   0  0  0  0  0  0  0  0  0  0  0  0
   -4.3781   22.7167  -24.1309 C   0  0  0  0  0  0  0  0  0  0  0  0
   -4.0776   22.7597  -25.5989 C   0  0  0  0  0  0  0  0  0  0  0  0
   -4.6051   24.0228  -26.2699 C   0  0  0  0  0  0  0  0  0  0  0  0
   -4.3872   23.9513  -27.7421 C   0  0  0  0  0  0  0  0  0  0  0  0
   -3.4649   22.8699  -28.1964 C   0  0  0  0  0  0  0  0  0  0  0  0
   -2.3138   22.7165  -27.2534 C   0  0  0  0  0  0  0  0  0  0  0  0
   -1.0180   22.6365  -27.6897 C   0  0  0  0  0  0  0  0  0  0  0  0
   -0.0334   22.4956  -26.7308 C   0  0  0  0  0  0  0  0  0  0  0  0
    1.3011   22.4128  -27.1723 O   0  0  0  0  0  0  0  0  0  0  0  0
   -0.3101   22.4353  -25.3928 C   0  0  0  0  0  0  0  0  0  0  0  0
    0.6979   22.2935  -24.4517 O   0  0  0  0  0  0  0  0  0  0  0  0
   -1.6496   22.5213  -24.9964 C   0  0  0  0  0  0  0  0  0  0  0  0
   -2.6484   22.6606  -25.9079 C   0  0  0  0  0  0  0  0  0  0  0  0
   -6.0449   24.0573  -25.9703 C   0  0  0  0  0  0  0  0  0  0  0  0
   -6.8543   25.1425  -26.5482 C   0  0  0  0  0  0  0  0  0  0  0  0
   -8.1560   24.9194  -25.7739 C   0  0  0  0  0  0  0  0  0  0  0  0
   -7.6582   24.6416  -24.3724 C   0  0  0  0  0  0  0  0  0  0  0  0
    1.5341   22.4544  -28.1530 H   0  0  0  0  0  0  0  0  0  0  0  0
    1.6503   22.2356  -24.7828 H   0  0  0  0  0  0  0  0  0  0  0  0
   -7.8192   25.8530  -23.6030 N   0  0  0  0  0  0  0  0  0  0  0  0
   -8.3451   26.5533  -24.1601 H   0  0  0  0  0  0  0  0  0  0  0  0
   -8.5926   25.6320  -22.1031 S   0  0  0  0  0  0  0  0  0  0  0  0
  -10.0359   25.2668  -22.3920 O   0  0  0  0  0  0  0  0  0  0  0  0
   -8.6193   26.8600  -21.2623 O   0  0  0  0  0  0  0  0  0  0  0  0
   -7.9341   24.2601  -21.2007 C   0  0  0  0  0  0  0  0  0  0  0  0
   -8.5733   23.0398  -21.1656 C   0  0  0  0  0  0  0  0  0  0  0  0
   -8.1043   21.9400  -20.4779 C   0  0  0  0  0  0  0  0  0  0  0  0
   -6.9194   22.0854  -19.7862 C   0  0  0  0  0  0  0  0  0  0  0  0
   -6.2463   23.2958  -19.7965 C   0  0  0  0  0  0  0  0  0  0  0  0
   -6.7493   24.3785  -20.4993 C   0  0  0  0  0  0  0  0  0  0  0  0
  2  1  1  0  0  0
  2  3  1  0  0  0
  3  4  1  0  0  0
  4  5  1  0  0  0
  5  6  1  0  0  0
  6  7  1  0  0  0
  7  8  1  0  0  0
  8  9  1  0  0  0
  9 10  2  0  0  0
 10 11  1  0  0  0
 11 12  1  0  0  0
 11 13  2  0  0  0
 13 14  1  0  0  0
 13 15  1  0  0  0
 15 16  2  0  0  0
  6 17  1  0  0  0
 17 18  1  0  0  0
 18 19  1  0  0  0
 19 20  1  0  0  0
 20 23  1  0  0  0
 23 25  1  0  0  0
 25 26  2  0  0  0
 25 27  2  0  0  0
 25 28  1  0  0  0
 28 29  2  0  0  0
 29 30  1  0  0  0
 30 31  2  0  0  0
 31 32  1  0  0  0
 32 33  2  0  0  0
 17  2  1  0  0  0
 33 28  1  0  0  0
 20  2  1  0  0  0
 16  5  1  0  0  0
 16  9  1  0  0  0
 12 21  1  0  0  0
 14 22  1  0  0  0
 23 24  1  0  0  0
M  END
> <minimizedAffinity>
-10.34683

> <CNNscore>
0.3980609477

> <CNNaffinity>
6.7626523972

> <CNN_VS>
2.6919479370

> <CNNaffinity_variance>
0.1204826608

$$$$
[H]Oc1c([H])c2c(c([H])c1O[H])[C@@]1([H])C([H])([H])C([H])([H])[C@]3(C([H])([H])[H])[C@@]([H])(N([H])S(=O)(=O)c4c([H])c([H])c([H])c([H])c4[H])C([H])([H])C([H])([H])[C@@]3([H])[C@]1([H])C([H])([H])C2([H])[H]


 33 37  0  0  0  0  0  0  0  0999 V2000
   -4.8571   24.8059  -22.8316 C   0  0  0  0  0  0  0  0  0  0  0  0
   -5.8073   23.8051  -23.4091 C   0  0  0  0  0  0  0  0  0  0  0  0
   -5.3894   22.4066  -23.1300 C   0  0  0  0  0  0  0  0  0  0  0  0
   -4.0630   22.1237  -23.7375 C   0  0  0  0  0  0  0  0  0  0  0  0
   -3.9694   22.5106  -25.1828 C   0  0  0  0  0  0  0  0  0  0  0  0
   -4.5073   23.9113  -25.4521 C   0  0  0  0  0  0  0  0  0  0  0  0
   -4.5029   24.1903  -26.9157 C   0  0  0  0  0  0  0  0  0  0  0  0
   -3.7214   23.2261  -27.7442 C   0  0  0  0  0  0  0  0  0  0  0  0
   -2.4610   22.8206  -27.0480 C   0  0  0  0  0  0  0  0  0  0  0  0
   -1.2465   22.8141  -27.6811 C   0  0  0  0  0  0  0  0  0  0  0  0
   -0.1477   22.4212  -26.9416 C   0  0  0  0  0  0  0  0  0  0  0  0
    1.1041   22.4122  -27.5862 O   0  0  0  0  0  0  0  0  0  0  0  0
   -0.2372   22.0482  -25.6288 C   0  0  0  0  0  0  0  0  0  0  0  0
    0.8822   21.6580  -24.9102 O   0  0  0  0  0  0  0  0  0  0  0  0
   -1.5001   22.0712  -25.0260 C   0  0  0  0  0  0  0  0  0  0  0  0
   -2.6064   22.4515  -25.7182 C   0  0  0  0  0  0  0  0  0  0  0  0
   -5.8860   23.9102  -24.9392 C   0  0  0  0  0  0  0  0  0  0  0  0
   -6.7004   25.1232  -25.1183 C   0  0  0  0  0  0  0  0  0  0  0  0
   -7.8919   24.7546  -24.2305 C   0  0  0  0  0  0  0  0  0  0  0  0
   -7.2204   24.1350  -23.0244 C   0  0  0  0  0  0  0  0  0  0  0  0
    1.1993   22.6824  -28.5536 H   0  0  0  0  0  0  0  0  0  0  0  0
    1.7734   21.6566  -25.3853 H   0  0  0  0  0  0  0  0  0  0  0  0
   -7.1974   25.1296  -21.9777 N   0  0  0  0  0  0  0  0  0  0  0  0
   -7.7697   25.9479  -22.2608 H   0  0  0  0  0  0  0  0  0  0  0  0
   -7.7332   24.5654  -20.4640 S   0  0  0  0  0  0  0  0  0  0  0  0
   -9.1775   24.1344  -20.6315 O   0  0  0  0  0  0  0  0  0  0  0  0
   -7.7153   25.6078  -19.4016 O   0  0  0  0  0  0  0  0  0  0  0  0
   -6.8687   23.1129  -19.9415 C   0  0  0  0  0  0  0  0  0  0  0  0
   -5.5621   23.1624  -19.5065 C   0  0  0  0  0  0  0  0  0  0  0  0
   -4.8429   22.0617  -19.0899 C   0  0  0  0  0  0  0  0  0  0  0  0
   -5.4850   20.8408  -19.1154 C   0  0  0  0  0  0  0  0  0  0  0  0
   -6.7981   20.7488  -19.5459 C   0  0  0  0  0  0  0  0  0  0  0  0
   -7.4880   21.8776  -19.9572 C   0  0  0  0  0  0  0  0  0  0  0  0
  2  1  1  0  0  0
  2  3  1  0  0  0
  3  4  1  0  0  0
  4  5  1  0  0  0
  5  6  1  0  0  0
  6  7  1  0  0  0
  7  8  1  0  0  0
  8  9  1  0  0  0
  9 10  2  0  0  0
 10 11  1  0  0  0
 11 12  1  0  0  0
 11 13  2  0  0  0
 13 14  1  0  0  0
 13 15  1  0  0  0
 15 16  2  0  0  0
  6 17  1  0  0  0
 17 18  1  0  0  0
 18 19  1  0  0  0
 19 20  1  0  0  0
 20 23  1  0  0  0
 23 25  1  0  0  0
 25 26  2  0  0  0
 25 27  2  0  0  0
 25 28  1  0  0  0
 28 29  2  0  0  0
 29 30  1  0  0  0
 30 31  2  0  0  0
 31 32  1  0  0  0
 32 33  2  0  0  0
 17  2  1  0  0  0
 33 28  1  0  0  0
 20  2  1  0  0  0
 16  5  1  0  0  0
 16  9  1  0  0  0
 12 21  1  0  0  0
 14 22  1  0  0  0
 23 24  1  0  0  0
M  END
> <minimizedAffinity>
-9.91992

> <CNNscore>
0.3143213689

> <CNNaffinity>
6.5754799843

> <CNN_VS>
2.0668139458

> <CNNaffinity_variance>
0.0331637785

$$$$
[H]Oc1c([H])c2c(c([H])c1O[H])[C@@]1([H])C([H])([H])C([H])([H])[C@]3(C([H])([H])[H])[C@@]([H])(N([H])S(=O)(=O)c4c([H])c([H])c([H])c([H])c4[H])C([H])([H])C([H])([H])[C@@]3([H])[C@]1([H])C([H])([H])C2([H])[H]


 33 37  0  0  0  0  0  0  0  0999 V2000
   -4.1254   24.3239  -22.4413 C   0  0  0  0  0  0  0  0  0  0  0  0
   -4.9946   23.1451  -22.7465 C   0  0  0  0  0  0  0  0  0  0  0  0
   -4.2372   21.8669  -22.7231 C   0  0  0  0  0  0  0  0  0  0  0  0
   -3.1643   21.8732  -23.7512 C   0  0  0  0  0  0  0  0  0  0  0  0
   -3.6412   22.2739  -25.1147 C   0  0  0  0  0  0  0  0  0  0  0  0
   -4.5062   23.5288  -25.0894 C   0  0  0  0  0  0  0  0  0  0  0  0
   -5.0498   23.8052  -26.4489 C   0  0  0  0  0  0  0  0  0  0  0  0
   -4.4168   23.0306  -27.5561 C   0  0  0  0  0  0  0  0  0  0  0  0
   -2.9417   22.9007  -27.3437 C   0  0  0  0  0  0  0  0  0  0  0  0
   -2.0355   23.1535  -28.3390 C   0  0  0  0  0  0  0  0  0  0  0  0
   -0.6971   23.0015  -28.0319 C   0  0  0  0  0  0  0  0  0  0  0  0
    0.2402   23.2598  -29.0505 O   0  0  0  0  0  0  0  0  0  0  0  0
   -0.2638   22.6155  -26.7935 C   0  0  0  0  0  0  0  0  0  0  0  0
    1.0860   22.4707  -26.5125 O   0  0  0  0  0  0  0  0  0  0  0  0
   -1.2281   22.3687  -25.8096 C   0  0  0  0  0  0  0  0  0  0  0  0
   -2.5549   22.5066  -26.0706 C   0  0  0  0  0  0  0  0  0  0  0  0
   -5.6025   23.2340  -24.1540 C   0  0  0  0  0  0  0  0  0  0  0  0
   -6.6542   24.2467  -23.9666 C   0  0  0  0  0  0  0  0  0  0  0  0
   -7.3789   23.6318  -22.7665 C   0  0  0  0  0  0  0  0  0  0  0  0
   -6.2318   23.1667  -21.8963 C   0  0  0  0  0  0  0  0  0  0  0  0
   -0.0513   23.5458  -29.9730 H   0  0  0  0  0  0  0  0  0  0  0  0
    1.7469   22.6595  -27.2526 H   0  0  0  0  0  0  0  0  0  0  0  0
   -6.0570   24.1415  -20.8454 N   0  0  0  0  0  0  0  0  0  0  0  0
   -6.0321   25.0952  -21.2542 H   0  0  0  0  0  0  0  0  0  0  0  0
   -7.2471   24.0817  -19.6301 S   0  0  0  0  0  0  0  0  0  0  0  0
   -6.6757   24.7749  -18.4082 O   0  0  0  0  0  0  0  0  0  0  0  0
   -7.6011   22.6972  -19.2136 O   0  0  0  0  0  0  0  0  0  0  0  0
   -8.6945   25.0046  -20.0580 C   0  0  0  0  0  0  0  0  0  0  0  0
   -8.6326   26.3412  -20.3876 C   0  0  0  0  0  0  0  0  0  0  0  0
   -9.7289   27.1061  -20.7273 C   0  0  0  0  0  0  0  0  0  0  0  0
  -10.9585   26.4804  -20.7334 C   0  0  0  0  0  0  0  0  0  0  0  0
  -11.0631   25.1382  -20.4081 C   0  0  0  0  0  0  0  0  0  0  0  0
   -9.9383   24.4026  -20.0719 C   0  0  0  0  0  0  0  0  0  0  0  0
  2  1  1  0  0  0
  2  3  1  0  0  0
  3  4  1  0  0  0
  4  5  1  0  0  0
  5  6  1  0  0  0
  6  7  1  0  0  0
  7  8  1  0  0  0
  8  9  1  0  0  0
  9 10  2  0  0  0
 10 11  1  0  0  0
 11 12  1  0  0  0
 11 13  2  0  0  0
 13 14  1  0  0  0
 13 15  1  0  0  0
 15 16  2  0  0  0
  6 17  1  0  0  0
 17 18  1  0  0  0
 18 19  1  0  0  0
 19 20  1  0  0  0
 20 23  1  0  0  0
 23 25  1  0  0  0
 25 26  2  0  0  0
 25 27  2  0  0  0
 25 28  1  0  0  0
 28 29  2  0  0  0
 29 30  1  0  0  0
 30 31  2  0  0  0
 31 32  1  0  0  0
 32 33  2  0  0  0
 17  2  1  0  0  0
 33 28  1  0  0  0
 20  2  1  0  0  0
 16  5  1  0  0  0
 16  9  1  0  0  0
 12 21  1  0  0  0
 14 22  1  0  0  0
 23 24  1  0  0  0
M  END
> <minimizedAffinity>
-10.69969

> <CNNscore>
0.2803381979

> <CNNaffinity>
6.3642525673

> <CNN_VS>
1.7841430902

> <CNNaffinity_variance>
0.1815467924

$$$$
[H]Oc1c([H])c2c(c([H])c1O[H])[C@@]1([H])C([H])([H])C([H])([H])[C@]3(C([H])([H])[H])[C@@]([H])(N([H])S(=O)(=O)c4c([H])c([H])c([H])c([H])c4[H])C([H])([H])C([H])([H])[C@@]3([H])[C@]1([H])C([H])([H])C2([H])[H]


 33 37  0  0  0  0  0  0  0  0999 V2000
   -4.6314   24.4678  -22.6827 C   0  0  0  0  0  0  0  0  0  0  0  0
   -5.2822   23.3819  -23.4799 C   0  0  0  0  0  0  0  0  0  0  0  0
   -5.1050   22.0442  -22.8576 C   0  0  0  0  0  0  0  0  0  0  0  0
   -3.6639   21.6926  -22.7695 C   0  0  0  0  0  0  0  0  0  0  0  0
   -2.9230   21.8667  -24.0611 C   0  0  0  0  0  0  0  0  0  0  0  0
   -3.2119   23.2065  -24.7282 C   0  0  0  0  0  0  0  0  0  0  0  0
   -2.5487   23.2701  -26.0610 C   0  0  0  0  0  0  0  0  0  0  0  0
   -1.5350   22.2057  -26.3178 C   0  0  0  0  0  0  0  0  0  0  0  0
   -0.7334   21.9213  -25.0872 C   0  0  0  0  0  0  0  0  0  0  0  0
    0.6335   21.8381  -25.1090 C   0  0  0  0  0  0  0  0  0  0  0  0
    1.2719   21.5705  -23.9133 C   0  0  0  0  0  0  0  0  0  0  0  0
    2.6772   21.4837  -23.9284 O   0  0  0  0  0  0  0  0  0  0  0  0
    0.5938   21.3910  -22.7392 C   0  0  0  0  0  0  0  0  0  0  0  0
    1.2600   21.1234  -21.5533 O   0  0  0  0  0  0  0  0  0  0  0  0
   -0.8023   21.4856  -22.7680 C   0  0  0  0  0  0  0  0  0  0  0  0
   -1.4689   21.7474  -23.9233 C   0  0  0  0  0  0  0  0  0  0  0  0
   -4.6736   23.2627  -24.8848 C   0  0  0  0  0  0  0  0  0  0  0  0
   -5.2600   24.4266  -25.5690 C   0  0  0  0  0  0  0  0  0  0  0  0
   -6.7384   24.1759  -25.2606 C   0  0  0  0  0  0  0  0  0  0  0  0
   -6.7005   23.7465  -23.8102 C   0  0  0  0  0  0  0  0  0  0  0  0
    3.2028   21.6117  -24.7800 H   0  0  0  0  0  0  0  0  0  0  0  0
    2.2679   21.0642  -21.5790 H   0  0  0  0  0  0  0  0  0  0  0  0
   -7.0877   24.8828  -23.0075 N   0  0  0  0  0  0  0  0  0  0  0  0
   -7.6258   25.5538  -23.5885 H   0  0  0  0  0  0  0  0  0  0  0  0
   -7.9939   24.4854  -21.6227 S   0  0  0  0  0  0  0  0  0  0  0  0
   -7.0440   24.5156  -20.4409 O   0  0  0  0  0  0  0  0  0  0  0  0
   -8.5801   23.1179  -21.6692 O   0  0  0  0  0  0  0  0  0  0  0  0
   -9.2332   25.6942  -21.2583 C   0  0  0  0  0  0  0  0  0  0  0  0
  -10.5739   25.4412  -21.4523 C   0  0  0  0  0  0  0  0  0  0  0  0
  -11.5789   26.3475  -21.1858 C   0  0  0  0  0  0  0  0  0  0  0  0
  -11.2036   27.5808  -20.6942 C   0  0  0  0  0  0  0  0  0  0  0  0
   -9.8663   27.8741  -20.4852 C   0  0  0  0  0  0  0  0  0  0  0  0
   -8.8849   26.9373  -20.7651 C   0  0  0  0  0  0  0  0  0  0  0  0
  2  1  1  0  0  0
  2  3  1  0  0  0
  3  4  1  0  0  0
  4  5  1  0  0  0
  5  6  1  0  0  0
  6  7  1  0  0  0
  7  8  1  0  0  0
  8  9  1  0  0  0
  9 10  2  0  0  0
 10 11  1  0  0  0
 11 12  1  0  0  0
 11 13  2  0  0  0
 13 14  1  0  0  0
 13 15  1  0  0  0
 15 16  2  0  0  0
  6 17  1  0  0  0
 17 18  1  0  0  0
 18 19  1  0  0  0
 19 20  1  0  0  0
 20 23  1  0  0  0
 23 25  1  0  0  0
 25 26  2  0  0  0
 25 27  2  0  0  0
 25 28  1  0  0  0
 28 29  2  0  0  0
 29 30  1  0  0  0
 30 31  2  0  0  0
 31 32  1  0  0  0
 32 33  2  0  0  0
 17  2  1  0  0  0
 33 28  1  0  0  0
 20  2  1  0  0  0
 16  5  1  0  0  0
 16  9  1  0  0  0
 12 21  1  0  0  0
 14 22  1  0  0  0
 23 24  1  0  0  0
M  END
> <minimizedAffinity>
-9.37945

> <CNNscore>
0.2327021360

> <CNNaffinity>
6.2606239319

> <CNN_VS>
1.4568605423

> <CNNaffinity_variance>
0.0561960824

$$$$
[H]Oc1c([H])c2c(c([H])c1O[H])[C@@]1([H])C([H])([H])C([H])([H])[C@]3(C([H])([H])[H])[C@@]([H])(N([H])S(=O)(=O)c4c([H])c([H])c([H])c([H])c4[H])C([H])([H])C([H])([H])[C@@]3([H])[C@]1([H])C([H])([H])C2([H])[H]


 33 37  0  0  0  0  0  0  0  0999 V2000
   -2.4797   23.9285  -23.7359 C   0  0  0  0  0  0  0  0  0  0  0  0
   -2.6730   22.5986  -24.3933 C   0  0  0  0  0  0  0  0  0  0  0  0
   -3.1299   21.5588  -23.4351 C   0  0  0  0  0  0  0  0  0  0  0  0
   -2.1217   21.3532  -22.3629 C   0  0  0  0  0  0  0  0  0  0  0  0
   -0.7311   21.1369  -22.8794 C   0  0  0  0  0  0  0  0  0  0  0  0
   -0.3332   22.1564  -23.9405 C   0  0  0  0  0  0  0  0  0  0  0  0
    1.0045   21.8173  -24.5023 C   0  0  0  0  0  0  0  0  0  0  0  0
    1.7769   20.7980  -23.7334 C   0  0  0  0  0  0  0  0  0  0  0  0
    1.6027   20.9929  -22.2606 C   0  0  0  0  0  0  0  0  0  0  0  0
    2.6634   20.9984  -21.3941 C   0  0  0  0  0  0  0  0  0  0  0  0
    2.3865   21.1866  -20.0537 C   0  0  0  0  0  0  0  0  0  0  0  0
    3.4723   21.1934  -19.1572 O   0  0  0  0  0  0  0  0  0  0  0  0
    1.1154   21.3629  -19.5808 C   0  0  0  0  0  0  0  0  0  0  0  0
    0.8661   21.5497  -18.2299 O   0  0  0  0  0  0  0  0  0  0  0  0
    0.0648   21.3494  -20.5053 C   0  0  0  0  0  0  0  0  0  0  0  0
    0.2942   21.1673  -21.8327 C   0  0  0  0  0  0  0  0  0  0  0  0
   -1.3630   22.0600  -24.9866 C   0  0  0  0  0  0  0  0  0  0  0  0
   -1.2138   22.8885  -26.1942 C   0  0  0  0  0  0  0  0  0  0  0  0
   -2.5894   22.6568  -26.8246 C   0  0  0  0  0  0  0  0  0  0  0  0
   -3.5136   22.7375  -25.6294 C   0  0  0  0  0  0  0  0  0  0  0  0
    4.4202   21.0657  -19.4784 H   0  0  0  0  0  0  0  0  0  0  0  0
    1.6544   21.5524  -17.5986 H   0  0  0  0  0  0  0  0  0  0  0  0
   -4.1211   24.0475  -25.6339 N   0  0  0  0  0  0  0  0  0  0  0  0
   -3.5076   24.7153  -26.1389 H   0  0  0  0  0  0  0  0  0  0  0  0
   -5.6810   24.0934  -26.3132 S   0  0  0  0  0  0  0  0  0  0  0  0
   -6.3705   25.3304  -25.7705 O   0  0  0  0  0  0  0  0  0  0  0  0
   -6.5273   22.9284  -25.9359 O   0  0  0  0  0  0  0  0  0  0  0  0
   -5.6458   24.3091  -28.0688 C   0  0  0  0  0  0  0  0  0  0  0  0
   -5.7010   25.5582  -28.6483 C   0  0  0  0  0  0  0  0  0  0  0  0
   -5.6779   25.7816  -30.0092 C   0  0  0  0  0  0  0  0  0  0  0  0
   -5.5938   24.6756  -30.8297 C   0  0  0  0  0  0  0  0  0  0  0  0
   -5.5363   23.4030  -30.2863 C   0  0  0  0  0  0  0  0  0  0  0  0
   -5.5621   23.2187  -28.9135 C   0  0  0  0  0  0  0  0  0  0  0  0
  2  1  1  0  0  0
  2  3  1  0  0  0
  3  4  1  0  0  0
  4  5  1  0  0  0
  5  6  1  0  0  0
  6  7  1  0  0  0
  7  8  1  0  0  0
  8  9  1  0  0  0
  9 10  2  0  0  0
 10 11  1  0  0  0
 11 12  1  0  0  0
 11 13  2  0  0  0
 13 14  1  0  0  0
 13 15  1  0  0  0
 15 16  2  0  0  0
  6 17  1  0  0  0
 17 18  1  0  0  0
 18 19  1  0  0  0
 19 20  1  0  0  0
 20 23  1  0  0  0
 23 25  1  0  0  0
 25 26  2  0  0  0
 25 27  2  0  0  0
 25 28  1  0  0  0
 28 29  2  0  0  0
 29 30  1  0  0  0
 30 31  2  0  0  0
 31 32  1  0  0  0
 32 33  2  0  0  0
 17  2  1  0  0  0
 33 28  1  0  0  0
 20  2  1  0  0  0
 16  5  1  0  0  0
 16  9  1  0  0  0
 12 21  1  0  0  0
 14 22  1  0  0  0
 23 24  1  0  0  0
M  END
> <minimizedAffinity>
-9.66457

> <CNNscore>
0.2069607824

> <CNNaffinity>
6.5478963852

> <CNN_VS>
1.3551577330

> <CNNaffinity_variance>
0.2126983702

$$$$
[H]Oc1c([H])c2c(c([H])c1O[H])[C@@]1([H])C([H])([H])C([H])([H])[C@]3(C([H])([H])[H])[C@@]([H])(N([H])S(=O)(=O)c4c([H])c([H])c([H])c([H])c4[H])C([H])([H])C([H])([H])[C@@]3([H])[C@]1([H])C([H])([H])C2([H])[H]


 33 37  0  0  0  0  0  0  0  0999 V2000
   -6.4307   23.3479  -22.9480 C   0  0  0  0  0  0  0  0  0  0  0  0
   -5.0336   23.7865  -22.6419 C   0  0  0  0  0  0  0  0  0  0  0  0
   -4.7833   25.1929  -23.0512 C   0  0  0  0  0  0  0  0  0  0  0  0
   -4.9603   25.3525  -24.5180 C   0  0  0  0  0  0  0  0  0  0  0  0
   -4.2083   24.3393  -25.3275 C   0  0  0  0  0  0  0  0  0  0  0  0
   -4.4005   22.9169  -24.8141 C   0  0  0  0  0  0  0  0  0  0  0  0
   -3.5352   21.9742  -25.5774 C   0  0  0  0  0  0  0  0  0  0  0  0
   -2.9350   22.5308  -26.8250 C   0  0  0  0  0  0  0  0  0  0  0  0
   -3.9091   23.4117  -27.5412 C   0  0  0  0  0  0  0  0  0  0  0  0
   -4.1397   23.3028  -28.8869 C   0  0  0  0  0  0  0  0  0  0  0  0
   -5.0608   24.1684  -29.4447 C   0  0  0  0  0  0  0  0  0  0  0  0
   -5.3028   24.0620  -30.8277 O   0  0  0  0  0  0  0  0  0  0  0  0
   -5.7309   25.1066  -28.7091 C   0  0  0  0  0  0  0  0  0  0  0  0
   -6.6504   25.9630  -29.2948 O   0  0  0  0  0  0  0  0  0  0  0  0
   -5.4610   25.1790  -27.3377 C   0  0  0  0  0  0  0  0  0  0  0  0
   -4.5621   24.3459  -26.7498 C   0  0  0  0  0  0  0  0  0  0  0  0
   -3.9938   22.9490  -23.4007 C   0  0  0  0  0  0  0  0  0  0  0  0
   -4.0058   21.6888  -22.6401 C   0  0  0  0  0  0  0  0  0  0  0  0
   -3.7821   22.2473  -21.2324 C   0  0  0  0  0  0  0  0  0  0  0  0
   -4.6790   23.4658  -21.2188 C   0  0  0  0  0  0  0  0  0  0  0  0
   -4.8228   23.3793  -31.3946 H   0  0  0  0  0  0  0  0  0  0  0  0
   -6.8141   25.8751  -30.2876 H   0  0  0  0  0  0  0  0  0  0  0  0
   -5.8850   23.1132  -20.5071 N   0  0  0  0  0  0  0  0  0  0  0  0
   -5.8031   22.1463  -20.1388 H   0  0  0  0  0  0  0  0  0  0  0  0
   -6.2793   24.1691  -19.2318 S   0  0  0  0  0  0  0  0  0  0  0  0
   -7.7698   24.0373  -18.9848 O   0  0  0  0  0  0  0  0  0  0  0  0
   -6.0197   25.6010  -19.5448 O   0  0  0  0  0  0  0  0  0  0  0  0
   -5.5093   23.7035  -17.7085 C   0  0  0  0  0  0  0  0  0  0  0  0
   -5.8708   24.2747  -16.5077 C   0  0  0  0  0  0  0  0  0  0  0  0
   -5.3026   23.9492  -15.2938 C   0  0  0  0  0  0  0  0  0  0  0  0
   -4.3113   22.9896  -15.2971 C   0  0  0  0  0  0  0  0  0  0  0  0
   -3.9193   22.3916  -16.4833 C   0  0  0  0  0  0  0  0  0  0  0  0
   -4.5138   22.7454  -17.6836 C   0  0  0  0  0  0  0  0  0  0  0  0
  2  1  1  0  0  0
  2  3  1  0  0  0
  3  4  1  0  0  0
  4  5  1  0  0  0
  5  6  1  0  0  0
  6  7  1  0  0  0
  7  8  1  0  0  0
  8  9  1  0  0  0
  9 10  2  0  0  0
 10 11  1  0  0  0
 11 12  1  0  0  0
 11 13  2  0  0  0
 13 14  1  0  0  0
 13 15  1  0  0  0
 15 16  2  0  0  0
  6 17  1  0  0  0
 17 18  1  0  0  0
 18 19  1  0  0  0
 19 20  1  0  0  0
 20 23  1  0  0  0
 23 25  1  0  0  0
 25 26  2  0  0  0
 25 27  2  0  0  0
 25 28  1  0  0  0
 28 29  2  0  0  0
 29 30  1  0  0  0
 30 31  2  0  0  0
 31 32  1  0  0  0
 32 33  2  0  0  0
 17  2  1  0  0  0
 33 28  1  0  0  0
 20  2  1  0  0  0
 16  5  1  0  0  0
 16  9  1  0  0  0
 12 21  1  0  0  0
 14 22  1  0  0  0
 23 24  1  0  0  0
M  END
> <minimizedAffinity>
-9.60610

> <CNNscore>
0.2010027021

> <CNNaffinity>
6.4977622032

> <CNN_VS>
1.3060677052

> <CNNaffinity_variance>
0.1113679409

$$$$
[H]Oc1c([H])c2c(c([H])c1O[H])[C@@]1([H])C([H])([H])C([H])([H])[C@]3(C([H])([H])[H])[C@@]([H])(N([H])S(=O)(=O)c4c([H])c([H])c([H])c([H])c4[H])C([H])([H])C([H])([H])[C@@]3([H])[C@]1([H])C([H])([H])C2([H])[H]


 33 37  0  0  0  0  0  0  0  0999 V2000
   -1.3830   23.1423  -21.0062 C   0  0  0  0  0  0  0  0  0  0  0  0
   -1.9797   21.7704  -21.0090 C   0  0  0  0  0  0  0  0  0  0  0  0
   -1.0694   20.7626  -21.6123 C   0  0  0  0  0  0  0  0  0  0  0  0
   -0.7823   21.0970  -23.0314 C   0  0  0  0  0  0  0  0  0  0  0  0
   -2.0114   21.3720  -23.8444 C   0  0  0  0  0  0  0  0  0  0  0  0
   -2.9754   22.3256  -23.1480 C   0  0  0  0  0  0  0  0  0  0  0  0
   -4.2274   22.4622  -23.9442 C   0  0  0  0  0  0  0  0  0  0  0  0
   -4.1584   21.9242  -25.3343 C   0  0  0  0  0  0  0  0  0  0  0  0
   -2.8304   22.2181  -25.9571 C   0  0  0  0  0  0  0  0  0  0  0  0
   -2.7146   22.7402  -27.2180 C   0  0  0  0  0  0  0  0  0  0  0  0
   -1.4384   22.9719  -27.6939 C   0  0  0  0  0  0  0  0  0  0  0  0
   -1.3120   23.5087  -28.9895 O   0  0  0  0  0  0  0  0  0  0  0  0
   -0.3169   22.7012  -26.9595 C   0  0  0  0  0  0  0  0  0  0  0  0
    0.9522   22.9436  -27.4619 O   0  0  0  0  0  0  0  0  0  0  0  0
   -0.4869   22.1684  -25.6765 C   0  0  0  0  0  0  0  0  0  0  0  0
   -1.7250   21.9256  -25.1708 C   0  0  0  0  0  0  0  0  0  0  0  0
   -3.2670   21.7100  -21.8442 C   0  0  0  0  0  0  0  0  0  0  0  0
   -4.2354   22.3748  -20.9571 C   0  0  0  0  0  0  0  0  0  0  0  0
   -4.0099   21.5537  -19.6849 C   0  0  0  0  0  0  0  0  0  0  0  0
   -2.5033   21.4192  -19.6465 C   0  0  0  0  0  0  0  0  0  0  0  0
   -2.1220   23.7179  -29.5533 H   0  0  0  0  0  0  0  0  0  0  0  0
    1.0277   23.3289  -28.3924 H   0  0  0  0  0  0  0  0  0  0  0  0
   -2.0025   22.3816  -18.6935 N   0  0  0  0  0  0  0  0  0  0  0  0
   -2.7914   22.9362  -18.3098 H   0  0  0  0  0  0  0  0  0  0  0  0
   -1.1175   21.6999  -17.4094 S   0  0  0  0  0  0  0  0  0  0  0  0
   -1.0200   20.2097  -17.6731 O   0  0  0  0  0  0  0  0  0  0  0  0
   -1.7754   21.8605  -16.0839 O   0  0  0  0  0  0  0  0  0  0  0  0
    0.5542   22.2772  -17.3615 C   0  0  0  0  0  0  0  0  0  0  0  0
    1.3536   22.0962  -16.2537 C   0  0  0  0  0  0  0  0  0  0  0  0
    2.6608   22.5269  -16.1640 C   0  0  0  0  0  0  0  0  0  0  0  0
    3.1881   23.1782  -17.2600 C   0  0  0  0  0  0  0  0  0  0  0  0
    2.4172   23.3799  -18.3928 C   0  0  0  0  0  0  0  0  0  0  0  0
    1.1071   22.9327  -18.4452 C   0  0  0  0  0  0  0  0  0  0  0  0
  2  1  1  0  0  0
  2  3  1  0  0  0
  3  4  1  0  0  0
  4  5  1  0  0  0
  5  6  1  0  0  0
  6  7  1  0  0  0
  7  8  1  0  0  0
  8  9  1  0  0  0
  9 10  2  0  0  0
 10 11  1  0  0  0
 11 12  1  0  0  0
 11 13  2  0  0  0
 13 14  1  0  0  0
 13 15  1  0  0  0
 15 16  2  0  0  0
  6 17  1  0  0  0
 17 18  1  0  0  0
 18 19  1  0  0  0
 19 20  1  0  0  0
 20 23  1  0  0  0
 23 25  1  0  0  0
 25 26  2  0  0  0
 25 27  2  0  0  0
 25 28  1  0  0  0
 28 29  2  0  0  0
 29 30  1  0  0  0
 30 31  2  0  0  0
 31 32  1  0  0  0
 32 33  2  0  0  0
 17  2  1  0  0  0
 33 28  1  0  0  0
 20  2  1  0  0  0
 16  5  1  0  0  0
 16  9  1  0  0  0
 12 21  1  0  0  0
 14 22  1  0  0  0
 23 24  1  0  0  0
M  END
> <minimizedAffinity>
-8.60561

> <CNNscore>
0.1775777638

> <CNNaffinity>
6.1989927292

> <CNN_VS>
1.1008032560

> <CNNaffinity_variance>
0.1444976330

$$$$
[H]Oc1c([H])c2c(c([H])c1O[H])[C@@]1([H])C([H])([H])C([H])([H])[C@]3(C([H])([H])[H])[C@@]([H])(N([H])S(=O)(=O)c4c([H])c([H])c([H])c([H])c4[H])C([H])([H])C([H])([H])[C@@]3([H])[C@]1([H])C([H])([H])C2([H])[H]


 33 37  0  0  0  0  0  0  0  0999 V2000
   -5.5751   22.6364  -25.0562 C   0  0  0  0  0  0  0  0  0  0  0  0
   -5.2806   24.0961  -25.1991 C   0  0  0  0  0  0  0  0  0  0  0  0
   -4.0996   24.5125  -24.3991 C   0  0  0  0  0  0  0  0  0  0  0  0
   -4.3348   24.2727  -22.9515 C   0  0  0  0  0  0  0  0  0  0  0  0
   -5.6347   24.8292  -22.4538 C   0  0  0  0  0  0  0  0  0  0  0  0
   -6.8102   24.4744  -23.3572 C   0  0  0  0  0  0  0  0  0  0  0  0
   -8.0472   25.1554  -22.8817 C   0  0  0  0  0  0  0  0  0  0  0  0
   -7.9597   25.7515  -21.5165 C   0  0  0  0  0  0  0  0  0  0  0  0
   -7.1815   24.8669  -20.5947 C   0  0  0  0  0  0  0  0  0  0  0  0
   -7.6292   24.5444  -19.3411 C   0  0  0  0  0  0  0  0  0  0  0  0
   -6.8288   23.7195  -18.5745 C   0  0  0  0  0  0  0  0  0  0  0  0
   -7.2830   23.3838  -17.2846 O   0  0  0  0  0  0  0  0  0  0  0  0
   -5.6329   23.2291  -19.0214 C   0  0  0  0  0  0  0  0  0  0  0  0
   -4.8493   22.4029  -18.2306 O   0  0  0  0  0  0  0  0  0  0  0  0
   -5.2184   23.5871  -20.3094 C   0  0  0  0  0  0  0  0  0  0  0  0
   -5.9761   24.3963  -21.0960 C   0  0  0  0  0  0  0  0  0  0  0  0
   -6.4424   24.9645  -24.6946 C   0  0  0  0  0  0  0  0  0  0  0  0
   -7.4213   24.8245  -25.7850 C   0  0  0  0  0  0  0  0  0  0  0  0
   -6.5289   25.2056  -26.9690 C   0  0  0  0  0  0  0  0  0  0  0  0
   -5.2367   24.4869  -26.6480 C   0  0  0  0  0  0  0  0  0  0  0  0
   -8.1609   23.7312  -16.9293 H   0  0  0  0  0  0  0  0  0  0  0  0
   -5.1877   22.1704  -17.3079 H   0  0  0  0  0  0  0  0  0  0  0  0
   -5.1917   23.2881  -27.4518 N   0  0  0  0  0  0  0  0  0  0  0  0
   -6.1148   23.1336  -27.9006 H   0  0  0  0  0  0  0  0  0  0  0  0
   -3.9794   23.2914  -28.6464 S   0  0  0  0  0  0  0  0  0  0  0  0
   -3.9045   24.6990  -29.2058 O   0  0  0  0  0  0  0  0  0  0  0  0
   -4.2726   22.3877  -29.7923 O   0  0  0  0  0  0  0  0  0  0  0  0
   -2.3736   22.9671  -27.9781 C   0  0  0  0  0  0  0  0  0  0  0  0
   -2.2050   22.4420  -26.7153 C   0  0  0  0  0  0  0  0  0  0  0  0
   -0.9776   22.1716  -26.1472 C   0  0  0  0  0  0  0  0  0  0  0  0
    0.1432   22.4493  -26.9024 C   0  0  0  0  0  0  0  0  0  0  0  0
    0.0161   22.9777  -28.1762 C   0  0  0  0  0  0  0  0  0  0  0  0
   -1.2346   23.2360  -28.7130 C   0  0  0  0  0  0  0  0  0  0  0  0
  2  1  1  0  0  0
  2  3  1  0  0  0
  3  4  1  0  0  0
  4  5  1  0  0  0
  5  6  1  0  0  0
  6  7  1  0  0  0
  7  8  1  0  0  0
  8  9  1  0  0  0
  9 10  2  0  0  0
 10 11  1  0  0  0
 11 12  1  0  0  0
 11 13  2  0  0  0
 13 14  1  0  0  0
 13 15  1  0  0  0
 15 16  2  0  0  0
  6 17  1  0  0  0
 17 18  1  0  0  0
 18 19  1  0  0  0
 19 20  1  0  0  0
 20 23  1  0  0  0
 23 25  1  0  0  0
 25 26  2  0  0  0
 25 27  2  0  0  0
 25 28  1  0  0  0
 28 29  2  0  0  0
 29 30  1  0  0  0
 30 31  2  0  0  0
 31 32  1  0  0  0
 32 33  2  0  0  0
 17  2  1  0  0  0
 33 28  1  0  0  0
 20  2  1  0  0  0
 16  5  1  0  0  0
 16  9  1  0  0  0
 12 21  1  0  0  0
 14 22  1  0  0  0
 23 24  1  0  0  0
M  END
> <minimizedAffinity>
-9.87446

> <CNNscore>
0.1766476631

> <CNNaffinity>
6.3759965897

> <CNN_VS>
1.1263048649

> <CNNaffinity_variance>
0.1167672426

$$$$
[H]c1c(OC([H])([H])[H])c(OC([H])([H])[H])c(OC([H])([H])[H])c([H])c1C(=O)N([H])[C@@]([H])(C([H])([H])c1c([H])n([H])c2c([H])c([H])c([H])c([H])c12)C(C([H])([H])[H])(C([H])([H])[H])C([H])([H])[H]


 32 34  0  0  0  0  0  0  0  0999 V2000
   -2.9422   23.6523  -22.1209 C   0  0  0  0  0  0  0  0  0  0  0  0
   -1.9151   23.8960  -21.3442 O   0  0  0  0  0  0  0  0  0  0  0  0
   -4.2612   23.7329  -21.7777 N   0  0  0  0  0  0  0  0  0  0  0  0
   -3.9441   24.1136  -20.5343 H   0  0  0  0  0  0  0  0  0  0  0  0
   -2.6214   23.0604  -25.8385 C   0  0  0  0  0  0  0  0  0  0  0  0
   -3.1407   23.4772  -24.5975 C   0  0  0  0  0  0  0  0  0  0  0  0
   -2.4552   23.2682  -23.4506 C   0  0  0  0  0  0  0  0  0  0  0  0
   -1.2409   22.6335  -23.5414 C   0  0  0  0  0  0  0  0  0  0  0  0
   -0.7086   22.2136  -24.7445 C   0  0  0  0  0  0  0  0  0  0  0  0
   -1.4000   22.4273  -25.9010 C   0  0  0  0  0  0  0  0  0  0  0  0
   -4.6156   22.9780  -27.3074 C   0  0  0  0  0  0  0  0  0  0  0  0
   -3.2816   23.2478  -27.0322 O   0  0  0  0  0  0  0  0  0  0  0  0
    0.5045   21.5838  -24.7405 O   0  0  0  0  0  0  0  0  0  0  0  0
    1.3720   21.5355  -23.6438 C   0  0  0  0  0  0  0  0  0  0  0  0
   -0.8637   21.9989  -27.1455 O   0  0  0  0  0  0  0  0  0  0  0  0
    0.0348   22.7741  -27.8870 C   0  0  0  0  0  0  0  0  0  0  0  0
   -5.6053   23.8158  -21.4255 C   0  0  0  0  0  0  0  0  0  0  0  0
   -6.2660   22.4814  -21.3623 C   0  0  0  0  0  0  0  0  0  0  0  0
   -5.6948   21.5729  -20.2979 C   0  0  0  0  0  0  0  0  0  0  0  0
   -6.4060   21.7054  -22.6098 C   0  0  0  0  0  0  0  0  0  0  0  0
   -7.7388   22.7025  -20.8722 C   0  0  0  0  0  0  0  0  0  0  0  0
   -6.2763   24.9983  -21.9497 C   0  0  0  0  0  0  0  0  0  0  0  0
   -6.6985   25.0684  -23.3616 C   0  0  0  0  0  0  0  0  0  0  0  0
   -7.9018   24.6504  -23.8723 C   0  0  0  0  0  0  0  0  0  0  0  0
   -7.9161   24.9564  -25.1775 N   0  0  0  0  0  0  0  0  0  0  0  0
   -6.7643   25.5543  -25.5274 C   0  0  0  0  0  0  0  0  0  0  0  0
   -6.3077   26.0286  -26.7691 C   0  0  0  0  0  0  0  0  0  0  0  0
   -5.0573   26.5870  -26.8887 C   0  0  0  0  0  0  0  0  0  0  0  0
   -4.2827   26.6549  -25.7278 C   0  0  0  0  0  0  0  0  0  0  0  0
   -4.7315   26.1923  -24.5201 C   0  0  0  0  0  0  0  0  0  0  0  0
   -5.9923   25.6308  -24.4014 C   0  0  0  0  0  0  0  0  0  0  0  0
   -8.7080   24.7590  -25.8457 H   0  0  0  0  0  0  0  0  0  0  0  0
 11 12  1  0  0  0
 12  5  1  0  0  0
  5  6  2  0  0  0
  6  7  1  0  0  0
  7  8  2  0  0  0
  8  9  1  0  0  0
  9 13  1  0  0  0
 13 14  1  0  0  0
  9 10  2  0  0  0
 10 15  1  0  0  0
 15 16  1  0  0  0
  7  1  1  0  0  0
  1  2  2  0  0  0
  1  3  1  0  0  0
  3 17  1  0  0  0
 17 22  1  0  0  0
 22 23  1  0  0  0
 23 24  2  0  0  0
 24 25  1  0  0  0
 25 26  1  0  0  0
 26 27  2  0  0  0
 27 28  1  0  0  0
 28 29  2  0  0  0
 29 30  1  0  0  0
 30 31  2  0  0  0
 17 18  1  0  0  0
 18 19  1  0  0  0
 18 20  1  0  0  0
 18 21  1  0  0  0
 10  5  1  0  0  0
 31 23  1  0  0  0
 31 26  1  0  0  0
  3  4  1  0  0  0
 25 32  1  0  0  0
M  END
> <minimizedAffinity>
-7.50793

> <CNNscore>
0.3748612106

> <CNNaffinity>
6.2969594002

> <CNN_VS>
2.3604857922

> <CNNaffinity_variance>
0.1457309723

$$$$
[H]c1c(OC([H])([H])[H])c(OC([H])([H])[H])c(OC([H])([H])[H])c([H])c1C(=O)N([H])[C@@]([H])(C([H])([H])c1c([H])n([H])c2c([H])c([H])c([H])c([H])c12)C(C([H])([H])[H])(C([H])([H])[H])C([H])([H])[H]


 32 34  0  0  0  0  0  0  0  0999 V2000
   -3.1540   23.3272  -27.7235 C   0  0  0  0  0  0  0  0  0  0  0  0
   -2.1338   22.9249  -28.4410 O   0  0  0  0  0  0  0  0  0  0  0  0
   -4.1644   24.1495  -28.1321 N   0  0  0  0  0  0  0  0  0  0  0  0
   -3.6297   24.2464  -29.3552 H   0  0  0  0  0  0  0  0  0  0  0  0
   -3.9314   21.7597  -24.3749 C   0  0  0  0  0  0  0  0  0  0  0  0
   -4.1027   22.2795  -25.6726 C   0  0  0  0  0  0  0  0  0  0  0  0
   -3.0496   22.7502  -26.3786 C   0  0  0  0  0  0  0  0  0  0  0  0
   -1.8131   22.7060  -25.7828 C   0  0  0  0  0  0  0  0  0  0  0  0
   -1.6167   22.2028  -24.5120 C   0  0  0  0  0  0  0  0  0  0  0  0
   -2.6796   21.7258  -23.8019 C   0  0  0  0  0  0  0  0  0  0  0  0
   -6.3104   21.1931  -23.9747 C   0  0  0  0  0  0  0  0  0  0  0  0
   -4.9713   21.2716  -23.6160 O   0  0  0  0  0  0  0  0  0  0  0  0
   -0.3515   22.2035  -23.9948 O   0  0  0  0  0  0  0  0  0  0  0  0
    0.8047   21.8969  -24.7206 C   0  0  0  0  0  0  0  0  0  0  0  0
   -2.4910   21.2064  -22.4925 O   0  0  0  0  0  0  0  0  0  0  0  0
   -2.5566   22.0067  -21.3465 C   0  0  0  0  0  0  0  0  0  0  0  0
   -5.1935   24.9880  -28.5509 C   0  0  0  0  0  0  0  0  0  0  0  0
   -5.0922   25.3451  -29.9944 C   0  0  0  0  0  0  0  0  0  0  0  0
   -3.6731   25.5673  -30.4649 C   0  0  0  0  0  0  0  0  0  0  0  0
   -5.9300   26.4463  -30.5076 C   0  0  0  0  0  0  0  0  0  0  0  0
   -5.5389   24.0936  -30.8265 C   0  0  0  0  0  0  0  0  0  0  0  0
   -5.6217   25.9419  -27.5361 C   0  0  0  0  0  0  0  0  0  0  0  0
   -6.1548   25.4827  -26.2393 C   0  0  0  0  0  0  0  0  0  0  0  0
   -7.4210   25.0095  -26.0022 C   0  0  0  0  0  0  0  0  0  0  0  0
   -7.4778   24.6307  -24.7174 N   0  0  0  0  0  0  0  0  0  0  0  0
   -6.2946   24.8450  -24.1169 C   0  0  0  0  0  0  0  0  0  0  0  0
   -5.8778   24.6340  -22.7913 C   0  0  0  0  0  0  0  0  0  0  0  0
   -4.6028   24.9635  -22.3972 C   0  0  0  0  0  0  0  0  0  0  0  0
   -3.7622   25.5087  -23.3710 C   0  0  0  0  0  0  0  0  0  0  0  0
   -4.1720   25.7120  -24.6613 C   0  0  0  0  0  0  0  0  0  0  0  0
   -5.4569   25.3784  -25.0568 C   0  0  0  0  0  0  0  0  0  0  0  0
   -8.3230   24.2253  -24.2337 H   0  0  0  0  0  0  0  0  0  0  0  0
 11 12  1  0  0  0
 12  5  1  0  0  0
  5  6  2  0  0  0
  6  7  1  0  0  0
  7  8  2  0  0  0
  8  9  1  0  0  0
  9 13  1  0  0  0
 13 14  1  0  0  0
  9 10  2  0  0  0
 10 15  1  0  0  0
 15 16  1  0  0  0
  7  1  1  0  0  0
  1  2  2  0  0  0
  1  3  1  0  0  0
  3 17  1  0  0  0
 17 22  1  0  0  0
 22 23  1  0  0  0
 23 24  2  0  0  0
 24 25  1  0  0  0
 25 26  1  0  0  0
 26 27  2  0  0  0
 27 28  1  0  0  0
 28 29  2  0  0  0
 29 30  1  0  0  0
 30 31  2  0  0  0
 17 18  1  0  0  0
 18 19  1  0  0  0
 18 20  1  0  0  0
 18 21  1  0  0  0
 10  5  1  0  0  0
 31 23  1  0  0  0
 31 26  1  0  0  0
  3  4  1  0  0  0
 25 32  1  0  0  0
M  END
> <minimizedAffinity>
-8.02880

> <CNNscore>
0.3546344340

> <CNNaffinity>
6.5765671730

> <CNN_VS>
2.3322770596

> <CNNaffinity_variance>
0.2426972836

$$$$
[H]c1c(OC([H])([H])[H])c(OC([H])([H])[H])c(OC([H])([H])[H])c([H])c1C(=O)N([H])[C@@]([H])(C([H])([H])c1c([H])n([H])c2c([H])c([H])c([H])c([H])c12)C(C([H])([H])[H])(C([H])([H])[H])C([H])([H])[H]


 32 34  0  0  0  0  0  0  0  0999 V2000
   -5.4695   24.7583  -25.2144 C   0  0  0  0  0  0  0  0  0  0  0  0
   -6.2916   25.7663  -25.0542 O   0  0  0  0  0  0  0  0  0  0  0  0
   -4.7730   24.4462  -26.3465 N   0  0  0  0  0  0  0  0  0  0  0  0
   -5.2890   25.5007  -26.9892 H   0  0  0  0  0  0  0  0  0  0  0  0
   -6.2053   22.3824  -22.3705 C   0  0  0  0  0  0  0  0  0  0  0  0
   -6.3184   23.0647  -23.5973 C   0  0  0  0  0  0  0  0  0  0  0  0
   -5.4047   23.9914  -23.9652 C   0  0  0  0  0  0  0  0  0  0  0  0
   -4.3694   24.2435  -23.0990 C   0  0  0  0  0  0  0  0  0  0  0  0
   -4.2347   23.5901  -21.8899 C   0  0  0  0  0  0  0  0  0  0  0  0
   -5.1557   22.6536  -21.5212 C   0  0  0  0  0  0  0  0  0  0  0  0
   -8.2792   21.6452  -21.2318 C   0  0  0  0  0  0  0  0  0  0  0  0
   -7.1102   21.4334  -21.9506 O   0  0  0  0  0  0  0  0  0  0  0  0
   -3.1756   23.9088  -21.0868 O   0  0  0  0  0  0  0  0  0  0  0  0
   -1.8903   23.3709  -21.2146 C   0  0  0  0  0  0  0  0  0  0  0  0
   -5.0292   21.9749  -20.2789 O   0  0  0  0  0  0  0  0  0  0  0  0
   -5.4080   22.5520  -19.0616 C   0  0  0  0  0  0  0  0  0  0  0  0
   -4.0640   24.1298  -27.5018 C   0  0  0  0  0  0  0  0  0  0  0  0
   -4.6995   24.6770  -28.7338 C   0  0  0  0  0  0  0  0  0  0  0  0
   -5.5158   23.6594  -29.4971 C   0  0  0  0  0  0  0  0  0  0  0  0
   -3.8541   25.4107  -29.6956 C   0  0  0  0  0  0  0  0  0  0  0  0
   -5.7806   25.7212  -28.2878 C   0  0  0  0  0  0  0  0  0  0  0  0
   -3.4353   22.8159  -27.4619 C   0  0  0  0  0  0  0  0  0  0  0  0
   -2.0038   22.6688  -27.1365 C   0  0  0  0  0  0  0  0  0  0  0  0
   -0.9477   22.9637  -27.9617 C   0  0  0  0  0  0  0  0  0  0  0  0
    0.1797   22.7614  -27.2650 N   0  0  0  0  0  0  0  0  0  0  0  0
   -0.1114   22.3441  -26.0209 C   0  0  0  0  0  0  0  0  0  0  0  0
    0.7208   21.9850  -24.9467 C   0  0  0  0  0  0  0  0  0  0  0  0
    0.1826   21.5533  -23.7578 C   0  0  0  0  0  0  0  0  0  0  0  0
   -1.2112   21.4940  -23.6805 C   0  0  0  0  0  0  0  0  0  0  0  0
   -2.0183   21.8453  -24.7290 C   0  0  0  0  0  0  0  0  0  0  0  0
   -1.4740   22.2811  -25.9260 C   0  0  0  0  0  0  0  0  0  0  0  0
    1.1597   22.9015  -27.6288 H   0  0  0  0  0  0  0  0  0  0  0  0
 11 12  1  0  0  0
 12  5  1  0  0  0
  5  6  2  0  0  0
  6  7  1  0  0  0
  7  8  2  0  0  0
  8  9  1  0  0  0
  9 13  1  0  0  0
 13 14  1  0  0  0
  9 10  2  0  0  0
 10 15  1  0  0  0
 15 16  1  0  0  0
  7  1  1  0  0  0
  1  2  2  0  0  0
  1  3  1  0  0  0
  3 17  1  0  0  0
 17 22  1  0  0  0
 22 23  1  0  0  0
 23 24  2  0  0  0
 24 25  1  0  0  0
 25 26  1  0  0  0
 26 27  2  0  0  0
 27 28  1  0  0  0
 28 29  2  0  0  0
 29 30  1  0  0  0
 30 31  2  0  0  0
 17 18  1  0  0  0
 18 19  1  0  0  0
 18 20  1  0  0  0
 18 21  1  0  0  0
 10  5  1  0  0  0
 31 23  1  0  0  0
 31 26  1  0  0  0
  3  4  1  0  0  0
 25 32  1  0  0  0
M  END
> <minimizedAffinity>
-8.70838

> <CNNscore>
0.3471838832

> <CNNaffinity>
6.6187639236

> <CNN_VS>
2.2979280949

> <CNNaffinity_variance>
0.3358062506

$$$$
[H]c1c(OC([H])([H])[H])c(OC([H])([H])[H])c(OC([H])([H])[H])c([H])c1C(=O)N([H])[C@@]([H])(C([H])([H])c1c([H])n([H])c2c([H])c([H])c([H])c([H])c12)C(C([H])([H])[H])(C([H])([H])[H])C([H])([H])[H]


 32 34  0  0  0  0  0  0  0  0999 V2000
   -3.1966   23.1978  -27.6434 C   0  0  0  0  0  0  0  0  0  0  0  0
   -2.3279   22.5843  -28.4091 O   0  0  0  0  0  0  0  0  0  0  0  0
   -4.1513   24.0878  -28.0443 N   0  0  0  0  0  0  0  0  0  0  0  0
   -3.7688   23.9670  -29.3211 H   0  0  0  0  0  0  0  0  0  0  0  0
   -1.6459   22.1854  -24.3503 C   0  0  0  0  0  0  0  0  0  0  0  0
   -1.7713   22.6135  -25.6862 C   0  0  0  0  0  0  0  0  0  0  0  0
   -2.9881   22.7785  -26.2529 C   0  0  0  0  0  0  0  0  0  0  0  0
   -4.0915   22.5100  -25.4810 C   0  0  0  0  0  0  0  0  0  0  0  0
   -3.9976   22.0882  -24.1694 C   0  0  0  0  0  0  0  0  0  0  0  0
   -2.7696   21.9246  -23.5981 C   0  0  0  0  0  0  0  0  0  0  0  0
    0.8112   21.8638  -24.3356 C   0  0  0  0  0  0  0  0  0  0  0  0
   -0.4308   22.0003  -23.7298 O   0  0  0  0  0  0  0  0  0  0  0  0
   -5.1493   21.8379  -23.4771 O   0  0  0  0  0  0  0  0  0  0  0  0
   -6.3286   21.3455  -24.0467 C   0  0  0  0  0  0  0  0  0  0  0  0
   -2.6593   21.4898  -22.2495 O   0  0  0  0  0  0  0  0  0  0  0  0
   -2.6967   22.3743  -21.1659 C   0  0  0  0  0  0  0  0  0  0  0  0
   -5.1239   24.9948  -28.4552 C   0  0  0  0  0  0  0  0  0  0  0  0
   -5.1690   25.1571  -29.9361 C   0  0  0  0  0  0  0  0  0  0  0  0
   -5.9540   26.3668  -30.3888 C   0  0  0  0  0  0  0  0  0  0  0  0
   -5.5789   24.0024  -30.7587 C   0  0  0  0  0  0  0  0  0  0  0  0
   -3.7158   25.4876  -30.4229 C   0  0  0  0  0  0  0  0  0  0  0  0
   -5.3072   26.1125  -27.5386 C   0  0  0  0  0  0  0  0  0  0  0  0
   -5.1754   25.9284  -26.0808 C   0  0  0  0  0  0  0  0  0  0  0  0
   -4.0791   26.2422  -25.3173 C   0  0  0  0  0  0  0  0  0  0  0  0
   -4.3913   25.9915  -24.0378 N   0  0  0  0  0  0  0  0  0  0  0  0
   -5.6486   25.5248  -23.9491 C   0  0  0  0  0  0  0  0  0  0  0  0
   -6.4041   25.1055  -22.8405 C   0  0  0  0  0  0  0  0  0  0  0  0
   -7.6836   24.6307  -23.0043 C   0  0  0  0  0  0  0  0  0  0  0  0
   -8.1797   24.5903  -24.3098 C   0  0  0  0  0  0  0  0  0  0  0  0
   -7.4406   25.0002  -25.3868 C   0  0  0  0  0  0  0  0  0  0  0  0
   -6.1517   25.4794  -25.2197 C   0  0  0  0  0  0  0  0  0  0  0  0
   -3.7516   26.1318  -23.2110 H   0  0  0  0  0  0  0  0  0  0  0  0
 11 12  1  0  0  0
 12  5  1  0  0  0
  5  6  2  0  0  0
  6  7  1  0  0  0
  7  8  2  0  0  0
  8  9  1  0  0  0
  9 13  1  0  0  0
 13 14  1  0  0  0
  9 10  2  0  0  0
 10 15  1  0  0  0
 15 16  1  0  0  0
  7  1  1  0  0  0
  1  2  2  0  0  0
  1  3  1  0  0  0
  3 17  1  0  0  0
 17 22  1  0  0  0
 22 23  1  0  0  0
 23 24  2  0  0  0
 24 25  1  0  0  0
 25 26  1  0  0  0
 26 27  2  0  0  0
 27 28  1  0  0  0
 28 29  2  0  0  0
 29 30  1  0  0  0
 30 31  2  0  0  0
 17 18  1  0  0  0
 18 19  1  0  0  0
 18 20  1  0  0  0
 18 21  1  0  0  0
 10  5  1  0  0  0
 31 23  1  0  0  0
 31 26  1  0  0  0
  3  4  1  0  0  0
 25 32  1  0  0  0
M  END
> <minimizedAffinity>
-7.99278

> <CNNscore>
0.3166584969

> <CNNaffinity>
6.4621901512

> <CNN_VS>
2.0463073254

> <CNNaffinity_variance>
0.3766201138

$$$$
[H]c1c(OC([H])([H])[H])c(OC([H])([H])[H])c(OC([H])([H])[H])c([H])c1C(=O)N([H])[C@@]([H])(C([H])([H])c1c([H])n([H])c2c([H])c([H])c([H])c([H])c12)C(C([H])([H])[H])(C([H])([H])[H])C([H])([H])[H]


 32 34  0  0  0  0  0  0  0  0999 V2000
   -4.3953   26.1014  -25.6305 C   0  0  0  0  0  0  0  0  0  0  0  0
   -4.2390   27.4026  -25.6345 O   0  0  0  0  0  0  0  0  0  0  0  0
   -4.1221   25.2443  -26.6576 N   0  0  0  0  0  0  0  0  0  0  0  0
   -3.7086   26.2560  -27.4301 H   0  0  0  0  0  0  0  0  0  0  0  0
   -4.8004   24.5850  -22.1939 C   0  0  0  0  0  0  0  0  0  0  0  0
   -4.2217   24.9679  -23.4194 C   0  0  0  0  0  0  0  0  0  0  0  0
   -4.9223   25.6874  -24.3253 C   0  0  0  0  0  0  0  0  0  0  0  0
   -6.2148   26.0253  -24.0077 C   0  0  0  0  0  0  0  0  0  0  0  0
   -6.8072   25.6624  -22.8143 C   0  0  0  0  0  0  0  0  0  0  0  0
   -6.0986   24.9388  -21.9002 C   0  0  0  0  0  0  0  0  0  0  0  0
   -4.0869   22.4684  -21.1207 C   0  0  0  0  0  0  0  0  0  0  0  0
   -4.1299   23.8510  -21.2413 O   0  0  0  0  0  0  0  0  0  0  0  0
   -8.1015   26.0367  -22.5843 O   0  0  0  0  0  0  0  0  0  0  0  0
   -9.2246   25.3112  -22.9966 C   0  0  0  0  0  0  0  0  0  0  0  0
   -6.6971   24.5580  -20.6687 O   0  0  0  0  0  0  0  0  0  0  0  0
   -6.6713   25.3746  -19.5327 C   0  0  0  0  0  0  0  0  0  0  0  0
   -3.8429   24.3723  -27.7060 C   0  0  0  0  0  0  0  0  0  0  0  0
   -4.7210   24.5967  -28.8892 C   0  0  0  0  0  0  0  0  0  0  0  0
   -5.8895   25.5142  -28.6106 C   0  0  0  0  0  0  0  0  0  0  0  0
   -5.2191   23.4211  -29.6293 C   0  0  0  0  0  0  0  0  0  0  0  0
   -3.8943   25.4041  -29.9488 C   0  0  0  0  0  0  0  0  0  0  0  0
   -3.4410   23.0414  -27.2698 C   0  0  0  0  0  0  0  0  0  0  0  0
   -2.0326   22.7404  -26.9501 C   0  0  0  0  0  0  0  0  0  0  0  0
   -0.9642   22.8452  -27.8051 C   0  0  0  0  0  0  0  0  0  0  0  0
    0.1429   22.5524  -27.1078 N   0  0  0  0  0  0  0  0  0  0  0  0
   -0.1735   22.2599  -25.8347 C   0  0  0  0  0  0  0  0  0  0  0  0
    0.6286   21.8741  -24.7469 C   0  0  0  0  0  0  0  0  0  0  0  0
    0.0642   21.5942  -23.5252 C   0  0  0  0  0  0  0  0  0  0  0  0
   -1.3246   21.7136  -23.4292 C   0  0  0  0  0  0  0  0  0  0  0  0
   -2.1022   22.0903  -24.4911 C   0  0  0  0  0  0  0  0  0  0  0  0
   -1.5315   22.3729  -25.7212 C   0  0  0  0  0  0  0  0  0  0  0  0
    1.1256   22.5449  -27.4909 H   0  0  0  0  0  0  0  0  0  0  0  0
 11 12  1  0  0  0
 12  5  1  0  0  0
  5  6  2  0  0  0
  6  7  1  0  0  0
  7  8  2  0  0  0
  8  9  1  0  0  0
  9 13  1  0  0  0
 13 14  1  0  0  0
  9 10  2  0  0  0
 10 15  1  0  0  0
 15 16  1  0  0  0
  7  1  1  0  0  0
  1  2  2  0  0  0
  1  3  1  0  0  0
  3 17  1  0  0  0
 17 22  1  0  0  0
 22 23  1  0  0  0
 23 24  2  0  0  0
 24 25  1  0  0  0
 25 26  1  0  0  0
 26 27  2  0  0  0
 27 28  1  0  0  0
 28 29  2  0  0  0
 29 30  1  0  0  0
 30 31  2  0  0  0
 17 18  1  0  0  0
 18 19  1  0  0  0
 18 20  1  0  0  0
 18 21  1  0  0  0
 10  5  1  0  0  0
 31 23  1  0  0  0
 31 26  1  0  0  0
  3  4  1  0  0  0
 25 32  1  0  0  0
M  END
> <minimizedAffinity>
-9.17540

> <CNNscore>
0.2810908258

> <CNNaffinity>
6.3637399673

> <CNN_VS>
1.7887889147

> <CNNaffinity_variance>
0.4531254768

$$$$
[H]c1c(OC([H])([H])[H])c(OC([H])([H])[H])c(OC([H])([H])[H])c([H])c1C(=O)N([H])[C@@]([H])(C([H])([H])c1c([H])n([H])c2c([H])c([H])c([H])c([H])c12)C(C([H])([H])[H])(C([H])([H])[H])C([H])([H])[H]


 32 34  0  0  0  0  0  0  0  0999 V2000
   -4.4192   26.2203  -25.5492 C   0  0  0  0  0  0  0  0  0  0  0  0
   -4.1165   27.4926  -25.4639 O   0  0  0  0  0  0  0  0  0  0  0  0
   -4.1353   25.3826  -26.5892 N   0  0  0  0  0  0  0  0  0  0  0  0
   -3.5279   26.3708  -27.2570 H   0  0  0  0  0  0  0  0  0  0  0  0
   -7.0202   25.7441  -22.8506 C   0  0  0  0  0  0  0  0  0  0  0  0
   -6.4095   26.1491  -24.0533 C   0  0  0  0  0  0  0  0  0  0  0  0
   -5.1285   25.8152  -24.3304 C   0  0  0  0  0  0  0  0  0  0  0  0
   -4.4480   25.0731  -23.3967 C   0  0  0  0  0  0  0  0  0  0  0  0
   -5.0218   24.6635  -22.2093 C   0  0  0  0  0  0  0  0  0  0  0  0
   -6.3149   24.9988  -21.9322 C   0  0  0  0  0  0  0  0  0  0  0  0
   -9.4682   25.3589  -22.8619 C   0  0  0  0  0  0  0  0  0  0  0  0
   -8.3193   26.0607  -22.5220 O   0  0  0  0  0  0  0  0  0  0  0  0
   -4.2677   23.9325  -21.3345 O   0  0  0  0  0  0  0  0  0  0  0  0
   -4.2053   22.5349  -21.3135 C   0  0  0  0  0  0  0  0  0  0  0  0
   -6.9167   24.5845  -20.7132 O   0  0  0  0  0  0  0  0  0  0  0  0
   -6.7712   25.2988  -19.5187 C   0  0  0  0  0  0  0  0  0  0  0  0
   -3.8447   24.5304  -27.6507 C   0  0  0  0  0  0  0  0  0  0  0  0
   -4.6738   24.8118  -28.8569 C   0  0  0  0  0  0  0  0  0  0  0  0
   -3.9177   25.5155  -29.9604 C   0  0  0  0  0  0  0  0  0  0  0  0
   -5.9716   25.4907  -28.6763 C   0  0  0  0  0  0  0  0  0  0  0  0
   -5.0403   23.4361  -29.5137 C   0  0  0  0  0  0  0  0  0  0  0  0
   -3.4971   23.1771  -27.2373 C   0  0  0  0  0  0  0  0  0  0  0  0
   -2.0966   22.8032  -26.9630 C   0  0  0  0  0  0  0  0  0  0  0  0
   -1.0603   22.8159  -27.8626 C   0  0  0  0  0  0  0  0  0  0  0  0
    0.0558   22.4806  -27.1997 N   0  0  0  0  0  0  0  0  0  0  0  0
   -0.2241   22.2496  -25.9056 C   0  0  0  0  0  0  0  0  0  0  0  0
    0.5986   21.8525  -24.8374 C   0  0  0  0  0  0  0  0  0  0  0  0
    0.0700   21.6471  -23.5852 C   0  0  0  0  0  0  0  0  0  0  0  0
   -1.3042   21.8522  -23.4388 C   0  0  0  0  0  0  0  0  0  0  0  0
   -2.1019   22.2395  -24.4817 C   0  0  0  0  0  0  0  0  0  0  0  0
   -1.5672   22.4471  -25.7426 C   0  0  0  0  0  0  0  0  0  0  0  0
    1.0196   22.4019  -27.6208 H   0  0  0  0  0  0  0  0  0  0  0  0
 11 12  1  0  0  0
 12  5  1  0  0  0
  5  6  2  0  0  0
  6  7  1  0  0  0
  7  8  2  0  0  0
  8  9  1  0  0  0
  9 13  1  0  0  0
 13 14  1  0  0  0
  9 10  2  0  0  0
 10 15  1  0  0  0
 15 16  1  0  0  0
  7  1  1  0  0  0
  1  2  2  0  0  0
  1  3  1  0  0  0
  3 17  1  0  0  0
 17 22  1  0  0  0
 22 23  1  0  0  0
 23 24  2  0  0  0
 24 25  1  0  0  0
 25 26  1  0  0  0
 26 27  2  0  0  0
 27 28  1  0  0  0
 28 29  2  0  0  0
 29 30  1  0  0  0
 30 31  2  0  0  0
 17 18  1  0  0  0
 18 19  1  0  0  0
 18 20  1  0  0  0
 18 21  1  0  0  0
 10  5  1  0  0  0
 31 23  1  0  0  0
 31 26  1  0  0  0
  3  4  1  0  0  0
 25 32  1  0  0  0
M  END
> <minimizedAffinity>
-9.06563

> <CNNscore>
0.2614714801

> <CNNaffinity>
6.3266749382

> <CNN_VS>
1.6542450190

> <CNNaffinity_variance>
0.4383405745

$$$$
[H]c1c(OC([H])([H])[H])c(OC([H])([H])[H])c(OC([H])([H])[H])c([H])c1C(=O)N([H])[C@@]([H])(C([H])([H])c1c([H])n([H])c2c([H])c([H])c([H])c([H])c12)C(C([H])([H])[H])(C([H])([H])[H])C([H])([H])[H]


 32 34  0  0  0  0  0  0  0  0999 V2000
   -5.0239   24.1988  -22.7306 C   0  0  0  0  0  0  0  0  0  0  0  0
   -4.1289   24.3877  -21.7921 O   0  0  0  0  0  0  0  0  0  0  0  0
   -4.8519   24.3898  -24.0715 N   0  0  0  0  0  0  0  0  0  0  0  0
   -3.5806   24.7639  -23.8844 H   0  0  0  0  0  0  0  0  0  0  0  0
   -8.5757   23.9657  -21.4641 C   0  0  0  0  0  0  0  0  0  0  0  0
   -7.4183   24.4599  -22.0961 C   0  0  0  0  0  0  0  0  0  0  0  0
   -6.2735   23.7399  -22.1138 C   0  0  0  0  0  0  0  0  0  0  0  0
   -6.2817   22.5160  -21.4912 C   0  0  0  0  0  0  0  0  0  0  0  0
   -7.4017   22.0078  -20.8633 C   0  0  0  0  0  0  0  0  0  0  0  0
   -8.5566   22.7340  -20.8485 C   0  0  0  0  0  0  0  0  0  0  0  0
  -10.1821   25.6698  -22.2744 C   0  0  0  0  0  0  0  0  0  0  0  0
   -9.7631   24.6612  -21.4170 O   0  0  0  0  0  0  0  0  0  0  0  0
   -7.3177   20.7826  -20.2632 O   0  0  0  0  0  0  0  0  0  0  0  0
   -6.7790   20.5548  -18.9921 C   0  0  0  0  0  0  0  0  0  0  0  0
   -9.7159   22.2227  -20.2046 O   0  0  0  0  0  0  0  0  0  0  0  0
  -10.0601   22.5598  -18.8909 C   0  0  0  0  0  0  0  0  0  0  0  0
   -4.6743   24.5853  -25.4382 C   0  0  0  0  0  0  0  0  0  0  0  0
   -5.5000   25.7062  -25.9703 C   0  0  0  0  0  0  0  0  0  0  0  0
   -5.3071   25.9510  -27.4493 C   0  0  0  0  0  0  0  0  0  0  0  0
   -5.4542   27.0065  -25.2739 C   0  0  0  0  0  0  0  0  0  0  0  0
   -7.0038   25.2706  -25.8866 C   0  0  0  0  0  0  0  0  0  0  0  0
   -4.4544   23.3521  -26.1826 C   0  0  0  0  0  0  0  0  0  0  0  0
   -3.1649   23.0869  -26.8485 C   0  0  0  0  0  0  0  0  0  0  0  0
   -2.8825   23.2749  -28.1783 C   0  0  0  0  0  0  0  0  0  0  0  0
   -1.5859   22.9874  -28.3616 N   0  0  0  0  0  0  0  0  0  0  0  0
   -1.0227   22.6183  -27.1984 C   0  0  0  0  0  0  0  0  0  0  0  0
    0.2861   22.2067  -26.8932 C   0  0  0  0  0  0  0  0  0  0  0  0
    0.6251   21.8437  -25.6116 C   0  0  0  0  0  0  0  0  0  0  0  0
   -0.3859   21.9068  -24.6492 C   0  0  0  0  0  0  0  0  0  0  0  0
   -1.6593   22.3089  -24.9505 C   0  0  0  0  0  0  0  0  0  0  0  0
   -1.9988   22.6753  -26.2425 C   0  0  0  0  0  0  0  0  0  0  0  0
   -1.0704   23.0358  -29.2805 H   0  0  0  0  0  0  0  0  0  0  0  0
 11 12  1  0  0  0
 12  5  1  0  0  0
  5  6  2  0  0  0
  6  7  1  0  0  0
  7  8  2  0  0  0
  8  9  1  0  0  0
  9 13  1  0  0  0
 13 14  1  0  0  0
  9 10  2  0  0  0
 10 15  1  0  0  0
 15 16  1  0  0  0
  7  1  1  0  0  0
  1  2  2  0  0  0
  1  3  1  0  0  0
  3 17  1  0  0  0
 17 22  1  0  0  0
 22 23  1  0  0  0
 23 24  2  0  0  0
 24 25  1  0  0  0
 25 26  1  0  0  0
 26 27  2  0  0  0
 27 28  1  0  0  0
 28 29  2  0  0  0
 29 30  1  0  0  0
 30 31  2  0  0  0
 17 18  1  0  0  0
 18 19  1  0  0  0
 18 20  1  0  0  0
 18 21  1  0  0  0
 10  5  1  0  0  0
 31 23  1  0  0  0
 31 26  1  0  0  0
  3  4  1  0  0  0
 25 32  1  0  0  0
M  END
> <minimizedAffinity>
-8.34413

> <CNNscore>
0.2530177236

> <CNNaffinity>
5.9287023544

> <CNN_VS>
1.5000667572

> <CNNaffinity_variance>
0.4666239321

$$$$
[H]c1c(OC([H])([H])[H])c(OC([H])([H])[H])c(OC([H])([H])[H])c([H])c1C(=O)N([H])[C@@]([H])(C([H])([H])c1c([H])n([H])c2c([H])c([H])c([H])c([H])c12)C(C([H])([H])[H])(C([H])([H])[H])C([H])([H])[H]


 32 34  0  0  0  0  0  0  0  0999 V2000
   -4.3070   21.6883  -24.7347 C   0  0  0  0  0  0  0  0  0  0  0  0
   -4.6764   20.5687  -24.1624 O   0  0  0  0  0  0  0  0  0  0  0  0
   -5.1156   22.5803  -25.3786 N   0  0  0  0  0  0  0  0  0  0  0  0
   -6.1943   21.8296  -25.1247 H   0  0  0  0  0  0  0  0  0  0  0  0
   -0.5980   21.9949  -25.3851 C   0  0  0  0  0  0  0  0  0  0  0  0
   -1.9816   21.8602  -25.6104 C   0  0  0  0  0  0  0  0  0  0  0  0
   -2.8569   21.8486  -24.5795 C   0  0  0  0  0  0  0  0  0  0  0  0
   -2.3469   21.9685  -23.3101 C   0  0  0  0  0  0  0  0  0  0  0  0
   -0.9952   22.1010  -23.0605 C   0  0  0  0  0  0  0  0  0  0  0  0
   -0.1136   22.1151  -24.1016 C   0  0  0  0  0  0  0  0  0  0  0  0
    0.3714   22.8652  -27.4932 C   0  0  0  0  0  0  0  0  0  0  0  0
    0.3322   22.0097  -26.4001 O   0  0  0  0  0  0  0  0  0  0  0  0
   -0.5753   22.2082  -21.7642 O   0  0  0  0  0  0  0  0  0  0  0  0
   -1.2867   22.8565  -20.7487 C   0  0  0  0  0  0  0  0  0  0  0  0
    1.2802   22.2496  -23.8580 O   0  0  0  0  0  0  0  0  0  0  0  0
    2.0897   21.1692  -23.4898 C   0  0  0  0  0  0  0  0  0  0  0  0
   -5.9420   23.4882  -26.0347 C   0  0  0  0  0  0  0  0  0  0  0  0
   -5.1799   24.4579  -26.8715 C   0  0  0  0  0  0  0  0  0  0  0  0
   -4.0467   25.1339  -26.1343 C   0  0  0  0  0  0  0  0  0  0  0  0
   -5.9306   25.4880  -27.6153 C   0  0  0  0  0  0  0  0  0  0  0  0
   -4.4307   23.6424  -27.9814 C   0  0  0  0  0  0  0  0  0  0  0  0
   -7.1178   23.8725  -25.2647 C   0  0  0  0  0  0  0  0  0  0  0  0
   -6.9837   24.4899  -23.9315 C   0  0  0  0  0  0  0  0  0  0  0  0
   -6.8431   25.8290  -23.6658 C   0  0  0  0  0  0  0  0  0  0  0  0
   -6.8285   25.9782  -22.3335 N   0  0  0  0  0  0  0  0  0  0  0  0
   -6.9521   24.7833  -21.7306 C   0  0  0  0  0  0  0  0  0  0  0  0
   -6.9653   24.4300  -20.3703 C   0  0  0  0  0  0  0  0  0  0  0  0
   -7.0758   23.1138  -19.9897 C   0  0  0  0  0  0  0  0  0  0  0  0
   -7.1728   22.1670  -21.0125 C   0  0  0  0  0  0  0  0  0  0  0  0
   -7.1601   22.5154  -22.3364 C   0  0  0  0  0  0  0  0  0  0  0  0
   -7.0497   23.8424  -22.7179 C   0  0  0  0  0  0  0  0  0  0  0  0
   -6.7310   26.8941  -21.8194 H   0  0  0  0  0  0  0  0  0  0  0  0
 11 12  1  0  0  0
 12  5  1  0  0  0
  5  6  2  0  0  0
  6  7  1  0  0  0
  7  8  2  0  0  0
  8  9  1  0  0  0
  9 13  1  0  0  0
 13 14  1  0  0  0
  9 10  2  0  0  0
 10 15  1  0  0  0
 15 16  1  0  0  0
  7  1  1  0  0  0
  1  2  2  0  0  0
  1  3  1  0  0  0
  3 17  1  0  0  0
 17 22  1  0  0  0
 22 23  1  0  0  0
 23 24  2  0  0  0
 24 25  1  0  0  0
 25 26  1  0  0  0
 26 27  2  0  0  0
 27 28  1  0  0  0
 28 29  2  0  0  0
 29 30  1  0  0  0
 30 31  2  0  0  0
 17 18  1  0  0  0
 18 19  1  0  0  0
 18 20  1  0  0  0
 18 21  1  0  0  0
 10  5  1  0  0  0
 31 23  1  0  0  0
 31 26  1  0  0  0
  3  4  1  0  0  0
 25 32  1  0  0  0
M  END
> <minimizedAffinity>
-7.57121

> <CNNscore>
0.2486124635

> <CNNaffinity>
5.9761095047

> <CNN_VS>
1.4857352972

> <CNNaffinity_variance>
0.5172100067

$$$$
[H]c1c(OC([H])([H])[H])c(OC([H])([H])[H])c(OC([H])([H])[H])c([H])c1C(=O)N([H])[C@@]([H])(C([H])([H])c1c([H])n([H])c2c([H])c([H])c([H])c([H])c12)C(C([H])([H])[H])(C([H])([H])[H])C([H])([H])[H]


 32 34  0  0  0  0  0  0  0  0999 V2000
   -3.2179   23.1153  -27.2498 C   0  0  0  0  0  0  0  0  0  0  0  0
   -2.3271   22.4167  -27.9100 O   0  0  0  0  0  0  0  0  0  0  0  0
   -4.0550   24.0634  -27.7640 N   0  0  0  0  0  0  0  0  0  0  0  0
   -3.5565   23.8787  -28.9923 H   0  0  0  0  0  0  0  0  0  0  0  0
   -4.1597   22.3210  -23.6782 C   0  0  0  0  0  0  0  0  0  0  0  0
   -4.2708   22.6886  -25.0332 C   0  0  0  0  0  0  0  0  0  0  0  0
   -3.1837   22.7202  -25.8372 C   0  0  0  0  0  0  0  0  0  0  0  0
   -1.9725   22.3857  -25.2834 C   0  0  0  0  0  0  0  0  0  0  0  0
   -1.8348   22.0225  -23.9582 C   0  0  0  0  0  0  0  0  0  0  0  0
   -2.9326   21.9885  -23.1489 C   0  0  0  0  0  0  0  0  0  0  0  0
   -6.4472   21.6295  -23.0222 C   0  0  0  0  0  0  0  0  0  0  0  0
   -5.2351   22.2760  -22.8197 O   0  0  0  0  0  0  0  0  0  0  0  0
   -0.5890   21.7112  -23.4898 O   0  0  0  0  0  0  0  0  0  0  0  0
    0.5880   21.7987  -24.2411 C   0  0  0  0  0  0  0  0  0  0  0  0
   -2.8041   21.6176  -21.7830 O   0  0  0  0  0  0  0  0  0  0  0  0
   -2.4791   22.5364  -20.7788 C   0  0  0  0  0  0  0  0  0  0  0  0
   -4.9074   25.0297  -28.2905 C   0  0  0  0  0  0  0  0  0  0  0  0
   -4.8767   25.0729  -29.7800 C   0  0  0  0  0  0  0  0  0  0  0  0
   -5.4201   23.8228  -30.4331 C   0  0  0  0  0  0  0  0  0  0  0  0
   -3.6112   25.4339  -30.4478 C   0  0  0  0  0  0  0  0  0  0  0  0
   -5.8919   26.1735  -30.2449 C   0  0  0  0  0  0  0  0  0  0  0  0
   -5.0051   26.2324  -27.4737 C   0  0  0  0  0  0  0  0  0  0  0  0
   -5.1389   26.1453  -26.0070 C   0  0  0  0  0  0  0  0  0  0  0  0
   -4.2284   26.5864  -25.0797 C   0  0  0  0  0  0  0  0  0  0  0  0
   -4.7594   26.3886  -23.8647 N   0  0  0  0  0  0  0  0  0  0  0  0
   -5.9785   25.8334  -23.9751 C   0  0  0  0  0  0  0  0  0  0  0  0
   -6.9010   25.4240  -22.9969 C   0  0  0  0  0  0  0  0  0  0  0  0
   -8.0937   24.8442  -23.3583 C   0  0  0  0  0  0  0  0  0  0  0  0
   -8.3313   24.6890  -24.7264 C   0  0  0  0  0  0  0  0  0  0  0  0
   -7.4303   25.0897  -25.6759 C   0  0  0  0  0  0  0  0  0  0  0  0
   -6.2292   25.6748  -25.3098 C   0  0  0  0  0  0  0  0  0  0  0  0
   -4.2972   26.6259  -22.9467 H   0  0  0  0  0  0  0  0  0  0  0  0
 11 12  1  0  0  0
 12  5  1  0  0  0
  5  6  2  0  0  0
  6  7  1  0  0  0
  7  8  2  0  0  0
  8  9  1  0  0  0
  9 13  1  0  0  0
 13 14  1  0  0  0
  9 10  2  0  0  0
 10 15  1  0  0  0
 15 16  1  0  0  0
  7  1  1  0  0  0
  1  2  2  0  0  0
  1  3  1  0  0  0
  3 17  1  0  0  0
 17 22  1  0  0  0
 22 23  1  0  0  0
 23 24  2  0  0  0
 24 25  1  0  0  0
 25 26  1  0  0  0
 26 27  2  0  0  0
 27 28  1  0  0  0
 28 29  2  0  0  0
 29 30  1  0  0  0
 30 31  2  0  0  0
 17 18  1  0  0  0
 18 19  1  0  0  0
 18 20  1  0  0  0
 18 21  1  0  0  0
 10  5  1  0  0  0
 31 23  1  0  0  0
 31 26  1  0  0  0
  3  4  1  0  0  0
 25 32  1  0  0  0
M  END
> <minimizedAffinity>
-7.95495

> <CNNscore>
0.2399964929

> <CNNaffinity>
6.3549261093

> <CNN_VS>
1.5251599550

> <CNNaffinity_variance>
0.3722284734

$$$$
[H]c1nc(N2C([H])([H])C([H])([H])c3nc(N4C([H])([H])C([H])([H])C([H])([H])C([H])([H])C4([H])[H])nc(N([H])c4nc([H])c(C(F)(F)F)c([H])c4[H])c3C([H])([H])C2([H])[H])c(C(F)(F)F)c([H])c1[H]


 39 43  0  0  0  0  0  0  0  0999 V2000
   -7.3349   20.9356  -18.9129 C   0  0  0  0  0  0  0  0  0  0  0  0
   -6.9674   21.0210  -20.1877 N   0  0  0  0  0  0  0  0  0  0  0  0
   -6.3531   22.1346  -20.6820 C   0  0  0  0  0  0  0  0  0  0  0  0
   -6.0704   23.2123  -19.9039 N   0  0  0  0  0  0  0  0  0  0  0  0
   -6.4090   23.1699  -18.6147 C   0  0  0  0  0  0  0  0  0  0  0  0
   -5.9480   24.3984  -17.8720 C   0  0  0  0  0  0  0  0  0  0  0  0
   -5.0153   23.8857  -16.7759 C   0  0  0  0  0  0  0  0  0  0  0  0
   -5.7319   23.1602  -15.7734 N   0  0  0  0  0  0  0  0  0  0  0  0
   -6.2116   21.7908  -15.8076 C   0  0  0  0  0  0  0  0  0  0  0  0
   -7.4535   21.7467  -16.7509 C   0  0  0  0  0  0  0  0  0  0  0  0
   -7.0337   22.0590  -18.1291 C   0  0  0  0  0  0  0  0  0  0  0  0
   -6.0505   23.8520  -14.5813 C   0  0  0  0  0  0  0  0  0  0  0  0
   -7.1286   24.7283  -14.6078 N   0  0  0  0  0  0  0  0  0  0  0  0
   -7.5054   25.4369  -13.5500 C   0  0  0  0  0  0  0  0  0  0  0  0
   -6.7707   25.2775  -12.3988 C   0  0  0  0  0  0  0  0  0  0  0  0
   -5.6995   24.4214  -12.3429 C   0  0  0  0  0  0  0  0  0  0  0  0
   -5.3047   23.6708  -13.4490 C   0  0  0  0  0  0  0  0  0  0  0  0
   -4.1873   22.7432  -13.3395 C   0  0  0  0  0  0  0  0  0  0  0  0
   -3.2878   22.7414  -14.3577 F   0  0  0  0  0  0  0  0  0  0  0  0
   -4.5113   21.4420  -12.9882 F   0  0  0  0  0  0  0  0  0  0  0  0
   -3.4094   23.1701  -12.2149 F   0  0  0  0  0  0  0  0  0  0  0  0
   -6.0986   22.3547  -22.0819 N   0  0  0  0  0  0  0  0  0  0  0  0
   -7.0028   23.2907  -22.7496 C   0  0  0  0  0  0  0  0  0  0  0  0
   -6.4340   23.6730  -24.0960 C   0  0  0  0  0  0  0  0  0  0  0  0
   -6.1636   22.4317  -24.9327 C   0  0  0  0  0  0  0  0  0  0  0  0
   -5.2772   21.4619  -24.2381 C   0  0  0  0  0  0  0  0  0  0  0  0
   -5.0413   21.7520  -22.7997 C   0  0  0  0  0  0  0  0  0  0  0  0
   -8.1785   19.9339  -18.4354 N   0  0  0  0  0  0  0  0  0  0  0  0
   -9.2039   20.2975  -18.2738 H   0  0  0  0  0  0  0  0  0  0  0  0
   -7.6663   15.8049  -18.0472 C   0  0  0  0  0  0  0  0  0  0  0  0
   -8.6943   16.4358  -17.3653 C   0  0  0  0  0  0  0  0  0  0  0  0
   -8.8655   17.8010  -17.4370 C   0  0  0  0  0  0  0  0  0  0  0  0
   -8.0169   18.5736  -18.1993 C   0  0  0  0  0  0  0  0  0  0  0  0
   -7.0056   17.9190  -18.8502 N   0  0  0  0  0  0  0  0  0  0  0  0
   -6.8135   16.5960  -18.7939 C   0  0  0  0  0  0  0  0  0  0  0  0
   -8.5118   13.7404  -17.3285 F   0  0  0  0  0  0  0  0  0  0  0  0
   -7.4757   14.3486  -18.0258 C   0  0  0  0  0  0  0  0  0  0  0  0
   -7.3436   13.7732  -19.2412 F   0  0  0  0  0  0  0  0  0  0  0  0
   -6.3316   14.1343  -17.2459 F   0  0  0  0  0  0  0  0  0  0  0  0
 36 37  1  0  0  0
 37 38  1  0  0  0
 37 39  1  0  0  0
 37 30  1  0  0  0
 30 31  2  0  0  0
 31 32  1  0  0  0
 32 33  2  0  0  0
 33 28  1  0  0  0
 28  1  1  0  0  0
  1  2  2  0  0  0
  2  3  1  0  0  0
  3  4  2  0  0  0
  4  5  1  0  0  0
  5  6  1  0  0  0
  6  7  1  0  0  0
  7  8  1  0  0  0
  8  9  1  0  0  0
  9 10  1  0  0  0
 10 11  1  0  0  0
  8 12  1  0  0  0
 12 13  2  0  0  0
 13 14  1  0  0  0
 14 15  2  0  0  0
 15 16  1  0  0  0
 16 17  2  0  0  0
 17 18  1  0  0  0
 18 19  1  0  0  0
 18 20  1  0  0  0
 18 21  1  0  0  0
  3 22  1  0  0  0
 22 23  1  0  0  0
 23 24  1  0  0  0
 24 25  1  0  0  0
 25 26  1  0  0  0
 26 27  1  0  0  0
 33 34  1  0  0  0
 34 35  2  0  0  0
 35 30  1  0  0  0
 11  1  1  0  0  0
 17 12  1  0  0  0
 27 22  1  0  0  0
 11  5  2  0  0  0
 28 29  1  0  0  0
M  END
> <minimizedAffinity>
-6.46413

> <CNNscore>
0.1437437832

> <CNNaffinity>
6.2219243050

> <CNN_VS>
0.8943629265

> <CNNaffinity_variance>
0.2054301798

$$$$
[H]c1nc(N2C([H])([H])C([H])([H])c3nc(N4C([H])([H])C([H])([H])C([H])([H])C([H])([H])C4([H])[H])nc(N([H])c4nc([H])c(C(F)(F)F)c([H])c4[H])c3C([H])([H])C2([H])[H])c(C(F)(F)F)c([H])c1[H]


 39 43  0  0  0  0  0  0  0  0999 V2000
   -2.3096   22.8743  -21.0082 C   0  0  0  0  0  0  0  0  0  0  0  0
   -3.6157   23.1221  -21.0019 N   0  0  0  0  0  0  0  0  0  0  0  0
   -4.4642   22.4665  -20.1579 C   0  0  0  0  0  0  0  0  0  0  0  0
   -4.0272   21.5351  -19.2700 N   0  0  0  0  0  0  0  0  0  0  0  0
   -2.7228   21.2601  -19.2300 C   0  0  0  0  0  0  0  0  0  0  0  0
   -2.3890   20.2780  -18.1357 C   0  0  0  0  0  0  0  0  0  0  0  0
   -1.4055   21.0061  -17.2210 C   0  0  0  0  0  0  0  0  0  0  0  0
   -0.1429   21.2075  -17.8614 N   0  0  0  0  0  0  0  0  0  0  0  0
    0.2350   22.2167  -18.8337 C   0  0  0  0  0  0  0  0  0  0  0  0
   -0.4139   21.8274  -20.1981 C   0  0  0  0  0  0  0  0  0  0  0  0
   -1.8813   21.9098  -20.0843 C   0  0  0  0  0  0  0  0  0  0  0  0
    0.8946   20.3012  -17.5398 C   0  0  0  0  0  0  0  0  0  0  0  0
    0.9645   19.1133  -18.2573 N   0  0  0  0  0  0  0  0  0  0  0  0
    1.8890   18.1882  -18.0284 C   0  0  0  0  0  0  0  0  0  0  0  0
    2.7949   18.4467  -17.0269 C   0  0  0  0  0  0  0  0  0  0  0  0
    2.7497   19.6097  -16.2996 C   0  0  0  0  0  0  0  0  0  0  0  0
    1.7850   20.5861  -16.5412 C   0  0  0  0  0  0  0  0  0  0  0  0
    1.7936   21.8248  -15.7752 C   0  0  0  0  0  0  0  0  0  0  0  0
    1.8132   22.9847  -16.4824 F   0  0  0  0  0  0  0  0  0  0  0  0
    2.7054   21.8871  -14.7331 F   0  0  0  0  0  0  0  0  0  0  0  0
    0.5426   21.8852  -15.0800 F   0  0  0  0  0  0  0  0  0  0  0  0
   -5.8990   22.5606  -20.2316 N   0  0  0  0  0  0  0  0  0  0  0  0
   -6.5105   21.9781  -21.4258 C   0  0  0  0  0  0  0  0  0  0  0  0
   -8.0024   21.8529  -21.2225 C   0  0  0  0  0  0  0  0  0  0  0  0
   -8.6063   23.2015  -20.8612 C   0  0  0  0  0  0  0  0  0  0  0  0
   -7.9581   23.8125  -19.6716 C   0  0  0  0  0  0  0  0  0  0  0  0
   -6.7077   23.1419  -19.2294 C   0  0  0  0  0  0  0  0  0  0  0  0
   -1.4589   23.3314  -22.0134 N   0  0  0  0  0  0  0  0  0  0  0  0
   -0.7171   24.0495  -21.6342 H   0  0  0  0  0  0  0  0  0  0  0  0
   -0.7489   22.5946  -26.0649 C   0  0  0  0  0  0  0  0  0  0  0  0
   -2.0432   22.8210  -25.6253 C   0  0  0  0  0  0  0  0  0  0  0  0
   -2.3180   23.0247  -24.2907 C   0  0  0  0  0  0  0  0  0  0  0  0
   -1.3039   23.0149  -23.3581 C   0  0  0  0  0  0  0  0  0  0  0  0
   -0.0392   22.7769  -23.8257 N   0  0  0  0  0  0  0  0  0  0  0  0
    0.2548   22.5711  -25.1148 C   0  0  0  0  0  0  0  0  0  0  0  0
    0.1536   23.5728  -27.9943 F   0  0  0  0  0  0  0  0  0  0  0  0
   -0.4126   22.4118  -27.4831 C   0  0  0  0  0  0  0  0  0  0  0  0
    0.3904   21.3576  -27.7470 F   0  0  0  0  0  0  0  0  0  0  0  0
   -1.6414   22.2801  -28.1432 F   0  0  0  0  0  0  0  0  0  0  0  0
 36 37  1  0  0  0
 37 38  1  0  0  0
 37 39  1  0  0  0
 37 30  1  0  0  0
 30 31  2  0  0  0
 31 32  1  0  0  0
 32 33  2  0  0  0
 33 28  1  0  0  0
 28  1  1  0  0  0
  1  2  2  0  0  0
  2  3  1  0  0  0
  3  4  2  0  0  0
  4  5  1  0  0  0
  5  6  1  0  0  0
  6  7  1  0  0  0
  7  8  1  0  0  0
  8  9  1  0  0  0
  9 10  1  0  0  0
 10 11  1  0  0  0
  8 12  1  0  0  0
 12 13  2  0  0  0
 13 14  1  0  0  0
 14 15  2  0  0  0
 15 16  1  0  0  0
 16 17  2  0  0  0
 17 18  1  0  0  0
 18 19  1  0  0  0
 18 20  1  0  0  0
 18 21  1  0  0  0
  3 22  1  0  0  0
 22 23  1  0  0  0
 23 24  1  0  0  0
 24 25  1  0  0  0
 25 26  1  0  0  0
 26 27  1  0  0  0
 33 34  1  0  0  0
 34 35  2  0  0  0
 35 30  1  0  0  0
 11  1  1  0  0  0
 17 12  1  0  0  0
 27 22  1  0  0  0
 11  5  2  0  0  0
 28 29  1  0  0  0
M  END
> <minimizedAffinity>
-7.10378

> <CNNscore>
0.0661060736

> <CNNaffinity>
6.3331289291

> <CNN_VS>
0.4186582863

> <CNNaffinity_variance>
0.0747899860

$$$$
[H]c1nc(N2C([H])([H])C([H])([H])c3nc(N4C([H])([H])C([H])([H])C([H])([H])C([H])([H])C4([H])[H])nc(N([H])c4nc([H])c(C(F)(F)F)c([H])c4[H])c3C([H])([H])C2([H])[H])c(C(F)(F)F)c([H])c1[H]


 39 43  0  0  0  0  0  0  0  0999 V2000
   -5.8066   22.2653  -18.5101 C   0  0  0  0  0  0  0  0  0  0  0  0
   -6.2840   21.1376  -17.9925 N   0  0  0  0  0  0  0  0  0  0  0  0
   -7.1051   20.3142  -18.7064 C   0  0  0  0  0  0  0  0  0  0  0  0
   -7.4728   20.5886  -19.9856 N   0  0  0  0  0  0  0  0  0  0  0  0
   -7.0096   21.7030  -20.5533 C   0  0  0  0  0  0  0  0  0  0  0  0
   -7.4327   21.8162  -21.9961 C   0  0  0  0  0  0  0  0  0  0  0  0
   -6.1337   21.8720  -22.7983 C   0  0  0  0  0  0  0  0  0  0  0  0
   -5.4320   23.0982  -22.5771 N   0  0  0  0  0  0  0  0  0  0  0  0
   -4.5896   23.4769  -21.4575 C   0  0  0  0  0  0  0  0  0  0  0  0
   -5.5214   23.7712  -20.2412 C   0  0  0  0  0  0  0  0  0  0  0  0
   -6.1992   22.5282  -19.8307 C   0  0  0  0  0  0  0  0  0  0  0  0
   -5.5761   24.1088  -23.5565 C   0  0  0  0  0  0  0  0  0  0  0  0
   -6.6149   25.0188  -23.4021 N   0  0  0  0  0  0  0  0  0  0  0  0
   -6.8481   25.9976  -24.2684 C   0  0  0  0  0  0  0  0  0  0  0  0
   -6.0113   26.0798  -25.3563 C   0  0  0  0  0  0  0  0  0  0  0  0
   -4.9786   25.1942  -25.5370 C   0  0  0  0  0  0  0  0  0  0  0  0
   -4.7263   24.1694  -24.6266 C   0  0  0  0  0  0  0  0  0  0  0  0
   -3.5967   23.2735  -24.8320 C   0  0  0  0  0  0  0  0  0  0  0  0
   -3.8843   21.9730  -25.1000 F   0  0  0  0  0  0  0  0  0  0  0  0
   -2.5812   23.3525  -23.8917 F   0  0  0  0  0  0  0  0  0  0  0  0
   -2.9345   23.7155  -26.0229 F   0  0  0  0  0  0  0  0  0  0  0  0
   -7.7931   19.1826  -18.1416 N   0  0  0  0  0  0  0  0  0  0  0  0
   -8.8280   19.4983  -17.1574 C   0  0  0  0  0  0  0  0  0  0  0  0
   -9.6741   18.2734  -16.8998 C   0  0  0  0  0  0  0  0  0  0  0  0
   -8.8020   17.1039  -16.4688 C   0  0  0  0  0  0  0  0  0  0  0  0
   -7.7251   16.8083  -17.4493 C   0  0  0  0  0  0  0  0  0  0  0  0
   -7.5404   17.8402  -18.5029 C   0  0  0  0  0  0  0  0  0  0  0  0
   -5.1807   23.2442  -17.7401 N   0  0  0  0  0  0  0  0  0  0  0  0
   -4.6601   23.9892  -18.3595 H   0  0  0  0  0  0  0  0  0  0  0  0
   -5.0869   23.7412  -13.5921 C   0  0  0  0  0  0  0  0  0  0  0  0
   -5.9452   24.5150  -14.3565 C   0  0  0  0  0  0  0  0  0  0  0  0
   -5.9710   24.4071  -15.7298 C   0  0  0  0  0  0  0  0  0  0  0  0
   -5.1433   23.5162  -16.3773 C   0  0  0  0  0  0  0  0  0  0  0  0
   -4.3002   22.7761  -15.5922 N   0  0  0  0  0  0  0  0  0  0  0  0
   -4.2512   22.8645  -14.2580 C   0  0  0  0  0  0  0  0  0  0  0  0
   -5.1334   22.5199  -11.5920 F   0  0  0  0  0  0  0  0  0  0  0  0
   -5.0584   23.8008  -12.1247 C   0  0  0  0  0  0  0  0  0  0  0  0
   -3.9962   24.4515  -11.6012 F   0  0  0  0  0  0  0  0  0  0  0  0
   -6.2572   24.4243  -11.7540 F   0  0  0  0  0  0  0  0  0  0  0  0
 36 37  1  0  0  0
 37 38  1  0  0  0
 37 39  1  0  0  0
 37 30  1  0  0  0
 30 31  2  0  0  0
 31 32  1  0  0  0
 32 33  2  0  0  0
 33 28  1  0  0  0
 28  1  1  0  0  0
  1  2  2  0  0  0
  2  3  1  0  0  0
  3  4  2  0  0  0
  4  5  1  0  0  0
  5  6  1  0  0  0
  6  7  1  0  0  0
  7  8  1  0  0  0
  8  9  1  0  0  0
  9 10  1  0  0  0
 10 11  1  0  0  0
  8 12  1  0  0  0
 12 13  2  0  0  0
 13 14  1  0  0  0
 14 15  2  0  0  0
 15 16  1  0  0  0
 16 17  2  0  0  0
 17 18  1  0  0  0
 18 19  1  0  0  0
 18 20  1  0  0  0
 18 21  1  0  0  0
  3 22  1  0  0  0
 22 23  1  0  0  0
 23 24  1  0  0  0
 24 25  1  0  0  0
 25 26  1  0  0  0
 26 27  1  0  0  0
 33 34  1  0  0  0
 34 35  2  0  0  0
 35 30  1  0  0  0
 11  1  1  0  0  0
 17 12  1  0  0  0
 27 22  1  0  0  0
 11  5  2  0  0  0
 28 29  1  0  0  0
M  END
> <minimizedAffinity>
-6.99831

> <CNNscore>
0.0649903342

> <CNNaffinity>
5.9361982346

> <CNN_VS>
0.3857955039

> <CNNaffinity_variance>
0.0601071306

$$$$
[H]c1nc(N2C([H])([H])C([H])([H])c3nc(N4C([H])([H])C([H])([H])C([H])([H])C([H])([H])C4([H])[H])nc(N([H])c4nc([H])c(C(F)(F)F)c([H])c4[H])c3C([H])([H])C2([H])[H])c(C(F)(F)F)c([H])c1[H]


 39 43  0  0  0  0  0  0  0  0999 V2000
   -5.7689   22.6149  -18.6948 C   0  0  0  0  0  0  0  0  0  0  0  0
   -6.7511   22.0021  -18.0411 N   0  0  0  0  0  0  0  0  0  0  0  0
   -7.9183   21.6607  -18.6599 C   0  0  0  0  0  0  0  0  0  0  0  0
   -8.1420   21.9139  -19.9762 N   0  0  0  0  0  0  0  0  0  0  0  0
   -7.1814   22.5166  -20.6781 C   0  0  0  0  0  0  0  0  0  0  0  0
   -7.5459   22.6432  -22.1357 C   0  0  0  0  0  0  0  0  0  0  0  0
   -6.4590   21.8839  -22.8948 C   0  0  0  0  0  0  0  0  0  0  0  0
   -5.2000   22.5582  -22.8237 N   0  0  0  0  0  0  0  0  0  0  0  0
   -4.2338   22.5725  -21.7407 C   0  0  0  0  0  0  0  0  0  0  0  0
   -4.8038   23.4822  -20.6086 C   0  0  0  0  0  0  0  0  0  0  0  0
   -6.0218   22.8663  -20.0513 C   0  0  0  0  0  0  0  0  0  0  0  0
   -4.8265   23.3449  -23.9386 C   0  0  0  0  0  0  0  0  0  0  0  0
   -5.3871   24.6109  -24.0566 N   0  0  0  0  0  0  0  0  0  0  0  0
   -5.1160   25.4259  -25.0691 C   0  0  0  0  0  0  0  0  0  0  0  0
   -4.2453   24.9620  -26.0268 C   0  0  0  0  0  0  0  0  0  0  0  0
   -3.6777   23.7156  -25.9387 C   0  0  0  0  0  0  0  0  0  0  0  0
   -3.9545   22.8596  -24.8741 C   0  0  0  0  0  0  0  0  0  0  0  0
   -3.3020   21.5600  -24.7948 C   0  0  0  0  0  0  0  0  0  0  0  0
   -2.5322   21.3245  -23.7003 F   0  0  0  0  0  0  0  0  0  0  0  0
   -2.6423   21.1417  -25.9398 F   0  0  0  0  0  0  0  0  0  0  0  0
   -4.3446   20.5846  -24.6789 F   0  0  0  0  0  0  0  0  0  0  0  0
   -9.0778   21.1640  -17.9658 N   0  0  0  0  0  0  0  0  0  0  0  0
   -8.9011   19.8892  -17.2708 C   0  0  0  0  0  0  0  0  0  0  0  0
  -10.0637   19.6560  -16.3345 C   0  0  0  0  0  0  0  0  0  0  0  0
  -11.3808   19.7251  -17.0924 C   0  0  0  0  0  0  0  0  0  0  0  0
  -11.5430   21.0042  -17.8316 C   0  0  0  0  0  0  0  0  0  0  0  0
  -10.3168   21.8406  -17.9074 C   0  0  0  0  0  0  0  0  0  0  0  0
   -4.6802   23.1981  -18.0486 N   0  0  0  0  0  0  0  0  0  0  0  0
   -4.8932   24.2271  -17.7239 H   0  0  0  0  0  0  0  0  0  0  0  0
   -0.8704   21.7038  -17.2035 C   0  0  0  0  0  0  0  0  0  0  0  0
   -1.9361   21.3689  -16.3838 C   0  0  0  0  0  0  0  0  0  0  0  0
   -3.1965   21.8780  -16.6086 C   0  0  0  0  0  0  0  0  0  0  0  0
   -3.4282   22.7316  -17.6649 C   0  0  0  0  0  0  0  0  0  0  0  0
   -2.3507   23.0503  -18.4472 N   0  0  0  0  0  0  0  0  0  0  0  0
   -1.1159   22.5745  -18.2486 C   0  0  0  0  0  0  0  0  0  0  0  0
    1.3910   22.1771  -16.8088 F   0  0  0  0  0  0  0  0  0  0  0  0
    0.4779   21.1513  -17.0184 C   0  0  0  0  0  0  0  0  0  0  0  0
    0.5875   20.2340  -16.0323 F   0  0  0  0  0  0  0  0  0  0  0  0
    0.8260   20.5960  -18.2567 F   0  0  0  0  0  0  0  0  0  0  0  0
 36 37  1  0  0  0
 37 38  1  0  0  0
 37 39  1  0  0  0
 37 30  1  0  0  0
 30 31  2  0  0  0
 31 32  1  0  0  0
 32 33  2  0  0  0
 33 28  1  0  0  0
 28  1  1  0  0  0
  1  2  2  0  0  0
  2  3  1  0  0  0
  3  4  2  0  0  0
  4  5  1  0  0  0
  5  6  1  0  0  0
  6  7  1  0  0  0
  7  8  1  0  0  0
  8  9  1  0  0  0
  9 10  1  0  0  0
 10 11  1  0  0  0
  8 12  1  0  0  0
 12 13  2  0  0  0
 13 14  1  0  0  0
 14 15  2  0  0  0
 15 16  1  0  0  0
 16 17  2  0  0  0
 17 18  1  0  0  0
 18 19  1  0  0  0
 18 20  1  0  0  0
 18 21  1  0  0  0
  3 22  1  0  0  0
 22 23  1  0  0  0
 23 24  1  0  0  0
 24 25  1  0  0  0
 25 26  1  0  0  0
 26 27  1  0  0  0
 33 34  1  0  0  0
 34 35  2  0  0  0
 35 30  1  0  0  0
 11  1  1  0  0  0
 17 12  1  0  0  0
 27 22  1  0  0  0
 11  5  2  0  0  0
 28 29  1  0  0  0
M  END
> <minimizedAffinity>
-7.29852

> <CNNscore>
0.0560682230

> <CNNaffinity>
6.0559940338

> <CNN_VS>
0.3395488262

> <CNNaffinity_variance>
0.1057173759

$$$$
[H]c1nc(N2C([H])([H])C([H])([H])c3nc(N4C([H])([H])C([H])([H])C([H])([H])C([H])([H])C4([H])[H])nc(N([H])c4nc([H])c(C(F)(F)F)c([H])c4[H])c3C([H])([H])C2([H])[H])c(C(F)(F)F)c([H])c1[H]


 39 43  0  0  0  0  0  0  0  0999 V2000
   -1.8958   21.3504  -21.1795 C   0  0  0  0  0  0  0  0  0  0  0  0
   -2.8573   22.0534  -20.5889 N   0  0  0  0  0  0  0  0  0  0  0  0
   -2.9108   22.1937  -19.2327 C   0  0  0  0  0  0  0  0  0  0  0  0
   -1.9841   21.6372  -18.4092 N   0  0  0  0  0  0  0  0  0  0  0  0
   -0.9925   20.9321  -18.9553 C   0  0  0  0  0  0  0  0  0  0  0  0
   -0.0025   20.4603  -17.9206 C   0  0  0  0  0  0  0  0  0  0  0  0
    1.3365   21.0722  -18.3290 C   0  0  0  0  0  0  0  0  0  0  0  0
    1.8355   20.4869  -19.5345 N   0  0  0  0  0  0  0  0  0  0  0  0
    1.4531   20.7621  -20.9074 C   0  0  0  0  0  0  0  0  0  0  0  0
    0.0561   20.1114  -21.1501 C   0  0  0  0  0  0  0  0  0  0  0  0
   -0.9511   20.7851  -20.3105 C   0  0  0  0  0  0  0  0  0  0  0  0
    2.8236   19.4832  -19.4025 C   0  0  0  0  0  0  0  0  0  0  0  0
    2.3999   18.1625  -19.3176 N   0  0  0  0  0  0  0  0  0  0  0  0
    3.2414   17.1449  -19.1790 C   0  0  0  0  0  0  0  0  0  0  0  0
    4.5809   17.4481  -19.1128 C   0  0  0  0  0  0  0  0  0  0  0  0
    5.0293   18.7428  -19.1913 C   0  0  0  0  0  0  0  0  0  0  0  0
    4.1497   19.8133  -19.3435 C   0  0  0  0  0  0  0  0  0  0  0  0
    4.6661   21.1698  -19.4630 C   0  0  0  0  0  0  0  0  0  0  0  0
    4.0697   21.9760  -20.3797 F   0  0  0  0  0  0  0  0  0  0  0  0
    6.0444   21.2886  -19.5497 F   0  0  0  0  0  0  0  0  0  0  0  0
    4.3885   21.8248  -18.2197 F   0  0  0  0  0  0  0  0  0  0  0  0
   -4.0204   22.7854  -18.5314 N   0  0  0  0  0  0  0  0  0  0  0  0
   -5.1924   23.0961  -19.3494 C   0  0  0  0  0  0  0  0  0  0  0  0
   -6.3717   23.3955  -18.4537 C   0  0  0  0  0  0  0  0  0  0  0  0
   -6.0315   24.5138  -17.4802 C   0  0  0  0  0  0  0  0  0  0  0  0
   -4.8171   24.2162  -16.6769 C   0  0  0  0  0  0  0  0  0  0  0  0
   -4.0340   23.0417  -17.1420 C   0  0  0  0  0  0  0  0  0  0  0  0
   -1.9483   20.9778  -22.5217 N   0  0  0  0  0  0  0  0  0  0  0  0
   -2.5532   20.0725  -22.6774 H   0  0  0  0  0  0  0  0  0  0  0  0
   -0.6516   22.4455  -26.2131 C   0  0  0  0  0  0  0  0  0  0  0  0
    0.2486   22.3299  -25.1662 C   0  0  0  0  0  0  0  0  0  0  0  0
   -0.1542   21.8902  -23.9241 C   0  0  0  0  0  0  0  0  0  0  0  0
   -1.4688   21.5466  -23.6960 C   0  0  0  0  0  0  0  0  0  0  0  0
   -2.3331   21.6840  -24.7490 N   0  0  0  0  0  0  0  0  0  0  0  0
   -1.9698   22.1130  -25.9632 C   0  0  0  0  0  0  0  0  0  0  0  0
    0.6000   21.9345  -28.1278 F   0  0  0  0  0  0  0  0  0  0  0  0
   -0.2521   22.8735  -27.5602 C   0  0  0  0  0  0  0  0  0  0  0  0
   -1.2760   23.1298  -28.4038 F   0  0  0  0  0  0  0  0  0  0  0  0
    0.5349   24.0169  -27.3696 F   0  0  0  0  0  0  0  0  0  0  0  0
 36 37  1  0  0  0
 37 38  1  0  0  0
 37 39  1  0  0  0
 37 30  1  0  0  0
 30 31  2  0  0  0
 31 32  1  0  0  0
 32 33  2  0  0  0
 33 28  1  0  0  0
 28  1  1  0  0  0
  1  2  2  0  0  0
  2  3  1  0  0  0
  3  4  2  0  0  0
  4  5  1  0  0  0
  5  6  1  0  0  0
  6  7  1  0  0  0
  7  8  1  0  0  0
  8  9  1  0  0  0
  9 10  1  0  0  0
 10 11  1  0  0  0
  8 12  1  0  0  0
 12 13  2  0  0  0
 13 14  1  0  0  0
 14 15  2  0  0  0
 15 16  1  0  0  0
 16 17  2  0  0  0
 17 18  1  0  0  0
 18 19  1  0  0  0
 18 20  1  0  0  0
 18 21  1  0  0  0
  3 22  1  0  0  0
 22 23  1  0  0  0
 23 24  1  0  0  0
 24 25  1  0  0  0
 25 26  1  0  0  0
 26 27  1  0  0  0
 33 34  1  0  0  0
 34 35  2  0  0  0
 35 30  1  0  0  0
 11  1  1  0  0  0
 17 12  1  0  0  0
 27 22  1  0  0  0
 11  5  2  0  0  0
 28 29  1  0  0  0
M  END
> <minimizedAffinity>
-7.47570

> <CNNscore>
0.0524066873

> <CNNaffinity>
6.1343970299

> <CNN_VS>
0.3214834332

> <CNNaffinity_variance>
0.0961630493

$$$$
[H]c1nc(N2C([H])([H])C([H])([H])c3nc(N4C([H])([H])C([H])([H])C([H])([H])C([H])([H])C4([H])[H])nc(N([H])c4nc([H])c(C(F)(F)F)c([H])c4[H])c3C([H])([H])C2([H])[H])c(C(F)(F)F)c([H])c1[H]


 39 43  0  0  0  0  0  0  0  0999 V2000
   -3.5447   22.3367  -21.0333 C   0  0  0  0  0  0  0  0  0  0  0  0
   -3.6854   23.2019  -22.0328 N   0  0  0  0  0  0  0  0  0  0  0  0
   -4.7731   24.0209  -22.1223 C   0  0  0  0  0  0  0  0  0  0  0  0
   -5.7666   24.0105  -21.1951 N   0  0  0  0  0  0  0  0  0  0  0  0
   -5.6651   23.1678  -20.1665 C   0  0  0  0  0  0  0  0  0  0  0  0
   -6.7954   23.3419  -19.1839 C   0  0  0  0  0  0  0  0  0  0  0  0
   -6.1303   23.7111  -17.8590 C   0  0  0  0  0  0  0  0  0  0  0  0
   -5.4022   22.6088  -17.3117 N   0  0  0  0  0  0  0  0  0  0  0  0
   -4.0848   22.1178  -17.6723 C   0  0  0  0  0  0  0  0  0  0  0  0
   -4.2128   21.3763  -19.0390 C   0  0  0  0  0  0  0  0  0  0  0  0
   -4.5816   22.3432  -20.0888 C   0  0  0  0  0  0  0  0  0  0  0  0
   -6.0354   21.8613  -16.2911 C   0  0  0  0  0  0  0  0  0  0  0  0
   -6.8163   20.7763  -16.6707 N   0  0  0  0  0  0  0  0  0  0  0  0
   -7.4645   20.0159  -15.7963 C   0  0  0  0  0  0  0  0  0  0  0  0
   -7.3413   20.3497  -14.4681 C   0  0  0  0  0  0  0  0  0  0  0  0
   -6.5793   21.4168  -14.0631 C   0  0  0  0  0  0  0  0  0  0  0  0
   -5.8920   22.2135  -14.9772 C   0  0  0  0  0  0  0  0  0  0  0  0
   -5.0615   23.3131  -14.5060 C   0  0  0  0  0  0  0  0  0  0  0  0
   -5.0908   23.5785  -13.1739 F   0  0  0  0  0  0  0  0  0  0  0  0
   -5.1501   24.4928  -15.2285 F   0  0  0  0  0  0  0  0  0  0  0  0
   -3.7013   22.9261  -14.7339 F   0  0  0  0  0  0  0  0  0  0  0  0
   -5.0661   24.8418  -23.2683 N   0  0  0  0  0  0  0  0  0  0  0  0
   -3.9347   25.5890  -23.8169 C   0  0  0  0  0  0  0  0  0  0  0  0
   -4.2981   26.1332  -25.1786 C   0  0  0  0  0  0  0  0  0  0  0  0
   -5.5630   26.9743  -25.0965 C   0  0  0  0  0  0  0  0  0  0  0  0
   -6.7023   26.2281  -24.5019 C   0  0  0  0  0  0  0  0  0  0  0  0
   -6.3389   24.9303  -23.8753 C   0  0  0  0  0  0  0  0  0  0  0  0
   -2.5891   21.3219  -21.0415 N   0  0  0  0  0  0  0  0  0  0  0  0
   -3.0395   20.3270  -20.9113 H   0  0  0  0  0  0  0  0  0  0  0  0
    1.4866   21.0250  -21.9149 C   0  0  0  0  0  0  0  0  0  0  0  0
    1.0624   20.9811  -20.5965 C   0  0  0  0  0  0  0  0  0  0  0  0
   -0.2691   21.1189  -20.2706 C   0  0  0  0  0  0  0  0  0  0  0  0
   -1.2158   21.2975  -21.2555 C   0  0  0  0  0  0  0  0  0  0  0  0
   -0.7604   21.3475  -22.5458 N   0  0  0  0  0  0  0  0  0  0  0  0
    0.5266   21.2216  -22.8898 C   0  0  0  0  0  0  0  0  0  0  0  0
    3.2255   19.4954  -22.2758 F   0  0  0  0  0  0  0  0  0  0  0  0
    2.8914   20.8435  -22.3034 C   0  0  0  0  0  0  0  0  0  0  0  0
    3.2241   21.3719  -23.5018 F   0  0  0  0  0  0  0  0  0  0  0  0
    3.6409   21.4296  -21.2749 F   0  0  0  0  0  0  0  0  0  0  0  0
 36 37  1  0  0  0
 37 38  1  0  0  0
 37 39  1  0  0  0
 37 30  1  0  0  0
 30 31  2  0  0  0
 31 32  1  0  0  0
 32 33  2  0  0  0
 33 28  1  0  0  0
 28  1  1  0  0  0
  1  2  2  0  0  0
  2  3  1  0  0  0
  3  4  2  0  0  0
  4  5  1  0  0  0
  5  6  1  0  0  0
  6  7  1  0  0  0
  7  8  1  0  0  0
  8  9  1  0  0  0
  9 10  1  0  0  0
 10 11  1  0  0  0
  8 12  1  0  0  0
 12 13  2  0  0  0
 13 14  1  0  0  0
 14 15  2  0  0  0
 15 16  1  0  0  0
 16 17  2  0  0  0
 17 18  1  0  0  0
 18 19  1  0  0  0
 18 20  1  0  0  0
 18 21  1  0  0  0
  3 22  1  0  0  0
 22 23  1  0  0  0
 23 24  1  0  0  0
 24 25  1  0  0  0
 25 26  1  0  0  0
 26 27  1  0  0  0
 33 34  1  0  0  0
 34 35  2  0  0  0
 35 30  1  0  0  0
 11  1  1  0  0  0
 17 12  1  0  0  0
 27 22  1  0  0  0
 11  5  2  0  0  0
 28 29  1  0  0  0
M  END
> <minimizedAffinity>
-6.93551

> <CNNscore>
0.0412424468

> <CNNaffinity>
6.0510516167

> <CNN_VS>
0.2495601773

> <CNNaffinity_variance>
0.1339841485

$$$$
[H]c1nc(N2C([H])([H])C([H])([H])c3nc(N4C([H])([H])C([H])([H])C([H])([H])C([H])([H])C4([H])[H])nc(N([H])c4nc([H])c(C(F)(F)F)c([H])c4[H])c3C([H])([H])C2([H])[H])c(C(F)(F)F)c([H])c1[H]


 39 43  0  0  0  0  0  0  0  0999 V2000
   -3.9415   22.3096  -20.9557 C   0  0  0  0  0  0  0  0  0  0  0  0
   -2.6138   22.2745  -20.8958 N   0  0  0  0  0  0  0  0  0  0  0  0
   -1.9574   21.9931  -19.7331 C   0  0  0  0  0  0  0  0  0  0  0  0
   -2.6163   21.7218  -18.5760 N   0  0  0  0  0  0  0  0  0  0  0  0
   -3.9498   21.7332  -18.5880 C   0  0  0  0  0  0  0  0  0  0  0  0
   -4.5272   21.3252  -17.2562 C   0  0  0  0  0  0  0  0  0  0  0  0
   -5.3744   20.0863  -17.5418 C   0  0  0  0  0  0  0  0  0  0  0  0
   -6.5389   20.4111  -18.3055 N   0  0  0  0  0  0  0  0  0  0  0  0
   -6.6565   20.6453  -19.7331 C   0  0  0  0  0  0  0  0  0  0  0  0
   -6.0464   22.0492  -20.0352 C   0  0  0  0  0  0  0  0  0  0  0  0
   -4.6003   22.0270  -19.7502 C   0  0  0  0  0  0  0  0  0  0  0  0
   -7.7556   20.5513  -17.5973 C   0  0  0  0  0  0  0  0  0  0  0  0
   -8.1491   21.8325  -17.2305 N   0  0  0  0  0  0  0  0  0  0  0  0
   -9.2649   22.0757  -16.5531 C   0  0  0  0  0  0  0  0  0  0  0  0
  -10.0355   20.9897  -16.2105 C   0  0  0  0  0  0  0  0  0  0  0  0
   -9.6715   19.7125  -16.5566 C   0  0  0  0  0  0  0  0  0  0  0  0
   -8.5045   19.4535  -17.2733 C   0  0  0  0  0  0  0  0  0  0  0  0
   -8.1722   18.0884  -17.6566 C   0  0  0  0  0  0  0  0  0  0  0  0
   -7.5833   17.9164  -18.8688 F   0  0  0  0  0  0  0  0  0  0  0  0
   -9.1733   17.1468  -17.4758 F   0  0  0  0  0  0  0  0  0  0  0  0
   -7.1700   17.6373  -16.7378 F   0  0  0  0  0  0  0  0  0  0  0  0
   -0.5327   22.1187  -19.5667 N   0  0  0  0  0  0  0  0  0  0  0  0
    0.2674   21.0268  -20.1206 C   0  0  0  0  0  0  0  0  0  0  0  0
    1.7208   21.4367  -20.1695 C   0  0  0  0  0  0  0  0  0  0  0  0
    2.2006   21.8652  -18.7911 C   0  0  0  0  0  0  0  0  0  0  0  0
    1.3634   22.9472  -18.2105 C   0  0  0  0  0  0  0  0  0  0  0  0
    0.0985   23.2178  -18.9424 C   0  0  0  0  0  0  0  0  0  0  0  0
   -4.6348   22.8334  -22.0456 N   0  0  0  0  0  0  0  0  0  0  0  0
   -5.5606   23.3437  -21.7419 H   0  0  0  0  0  0  0  0  0  0  0  0
   -4.1197   23.2059  -26.1757 C   0  0  0  0  0  0  0  0  0  0  0  0
   -3.8201   22.0052  -25.5525 C   0  0  0  0  0  0  0  0  0  0  0  0
   -3.9377   21.8613  -24.1873 C   0  0  0  0  0  0  0  0  0  0  0  0
   -4.3656   22.9130  -23.4071 C   0  0  0  0  0  0  0  0  0  0  0  0
   -4.6417   24.0877  -24.0542 N   0  0  0  0  0  0  0  0  0  0  0  0
   -4.5314   24.2562  -25.3770 C   0  0  0  0  0  0  0  0  0  0  0  0
   -3.8800   24.7302  -27.9401 F   0  0  0  0  0  0  0  0  0  0  0  0
   -4.0434   23.3856  -27.6316 C   0  0  0  0  0  0  0  0  0  0  0  0
   -3.0862   22.6564  -28.2463 F   0  0  0  0  0  0  0  0  0  0  0  0
   -5.3144   23.0487  -28.1154 F   0  0  0  0  0  0  0  0  0  0  0  0
 36 37  1  0  0  0
 37 38  1  0  0  0
 37 39  1  0  0  0
 37 30  1  0  0  0
 30 31  2  0  0  0
 31 32  1  0  0  0
 32 33  2  0  0  0
 33 28  1  0  0  0
 28  1  1  0  0  0
  1  2  2  0  0  0
  2  3  1  0  0  0
  3  4  2  0  0  0
  4  5  1  0  0  0
  5  6  1  0  0  0
  6  7  1  0  0  0
  7  8  1  0  0  0
  8  9  1  0  0  0
  9 10  1  0  0  0
 10 11  1  0  0  0
  8 12  1  0  0  0
 12 13  2  0  0  0
 13 14  1  0  0  0
 14 15  2  0  0  0
 15 16  1  0  0  0
 16 17  2  0  0  0
 17 18  1  0  0  0
 18 19  1  0  0  0
 18 20  1  0  0  0
 18 21  1  0  0  0
  3 22  1  0  0  0
 22 23  1  0  0  0
 23 24  1  0  0  0
 24 25  1  0  0  0
 25 26  1  0  0  0
 26 27  1  0  0  0
 33 34  1  0  0  0
 34 35  2  0  0  0
 35 30  1  0  0  0
 11  1  1  0  0  0
 17 12  1  0  0  0
 27 22  1  0  0  0
 11  5  2  0  0  0
 28 29  1  0  0  0
M  END
> <minimizedAffinity>
-6.70675

> <CNNscore>
0.0403636135

> <CNNaffinity>
6.0927815437

> <CNN_VS>
0.2459266782

> <CNNaffinity_variance>
0.1335552037

$$$$
[H]c1nc(N2C([H])([H])C([H])([H])c3nc(N4C([H])([H])C([H])([H])C([H])([H])C([H])([H])C4([H])[H])nc(N([H])c4nc([H])c(C(F)(F)F)c([H])c4[H])c3C([H])([H])C2([H])[H])c(C(F)(F)F)c([H])c1[H]


 39 43  0  0  0  0  0  0  0  0999 V2000
   -2.3171   21.9397  -19.3523 C   0  0  0  0  0  0  0  0  0  0  0  0
   -3.2985   21.3174  -18.7064 N   0  0  0  0  0  0  0  0  0  0  0  0
   -3.0447   20.3271  -17.8026 C   0  0  0  0  0  0  0  0  0  0  0  0
   -1.7814   19.9274  -17.5007 N   0  0  0  0  0  0  0  0  0  0  0  0
   -0.7621   20.5301  -18.1141 C   0  0  0  0  0  0  0  0  0  0  0  0
    0.5696   20.0387  -17.6056 C   0  0  0  0  0  0  0  0  0  0  0  0
    1.2733   21.2742  -17.0466 C   0  0  0  0  0  0  0  0  0  0  0  0
    1.6471   22.1814  -18.0868 N   0  0  0  0  0  0  0  0  0  0  0  0
    0.8245   23.1457  -18.7940 C   0  0  0  0  0  0  0  0  0  0  0  0
   -0.0846   22.3563  -19.7863 C   0  0  0  0  0  0  0  0  0  0  0  0
   -1.0224   21.5109  -19.0254 C   0  0  0  0  0  0  0  0  0  0  0  0
    2.9922   22.1427  -18.5232 C   0  0  0  0  0  0  0  0  0  0  0  0
    3.3698   21.1091  -19.3718 N   0  0  0  0  0  0  0  0  0  0  0  0
    4.6083   20.9709  -19.8299 C   0  0  0  0  0  0  0  0  0  0  0  0
    5.5320   21.9037  -19.4210 C   0  0  0  0  0  0  0  0  0  0  0  0
    5.1895   22.9341  -18.5816 C   0  0  0  0  0  0  0  0  0  0  0  0
    3.8890   23.0865  -18.1038 C   0  0  0  0  0  0  0  0  0  0  0  0
    3.5550   24.2155  -17.2466 C   0  0  0  0  0  0  0  0  0  0  0  0
    3.0307   23.9272  -16.0268 F   0  0  0  0  0  0  0  0  0  0  0  0
    2.8357   25.2387  -17.8441 F   0  0  0  0  0  0  0  0  0  0  0  0
    4.7901   24.8670  -16.9274 F   0  0  0  0  0  0  0  0  0  0  0  0
   -4.0649   19.5000  -17.2126 N   0  0  0  0  0  0  0  0  0  0  0  0
   -4.3631   18.2582  -17.9255 C   0  0  0  0  0  0  0  0  0  0  0  0
   -5.1912   17.3529  -17.0438 C   0  0  0  0  0  0  0  0  0  0  0  0
   -6.4492   18.0691  -16.5763 C   0  0  0  0  0  0  0  0  0  0  0  0
   -6.1487   19.3511  -15.8872 C   0  0  0  0  0  0  0  0  0  0  0  0
   -4.7408   19.8109  -16.0114 C   0  0  0  0  0  0  0  0  0  0  0  0
   -2.5419   22.7673  -20.4512 N   0  0  0  0  0  0  0  0  0  0  0  0
   -2.5688   23.8305  -20.1711 H   0  0  0  0  0  0  0  0  0  0  0  0
   -2.9198   22.4032  -24.5969 C   0  0  0  0  0  0  0  0  0  0  0  0
   -3.6810   21.5977  -23.7652 C   0  0  0  0  0  0  0  0  0  0  0  0
   -3.5503   21.6617  -22.3952 C   0  0  0  0  0  0  0  0  0  0  0  0
   -2.6590   22.5391  -21.8175 C   0  0  0  0  0  0  0  0  0  0  0  0
   -1.9151   23.3114  -22.6690 N   0  0  0  0  0  0  0  0  0  0  0  0
   -2.0183   23.2659  -24.0023 C   0  0  0  0  0  0  0  0  0  0  0  0
   -2.7160   23.6305  -26.5833 F   0  0  0  0  0  0  0  0  0  0  0  0
   -3.0588   22.3905  -26.0591 C   0  0  0  0  0  0  0  0  0  0  0  0
   -2.3616   21.4197  -26.6894 F   0  0  0  0  0  0  0  0  0  0  0  0
   -4.4321   22.2554  -26.3015 F   0  0  0  0  0  0  0  0  0  0  0  0
 36 37  1  0  0  0
 37 38  1  0  0  0
 37 39  1  0  0  0
 37 30  1  0  0  0
 30 31  2  0  0  0
 31 32  1  0  0  0
 32 33  2  0  0  0
 33 28  1  0  0  0
 28  1  1  0  0  0
  1  2  2  0  0  0
  2  3  1  0  0  0
  3  4  2  0  0  0
  4  5  1  0  0  0
  5  6  1  0  0  0
  6  7  1  0  0  0
  7  8  1  0  0  0
  8  9  1  0  0  0
  9 10  1  0  0  0
 10 11  1  0  0  0
  8 12  1  0  0  0
 12 13  2  0  0  0
 13 14  1  0  0  0
 14 15  2  0  0  0
 15 16  1  0  0  0
 16 17  2  0  0  0
 17 18  1  0  0  0
 18 19  1  0  0  0
 18 20  1  0  0  0
 18 21  1  0  0  0
  3 22  1  0  0  0
 22 23  1  0  0  0
 23 24  1  0  0  0
 24 25  1  0  0  0
 25 26  1  0  0  0
 26 27  1  0  0  0
 33 34  1  0  0  0
 34 35  2  0  0  0
 35 30  1  0  0  0
 11  1  1  0  0  0
 17 12  1  0  0  0
 27 22  1  0  0  0
 11  5  2  0  0  0
 28 29  1  0  0  0
M  END
> <minimizedAffinity>
-6.90120

> <CNNscore>
0.0402388126

> <CNNaffinity>
6.0362882614

> <CNN_VS>
0.2428930700

> <CNNaffinity_variance>
0.0868926793

$$$$
[H]c1nc(N2C([H])([H])C([H])([H])c3nc(N4C([H])([H])C([H])([H])C([H])([H])C([H])([H])C4([H])[H])nc(N([H])c4nc([H])c(C(F)(F)F)c([H])c4[H])c3C([H])([H])C2([H])[H])c(C(F)(F)F)c([H])c1[H]


 39 43  0  0  0  0  0  0  0  0999 V2000
   -3.5861   22.0320  -21.8945 C   0  0  0  0  0  0  0  0  0  0  0  0
   -3.6796   22.6911  -23.0453 N   0  0  0  0  0  0  0  0  0  0  0  0
   -4.8888   23.0223  -23.5838 C   0  0  0  0  0  0  0  0  0  0  0  0
   -6.0633   22.7112  -22.9748 N   0  0  0  0  0  0  0  0  0  0  0  0
   -6.0214   22.0602  -21.8116 C   0  0  0  0  0  0  0  0  0  0  0  0
   -7.3969   21.8712  -21.2237 C   0  0  0  0  0  0  0  0  0  0  0  0
   -7.3611   22.5758  -19.8686 C   0  0  0  0  0  0  0  0  0  0  0  0
   -6.5221   21.8848  -18.9394 N   0  0  0  0  0  0  0  0  0  0  0  0
   -5.0751   21.9055  -18.8281 C   0  0  0  0  0  0  0  0  0  0  0  0
   -4.4968   21.0597  -20.0047 C   0  0  0  0  0  0  0  0  0  0  0  0
   -4.8101   21.7212  -21.2843 C   0  0  0  0  0  0  0  0  0  0  0  0
   -7.1595   21.0404  -18.0002 C   0  0  0  0  0  0  0  0  0  0  0  0
   -7.6534   19.8228  -18.4525 N   0  0  0  0  0  0  0  0  0  0  0  0
   -8.2795   18.9615  -17.6594 C   0  0  0  0  0  0  0  0  0  0  0  0
   -8.4345   19.3256  -16.3426 C   0  0  0  0  0  0  0  0  0  0  0  0
   -7.9596   20.5223  -15.8674 C   0  0  0  0  0  0  0  0  0  0  0  0
   -7.2960   21.4263  -16.6951 C   0  0  0  0  0  0  0  0  0  0  0  0
   -6.7714   22.6687  -16.1453 C   0  0  0  0  0  0  0  0  0  0  0  0
   -6.9654   23.7958  -16.8787 F   0  0  0  0  0  0  0  0  0  0  0  0
   -5.4667   22.6226  -15.6794 F   0  0  0  0  0  0  0  0  0  0  0  0
   -7.5073   22.9280  -14.9439 F   0  0  0  0  0  0  0  0  0  0  0  0
   -5.0547   23.5703  -24.9048 N   0  0  0  0  0  0  0  0  0  0  0  0
   -3.9222   24.3415  -25.4165 C   0  0  0  0  0  0  0  0  0  0  0  0
   -4.0929   24.5708  -26.9000 C   0  0  0  0  0  0  0  0  0  0  0  0
   -5.4276   25.2422  -27.1857 C   0  0  0  0  0  0  0  0  0  0  0  0
   -6.5761   24.4795  -26.6310 C   0  0  0  0  0  0  0  0  0  0  0  0
   -6.2045   23.3792  -25.7035 C   0  0  0  0  0  0  0  0  0  0  0  0
   -2.3961   21.4619  -21.4451 N   0  0  0  0  0  0  0  0  0  0  0  0
   -2.2527   20.4424  -21.8318 H   0  0  0  0  0  0  0  0  0  0  0  0
    0.8371   22.5795  -19.0453 C   0  0  0  0  0  0  0  0  0  0  0  0
   -0.3127   23.3528  -19.0510 C   0  0  0  0  0  0  0  0  0  0  0  0
   -1.3806   23.0371  -19.8621 C   0  0  0  0  0  0  0  0  0  0  0  0
   -1.3315   21.9339  -20.6860 C   0  0  0  0  0  0  0  0  0  0  0  0
   -0.1762   21.1993  -20.6636 N   0  0  0  0  0  0  0  0  0  0  0  0
    0.8771   21.4860  -19.8898 C   0  0  0  0  0  0  0  0  0  0  0  0
    2.9917   21.9358  -18.3842 F   0  0  0  0  0  0  0  0  0  0  0  0
    1.9798   22.8624  -18.1667 C   0  0  0  0  0  0  0  0  0  0  0  0
    2.4782   24.1145  -18.2653 F   0  0  0  0  0  0  0  0  0  0  0  0
    1.5219   22.6091  -16.8670 F   0  0  0  0  0  0  0  0  0  0  0  0
 36 37  1  0  0  0
 37 38  1  0  0  0
 37 39  1  0  0  0
 37 30  1  0  0  0
 30 31  2  0  0  0
 31 32  1  0  0  0
 32 33  2  0  0  0
 33 28  1  0  0  0
 28  1  1  0  0  0
  1  2  2  0  0  0
  2  3  1  0  0  0
  3  4  2  0  0  0
  4  5  1  0  0  0
  5  6  1  0  0  0
  6  7  1  0  0  0
  7  8  1  0  0  0
  8  9  1  0  0  0
  9 10  1  0  0  0
 10 11  1  0  0  0
  8 12  1  0  0  0
 12 13  2  0  0  0
 13 14  1  0  0  0
 14 15  2  0  0  0
 15 16  1  0  0  0
 16 17  2  0  0  0
 17 18  1  0  0  0
 18 19  1  0  0  0
 18 20  1  0  0  0
 18 21  1  0  0  0
  3 22  1  0  0  0
 22 23  1  0  0  0
 23 24  1  0  0  0
 24 25  1  0  0  0
 25 26  1  0  0  0
 26 27  1  0  0  0
 33 34  1  0  0  0
 34 35  2  0  0  0
 35 30  1  0  0  0
 11  1  1  0  0  0
 17 12  1  0  0  0
 27 22  1  0  0  0
 11  5  2  0  0  0
 28 29  1  0  0  0
M  END
> <minimizedAffinity>
-6.96601

> <CNNscore>
0.0370375030

> <CNNaffinity>
6.0299134254

> <CNN_VS>
0.2233329415

> <CNNaffinity_variance>
0.0720239654

$$$$
[H]C1=C([H])C([H])(F)C([H])([H])C([H])=C1N([H])C(=O)C1(C(=O)N([H])c2c([H])c([H])c(Oc3c([H])c([H])nc4c([H])c(OC([H])([H])C([H])([H])C([H])([H])N5C([H])([H])C([H])([H])C([H])([H])C5([H])[H])c(OC([H])([H])[H])c([H])c34)c(F)c2[H])C([H])([H])C1([H])[H]


 47 52  0  0  0  0  0  0  0  0999 V2000
   -4.2648   22.9075  -26.3260 C   0  0  0  0  0  0  0  0  0  0  0  0
   -4.8913   22.0892  -25.3960 C   0  0  0  0  0  0  0  0  0  0  0  0
   -5.7292   22.6161  -24.4478 C   0  0  0  0  0  0  0  0  0  0  0  0
   -6.0070   23.9895  -24.3521 C   0  0  0  0  0  0  0  0  0  0  0  0
   -5.3888   24.7941  -25.2684 C   0  0  0  0  0  0  0  0  0  0  0  0
   -4.5292   24.2495  -26.2413 C   0  0  0  0  0  0  0  0  0  0  0  0
   -3.9713   25.1201  -27.1206 F   0  0  0  0  0  0  0  0  0  0  0  0
   -6.8735   24.4507  -23.3153 N   0  0  0  0  0  0  0  0  0  0  0  0
   -6.5150   24.9207  -22.0581 C   0  0  0  0  0  0  0  0  0  0  0  0
   -5.2616   24.9321  -21.7828 O   0  0  0  0  0  0  0  0  0  0  0  0
   -7.9115   24.3433  -23.5810 H   0  0  0  0  0  0  0  0  0  0  0  0
   -7.4189   25.3908  -21.0163 C   0  0  0  0  0  0  0  0  0  0  0  0
   -6.7984   25.6340  -19.6432 C   0  0  0  0  0  0  0  0  0  0  0  0
   -7.5547   24.3826  -19.8622 C   0  0  0  0  0  0  0  0  0  0  0  0
   -8.6379   26.1859  -21.3136 C   0  0  0  0  0  0  0  0  0  0  0  0
   -8.8631   26.2865  -22.5843 O   0  0  0  0  0  0  0  0  0  0  0  0
   -9.4571   26.7538  -20.3644 N   0  0  0  0  0  0  0  0  0  0  0  0
   -9.2345   26.5219  -19.3477 H   0  0  0  0  0  0  0  0  0  0  0  0
  -10.6384   27.5591  -20.5232 C   0  0  0  0  0  0  0  0  0  0  0  0
  -11.8259   27.0595  -20.7470 C   0  0  0  0  0  0  0  0  0  0  0  0
  -13.0419   27.8787  -20.9107 C   0  0  0  0  0  0  0  0  0  0  0  0
  -12.8813   29.3399  -20.8284 C   0  0  0  0  0  0  0  0  0  0  0  0
  -13.3166   29.8931  -22.0481 F   0  0  0  0  0  0  0  0  0  0  0  0
  -11.5322   29.8162  -20.5774 C   0  0  0  0  0  0  0  0  0  0  0  0
  -10.5131   29.0262  -20.4379 C   0  0  0  0  0  0  0  0  0  0  0  0
   -3.4215   22.3998  -27.2885 O   0  0  0  0  0  0  0  0  0  0  0  0
   -0.9491   21.5947  -24.1268 C   0  0  0  0  0  0  0  0  0  0  0  0
   -1.7531   21.8761  -25.2037 C   0  0  0  0  0  0  0  0  0  0  0  0
   -1.2588   22.3700  -26.3850 C   0  0  0  0  0  0  0  0  0  0  0  0
   -2.0970   22.6447  -27.4657 C   0  0  0  0  0  0  0  0  0  0  0  0
   -1.4819   23.1329  -28.5923 C   0  0  0  0  0  0  0  0  0  0  0  0
   -0.1264   23.3375  -28.6521 C   0  0  0  0  0  0  0  0  0  0  0  0
    0.6255   23.0607  -27.5987 N   0  0  0  0  0  0  0  0  0  0  0  0
    0.1033   22.5743  -26.4415 C   0  0  0  0  0  0  0  0  0  0  0  0
    0.9376   22.3023  -25.3774 C   0  0  0  0  0  0  0  0  0  0  0  0
    0.3964   21.8101  -24.2189 C   0  0  0  0  0  0  0  0  0  0  0  0
   -2.6429   21.6249  -22.3437 C   0  0  0  0  0  0  0  0  0  0  0  0
   -1.4920   21.0934  -22.9444 O   0  0  0  0  0  0  0  0  0  0  0  0
    1.2694   21.5491  -23.1720 O   0  0  0  0  0  0  0  0  0  0  0  0
    2.5364   20.9908  -23.3238 C   0  0  0  0  0  0  0  0  0  0  0  0
    3.1741   20.8420  -21.9667 C   0  0  0  0  0  0  0  0  0  0  0  0
    2.6417   19.6502  -21.2239 C   0  0  0  0  0  0  0  0  0  0  0  0
    3.6377   18.6338  -21.1035 N   0  0  0  0  0  0  0  0  0  0  0  0
    3.5105   17.5378  -22.0080 C   0  0  0  0  0  0  0  0  0  0  0  0
    4.9300   17.1065  -22.3885 C   0  0  0  0  0  0  0  0  0  0  0  0
    5.7429   17.7593  -21.2859 C   0  0  0  0  0  0  0  0  0  0  0  0
    4.9929   19.0912  -21.1374 C   0  0  0  0  0  0  0  0  0  0  0  0
 37 38  1  0  0  0
 38 27  1  0  0  0
 27 28  2  0  0  0
 28 29  1  0  0  0
 29 30  2  0  0  0
 30 26  1  0  0  0
 26  1  1  0  0  0
  1  2  2  0  0  0
  2  3  1  0  0  0
  3  4  2  0  0  0
  4  8  1  0  0  0
  8  9  1  0  0  0
  9 10  2  0  0  0
  9 12  1  0  0  0
 12 13  1  0  0  0
 13 14  1  0  0  0
 12 15  1  0  0  0
 15 16  2  0  0  0
 15 17  1  0  0  0
 17 19  1  0  0  0
 19 20  2  0  0  0
 20 21  1  0  0  0
 21 22  1  0  0  0
 22 23  1  0  0  0
 22 24  1  0  0  0
 24 25  2  0  0  0
  4  5  1  0  0  0
  5  6  2  0  0  0
  6  7  1  0  0  0
 30 31  1  0  0  0
 31 32  2  0  0  0
 32 33  1  0  0  0
 33 34  2  0  0  0
 34 35  1  0  0  0
 35 36  2  0  0  0
 36 39  1  0  0  0
 39 40  1  0  0  0
 40 41  1  0  0  0
 41 42  1  0  0  0
 42 43  1  0  0  0
 43 44  1  0  0  0
 44 45  1  0  0  0
 45 46  1  0  0  0
 46 47  1  0  0  0
 36 27  1  0  0  0
 47 43  1  0  0  0
 34 29  1  0  0  0
  6  1  1  0  0  0
 14 12  1  0  0  0
 25 19  1  0  0  0
  8 11  1  0  0  0
 17 18  1  0  0  0
M  END
> <minimizedAffinity>
-9.14730

> <CNNscore>
0.5739326477

> <CNNaffinity>
7.3424057961

> <CNN_VS>
4.2140464783

> <CNNaffinity_variance>
0.0460407138

$$$$
[H]C1=C([H])C([H])(F)C([H])([H])C([H])=C1N([H])C(=O)C1(C(=O)N([H])c2c([H])c([H])c(Oc3c([H])c([H])nc4c([H])c(OC([H])([H])C([H])([H])C([H])([H])N5C([H])([H])C([H])([H])C([H])([H])C5([H])[H])c(OC([H])([H])[H])c([H])c34)c(F)c2[H])C([H])([H])C1([H])[H]


 47 52  0  0  0  0  0  0  0  0999 V2000
   -4.2930   23.2012  -26.4475 C   0  0  0  0  0  0  0  0  0  0  0  0
   -5.0328   22.3509  -25.6372 C   0  0  0  0  0  0  0  0  0  0  0  0
   -5.8700   22.8501  -24.6736 C   0  0  0  0  0  0  0  0  0  0  0  0
   -6.0349   24.2256  -24.4429 C   0  0  0  0  0  0  0  0  0  0  0  0
   -5.3051   25.0617  -25.2413 C   0  0  0  0  0  0  0  0  0  0  0  0
   -4.4466   24.5456  -26.2305 C   0  0  0  0  0  0  0  0  0  0  0  0
   -3.7732   25.4487  -26.9876 F   0  0  0  0  0  0  0  0  0  0  0  0
   -6.9107   24.6532  -23.3994 N   0  0  0  0  0  0  0  0  0  0  0  0
   -6.5775   24.9584  -22.0857 C   0  0  0  0  0  0  0  0  0  0  0  0
   -5.3429   24.8304  -21.7594 O   0  0  0  0  0  0  0  0  0  0  0  0
   -7.9393   24.6660  -23.7175 H   0  0  0  0  0  0  0  0  0  0  0  0
   -7.4899   25.3976  -21.0378 C   0  0  0  0  0  0  0  0  0  0  0  0
   -6.9130   25.4696  -19.6266 C   0  0  0  0  0  0  0  0  0  0  0  0
   -7.7448   24.3020  -19.9883 C   0  0  0  0  0  0  0  0  0  0  0  0
   -8.6366   26.3037  -21.3035 C   0  0  0  0  0  0  0  0  0  0  0  0
   -9.0643   26.2135  -22.5219 O   0  0  0  0  0  0  0  0  0  0  0  0
   -9.2044   27.1462  -20.3750 N   0  0  0  0  0  0  0  0  0  0  0  0
   -8.8391   27.0647  -19.3764 H   0  0  0  0  0  0  0  0  0  0  0  0
  -10.2891   28.0808  -20.5138 C   0  0  0  0  0  0  0  0  0  0  0  0
  -10.2045   29.3390  -20.1676 C   0  0  0  0  0  0  0  0  0  0  0  0
  -11.3122   30.3034  -20.3072 C   0  0  0  0  0  0  0  0  0  0  0  0
  -12.5796   29.7930  -20.8557 C   0  0  0  0  0  0  0  0  0  0  0  0
  -13.5848   30.0036  -19.8921 F   0  0  0  0  0  0  0  0  0  0  0  0
  -12.5934   28.3860  -21.2163 C   0  0  0  0  0  0  0  0  0  0  0  0
  -11.5699   27.6034  -21.0680 C   0  0  0  0  0  0  0  0  0  0  0  0
   -3.4481   22.7220  -27.4231 O   0  0  0  0  0  0  0  0  0  0  0  0
   -1.3529   21.6487  -24.0740 C   0  0  0  0  0  0  0  0  0  0  0  0
   -2.0280   22.0171  -25.2116 C   0  0  0  0  0  0  0  0  0  0  0  0
   -1.3849   22.4493  -26.3444 C   0  0  0  0  0  0  0  0  0  0  0  0
   -2.0942   22.8149  -27.4885 C   0  0  0  0  0  0  0  0  0  0  0  0
   -1.3367   23.2280  -28.5570 C   0  0  0  0  0  0  0  0  0  0  0  0
    0.0335   23.2776  -28.5032 C   0  0  0  0  0  0  0  0  0  0  0  0
    0.6595   22.9196  -27.3933 N   0  0  0  0  0  0  0  0  0  0  0  0
   -0.0084   22.4980  -26.2868 C   0  0  0  0  0  0  0  0  0  0  0  0
    0.6988   22.1354  -25.1595 C   0  0  0  0  0  0  0  0  0  0  0  0
    0.0113   21.7101  -24.0533 C   0  0  0  0  0  0  0  0  0  0  0  0
   -3.0679   21.9596  -22.3387 C   0  0  0  0  0  0  0  0  0  0  0  0
   -2.0451   21.2145  -22.9442 O   0  0  0  0  0  0  0  0  0  0  0  0
    0.7594   21.3541  -22.9398 O   0  0  0  0  0  0  0  0  0  0  0  0
    2.1264   21.0879  -22.9619 C   0  0  0  0  0  0  0  0  0  0  0  0
    2.4997   20.3281  -21.7154 C   0  0  0  0  0  0  0  0  0  0  0  0
    3.5701   21.0298  -20.9296 C   0  0  0  0  0  0  0  0  0  0  0  0
    3.1129   21.3546  -19.6162 N   0  0  0  0  0  0  0  0  0  0  0  0
    3.7621   22.4632  -18.9956 C   0  0  0  0  0  0  0  0  0  0  0  0
    2.7003   23.1976  -18.1715 C   0  0  0  0  0  0  0  0  0  0  0  0
    1.6172   22.1393  -18.0745 C   0  0  0  0  0  0  0  0  0  0  0  0
    1.6991   21.5263  -19.4802 C   0  0  0  0  0  0  0  0  0  0  0  0
 37 38  1  0  0  0
 38 27  1  0  0  0
 27 28  2  0  0  0
 28 29  1  0  0  0
 29 30  2  0  0  0
 30 26  1  0  0  0
 26  1  1  0  0  0
  1  2  2  0  0  0
  2  3  1  0  0  0
  3  4  2  0  0  0
  4  8  1  0  0  0
  8  9  1  0  0  0
  9 10  2  0  0  0
  9 12  1  0  0  0
 12 13  1  0  0  0
 13 14  1  0  0  0
 12 15  1  0  0  0
 15 16  2  0  0  0
 15 17  1  0  0  0
 17 19  1  0  0  0
 19 20  2  0  0  0
 20 21  1  0  0  0
 21 22  1  0  0  0
 22 23  1  0  0  0
 22 24  1  0  0  0
 24 25  2  0  0  0
  4  5  1  0  0  0
  5  6  2  0  0  0
  6  7  1  0  0  0
 30 31  1  0  0  0
 31 32  2  0  0  0
 32 33  1  0  0  0
 33 34  2  0  0  0
 34 35  1  0  0  0
 35 36  2  0  0  0
 36 39  1  0  0  0
 39 40  1  0  0  0
 40 41  1  0  0  0
 41 42  1  0  0  0
 42 43  1  0  0  0
 43 44  1  0  0  0
 44 45  1  0  0  0
 45 46  1  0  0  0
 46 47  1  0  0  0
 36 27  1  0  0  0
 47 43  1  0  0  0
 34 29  1  0  0  0
  6  1  1  0  0  0
 14 12  1  0  0  0
 25 19  1  0  0  0
  8 11  1  0  0  0
 17 18  1  0  0  0
M  END
> <minimizedAffinity>
-9.57541

> <CNNscore>
0.3669973016

> <CNNaffinity>
7.1669301987

> <CNN_VS>
2.6302440166

> <CNNaffinity_variance>
0.0725824013

$$$$
[H]C1=C([H])C([H])(F)C([H])([H])C([H])=C1N([H])C(=O)C1(C(=O)N([H])c2c([H])c([H])c(Oc3c([H])c([H])nc4c([H])c(OC([H])([H])C([H])([H])C([H])([H])N5C([H])([H])C([H])([H])C([H])([H])C5([H])[H])c(OC([H])([H])[H])c([H])c34)c(F)c2[H])C([H])([H])C1([H])[H]


 47 52  0  0  0  0  0  0  0  0999 V2000
   -2.0683   22.3884  -26.8574 C   0  0  0  0  0  0  0  0  0  0  0  0
   -2.2479   21.8540  -25.5889 C   0  0  0  0  0  0  0  0  0  0  0  0
   -1.1824   21.6702  -24.7464 C   0  0  0  0  0  0  0  0  0  0  0  0
    0.1360   22.0019  -25.0985 C   0  0  0  0  0  0  0  0  0  0  0  0
    0.3113   22.5276  -26.3483 C   0  0  0  0  0  0  0  0  0  0  0  0
   -0.7853   22.7156  -27.2109 C   0  0  0  0  0  0  0  0  0  0  0  0
   -0.5211   23.2582  -28.4267 F   0  0  0  0  0  0  0  0  0  0  0  0
    1.1866   21.7517  -24.1645 N   0  0  0  0  0  0  0  0  0  0  0  0
    1.0821   21.1682  -22.9081 C   0  0  0  0  0  0  0  0  0  0  0  0
   -0.0945   20.8234  -22.5288 O   0  0  0  0  0  0  0  0  0  0  0  0
    2.1322   22.1329  -24.5111 H   0  0  0  0  0  0  0  0  0  0  0  0
    2.1714   20.9190  -21.9728 C   0  0  0  0  0  0  0  0  0  0  0  0
    3.5494   20.6887  -22.5871 C   0  0  0  0  0  0  0  0  0  0  0  0
    2.7733   19.5130  -22.1384 C   0  0  0  0  0  0  0  0  0  0  0  0
    2.1737   21.4533  -20.5868 C   0  0  0  0  0  0  0  0  0  0  0  0
    0.9787   21.5852  -20.1072 O   0  0  0  0  0  0  0  0  0  0  0  0
    3.3041   21.7711  -19.8686 N   0  0  0  0  0  0  0  0  0  0  0  0
    4.2374   21.5270  -20.3231 H   0  0  0  0  0  0  0  0  0  0  0  0
    3.4367   22.3144  -18.5433 C   0  0  0  0  0  0  0  0  0  0  0  0
    3.8033   21.6053  -17.5076 C   0  0  0  0  0  0  0  0  0  0  0  0
    3.9418   22.1553  -16.1457 C   0  0  0  0  0  0  0  0  0  0  0  0
    3.6291   23.5827  -15.9646 C   0  0  0  0  0  0  0  0  0  0  0  0
    2.5804   23.6814  -15.0300 F   0  0  0  0  0  0  0  0  0  0  0  0
    3.2300   24.3010  -17.1624 C   0  0  0  0  0  0  0  0  0  0  0  0
    3.1391   23.7431  -18.3296 C   0  0  0  0  0  0  0  0  0  0  0  0
   -3.1240   22.5841  -27.7191 O   0  0  0  0  0  0  0  0  0  0  0  0
   -6.3186   23.3415  -25.2738 C   0  0  0  0  0  0  0  0  0  0  0  0
   -5.2542   23.1139  -26.1110 C   0  0  0  0  0  0  0  0  0  0  0  0
   -4.9102   23.9787  -27.1196 C   0  0  0  0  0  0  0  0  0  0  0  0
   -3.8218   23.7257  -27.9547 C   0  0  0  0  0  0  0  0  0  0  0  0
   -3.5787   24.6674  -28.9243 C   0  0  0  0  0  0  0  0  0  0  0  0
   -4.3576   25.7885  -29.0632 C   0  0  0  0  0  0  0  0  0  0  0  0
   -5.3794   25.9824  -28.2447 N   0  0  0  0  0  0  0  0  0  0  0  0
   -5.6949   25.1039  -27.2563 C   0  0  0  0  0  0  0  0  0  0  0  0
   -6.7706   25.3609  -26.4323 C   0  0  0  0  0  0  0  0  0  0  0  0
   -7.0741   24.4671  -25.4392 C   0  0  0  0  0  0  0  0  0  0  0  0
   -5.9148   21.2529  -24.0394 C   0  0  0  0  0  0  0  0  0  0  0  0
   -6.6337   22.4370  -24.2606 O   0  0  0  0  0  0  0  0  0  0  0  0
   -8.1636   24.7623  -24.6315 O   0  0  0  0  0  0  0  0  0  0  0  0
   -8.0857   25.0064  -23.2625 C   0  0  0  0  0  0  0  0  0  0  0  0
   -6.7297   25.5799  -22.9415 C   0  0  0  0  0  0  0  0  0  0  0  0
   -6.2388   25.1388  -21.5924 C   0  0  0  0  0  0  0  0  0  0  0  0
   -4.8568   24.7819  -21.6408 N   0  0  0  0  0  0  0  0  0  0  0  0
   -4.5573   23.4328  -21.2864 C   0  0  0  0  0  0  0  0  0  0  0  0
   -3.3974   22.9839  -22.1803 C   0  0  0  0  0  0  0  0  0  0  0  0
   -2.8680   24.3189  -22.6704 C   0  0  0  0  0  0  0  0  0  0  0  0
   -4.1839   25.0861  -22.8661 C   0  0  0  0  0  0  0  0  0  0  0  0
 37 38  1  0  0  0
 38 27  1  0  0  0
 27 28  2  0  0  0
 28 29  1  0  0  0
 29 30  2  0  0  0
 30 26  1  0  0  0
 26  1  1  0  0  0
  1  2  2  0  0  0
  2  3  1  0  0  0
  3  4  2  0  0  0
  4  8  1  0  0  0
  8  9  1  0  0  0
  9 10  2  0  0  0
  9 12  1  0  0  0
 12 13  1  0  0  0
 13 14  1  0  0  0
 12 15  1  0  0  0
 15 16  2  0  0  0
 15 17  1  0  0  0
 17 19  1  0  0  0
 19 20  2  0  0  0
 20 21  1  0  0  0
 21 22  1  0  0  0
 22 23  1  0  0  0
 22 24  1  0  0  0
 24 25  2  0  0  0
  4  5  1  0  0  0
  5  6  2  0  0  0
  6  7  1  0  0  0
 30 31  1  0  0  0
 31 32  2  0  0  0
 32 33  1  0  0  0
 33 34  2  0  0  0
 34 35  1  0  0  0
 35 36  2  0  0  0
 36 39  1  0  0  0
 39 40  1  0  0  0
 40 41  1  0  0  0
 41 42  1  0  0  0
 42 43  1  0  0  0
 43 44  1  0  0  0
 44 45  1  0  0  0
 45 46  1  0  0  0
 46 47  1  0  0  0
 36 27  1  0  0  0
 47 43  1  0  0  0
 34 29  1  0  0  0
  6  1  1  0  0  0
 14 12  1  0  0  0
 25 19  1  0  0  0
  8 11  1  0  0  0
 17 18  1  0  0  0
M  END
> <minimizedAffinity>
-9.59582

> <CNNscore>
0.2597886622

> <CNNaffinity>
7.3042244911

> <CNN_VS>
1.8975547552

> <CNNaffinity_variance>
0.4737986624

$$$$
[H]C1=C([H])C([H])(F)C([H])([H])C([H])=C1N([H])C(=O)C1(C(=O)N([H])c2c([H])c([H])c(Oc3c([H])c([H])nc4c([H])c(OC([H])([H])C([H])([H])C([H])([H])N5C([H])([H])C([H])([H])C([H])([H])C5([H])[H])c(OC([H])([H])[H])c([H])c34)c(F)c2[H])C([H])([H])C1([H])[H]


 47 52  0  0  0  0  0  0  0  0999 V2000
   -0.2025   21.4156  -21.6897 C   0  0  0  0  0  0  0  0  0  0  0  0
    1.0473   20.8707  -21.4288 C   0  0  0  0  0  0  0  0  0  0  0  0
    1.6909   21.1232  -20.2452 C   0  0  0  0  0  0  0  0  0  0  0  0
    1.1443   21.9325  -19.2359 C   0  0  0  0  0  0  0  0  0  0  0  0
   -0.0863   22.4689  -19.4947 C   0  0  0  0  0  0  0  0  0  0  0  0
   -0.7449   22.2069  -20.7112 C   0  0  0  0  0  0  0  0  0  0  0  0
   -1.9699   22.7675  -20.8764 F   0  0  0  0  0  0  0  0  0  0  0  0
    1.8990   22.1601  -18.0454 N   0  0  0  0  0  0  0  0  0  0  0  0
    2.5267   23.3353  -17.6520 C   0  0  0  0  0  0  0  0  0  0  0  0
    2.4346   24.3340  -18.4528 O   0  0  0  0  0  0  0  0  0  0  0  0
    2.0020   21.2642  -17.4569 H   0  0  0  0  0  0  0  0  0  0  0  0
    3.2892   23.5451  -16.4280 C   0  0  0  0  0  0  0  0  0  0  0  0
    4.4162   24.5716  -16.5022 C   0  0  0  0  0  0  0  0  0  0  0  0
    4.7645   23.1369  -16.5817 C   0  0  0  0  0  0  0  0  0  0  0  0
    2.7078   23.3347  -15.0774 C   0  0  0  0  0  0  0  0  0  0  0  0
    1.6743   22.5558  -15.1014 O   0  0  0  0  0  0  0  0  0  0  0  0
    3.1987   23.8860  -13.9156 N   0  0  0  0  0  0  0  0  0  0  0  0
    4.1132   24.4281  -13.9988 H   0  0  0  0  0  0  0  0  0  0  0  0
    2.7157   23.7807  -12.5647 C   0  0  0  0  0  0  0  0  0  0  0  0
    2.8889   22.7209  -11.8185 C   0  0  0  0  0  0  0  0  0  0  0  0
    2.3969   22.6056  -10.4324 C   0  0  0  0  0  0  0  0  0  0  0  0
    1.6586   23.7562   -9.8858 C   0  0  0  0  0  0  0  0  0  0  0  0
    0.3706   23.3138   -9.5270 F   0  0  0  0  0  0  0  0  0  0  0  0
    1.5088   24.8942  -10.7760 C   0  0  0  0  0  0  0  0  0  0  0  0
    1.9794   24.9192  -11.9843 C   0  0  0  0  0  0  0  0  0  0  0  0
   -0.8682   21.1734  -22.8702 O   0  0  0  0  0  0  0  0  0  0  0  0
   -4.0996   22.0858  -25.2119 C   0  0  0  0  0  0  0  0  0  0  0  0
   -2.9962   21.7879  -24.4507 C   0  0  0  0  0  0  0  0  0  0  0  0
   -1.7144   21.9867  -24.8992 C   0  0  0  0  0  0  0  0  0  0  0  0
   -0.6101   21.6786  -24.1047 C   0  0  0  0  0  0  0  0  0  0  0  0
    0.6191   21.9248  -24.6654 C   0  0  0  0  0  0  0  0  0  0  0  0
    0.7534   22.4425  -25.9291 C   0  0  0  0  0  0  0  0  0  0  0  0
   -0.3266   22.7183  -26.6427 N   0  0  0  0  0  0  0  0  0  0  0  0
   -1.5833   22.5069  -26.1691 C   0  0  0  0  0  0  0  0  0  0  0  0
   -2.6712   22.8160  -26.9586 C   0  0  0  0  0  0  0  0  0  0  0  0
   -3.9313   22.5997  -26.4660 C   0  0  0  0  0  0  0  0  0  0  0  0
   -5.7146   21.9889  -23.3594 C   0  0  0  0  0  0  0  0  0  0  0  0
   -5.3852   21.8689  -24.7177 O   0  0  0  0  0  0  0  0  0  0  0  0
   -4.9991   22.9240  -27.2912 O   0  0  0  0  0  0  0  0  0  0  0  0
   -4.8879   23.1959  -28.6526 C   0  0  0  0  0  0  0  0  0  0  0  0
   -5.7141   24.4127  -28.9803 C   0  0  0  0  0  0  0  0  0  0  0  0
   -4.9988   25.6869  -28.6333 C   0  0  0  0  0  0  0  0  0  0  0  0
   -5.4709   26.2195  -27.3951 N   0  0  0  0  0  0  0  0  0  0  0  0
   -6.6392   25.5968  -26.8634 C   0  0  0  0  0  0  0  0  0  0  0  0
   -6.4836   25.5842  -25.3397 C   0  0  0  0  0  0  0  0  0  0  0  0
   -5.3937   26.6219  -25.1453 C   0  0  0  0  0  0  0  0  0  0  0  0
   -4.4959   26.3133  -26.3524 C   0  0  0  0  0  0  0  0  0  0  0  0
 37 38  1  0  0  0
 38 27  1  0  0  0
 27 28  2  0  0  0
 28 29  1  0  0  0
 29 30  2  0  0  0
 30 26  1  0  0  0
 26  1  1  0  0  0
  1  2  2  0  0  0
  2  3  1  0  0  0
  3  4  2  0  0  0
  4  8  1  0  0  0
  8  9  1  0  0  0
  9 10  2  0  0  0
  9 12  1  0  0  0
 12 13  1  0  0  0
 13 14  1  0  0  0
 12 15  1  0  0  0
 15 16  2  0  0  0
 15 17  1  0  0  0
 17 19  1  0  0  0
 19 20  2  0  0  0
 20 21  1  0  0  0
 21 22  1  0  0  0
 22 23  1  0  0  0
 22 24  1  0  0  0
 24 25  2  0  0  0
  4  5  1  0  0  0
  5  6  2  0  0  0
  6  7  1  0  0  0
 30 31  1  0  0  0
 31 32  2  0  0  0
 32 33  1  0  0  0
 33 34  2  0  0  0
 34 35  1  0  0  0
 35 36  2  0  0  0
 36 39  1  0  0  0
 39 40  1  0  0  0
 40 41  1  0  0  0
 41 42  1  0  0  0
 42 43  1  0  0  0
 43 44  1  0  0  0
 44 45  1  0  0  0
 45 46  1  0  0  0
 46 47  1  0  0  0
 36 27  1  0  0  0
 47 43  1  0  0  0
 34 29  1  0  0  0
  6  1  1  0  0  0
 14 12  1  0  0  0
 25 19  1  0  0  0
  8 11  1  0  0  0
 17 18  1  0  0  0
M  END
> <minimizedAffinity>
-8.87741

> <CNNscore>
0.1924612820

> <CNNaffinity>
6.7223653793

> <CNN_VS>
1.2937951088

> <CNNaffinity_variance>
0.0564302504

$$$$
[H]C1=C([H])C([H])(F)C([H])([H])C([H])=C1N([H])C(=O)C1(C(=O)N([H])c2c([H])c([H])c(Oc3c([H])c([H])nc4c([H])c(OC([H])([H])C([H])([H])C([H])([H])N5C([H])([H])C([H])([H])C([H])([H])C5([H])[H])c(OC([H])([H])[H])c([H])c34)c(F)c2[H])C([H])([H])C1([H])[H]


 47 52  0  0  0  0  0  0  0  0999 V2000
   -6.2788   22.4516  -18.6597 C   0  0  0  0  0  0  0  0  0  0  0  0
   -7.0181   22.7366  -17.5199 C   0  0  0  0  0  0  0  0  0  0  0  0
   -7.4612   21.7315  -16.7000 C   0  0  0  0  0  0  0  0  0  0  0  0
   -7.2047   20.3734  -16.9492 C   0  0  0  0  0  0  0  0  0  0  0  0
   -6.4771   20.0943  -18.0725 C   0  0  0  0  0  0  0  0  0  0  0  0
   -6.0230   21.1292  -18.9121 C   0  0  0  0  0  0  0  0  0  0  0  0
   -5.2941   20.7615  -19.9964 F   0  0  0  0  0  0  0  0  0  0  0  0
   -7.7282   19.3934  -16.0525 N   0  0  0  0  0  0  0  0  0  0  0  0
   -8.9815   18.7950  -16.0892 C   0  0  0  0  0  0  0  0  0  0  0  0
   -9.7727   19.1714  -17.0269 O   0  0  0  0  0  0  0  0  0  0  0  0
   -7.0457   19.1791  -15.2477 H   0  0  0  0  0  0  0  0  0  0  0  0
   -9.4927   17.7923  -15.1636 C   0  0  0  0  0  0  0  0  0  0  0  0
   -8.6253   16.5522  -14.9651 C   0  0  0  0  0  0  0  0  0  0  0  0
   -9.7975   16.4552  -15.8609 C   0  0  0  0  0  0  0  0  0  0  0  0
  -10.3839   18.1344  -14.0256 C   0  0  0  0  0  0  0  0  0  0  0  0
  -11.4312   18.7958  -14.4011 O   0  0  0  0  0  0  0  0  0  0  0  0
  -10.1503   17.7911  -12.7133 N   0  0  0  0  0  0  0  0  0  0  0  0
   -9.3106   17.1592  -12.5319 H   0  0  0  0  0  0  0  0  0  0  0  0
  -10.9148   18.0821  -11.5300 C   0  0  0  0  0  0  0  0  0  0  0  0
  -11.7804   17.2516  -11.0095 C   0  0  0  0  0  0  0  0  0  0  0  0
  -12.5678   17.5428   -9.7963 C   0  0  0  0  0  0  0  0  0  0  0  0
  -12.3608   18.8555   -9.1624 C   0  0  0  0  0  0  0  0  0  0  0  0
  -13.5963   19.5314   -9.1521 F   0  0  0  0  0  0  0  0  0  0  0  0
  -11.3832   19.7202   -9.7999 C   0  0  0  0  0  0  0  0  0  0  0  0
  -10.7248   19.3853  -10.8659 C   0  0  0  0  0  0  0  0  0  0  0  0
   -5.8215   23.4451  -19.4959 O   0  0  0  0  0  0  0  0  0  0  0  0
   -6.0007   22.9183  -23.5516 C   0  0  0  0  0  0  0  0  0  0  0  0
   -5.9576   23.1222  -22.1943 C   0  0  0  0  0  0  0  0  0  0  0  0
   -6.6006   24.1701  -21.5845 C   0  0  0  0  0  0  0  0  0  0  0  0
   -6.5436   24.3533  -20.2028 C   0  0  0  0  0  0  0  0  0  0  0  0
   -7.2303   25.4371  -19.7130 C   0  0  0  0  0  0  0  0  0  0  0  0
   -7.9299   26.2874  -20.5317 C   0  0  0  0  0  0  0  0  0  0  0  0
   -7.9529   26.0697  -21.8370 N   0  0  0  0  0  0  0  0  0  0  0  0
   -7.3024   25.0224  -22.4100 C   0  0  0  0  0  0  0  0  0  0  0  0
   -7.3647   24.8453  -23.7764 C   0  0  0  0  0  0  0  0  0  0  0  0
   -6.7058   23.7835  -24.3385 C   0  0  0  0  0  0  0  0  0  0  0  0
   -4.1751   21.2704  -23.5816 C   0  0  0  0  0  0  0  0  0  0  0  0
   -5.3332   21.8401  -24.1313 O   0  0  0  0  0  0  0  0  0  0  0  0
   -6.7935   23.6402  -25.7162 O   0  0  0  0  0  0  0  0  0  0  0  0
   -6.7516   24.6973  -26.6221 C   0  0  0  0  0  0  0  0  0  0  0  0
   -5.3211   24.9409  -27.0281 C   0  0  0  0  0  0  0  0  0  0  0  0
   -4.8556   23.9560  -28.0620 C   0  0  0  0  0  0  0  0  0  0  0  0
   -3.7940   23.1451  -27.5569 N   0  0  0  0  0  0  0  0  0  0  0  0
   -2.7331   22.8801  -28.4734 C   0  0  0  0  0  0  0  0  0  0  0  0
   -1.4359   22.8577  -27.6595 C   0  0  0  0  0  0  0  0  0  0  0  0
   -1.9735   22.6872  -26.2508 C   0  0  0  0  0  0  0  0  0  0  0  0
   -3.2225   23.5782  -26.3190 C   0  0  0  0  0  0  0  0  0  0  0  0
 37 38  1  0  0  0
 38 27  1  0  0  0
 27 28  2  0  0  0
 28 29  1  0  0  0
 29 30  2  0  0  0
 30 26  1  0  0  0
 26  1  1  0  0  0
  1  2  2  0  0  0
  2  3  1  0  0  0
  3  4  2  0  0  0
  4  8  1  0  0  0
  8  9  1  0  0  0
  9 10  2  0  0  0
  9 12  1  0  0  0
 12 13  1  0  0  0
 13 14  1  0  0  0
 12 15  1  0  0  0
 15 16  2  0  0  0
 15 17  1  0  0  0
 17 19  1  0  0  0
 19 20  2  0  0  0
 20 21  1  0  0  0
 21 22  1  0  0  0
 22 23  1  0  0  0
 22 24  1  0  0  0
 24 25  2  0  0  0
  4  5  1  0  0  0
  5  6  2  0  0  0
  6  7  1  0  0  0
 30 31  1  0  0  0
 31 32  2  0  0  0
 32 33  1  0  0  0
 33 34  2  0  0  0
 34 35  1  0  0  0
 35 36  2  0  0  0
 36 39  1  0  0  0
 39 40  1  0  0  0
 40 41  1  0  0  0
 41 42  1  0  0  0
 42 43  1  0  0  0
 43 44  1  0  0  0
 44 45  1  0  0  0
 45 46  1  0  0  0
 46 47  1  0  0  0
 36 27  1  0  0  0
 47 43  1  0  0  0
 34 29  1  0  0  0
  6  1  1  0  0  0
 14 12  1  0  0  0
 25 19  1  0  0  0
  8 11  1  0  0  0
 17 18  1  0  0  0
M  END
> <minimizedAffinity>
-7.09594

> <CNNscore>
0.1518867612

> <CNNaffinity>
5.9899325371

> <CNN_VS>
0.9097914696

> <CNNaffinity_variance>
0.1678464711

$$$$
[H]C1=C([H])C([H])(F)C([H])([H])C([H])=C1N([H])C(=O)C1(C(=O)N([H])c2c([H])c([H])c(Oc3c([H])c([H])nc4c([H])c(OC([H])([H])C([H])([H])C([H])([H])N5C([H])([H])C([H])([H])C([H])([H])C5([H])[H])c(OC([H])([H])[H])c([H])c34)c(F)c2[H])C([H])([H])C1([H])[H]


 47 52  0  0  0  0  0  0  0  0999 V2000
   -1.7695   22.6797  -26.5471 C   0  0  0  0  0  0  0  0  0  0  0  0
   -2.5404   21.9338  -25.6661 C   0  0  0  0  0  0  0  0  0  0  0  0
   -2.0001   21.4324  -24.5104 C   0  0  0  0  0  0  0  0  0  0  0  0
   -0.6592   21.6332  -24.1441 C   0  0  0  0  0  0  0  0  0  0  0  0
    0.0988   22.3676  -25.0132 C   0  0  0  0  0  0  0  0  0  0  0  0
   -0.4595   22.8816  -26.1990 C   0  0  0  0  0  0  0  0  0  0  0  0
    0.3617   23.6126  -26.9949 F   0  0  0  0  0  0  0  0  0  0  0  0
   -0.1771   21.0514  -22.9327 N   0  0  0  0  0  0  0  0  0  0  0  0
   -0.2936   21.5582  -21.6444 C   0  0  0  0  0  0  0  0  0  0  0  0
   -0.8906   22.6876  -21.5211 O   0  0  0  0  0  0  0  0  0  0  0  0
    0.3788   20.1472  -23.1140 H   0  0  0  0  0  0  0  0  0  0  0  0
    0.2039   20.9431  -20.4207 C   0  0  0  0  0  0  0  0  0  0  0  0
    0.0557   19.4275  -20.3184 C   0  0  0  0  0  0  0  0  0  0  0  0
   -0.9175   20.2798  -19.6026 C   0  0  0  0  0  0  0  0  0  0  0  0
    1.3119   21.5294  -19.6237 C   0  0  0  0  0  0  0  0  0  0  0  0
    2.4763   21.2278  -20.1017 O   0  0  0  0  0  0  0  0  0  0  0  0
    1.1459   22.3152  -18.5059 N   0  0  0  0  0  0  0  0  0  0  0  0
    0.1434   22.5839  -18.2612 H   0  0  0  0  0  0  0  0  0  0  0  0
    2.1272   22.9148  -17.6417 C   0  0  0  0  0  0  0  0  0  0  0  0
    2.8664   23.9355  -17.9904 C   0  0  0  0  0  0  0  0  0  0  0  0
    3.8744   24.5559  -17.1097 C   0  0  0  0  0  0  0  0  0  0  0  0
    4.0505   23.9649  -15.7727 C   0  0  0  0  0  0  0  0  0  0  0  0
    5.3878   23.5379  -15.6604 F   0  0  0  0  0  0  0  0  0  0  0  0
    3.1925   22.8351  -15.4611 C   0  0  0  0  0  0  0  0  0  0  0  0
    2.3223   22.3517  -16.2925 C   0  0  0  0  0  0  0  0  0  0  0  0
   -2.2919   23.1950  -27.7120 O   0  0  0  0  0  0  0  0  0  0  0  0
   -4.6178   25.4298  -25.1913 C   0  0  0  0  0  0  0  0  0  0  0  0
   -3.8636   24.6742  -26.0549 C   0  0  0  0  0  0  0  0  0  0  0  0
   -4.3856   24.1127  -27.1933 C   0  0  0  0  0  0  0  0  0  0  0  0
   -3.5969   23.3514  -28.0560 C   0  0  0  0  0  0  0  0  0  0  0  0
   -4.2348   22.8459  -29.1621 C   0  0  0  0  0  0  0  0  0  0  0  0
   -5.5657   23.0755  -29.4046 C   0  0  0  0  0  0  0  0  0  0  0  0
   -6.2705   23.8052  -28.5546 N   0  0  0  0  0  0  0  0  0  0  0  0
   -5.7229   24.3454  -27.4336 C   0  0  0  0  0  0  0  0  0  0  0  0
   -6.5073   25.0993  -26.5859 C   0  0  0  0  0  0  0  0  0  0  0  0
   -5.9400   25.6392  -25.4616 C   0  0  0  0  0  0  0  0  0  0  0  0
   -3.4986   25.2088  -23.0124 C   0  0  0  0  0  0  0  0  0  0  0  0
   -4.0479   25.9829  -24.0453 O   0  0  0  0  0  0  0  0  0  0  0  0
   -6.7628   26.3914  -24.6348 O   0  0  0  0  0  0  0  0  0  0  0  0
   -7.1600   26.0052  -23.3570 C   0  0  0  0  0  0  0  0  0  0  0  0
   -7.8823   24.6856  -23.4442 C   0  0  0  0  0  0  0  0  0  0  0  0
   -8.0369   24.0402  -22.0969 C   0  0  0  0  0  0  0  0  0  0  0  0
   -7.1478   22.9316  -21.9540 N   0  0  0  0  0  0  0  0  0  0  0  0
   -6.6919   22.3478  -23.1733 C   0  0  0  0  0  0  0  0  0  0  0  0
   -5.2421   21.9105  -22.9436 C   0  0  0  0  0  0  0  0  0  0  0  0
   -5.1692   21.9128  -21.4280 C   0  0  0  0  0  0  0  0  0  0  0  0
   -6.0146   23.1547  -21.1097 C   0  0  0  0  0  0  0  0  0  0  0  0
 37 38  1  0  0  0
 38 27  1  0  0  0
 27 28  2  0  0  0
 28 29  1  0  0  0
 29 30  2  0  0  0
 30 26  1  0  0  0
 26  1  1  0  0  0
  1  2  2  0  0  0
  2  3  1  0  0  0
  3  4  2  0  0  0
  4  8  1  0  0  0
  8  9  1  0  0  0
  9 10  2  0  0  0
  9 12  1  0  0  0
 12 13  1  0  0  0
 13 14  1  0  0  0
 12 15  1  0  0  0
 15 16  2  0  0  0
 15 17  1  0  0  0
 17 19  1  0  0  0
 19 20  2  0  0  0
 20 21  1  0  0  0
 21 22  1  0  0  0
 22 23  1  0  0  0
 22 24  1  0  0  0
 24 25  2  0  0  0
  4  5  1  0  0  0
  5  6  2  0  0  0
  6  7  1  0  0  0
 30 31  1  0  0  0
 31 32  2  0  0  0
 32 33  1  0  0  0
 33 34  2  0  0  0
 34 35  1  0  0  0
 35 36  2  0  0  0
 36 39  1  0  0  0
 39 40  1  0  0  0
 40 41  1  0  0  0
 41 42  1  0  0  0
 42 43  1  0  0  0
 43 44  1  0  0  0
 44 45  1  0  0  0
 45 46  1  0  0  0
 46 47  1  0  0  0
 36 27  1  0  0  0
 47 43  1  0  0  0
 34 29  1  0  0  0
  6  1  1  0  0  0
 14 12  1  0  0  0
 25 19  1  0  0  0
  8 11  1  0  0  0
 17 18  1  0  0  0
M  END
> <minimizedAffinity>
-9.27279

> <CNNscore>
0.1363335997

> <CNNaffinity>
7.0010938644

> <CNN_VS>
0.9544843435

> <CNNaffinity_variance>
0.6363018751

$$$$
[H]C1=C([H])C([H])(F)C([H])([H])C([H])=C1N([H])C(=O)C1(C(=O)N([H])c2c([H])c([H])c(Oc3c([H])c([H])nc4c([H])c(OC([H])([H])C([H])([H])C([H])([H])N5C([H])([H])C([H])([H])C([H])([H])C5([H])[H])c(OC([H])([H])[H])c([H])c34)c(F)c2[H])C([H])([H])C1([H])[H]


 47 52  0  0  0  0  0  0  0  0999 V2000
    0.4687   21.1038  -21.3705 C   0  0  0  0  0  0  0  0  0  0  0  0
    1.8304   20.8412  -21.3089 C   0  0  0  0  0  0  0  0  0  0  0  0
    2.5649   21.1928  -20.2063 C   0  0  0  0  0  0  0  0  0  0  0  0
    2.0049   21.8292  -19.0866 C   0  0  0  0  0  0  0  0  0  0  0  0
    0.6638   22.0877  -19.1491 C   0  0  0  0  0  0  0  0  0  0  0  0
   -0.0877   21.7246  -20.2828 C   0  0  0  0  0  0  0  0  0  0  0  0
   -1.4153   22.0051  -20.2520 F   0  0  0  0  0  0  0  0  0  0  0  0
    2.8529   22.1809  -17.9931 N   0  0  0  0  0  0  0  0  0  0  0  0
    3.1673   23.4564  -17.5410 C   0  0  0  0  0  0  0  0  0  0  0  0
    2.6507   24.4395  -18.1841 O   0  0  0  0  0  0  0  0  0  0  0  0
    3.3132   21.3159  -17.5465 H   0  0  0  0  0  0  0  0  0  0  0  0
    4.0337   23.7909  -16.4181 C   0  0  0  0  0  0  0  0  0  0  0  0
    4.9946   24.9575  -16.6308 C   0  0  0  0  0  0  0  0  0  0  0  0
    5.5221   23.5811  -16.7460 C   0  0  0  0  0  0  0  0  0  0  0  0
    3.6500   23.5317  -15.0067 C   0  0  0  0  0  0  0  0  0  0  0  0
    4.5253   22.8110  -14.3823 O   0  0  0  0  0  0  0  0  0  0  0  0
    2.5046   24.0006  -14.4045 N   0  0  0  0  0  0  0  0  0  0  0  0
    1.9062   24.6685  -14.9816 H   0  0  0  0  0  0  0  0  0  0  0  0
    2.0126   23.7998  -13.0678 C   0  0  0  0  0  0  0  0  0  0  0  0
    2.2977   24.5937  -12.0686 C   0  0  0  0  0  0  0  0  0  0  0  0
    1.7968   24.3945  -10.6953 C   0  0  0  0  0  0  0  0  0  0  0  0
    0.9416   23.2196  -10.4579 C   0  0  0  0  0  0  0  0  0  0  0  0
    1.5682   22.4170   -9.4851 F   0  0  0  0  0  0  0  0  0  0  0  0
    0.6712   22.3878  -11.6176 C   0  0  0  0  0  0  0  0  0  0  0  0
    1.1465   22.6368  -12.7983 C   0  0  0  0  0  0  0  0  0  0  0  0
   -0.2888   20.7572  -22.4666 O   0  0  0  0  0  0  0  0  0  0  0  0
   -4.1162   21.8412  -23.4330 C   0  0  0  0  0  0  0  0  0  0  0  0
   -2.8222   21.4900  -23.1368 C   0  0  0  0  0  0  0  0  0  0  0  0
   -1.7655   21.8092  -23.9523 C   0  0  0  0  0  0  0  0  0  0  0  0
   -0.4594   21.4432  -23.6268 C   0  0  0  0  0  0  0  0  0  0  0  0
    0.5103   21.8226  -24.5222 C   0  0  0  0  0  0  0  0  0  0  0  0
    0.2133   22.5194  -25.6664 C   0  0  0  0  0  0  0  0  0  0  0  0
   -1.0428   22.8431  -25.9295 N   0  0  0  0  0  0  0  0  0  0  0  0
   -2.0675   22.5091  -25.1009 C   0  0  0  0  0  0  0  0  0  0  0  0
   -3.3564   22.8761  -25.4270 C   0  0  0  0  0  0  0  0  0  0  0  0
   -4.3779   22.5344  -24.5803 C   0  0  0  0  0  0  0  0  0  0  0  0
   -5.4432   22.1956  -21.3927 C   0  0  0  0  0  0  0  0  0  0  0  0
   -5.1613   21.4975  -22.5764 O   0  0  0  0  0  0  0  0  0  0  0  0
   -5.6599   22.9224  -24.9441 O   0  0  0  0  0  0  0  0  0  0  0  0
   -6.2339   24.1487  -24.6176 C   0  0  0  0  0  0  0  0  0  0  0  0
   -6.4771   24.9303  -25.8827 C   0  0  0  0  0  0  0  0  0  0  0  0
   -6.7180   24.0306  -27.0608 C   0  0  0  0  0  0  0  0  0  0  0  0
   -5.7802   24.2915  -28.1058 N   0  0  0  0  0  0  0  0  0  0  0  0
   -5.7078   23.2997  -29.1290 C   0  0  0  0  0  0  0  0  0  0  0  0
   -5.4561   24.0370  -30.4477 C   0  0  0  0  0  0  0  0  0  0  0  0
   -4.9739   25.3852  -29.9453 C   0  0  0  0  0  0  0  0  0  0  0  0
   -5.8920   25.5745  -28.7289 C   0  0  0  0  0  0  0  0  0  0  0  0
 37 38  1  0  0  0
 38 27  1  0  0  0
 27 28  2  0  0  0
 28 29  1  0  0  0
 29 30  2  0  0  0
 30 26  1  0  0  0
 26  1  1  0  0  0
  1  2  2  0  0  0
  2  3  1  0  0  0
  3  4  2  0  0  0
  4  8  1  0  0  0
  8  9  1  0  0  0
  9 10  2  0  0  0
  9 12  1  0  0  0
 12 13  1  0  0  0
 13 14  1  0  0  0
 12 15  1  0  0  0
 15 16  2  0  0  0
 15 17  1  0  0  0
 17 19  1  0  0  0
 19 20  2  0  0  0
 20 21  1  0  0  0
 21 22  1  0  0  0
 22 23  1  0  0  0
 22 24  1  0  0  0
 24 25  2  0  0  0
  4  5  1  0  0  0
  5  6  2  0  0  0
  6  7  1  0  0  0
 30 31  1  0  0  0
 31 32  2  0  0  0
 32 33  1  0  0  0
 33 34  2  0  0  0
 34 35  1  0  0  0
 35 36  2  0  0  0
 36 39  1  0  0  0
 39 40  1  0  0  0
 40 41  1  0  0  0
 41 42  1  0  0  0
 42 43  1  0  0  0
 43 44  1  0  0  0
 44 45  1  0  0  0
 45 46  1  0  0  0
 46 47  1  0  0  0
 36 27  1  0  0  0
 47 43  1  0  0  0
 34 29  1  0  0  0
  6  1  1  0  0  0
 14 12  1  0  0  0
 25 19  1  0  0  0
  8 11  1  0  0  0
 17 18  1  0  0  0
M  END
> <minimizedAffinity>
-8.46688

> <CNNscore>
0.1273008883

> <CNNaffinity>
6.4667053223

> <CNN_VS>
0.8232173324

> <CNNaffinity_variance>
0.1251691878

$$$$
[H]C1=C([H])C([H])(F)C([H])([H])C([H])=C1N([H])C(=O)C1(C(=O)N([H])c2c([H])c([H])c(Oc3c([H])c([H])nc4c([H])c(OC([H])([H])C([H])([H])C([H])([H])N5C([H])([H])C([H])([H])C([H])([H])C5([H])[H])c(OC([H])([H])[H])c([H])c34)c(F)c2[H])C([H])([H])C1([H])[H]


 47 52  0  0  0  0  0  0  0  0999 V2000
   -9.7233   21.7771  -18.8987 C   0  0  0  0  0  0  0  0  0  0  0  0
  -10.0523   22.9186  -19.6167 C   0  0  0  0  0  0  0  0  0  0  0  0
   -9.3548   23.2648  -20.7448 C   0  0  0  0  0  0  0  0  0  0  0  0
   -8.2825   22.5067  -21.2426 C   0  0  0  0  0  0  0  0  0  0  0  0
   -7.9594   21.3831  -20.5340 C   0  0  0  0  0  0  0  0  0  0  0  0
   -8.6783   21.0301  -19.3761 C   0  0  0  0  0  0  0  0  0  0  0  0
   -8.2992   19.8900  -18.7447 F   0  0  0  0  0  0  0  0  0  0  0  0
   -7.5980   22.9585  -22.4114 N   0  0  0  0  0  0  0  0  0  0  0  0
   -6.5987   23.9205  -22.4892 C   0  0  0  0  0  0  0  0  0  0  0  0
   -6.2542   24.4841  -21.3888 O   0  0  0  0  0  0  0  0  0  0  0  0
   -7.9865   22.5031  -23.3064 H   0  0  0  0  0  0  0  0  0  0  0  0
   -5.9108   24.3628  -23.6953 C   0  0  0  0  0  0  0  0  0  0  0  0
   -5.7464   25.8707  -23.8643 C   0  0  0  0  0  0  0  0  0  0  0  0
   -6.8223   25.1912  -24.6171 C   0  0  0  0  0  0  0  0  0  0  0  0
   -4.8936   23.5301  -24.3870 C   0  0  0  0  0  0  0  0  0  0  0  0
   -5.2805   22.3044  -24.5392 O   0  0  0  0  0  0  0  0  0  0  0  0
   -3.6747   23.9877  -24.8336 N   0  0  0  0  0  0  0  0  0  0  0  0
   -3.5025   25.0365  -24.7468 H   0  0  0  0  0  0  0  0  0  0  0  0
   -2.6042   23.2833  -25.4871 C   0  0  0  0  0  0  0  0  0  0  0  0
   -1.6159   22.7180  -24.8439 C   0  0  0  0  0  0  0  0  0  0  0  0
   -0.5148   21.9938  -25.5069 C   0  0  0  0  0  0  0  0  0  0  0  0
   -0.5442   21.9307  -26.9777 C   0  0  0  0  0  0  0  0  0  0  0  0
    0.6339   22.5322  -27.4609 F   0  0  0  0  0  0  0  0  0  0  0  0
   -1.6739   22.5821  -27.6175 C   0  0  0  0  0  0  0  0  0  0  0  0
   -2.6085   23.1946  -26.9593 C   0  0  0  0  0  0  0  0  0  0  0  0
  -10.4117   21.4090  -17.7647 O   0  0  0  0  0  0  0  0  0  0  0  0
  -11.7748   18.0333  -15.8927 C   0  0  0  0  0  0  0  0  0  0  0  0
  -11.3006   19.1729  -16.4943 C   0  0  0  0  0  0  0  0  0  0  0  0
  -10.3891   20.0021  -15.8899 C   0  0  0  0  0  0  0  0  0  0  0  0
   -9.9206   21.1528  -16.5241 C   0  0  0  0  0  0  0  0  0  0  0  0
   -9.0095   21.8982  -15.8169 C   0  0  0  0  0  0  0  0  0  0  0  0
   -8.5852   21.5337  -14.5639 C   0  0  0  0  0  0  0  0  0  0  0  0
   -9.0603   20.4317  -14.0057 N   0  0  0  0  0  0  0  0  0  0  0  0
   -9.9652   19.6329  -14.6312 C   0  0  0  0  0  0  0  0  0  0  0  0
  -10.4226   18.4951  -13.9999 C   0  0  0  0  0  0  0  0  0  0  0  0
  -11.3325   17.6990  -14.6446 C   0  0  0  0  0  0  0  0  0  0  0  0
  -13.6136   17.6999  -17.4918 C   0  0  0  0  0  0  0  0  0  0  0  0
  -12.7006   17.2176  -16.5422 O   0  0  0  0  0  0  0  0  0  0  0  0
  -11.7676   16.5633  -13.9758 O   0  0  0  0  0  0  0  0  0  0  0  0
  -12.4134   16.5752  -12.7418 C   0  0  0  0  0  0  0  0  0  0  0  0
  -11.5997   15.7807  -11.7532 C   0  0  0  0  0  0  0  0  0  0  0  0
  -11.7271   16.3217  -10.3580 C   0  0  0  0  0  0  0  0  0  0  0  0
  -11.8517   17.7444  -10.3688 N   0  0  0  0  0  0  0  0  0  0  0  0
  -12.7361   18.2917   -9.3921 C   0  0  0  0  0  0  0  0  0  0  0  0
  -12.1253   19.6185   -8.9311 C   0  0  0  0  0  0  0  0  0  0  0  0
  -11.1361   19.8927  -10.0487 C   0  0  0  0  0  0  0  0  0  0  0  0
  -10.6207   18.4717  -10.3202 C   0  0  0  0  0  0  0  0  0  0  0  0
 37 38  1  0  0  0
 38 27  1  0  0  0
 27 28  2  0  0  0
 28 29  1  0  0  0
 29 30  2  0  0  0
 30 26  1  0  0  0
 26  1  1  0  0  0
  1  2  2  0  0  0
  2  3  1  0  0  0
  3  4  2  0  0  0
  4  8  1  0  0  0
  8  9  1  0  0  0
  9 10  2  0  0  0
  9 12  1  0  0  0
 12 13  1  0  0  0
 13 14  1  0  0  0
 12 15  1  0  0  0
 15 16  2  0  0  0
 15 17  1  0  0  0
 17 19  1  0  0  0
 19 20  2  0  0  0
 20 21  1  0  0  0
 21 22  1  0  0  0
 22 23  1  0  0  0
 22 24  1  0  0  0
 24 25  2  0  0  0
  4  5  1  0  0  0
  5  6  2  0  0  0
  6  7  1  0  0  0
 30 31  1  0  0  0
 31 32  2  0  0  0
 32 33  1  0  0  0
 33 34  2  0  0  0
 34 35  1  0  0  0
 35 36  2  0  0  0
 36 39  1  0  0  0
 39 40  1  0  0  0
 40 41  1  0  0  0
 41 42  1  0  0  0
 42 43  1  0  0  0
 43 44  1  0  0  0
 44 45  1  0  0  0
 45 46  1  0  0  0
 46 47  1  0  0  0
 36 27  1  0  0  0
 47 43  1  0  0  0
 34 29  1  0  0  0
  6  1  1  0  0  0
 14 12  1  0  0  0
 25 19  1  0  0  0
  8 11  1  0  0  0
 17 18  1  0  0  0
M  END
> <minimizedAffinity>
-7.13189

> <CNNscore>
0.0790631101

> <CNNaffinity>
5.6929016113

> <CNN_VS>
0.4500985146

> <CNNaffinity_variance>
0.0585169718

$$$$
[H]C1=C([H])C([H])(F)C([H])([H])C([H])=C1N([H])C(=O)C1(C(=O)N([H])c2c([H])c([H])c(Oc3c([H])c([H])nc4c([H])c(OC([H])([H])C([H])([H])C([H])([H])N5C([H])([H])C([H])([H])C([H])([H])C5([H])[H])c(OC([H])([H])[H])c([H])c34)c(F)c2[H])C([H])([H])C1([H])[H]


 47 52  0  0  0  0  0  0  0  0999 V2000
   -0.9049   21.4280  -18.4681 C   0  0  0  0  0  0  0  0  0  0  0  0
   -2.2118   20.9857  -18.3158 C   0  0  0  0  0  0  0  0  0  0  0  0
   -3.2018   21.4139  -19.1616 C   0  0  0  0  0  0  0  0  0  0  0  0
   -2.9695   22.3097  -20.2179 C   0  0  0  0  0  0  0  0  0  0  0  0
   -1.6820   22.7448  -20.3662 C   0  0  0  0  0  0  0  0  0  0  0  0
   -0.6675   22.3025  -19.4961 C   0  0  0  0  0  0  0  0  0  0  0  0
    0.5845   22.7733  -19.7270 F   0  0  0  0  0  0  0  0  0  0  0  0
   -4.0677   22.7200  -21.0330 N   0  0  0  0  0  0  0  0  0  0  0  0
   -4.4168   22.2390  -22.2887 C   0  0  0  0  0  0  0  0  0  0  0  0
   -3.6615   21.3296  -22.7881 O   0  0  0  0  0  0  0  0  0  0  0  0
   -4.6140   23.5359  -20.5910 H   0  0  0  0  0  0  0  0  0  0  0  0
   -5.5468   22.6712  -23.1010 C   0  0  0  0  0  0  0  0  0  0  0  0
   -6.8059   23.0818  -22.3424 C   0  0  0  0  0  0  0  0  0  0  0  0
   -6.7610   21.7376  -22.9565 C   0  0  0  0  0  0  0  0  0  0  0  0
   -5.3784   23.2941  -24.4390 C   0  0  0  0  0  0  0  0  0  0  0  0
   -5.8510   24.4982  -24.4853 O   0  0  0  0  0  0  0  0  0  0  0  0
   -4.7828   22.6853  -25.5203 N   0  0  0  0  0  0  0  0  0  0  0  0
   -4.3382   21.7327  -25.3412 H   0  0  0  0  0  0  0  0  0  0  0  0
   -4.5844   23.1673  -26.8610 C   0  0  0  0  0  0  0  0  0  0  0  0
   -3.4045   23.3297  -27.4008 C   0  0  0  0  0  0  0  0  0  0  0  0
   -3.1931   23.8233  -28.7749 C   0  0  0  0  0  0  0  0  0  0  0  0
   -4.3937   24.1599  -29.5579 C   0  0  0  0  0  0  0  0  0  0  0  0
   -4.3098   25.5191  -29.9171 F   0  0  0  0  0  0  0  0  0  0  0  0
   -5.6659   23.9518  -28.8886 C   0  0  0  0  0  0  0  0  0  0  0  0
   -5.7669   23.5056  -27.6750 C   0  0  0  0  0  0  0  0  0  0  0  0
    0.1055   21.0092  -17.6320 O   0  0  0  0  0  0  0  0  0  0  0  0
    3.7051   22.9117  -17.2064 C   0  0  0  0  0  0  0  0  0  0  0  0
    2.4928   22.2766  -17.3175 C   0  0  0  0  0  0  0  0  0  0  0  0
    1.6459   22.1104  -16.2503 C   0  0  0  0  0  0  0  0  0  0  0  0
    0.4178   21.4640  -16.3905 C   0  0  0  0  0  0  0  0  0  0  0  0
   -0.3399   21.3627  -15.2496 C   0  0  0  0  0  0  0  0  0  0  0  0
    0.0842   21.8666  -14.0458 C   0  0  0  0  0  0  0  0  0  0  0  0
    1.2585   22.4720  -13.9656 N   0  0  0  0  0  0  0  0  0  0  0  0
    2.0752   22.6179  -15.0426 C   0  0  0  0  0  0  0  0  0  0  0  0
    3.2871   23.2603  -14.8981 C   0  0  0  0  0  0  0  0  0  0  0  0
    4.0978   23.4017  -15.9936 C   0  0  0  0  0  0  0  0  0  0  0  0
    4.7019   22.0619  -19.2881 C   0  0  0  0  0  0  0  0  0  0  0  0
    4.5357   23.0600  -18.3165 O   0  0  0  0  0  0  0  0  0  0  0  0
    5.3085   24.0541  -15.8066 O   0  0  0  0  0  0  0  0  0  0  0  0
    6.5560   23.4433  -15.9081 C   0  0  0  0  0  0  0  0  0  0  0  0
    6.9148   22.8335  -14.5776 C   0  0  0  0  0  0  0  0  0  0  0  0
    6.8891   21.3325  -14.6230 C   0  0  0  0  0  0  0  0  0  0  0  0
    6.6831   20.7834  -13.3208 N   0  0  0  0  0  0  0  0  0  0  0  0
    7.5894   21.2313  -12.3140 C   0  0  0  0  0  0  0  0  0  0  0  0
    6.7925   21.3329  -11.0100 C   0  0  0  0  0  0  0  0  0  0  0  0
    5.5728   20.4937  -11.3427 C   0  0  0  0  0  0  0  0  0  0  0  0
    5.3515   20.8921  -12.8092 C   0  0  0  0  0  0  0  0  0  0  0  0
 37 38  1  0  0  0
 38 27  1  0  0  0
 27 28  2  0  0  0
 28 29  1  0  0  0
 29 30  2  0  0  0
 30 26  1  0  0  0
 26  1  1  0  0  0
  1  2  2  0  0  0
  2  3  1  0  0  0
  3  4  2  0  0  0
  4  8  1  0  0  0
  8  9  1  0  0  0
  9 10  2  0  0  0
  9 12  1  0  0  0
 12 13  1  0  0  0
 13 14  1  0  0  0
 12 15  1  0  0  0
 15 16  2  0  0  0
 15 17  1  0  0  0
 17 19  1  0  0  0
 19 20  2  0  0  0
 20 21  1  0  0  0
 21 22  1  0  0  0
 22 23  1  0  0  0
 22 24  1  0  0  0
 24 25  2  0  0  0
  4  5  1  0  0  0
  5  6  2  0  0  0
  6  7  1  0  0  0
 30 31  1  0  0  0
 31 32  2  0  0  0
 32 33  1  0  0  0
 33 34  2  0  0  0
 34 35  1  0  0  0
 35 36  2  0  0  0
 36 39  1  0  0  0
 39 40  1  0  0  0
 40 41  1  0  0  0
 41 42  1  0  0  0
 42 43  1  0  0  0
 43 44  1  0  0  0
 44 45  1  0  0  0
 45 46  1  0  0  0
 46 47  1  0  0  0
 36 27  1  0  0  0
 47 43  1  0  0  0
 34 29  1  0  0  0
  6  1  1  0  0  0
 14 12  1  0  0  0
 25 19  1  0  0  0
  8 11  1  0  0  0
 17 18  1  0  0  0
M  END
> <minimizedAffinity>
-7.00304

> <CNNscore>
0.0763368756

> <CNNaffinity>
6.2972054482

> <CNN_VS>
0.4807089865

> <CNNaffinity_variance>
0.1283296198

$$$$
[H]N=C(c1c([H])c([H])c(C([H])([H])N([H])C(=O)[C@@]([H])(N([H])C(=O)[C@@]([H])(N([H])C(=O)[C@@]([H])(N([H])C(=O)[C@@]([H])(N([H])C(=O)[C@@]([H])(N([H])C(=O)[C@@]([H])(N([H])C(=O)[C@@]([H])(N([H])C(=O)C([H])([H])[H])C([H])(C([H])([H])[H])C([H])([H])[H])C([H])([H])C([H])([H])C(=O)N([H])[H])C([H])([H])C([H])([H])C(=O)N([H])[H])C([H])([H])C([H])(C([H])([H])[H])C([H])([H])[H])C([H])([H])C([H])([H])C(=O)N([H])[H])C([H])([H])C([H])([H])C(=O)N([H])[H])C([H])([H])C([H])([H])C([H])([H])N([H])C(=N[H])N([H])[H])c([H])c1[H])N([H])[H]


 99 99  0  0  0  0  0  0  0  0999 V2000
   -5.1234   23.4457  -24.8029 C   0  0  0  0  0  0  0  0  0  0  0  0
   -4.1179   22.5872  -24.0945 C   0  0  0  0  0  0  0  0  0  0  0  0
   -4.4381   21.9333  -23.0947 O   0  0  0  0  0  0  0  0  0  0  0  0
   -2.8353   22.5842  -24.6464 N   0  0  0  0  0  0  0  0  0  0  0  0
   -2.6760   23.1989  -25.5197 H   0  0  0  0  0  0  0  0  0  0  0  0
   -1.6379   21.8924  -24.2506 C   0  0  0  0  0  0  0  0  0  0  0  0
   -1.1521   22.3325  -22.9011 C   0  0  0  0  0  0  0  0  0  0  0  0
   -1.1940   23.6047  -22.7513 O   0  0  0  0  0  0  0  0  0  0  0  0
   -0.7152   21.4669  -21.9016 N   0  0  0  0  0  0  0  0  0  0  0  0
   -0.7200   22.6356  -21.0944 H   0  0  0  0  0  0  0  0  0  0  0  0
   -0.2554   20.8347  -20.7697 C   0  0  0  0  0  0  0  0  0  0  0  0
    1.0590   21.4923  -20.3144 C   0  0  0  0  0  0  0  0  0  0  0  0
    2.0096   21.1002  -21.1127 O   0  0  0  0  0  0  0  0  0  0  0  0
    1.2754   22.3149  -19.3007 N   0  0  0  0  0  0  0  0  0  0  0  0
    2.6122   22.3830  -19.6548 H   0  0  0  0  0  0  0  0  0  0  0  0
    1.5811   23.1876  -18.2480 C   0  0  0  0  0  0  0  0  0  0  0  0
    3.0334   23.4302  -18.0626 C   0  0  0  0  0  0  0  0  0  0  0  0
    3.5201   24.3546  -17.1474 C   0  0  0  0  0  0  0  0  0  0  0  0
    4.8436   24.4913  -16.9290 C   0  0  0  0  0  0  0  0  0  0  0  0
    5.7676   23.6942  -17.6236 C   0  0  0  0  0  0  0  0  0  0  0  0
    5.2732   22.7803  -18.5343 C   0  0  0  0  0  0  0  0  0  0  0  0
    3.9236   22.6305  -18.7704 C   0  0  0  0  0  0  0  0  0  0  0  0
    7.1703   23.8486  -17.3178 C   0  0  0  0  0  0  0  0  0  0  0  0
    8.1289   23.1522  -18.1098 N   0  0  0  0  0  0  0  0  0  0  0  0
    7.6089   24.6097  -16.3689 N   0  0  0  0  0  0  0  0  0  0  0  0
    8.0168   22.1506  -18.3517 H   0  0  0  0  0  0  0  0  0  0  0  0
    8.9642   23.6633  -18.4451 H   0  0  0  0  0  0  0  0  0  0  0  0
    8.6420   24.6827  -16.1920 H   0  0  0  0  0  0  0  0  0  0  0  0
    0.1065   19.4183  -21.2462 C   0  0  0  0  0  0  0  0  0  0  0  0
    0.0708   18.3012  -20.3014 C   0  0  0  0  0  0  0  0  0  0  0  0
    0.4340   16.9559  -20.7991 C   0  0  0  0  0  0  0  0  0  0  0  0
    0.1110   15.7750  -20.1217 N   0  0  0  0  0  0  0  0  0  0  0  0
    0.8412   14.9828  -20.1206 H   0  0  0  0  0  0  0  0  0  0  0  0
   -1.0642   15.4627  -19.4279 C   0  0  0  0  0  0  0  0  0  0  0  0
   -2.3567   15.5147  -20.0056 N   0  0  0  0  0  0  0  0  0  0  0  0
   -0.9807   15.1176  -18.1710 N   0  0  0  0  0  0  0  0  0  0  0  0
   -3.0976   14.9006  -19.6213 H   0  0  0  0  0  0  0  0  0  0  0  0
   -2.6331   16.1329  -20.8023 H   0  0  0  0  0  0  0  0  0  0  0  0
   -0.0863   15.0652  -17.6726 H   0  0  0  0  0  0  0  0  0  0  0  0
   -0.5741   22.2625  -25.2822 C   0  0  0  0  0  0  0  0  0  0  0  0
   -1.1524   22.6359  -26.6222 C   0  0  0  0  0  0  0  0  0  0  0  0
   -0.0962   22.7710  -27.6635 C   0  0  0  0  0  0  0  0  0  0  0  0
   -0.4715   23.3890  -28.9146 N   0  0  0  0  0  0  0  0  0  0  0  0
    1.0759   22.4067  -27.5632 O   0  0  0  0  0  0  0  0  0  0  0  0
   -1.1984   24.1160  -28.9226 H   0  0  0  0  0  0  0  0  0  0  0  0
    0.0271   23.0554  -29.7636 H   0  0  0  0  0  0  0  0  0  0  0  0
   -6.6852   25.3368  -23.5178 C   0  0  0  0  0  0  0  0  0  0  0  0
   -6.9905   26.4454  -23.9263 O   0  0  0  0  0  0  0  0  0  0  0  0
   -5.9146   24.3374  -24.0858 N   0  0  0  0  0  0  0  0  0  0  0  0
   -5.7974   25.2188  -25.1830 H   0  0  0  0  0  0  0  0  0  0  0  0
   -7.2828   25.0220  -22.1179 C   0  0  0  0  0  0  0  0  0  0  0  0
   -8.4275   25.7348  -21.7636 N   0  0  0  0  0  0  0  0  0  0  0  0
   -8.9907   26.2793  -20.6037 C   0  0  0  0  0  0  0  0  0  0  0  0
   -8.4163   26.2160  -19.4975 O   0  0  0  0  0  0  0  0  0  0  0  0
   -9.0643   25.9168  -22.6505 H   0  0  0  0  0  0  0  0  0  0  0  0
  -10.3162   26.9432  -20.6808 C   0  0  0  0  0  0  0  0  0  0  0  0
  -11.3794   26.2181  -20.1666 N   0  0  0  0  0  0  0  0  0  0  0  0
  -12.0359   25.0352  -20.5951 C   0  0  0  0  0  0  0  0  0  0  0  0
  -11.5907   24.4638  -21.6296 O   0  0  0  0  0  0  0  0  0  0  0  0
  -11.7619   26.5504  -19.1857 H   0  0  0  0  0  0  0  0  0  0  0  0
  -13.1672   24.4619  -19.8635 C   0  0  0  0  0  0  0  0  0  0  0  0
  -12.7459   23.2427  -19.2114 N   0  0  0  0  0  0  0  0  0  0  0  0
  -12.3833   23.0980  -17.8775 C   0  0  0  0  0  0  0  0  0  0  0  0
  -12.4577   24.1671  -17.1725 O   0  0  0  0  0  0  0  0  0  0  0  0
  -12.7504   22.3991  -19.8313 H   0  0  0  0  0  0  0  0  0  0  0  0
  -11.9289   21.8805  -17.1894 C   0  0  0  0  0  0  0  0  0  0  0  0
  -10.9500   22.0684  -16.1579 N   0  0  0  0  0  0  0  0  0  0  0  0
   -9.5833   21.7614  -16.2017 C   0  0  0  0  0  0  0  0  0  0  0  0
   -8.6526   21.9666  -15.0539 C   0  0  0  0  0  0  0  0  0  0  0  0
   -9.0747   21.2836  -17.2424 O   0  0  0  0  0  0  0  0  0  0  0  0
  -11.2972   22.4928  -15.2463 H   0  0  0  0  0  0  0  0  0  0  0  0
  -12.9185   20.8537  -16.8391 C   0  0  0  0  0  0  0  0  0  0  0  0
  -12.4041   19.6246  -16.1141 C   0  0  0  0  0  0  0  0  0  0  0  0
  -13.7706   20.4457  -18.0368 C   0  0  0  0  0  0  0  0  0  0  0  0
  -14.0528   25.3810  -19.1591 C   0  0  0  0  0  0  0  0  0  0  0  0
  -15.3983   25.7055  -19.7042 C   0  0  0  0  0  0  0  0  0  0  0  0
  -15.3325   26.9696  -20.4936 C   0  0  0  0  0  0  0  0  0  0  0  0
  -15.0039   26.8657  -21.8626 N   0  0  0  0  0  0  0  0  0  0  0  0
  -15.5577   28.0717  -19.9824 O   0  0  0  0  0  0  0  0  0  0  0  0
  -15.7419   26.6363  -22.5666 H   0  0  0  0  0  0  0  0  0  0  0  0
  -13.9935   27.0263  -22.1353 H   0  0  0  0  0  0  0  0  0  0  0  0
  -10.3071   28.4295  -20.4480 C   0  0  0  0  0  0  0  0  0  0  0  0
  -11.7319   28.9701  -20.4958 C   0  0  0  0  0  0  0  0  0  0  0  0
  -12.1708   29.1173  -21.8964 C   0  0  0  0  0  0  0  0  0  0  0  0
  -11.3619   28.9697  -23.0472 N   0  0  0  0  0  0  0  0  0  0  0  0
  -13.4058   29.4134  -22.1000 O   0  0  0  0  0  0  0  0  0  0  0  0
  -11.5538   28.1647  -23.6921 H   0  0  0  0  0  0  0  0  0  0  0  0
  -10.5974   29.6123  -23.2807 H   0  0  0  0  0  0  0  0  0  0  0  0
   -7.6025   23.5319  -22.2131 C   0  0  0  0  0  0  0  0  0  0  0  0
   -9.2061   22.4630  -20.5710 C   0  0  0  0  0  0  0  0  0  0  0  0
   -7.7955   22.7934  -20.9532 C   0  0  0  0  0  0  0  0  0  0  0  0
   -6.9850   21.5013  -21.0010 C   0  0  0  0  0  0  0  0  0  0  0  0
   -4.3780   24.1813  -25.9071 C   0  0  0  0  0  0  0  0  0  0  0  0
   -5.0526   24.2383  -27.2178 C   0  0  0  0  0  0  0  0  0  0  0  0
   -5.5874   25.6354  -27.4357 C   0  0  0  0  0  0  0  0  0  0  0  0
   -5.2867   26.6929  -26.5457 N   0  0  0  0  0  0  0  0  0  0  0  0
   -6.3078   25.8145  -28.4457 O   0  0  0  0  0  0  0  0  0  0  0  0
   -5.5811   27.6633  -26.7863 H   0  0  0  0  0  0  0  0  0  0  0  0
   -4.7978   26.4985  -25.6467 H   0  0  0  0  0  0  0  0  0  0  0  0
 90 91  1  0  0  0
 91 92  1  0  0  0
 91 89  1  0  0  0
 89 51  1  0  0  0
 51 52  1  0  0  0
 52 53  1  0  0  0
 53 54  2  0  0  0
 53 56  1  0  0  0
 56 82  1  0  0  0
 82 83  1  0  0  0
 83 84  1  0  0  0
 84 85  1  0  0  0
 84 86  2  0  0  0
 56 57  1  0  0  0
 57 58  1  0  0  0
 58 59  2  0  0  0
 58 61  1  0  0  0
 61 75  1  0  0  0
 75 76  1  0  0  0
 76 77  1  0  0  0
 77 78  1  0  0  0
 77 79  2  0  0  0
 61 62  1  0  0  0
 62 63  1  0  0  0
 63 64  2  0  0  0
 63 66  1  0  0  0
 66 67  1  0  0  0
 67 68  1  0  0  0
 68 69  1  0  0  0
 68 70  2  0  0  0
 66 72  1  0  0  0
 72 73  1  0  0  0
 72 74  1  0  0  0
 51 47  1  0  0  0
 47 48  2  0  0  0
 47 49  1  0  0  0
 49  1  1  0  0  0
  1 93  1  0  0  0
 93 94  1  0  0  0
 94 95  1  0  0  0
 95 96  1  0  0  0
 95 97  2  0  0  0
  1  2  1  0  0  0
  2  3  2  0  0  0
  2  4  1  0  0  0
  4  6  1  0  0  0
  6 40  1  0  0  0
 40 41  1  0  0  0
 41 42  1  0  0  0
 42 43  1  0  0  0
 42 44  2  0  0  0
  6  7  1  0  0  0
  7  8  2  0  0  0
  7  9  1  0  0  0
  9 11  1  0  0  0
 11 29  1  0  0  0
 29 30  1  0  0  0
 30 31  1  0  0  0
 31 32  1  0  0  0
 32 34  1  0  0  0
 34 35  1  0  0  0
 34 36  2  0  0  0
 11 12  1  0  0  0
 12 13  2  0  0  0
 12 14  1  0  0  0
 14 16  1  0  0  0
 16 17  1  0  0  0
 17 18  2  0  0  0
 18 19  1  0  0  0
 19 20  2  0  0  0
 20 21  1  0  0  0
 21 22  2  0  0  0
 20 23  1  0  0  0
 23 24  1  0  0  0
 23 25  2  0  0  0
 22 17  1  0  0  0
 52 55  1  0  0  0
 85 87  1  0  0  0
 85 88  1  0  0  0
 57 60  1  0  0  0
 78 80  1  0  0  0
 78 81  1  0  0  0
 62 65  1  0  0  0
 67 71  1  0  0  0
 49 50  1  0  0  0
 96 98  1  0  0  0
 96 99  1  0  0  0
  4  5  1  0  0  0
 43 45  1  0  0  0
 43 46  1  0  0  0
  9 10  1  0  0  0
 32 33  1  0  0  0
 35 37  1  0  0  0
 35 38  1  0  0  0
 36 39  1  0  0  0
 14 15  1  0  0  0
 24 26  1  0  0  0
 24 27  1  0  0  0
 25 28  1  0  0  0
M  END
> <minimizedAffinity>
-8.20236

> <CNNscore>
0.3413261771

> <CNNaffinity>
7.7067985535

> <CNN_VS>
2.6305320263

> <CNNaffinity_variance>
0.4498781264

$$$$
[H]N=C(c1c([H])c([H])c(C([H])([H])N([H])C(=O)[C@@]([H])(N([H])C(=O)[C@@]([H])(N([H])C(=O)[C@@]([H])(N([H])C(=O)[C@@]([H])(N([H])C(=O)[C@@]([H])(N([H])C(=O)[C@@]([H])(N([H])C(=O)[C@@]([H])(N([H])C(=O)C([H])([H])[H])C([H])(C([H])([H])[H])C([H])([H])[H])C([H])([H])C([H])([H])C(=O)N([H])[H])C([H])([H])C([H])([H])C(=O)N([H])[H])C([H])([H])C([H])(C([H])([H])[H])C([H])([H])[H])C([H])([H])C([H])([H])C(=O)N([H])[H])C([H])([H])C([H])([H])C(=O)N([H])[H])C([H])([H])C([H])([H])C([H])([H])N([H])C(=N[H])N([H])[H])c([H])c1[H])N([H])[H]


 99 99  0  0  0  0  0  0  0  0999 V2000
   -1.3238   21.5875  -20.1555 C   0  0  0  0  0  0  0  0  0  0  0  0
   -1.4176   22.5788  -21.2773 C   0  0  0  0  0  0  0  0  0  0  0  0
   -1.6326   23.7749  -21.0471 O   0  0  0  0  0  0  0  0  0  0  0  0
   -1.2401   22.0543  -22.5591 N   0  0  0  0  0  0  0  0  0  0  0  0
   -1.0613   20.9921  -22.6336 H   0  0  0  0  0  0  0  0  0  0  0  0
   -1.2567   22.6883  -23.8501 C   0  0  0  0  0  0  0  0  0  0  0  0
   -2.6137   22.6348  -24.4874 C   0  0  0  0  0  0  0  0  0  0  0  0
   -3.0204   21.4355  -24.6846 O   0  0  0  0  0  0  0  0  0  0  0  0
   -3.3711   23.7549  -24.8203 N   0  0  0  0  0  0  0  0  0  0  0  0
   -4.3941   22.8030  -25.0747 H   0  0  0  0  0  0  0  0  0  0  0  0
   -4.3025   24.6826  -25.2258 C   0  0  0  0  0  0  0  0  0  0  0  0
   -5.7054   24.2221  -24.7931 C   0  0  0  0  0  0  0  0  0  0  0  0
   -6.5631   25.1331  -25.1526 O   0  0  0  0  0  0  0  0  0  0  0  0
   -6.0645   23.1176  -24.1591 N   0  0  0  0  0  0  0  0  0  0  0  0
   -7.3862   23.5263  -24.2173 H   0  0  0  0  0  0  0  0  0  0  0  0
   -6.5200   21.9735  -23.4906 C   0  0  0  0  0  0  0  0  0  0  0  0
   -6.6535   22.1410  -22.0221 C   0  0  0  0  0  0  0  0  0  0  0  0
   -5.6520   22.7108  -21.2464 C   0  0  0  0  0  0  0  0  0  0  0  0
   -5.8324   22.9386  -19.9298 C   0  0  0  0  0  0  0  0  0  0  0  0
   -7.0467   22.6066  -19.3078 C   0  0  0  0  0  0  0  0  0  0  0  0
   -8.0350   22.0371  -20.0877 C   0  0  0  0  0  0  0  0  0  0  0  0
   -7.8650   21.7958  -21.4339 C   0  0  0  0  0  0  0  0  0  0  0  0
   -7.2040   22.9146  -17.9059 C   0  0  0  0  0  0  0  0  0  0  0  0
   -7.7874   21.9382  -17.0472 N   0  0  0  0  0  0  0  0  0  0  0  0
   -6.8198   24.0309  -17.3785 N   0  0  0  0  0  0  0  0  0  0  0  0
   -8.6498   21.4249  -17.3064 H   0  0  0  0  0  0  0  0  0  0  0  0
   -7.3380   21.7442  -16.1352 H   0  0  0  0  0  0  0  0  0  0  0  0
   -6.9606   24.1999  -16.3511 H   0  0  0  0  0  0  0  0  0  0  0  0
   -4.2713   24.6061  -26.7612 C   0  0  0  0  0  0  0  0  0  0  0  0
   -4.6427   23.3616  -27.4355 C   0  0  0  0  0  0  0  0  0  0  0  0
   -4.9215   23.4125  -28.8879 C   0  0  0  0  0  0  0  0  0  0  0  0
   -4.8151   24.5823  -29.6482 N   0  0  0  0  0  0  0  0  0  0  0  0
   -4.0138   25.2622  -29.4110 H   0  0  0  0  0  0  0  0  0  0  0  0
   -5.6295   25.0127  -30.7025 C   0  0  0  0  0  0  0  0  0  0  0  0
   -5.8823   26.3754  -30.9959 N   0  0  0  0  0  0  0  0  0  0  0  0
   -6.2086   24.1176  -31.4569 N   0  0  0  0  0  0  0  0  0  0  0  0
   -6.1124   26.6391  -31.9712 H   0  0  0  0  0  0  0  0  0  0  0  0
   -5.8571   27.1539  -30.2983 H   0  0  0  0  0  0  0  0  0  0  0  0
   -6.0885   23.1105  -31.3074 H   0  0  0  0  0  0  0  0  0  0  0  0
   -0.2895   21.8932  -24.7250 C   0  0  0  0  0  0  0  0  0  0  0  0
    0.5211   22.7609  -25.6522 C   0  0  0  0  0  0  0  0  0  0  0  0
    0.0604   22.6455  -27.0637 C   0  0  0  0  0  0  0  0  0  0  0  0
   -1.2250   22.0274  -27.2950 N   0  0  0  0  0  0  0  0  0  0  0  0
    0.6705   23.0291  -28.0624 O   0  0  0  0  0  0  0  0  0  0  0  0
   -1.9686   22.1265  -26.5920 H   0  0  0  0  0  0  0  0  0  0  0  0
   -1.3318   21.5000  -28.1844 H   0  0  0  0  0  0  0  0  0  0  0  0
    1.0058   20.2456  -19.4929 C   0  0  0  0  0  0  0  0  0  0  0  0
    1.1058   19.1190  -19.0350 O   0  0  0  0  0  0  0  0  0  0  0  0
   -0.1063   20.9891  -19.8474 N   0  0  0  0  0  0  0  0  0  0  0  0
   -0.8419   19.8449  -19.4672 H   0  0  0  0  0  0  0  0  0  0  0  0
    2.3817   20.9366  -19.7061 C   0  0  0  0  0  0  0  0  0  0  0  0
    2.9516   21.5319  -18.5813 N   0  0  0  0  0  0  0  0  0  0  0  0
    3.0046   22.8026  -17.9971 C   0  0  0  0  0  0  0  0  0  0  0  0
    2.4013   23.7801  -18.4851 O   0  0  0  0  0  0  0  0  0  0  0  0
    3.5193   20.7874  -17.9909 H   0  0  0  0  0  0  0  0  0  0  0  0
    3.8100   23.0048  -16.7666 C   0  0  0  0  0  0  0  0  0  0  0  0
    5.1743   23.1499  -16.9617 N   0  0  0  0  0  0  0  0  0  0  0  0
    5.9763   24.2406  -17.3873 C   0  0  0  0  0  0  0  0  0  0  0  0
    5.3931   25.3357  -17.6227 O   0  0  0  0  0  0  0  0  0  0  0  0
    5.8003   22.2937  -16.6552 H   0  0  0  0  0  0  0  0  0  0  0  0
    7.4302   24.1336  -17.5238 C   0  0  0  0  0  0  0  0  0  0  0  0
    7.9369   23.2150  -16.5295 N   0  0  0  0  0  0  0  0  0  0  0  0
    8.6252   23.5463  -15.3683 C   0  0  0  0  0  0  0  0  0  0  0  0
    8.7974   24.8027  -15.1754 O   0  0  0  0  0  0  0  0  0  0  0  0
    7.7236   22.2087  -16.7244 H   0  0  0  0  0  0  0  0  0  0  0  0
    9.1734   22.6381  -14.3500 C   0  0  0  0  0  0  0  0  0  0  0  0
    8.4299   21.4343  -14.1143 N   0  0  0  0  0  0  0  0  0  0  0  0
    7.2588   21.2792  -13.3603 C   0  0  0  0  0  0  0  0  0  0  0  0
    6.5790   19.9682  -13.1489 C   0  0  0  0  0  0  0  0  0  0  0  0
    6.7215   22.2708  -12.8141 O   0  0  0  0  0  0  0  0  0  0  0  0
    8.8080   20.5477  -14.5644 H   0  0  0  0  0  0  0  0  0  0  0  0
   10.6242   22.4154  -14.3068 C   0  0  0  0  0  0  0  0  0  0  0  0
   11.3781   22.5515  -15.6160 C   0  0  0  0  0  0  0  0  0  0  0  0
   10.9827   21.1003  -13.6220 C   0  0  0  0  0  0  0  0  0  0  0  0
    7.9826   24.1045  -18.8725 C   0  0  0  0  0  0  0  0  0  0  0  0
    9.1403   23.2294  -19.1993 C   0  0  0  0  0  0  0  0  0  0  0  0
    8.8338   22.4176  -20.4127 C   0  0  0  0  0  0  0  0  0  0  0  0
    7.6939   21.5859  -20.3686 N   0  0  0  0  0  0  0  0  0  0  0  0
    9.5400   22.4640  -21.4255 O   0  0  0  0  0  0  0  0  0  0  0  0
    6.7462   21.9782  -20.5706 H   0  0  0  0  0  0  0  0  0  0  0  0
    7.8430   20.5666  -20.1238 H   0  0  0  0  0  0  0  0  0  0  0  0
    3.1627   23.8509  -15.7044 C   0  0  0  0  0  0  0  0  0  0  0  0
    2.5462   22.9570  -14.6341 C   0  0  0  0  0  0  0  0  0  0  0  0
    2.6283   23.6147  -13.3163 C   0  0  0  0  0  0  0  0  0  0  0  0
    1.8447   24.7065  -12.8752 N   0  0  0  0  0  0  0  0  0  0  0  0
    3.4970   23.1613  -12.4833 O   0  0  0  0  0  0  0  0  0  0  0  0
    1.1625   24.5478  -12.0941 H   0  0  0  0  0  0  0  0  0  0  0  0
    1.9124   25.6453  -13.2827 H   0  0  0  0  0  0  0  0  0  0  0  0
    3.2642   19.7906  -20.1956 C   0  0  0  0  0  0  0  0  0  0  0  0
    3.5843   18.4901  -22.3443 C   0  0  0  0  0  0  0  0  0  0  0  0
    3.6651   19.7954  -21.6131 C   0  0  0  0  0  0  0  0  0  0  0  0
    2.8339   20.8309  -22.3650 C   0  0  0  0  0  0  0  0  0  0  0  0
   -1.9015   22.2615  -18.9194 C   0  0  0  0  0  0  0  0  0  0  0  0
   -2.9202   21.4936  -18.1788 C   0  0  0  0  0  0  0  0  0  0  0  0
   -3.2266   22.2062  -16.8811 C   0  0  0  0  0  0  0  0  0  0  0  0
   -3.8811   23.4600  -16.8589 N   0  0  0  0  0  0  0  0  0  0  0  0
   -2.8763   21.6316  -15.8235 O   0  0  0  0  0  0  0  0  0  0  0  0
   -4.1731   23.8684  -15.9456 H   0  0  0  0  0  0  0  0  0  0  0  0
   -4.0466   23.9807  -17.7457 H   0  0  0  0  0  0  0  0  0  0  0  0
 90 91  1  0  0  0
 91 92  1  0  0  0
 91 89  1  0  0  0
 89 51  1  0  0  0
 51 52  1  0  0  0
 52 53  1  0  0  0
 53 54  2  0  0  0
 53 56  1  0  0  0
 56 82  1  0  0  0
 82 83  1  0  0  0
 83 84  1  0  0  0
 84 85  1  0  0  0
 84 86  2  0  0  0
 56 57  1  0  0  0
 57 58  1  0  0  0
 58 59  2  0  0  0
 58 61  1  0  0  0
 61 75  1  0  0  0
 75 76  1  0  0  0
 76 77  1  0  0  0
 77 78  1  0  0  0
 77 79  2  0  0  0
 61 62  1  0  0  0
 62 63  1  0  0  0
 63 64  2  0  0  0
 63 66  1  0  0  0
 66 67  1  0  0  0
 67 68  1  0  0  0
 68 69  1  0  0  0
 68 70  2  0  0  0
 66 72  1  0  0  0
 72 73  1  0  0  0
 72 74  1  0  0  0
 51 47  1  0  0  0
 47 48  2  0  0  0
 47 49  1  0  0  0
 49  1  1  0  0  0
  1 93  1  0  0  0
 93 94  1  0  0  0
 94 95  1  0  0  0
 95 96  1  0  0  0
 95 97  2  0  0  0
  1  2  1  0  0  0
  2  3  2  0  0  0
  2  4  1  0  0  0
  4  6  1  0  0  0
  6 40  1  0  0  0
 40 41  1  0  0  0
 41 42  1  0  0  0
 42 43  1  0  0  0
 42 44  2  0  0  0
  6  7  1  0  0  0
  7  8  2  0  0  0
  7  9  1  0  0  0
  9 11  1  0  0  0
 11 29  1  0  0  0
 29 30  1  0  0  0
 30 31  1  0  0  0
 31 32  1  0  0  0
 32 34  1  0  0  0
 34 35  1  0  0  0
 34 36  2  0  0  0
 11 12  1  0  0  0
 12 13  2  0  0  0
 12 14  1  0  0  0
 14 16  1  0  0  0
 16 17  1  0  0  0
 17 18  2  0  0  0
 18 19  1  0  0  0
 19 20  2  0  0  0
 20 21  1  0  0  0
 21 22  2  0  0  0
 20 23  1  0  0  0
 23 24  1  0  0  0
 23 25  2  0  0  0
 22 17  1  0  0  0
 52 55  1  0  0  0
 85 87  1  0  0  0
 85 88  1  0  0  0
 57 60  1  0  0  0
 78 80  1  0  0  0
 78 81  1  0  0  0
 62 65  1  0  0  0
 67 71  1  0  0  0
 49 50  1  0  0  0
 96 98  1  0  0  0
 96 99  1  0  0  0
  4  5  1  0  0  0
 43 45  1  0  0  0
 43 46  1  0  0  0
  9 10  1  0  0  0
 32 33  1  0  0  0
 35 37  1  0  0  0
 35 38  1  0  0  0
 36 39  1  0  0  0
 14 15  1  0  0  0
 24 26  1  0  0  0
 24 27  1  0  0  0
 25 28  1  0  0  0
M  END
> <minimizedAffinity>
-7.63954

> <CNNscore>
0.2019760907

> <CNNaffinity>
7.4609427452

> <CNN_VS>
1.5069320202

> <CNNaffinity_variance>
1.3783348799

$$$$
[H]N=C(c1c([H])c([H])c(C([H])([H])N([H])C(=O)[C@@]([H])(N([H])C(=O)[C@@]([H])(N([H])C(=O)[C@@]([H])(N([H])C(=O)[C@@]([H])(N([H])C(=O)[C@@]([H])(N([H])C(=O)[C@@]([H])(N([H])C(=O)[C@@]([H])(N([H])C(=O)C([H])([H])[H])C([H])(C([H])([H])[H])C([H])([H])[H])C([H])([H])C([H])([H])C(=O)N([H])[H])C([H])([H])C([H])([H])C(=O)N([H])[H])C([H])([H])C([H])(C([H])([H])[H])C([H])([H])[H])C([H])([H])C([H])([H])C(=O)N([H])[H])C([H])([H])C([H])([H])C(=O)N([H])[H])C([H])([H])C([H])([H])C([H])([H])N([H])C(=N[H])N([H])[H])c([H])c1[H])N([H])[H]


 99 99  0  0  0  0  0  0  0  0999 V2000
   -5.4839   21.1395  -16.6114 C   0  0  0  0  0  0  0  0  0  0  0  0
   -6.7369   20.3242  -16.7350 C   0  0  0  0  0  0  0  0  0  0  0  0
   -6.7287   19.2393  -17.3287 O   0  0  0  0  0  0  0  0  0  0  0  0
   -7.8725   20.8733  -16.1362 N   0  0  0  0  0  0  0  0  0  0  0  0
   -7.7558   21.8297  -15.6489 H   0  0  0  0  0  0  0  0  0  0  0  0
   -9.2232   20.3866  -16.0480 C   0  0  0  0  0  0  0  0  0  0  0  0
  -10.2227   21.4121  -16.4951 C   0  0  0  0  0  0  0  0  0  0  0  0
  -10.0583   22.5460  -15.9206 O   0  0  0  0  0  0  0  0  0  0  0  0
  -11.2171   21.1808  -17.4421 N   0  0  0  0  0  0  0  0  0  0  0  0
  -11.4177   22.5843  -17.3559 H   0  0  0  0  0  0  0  0  0  0  0  0
  -12.2584   21.2103  -18.3406 C   0  0  0  0  0  0  0  0  0  0  0  0
  -12.6555   22.6711  -18.6160 C   0  0  0  0  0  0  0  0  0  0  0  0
  -13.9204   22.8091  -18.3409 O   0  0  0  0  0  0  0  0  0  0  0  0
  -11.9109   23.6706  -19.0604 N   0  0  0  0  0  0  0  0  0  0  0  0
  -13.0093   24.5100  -18.9819 H   0  0  0  0  0  0  0  0  0  0  0  0
  -11.1867   24.7755  -19.5273 C   0  0  0  0  0  0  0  0  0  0  0  0
  -11.5520   25.2049  -20.9001 C   0  0  0  0  0  0  0  0  0  0  0  0
  -12.8238   25.6620  -21.2206 C   0  0  0  0  0  0  0  0  0  0  0  0
  -13.1068   26.1349  -22.4512 C   0  0  0  0  0  0  0  0  0  0  0  0
  -12.1147   26.1805  -23.4438 C   0  0  0  0  0  0  0  0  0  0  0  0
  -10.8539   25.7201  -23.1157 C   0  0  0  0  0  0  0  0  0  0  0  0
  -10.5498   25.2316  -21.8633 C   0  0  0  0  0  0  0  0  0  0  0  0
  -12.4588   26.7394  -24.7299 C   0  0  0  0  0  0  0  0  0  0  0  0
  -12.3356   25.9227  -25.8913 N   0  0  0  0  0  0  0  0  0  0  0  0
  -12.8983   27.9458  -24.8833 N   0  0  0  0  0  0  0  0  0  0  0  0
  -11.4941   25.3438  -26.0681 H   0  0  0  0  0  0  0  0  0  0  0  0
  -13.1081   25.9160  -26.5802 H   0  0  0  0  0  0  0  0  0  0  0  0
  -13.1326   28.2988  -25.8447 H   0  0  0  0  0  0  0  0  0  0  0  0
  -13.4338   20.5735  -17.5809 C   0  0  0  0  0  0  0  0  0  0  0  0
  -13.2914   19.2331  -17.0112 C   0  0  0  0  0  0  0  0  0  0  0  0
  -14.0568   18.1281  -17.6299 C   0  0  0  0  0  0  0  0  0  0  0  0
  -13.7554   16.7774  -17.4236 N   0  0  0  0  0  0  0  0  0  0  0  0
  -14.2538   16.2715  -16.6133 H   0  0  0  0  0  0  0  0  0  0  0  0
  -12.8670   15.9644  -18.1374 C   0  0  0  0  0  0  0  0  0  0  0  0
  -11.4597   16.1264  -18.1140 N   0  0  0  0  0  0  0  0  0  0  0  0
  -13.3499   15.0082  -18.8846 N   0  0  0  0  0  0  0  0  0  0  0  0
  -10.8615   15.2985  -18.2884 H   0  0  0  0  0  0  0  0  0  0  0  0
  -10.9627   17.0283  -17.9330 H   0  0  0  0  0  0  0  0  0  0  0  0
  -14.3559   14.8289  -18.9674 H   0  0  0  0  0  0  0  0  0  0  0  0
   -9.4723   20.0935  -14.5699 C   0  0  0  0  0  0  0  0  0  0  0  0
   -8.3793   20.6097  -13.6708 C   0  0  0  0  0  0  0  0  0  0  0  0
   -8.8732   21.6719  -12.7512 C   0  0  0  0  0  0  0  0  0  0  0  0
   -8.9766   23.0130  -13.2792 N   0  0  0  0  0  0  0  0  0  0  0  0
   -9.2068   21.5197  -11.5755 O   0  0  0  0  0  0  0  0  0  0  0  0
   -9.1957   23.1501  -14.2743 H   0  0  0  0  0  0  0  0  0  0  0  0
   -8.8186   23.7890  -12.6059 H   0  0  0  0  0  0  0  0  0  0  0  0
   -4.4628   22.7089  -18.6513 C   0  0  0  0  0  0  0  0  0  0  0  0
   -3.3039   23.0578  -18.8069 O   0  0  0  0  0  0  0  0  0  0  0  0
   -5.0570   21.9354  -17.6696 N   0  0  0  0  0  0  0  0  0  0  0  0
   -3.7518   21.8173  -17.1432 H   0  0  0  0  0  0  0  0  0  0  0  0
   -5.4088   23.2377  -19.7655 C   0  0  0  0  0  0  0  0  0  0  0  0
   -4.7902   23.7456  -20.9073 N   0  0  0  0  0  0  0  0  0  0  0  0
   -5.0976   24.6366  -21.9420 C   0  0  0  0  0  0  0  0  0  0  0  0
   -6.1824   25.2522  -21.9837 O   0  0  0  0  0  0  0  0  0  0  0  0
   -3.7741   23.3219  -21.0221 H   0  0  0  0  0  0  0  0  0  0  0  0
   -4.1141   24.8523  -23.0328 C   0  0  0  0  0  0  0  0  0  0  0  0
   -3.3086   23.7660  -23.3356 N   0  0  0  0  0  0  0  0  0  0  0  0
   -2.1239   23.2513  -22.7477 C   0  0  0  0  0  0  0  0  0  0  0  0
   -1.6799   23.8386  -21.7217 O   0  0  0  0  0  0  0  0  0  0  0  0
   -3.6770   23.0985  -24.1341 H   0  0  0  0  0  0  0  0  0  0  0  0
   -1.4433   22.0663  -23.2734 C   0  0  0  0  0  0  0  0  0  0  0  0
   -1.2527   21.1117  -22.2050 N   0  0  0  0  0  0  0  0  0  0  0  0
   -0.0380   20.6489  -21.7129 C   0  0  0  0  0  0  0  0  0  0  0  0
    1.0032   21.1512  -22.2689 O   0  0  0  0  0  0  0  0  0  0  0  0
   -2.1408   20.7754  -21.7645 H   0  0  0  0  0  0  0  0  0  0  0  0
    0.1907   19.6634  -20.6458 C   0  0  0  0  0  0  0  0  0  0  0  0
   -0.9514   19.3239  -19.8471 N   0  0  0  0  0  0  0  0  0  0  0  0
   -1.3765   19.9232  -18.6538 C   0  0  0  0  0  0  0  0  0  0  0  0
   -2.5676   19.4688  -17.8788 C   0  0  0  0  0  0  0  0  0  0  0  0
   -0.7482   20.8960  -18.1749 O   0  0  0  0  0  0  0  0  0  0  0  0
   -1.5535   18.5203  -20.1983 H   0  0  0  0  0  0  0  0  0  0  0  0
    1.0410   18.4997  -20.9267 C   0  0  0  0  0  0  0  0  0  0  0  0
    0.3969   17.1325  -20.7975 C   0  0  0  0  0  0  0  0  0  0  0  0
    2.3514   18.5449  -20.1470 C   0  0  0  0  0  0  0  0  0  0  0  0
   -1.8343   21.5923  -24.5953 C   0  0  0  0  0  0  0  0  0  0  0  0
   -1.6019   22.4313  -25.8014 C   0  0  0  0  0  0  0  0  0  0  0  0
   -0.1433   22.4789  -26.1108 C   0  0  0  0  0  0  0  0  0  0  0  0
    0.2610   22.0822  -27.4039 N   0  0  0  0  0  0  0  0  0  0  0  0
    0.6896   22.8518  -25.2779 O   0  0  0  0  0  0  0  0  0  0  0  0
    0.2190   22.7580  -28.2005 H   0  0  0  0  0  0  0  0  0  0  0  0
    0.6000   21.0865  -27.5251 H   0  0  0  0  0  0  0  0  0  0  0  0
   -4.5952   25.7048  -24.1752 C   0  0  0  0  0  0  0  0  0  0  0  0
   -5.1651   24.8197  -25.2780 C   0  0  0  0  0  0  0  0  0  0  0  0
   -6.5557   25.2124  -25.5746 C   0  0  0  0  0  0  0  0  0  0  0  0
   -7.5192   25.6530  -24.6376 N   0  0  0  0  0  0  0  0  0  0  0  0
   -6.9392   25.1462  -26.8005 O   0  0  0  0  0  0  0  0  0  0  0  0
   -7.8516   26.6465  -24.6932 H   0  0  0  0  0  0  0  0  0  0  0  0
   -7.9080   25.0471  -23.9070 H   0  0  0  0  0  0  0  0  0  0  0  0
   -6.2348   22.0041  -20.1225 C   0  0  0  0  0  0  0  0  0  0  0  0
   -7.6412   21.8181  -22.2197 C   0  0  0  0  0  0  0  0  0  0  0  0
   -7.5351   22.2203  -20.7803 C   0  0  0  0  0  0  0  0  0  0  0  0
   -8.6226   21.5000  -19.9884 C   0  0  0  0  0  0  0  0  0  0  0  0
   -5.6248   21.9797  -15.3504 C   0  0  0  0  0  0  0  0  0  0  0  0
   -5.0131   23.3214  -15.3937 C   0  0  0  0  0  0  0  0  0  0  0  0
   -5.8795   24.2828  -14.6122 C   0  0  0  0  0  0  0  0  0  0  0  0
   -5.4682   24.8068  -13.3645 N   0  0  0  0  0  0  0  0  0  0  0  0
   -6.9795   24.5975  -15.1241 O   0  0  0  0  0  0  0  0  0  0  0  0
   -6.0399   25.5491  -12.9080 H   0  0  0  0  0  0  0  0  0  0  0  0
   -4.6155   24.4358  -12.8953 H   0  0  0  0  0  0  0  0  0  0  0  0
 90 91  1  0  0  0
 91 92  1  0  0  0
 91 89  1  0  0  0
 89 51  1  0  0  0
 51 52  1  0  0  0
 52 53  1  0  0  0
 53 54  2  0  0  0
 53 56  1  0  0  0
 56 82  1  0  0  0
 82 83  1  0  0  0
 83 84  1  0  0  0
 84 85  1  0  0  0
 84 86  2  0  0  0
 56 57  1  0  0  0
 57 58  1  0  0  0
 58 59  2  0  0  0
 58 61  1  0  0  0
 61 75  1  0  0  0
 75 76  1  0  0  0
 76 77  1  0  0  0
 77 78  1  0  0  0
 77 79  2  0  0  0
 61 62  1  0  0  0
 62 63  1  0  0  0
 63 64  2  0  0  0
 63 66  1  0  0  0
 66 67  1  0  0  0
 67 68  1  0  0  0
 68 69  1  0  0  0
 68 70  2  0  0  0
 66 72  1  0  0  0
 72 73  1  0  0  0
 72 74  1  0  0  0
 51 47  1  0  0  0
 47 48  2  0  0  0
 47 49  1  0  0  0
 49  1  1  0  0  0
  1 93  1  0  0  0
 93 94  1  0  0  0
 94 95  1  0  0  0
 95 96  1  0  0  0
 95 97  2  0  0  0
  1  2  1  0  0  0
  2  3  2  0  0  0
  2  4  1  0  0  0
  4  6  1  0  0  0
  6 40  1  0  0  0
 40 41  1  0  0  0
 41 42  1  0  0  0
 42 43  1  0  0  0
 42 44  2  0  0  0
  6  7  1  0  0  0
  7  8  2  0  0  0
  7  9  1  0  0  0
  9 11  1  0  0  0
 11 29  1  0  0  0
 29 30  1  0  0  0
 30 31  1  0  0  0
 31 32  1  0  0  0
 32 34  1  0  0  0
 34 35  1  0  0  0
 34 36  2  0  0  0
 11 12  1  0  0  0
 12 13  2  0  0  0
 12 14  1  0  0  0
 14 16  1  0  0  0
 16 17  1  0  0  0
 17 18  2  0  0  0
 18 19  1  0  0  0
 19 20  2  0  0  0
 20 21  1  0  0  0
 21 22  2  0  0  0
 20 23  1  0  0  0
 23 24  1  0  0  0
 23 25  2  0  0  0
 22 17  1  0  0  0
 52 55  1  0  0  0
 85 87  1  0  0  0
 85 88  1  0  0  0
 57 60  1  0  0  0
 78 80  1  0  0  0
 78 81  1  0  0  0
 62 65  1  0  0  0
 67 71  1  0  0  0
 49 50  1  0  0  0
 96 98  1  0  0  0
 96 99  1  0  0  0
  4  5  1  0  0  0
 43 45  1  0  0  0
 43 46  1  0  0  0
  9 10  1  0  0  0
 32 33  1  0  0  0
 35 37  1  0  0  0
 35 38  1  0  0  0
 36 39  1  0  0  0
 14 15  1  0  0  0
 24 26  1  0  0  0
 24 27  1  0  0  0
 25 28  1  0  0  0
M  END
> <minimizedAffinity>
-7.25603

> <CNNscore>
0.2013432831

> <CNNaffinity>
7.6392159462

> <CNN_VS>
1.5381047726

> <CNNaffinity_variance>
0.8040526509

$$$$
[H]N=C(c1c([H])c([H])c(C([H])([H])N([H])C(=O)[C@@]([H])(N([H])C(=O)[C@@]([H])(N([H])C(=O)[C@@]([H])(N([H])C(=O)[C@@]([H])(N([H])C(=O)[C@@]([H])(N([H])C(=O)[C@@]([H])(N([H])C(=O)[C@@]([H])(N([H])C(=O)C([H])([H])[H])C([H])(C([H])([H])[H])C([H])([H])[H])C([H])([H])C([H])([H])C(=O)N([H])[H])C([H])([H])C([H])([H])C(=O)N([H])[H])C([H])([H])C([H])(C([H])([H])[H])C([H])([H])[H])C([H])([H])C([H])([H])C(=O)N([H])[H])C([H])([H])C([H])([H])C(=O)N([H])[H])C([H])([H])C([H])([H])C([H])([H])N([H])C(=N[H])N([H])[H])c([H])c1[H])N([H])[H]


 99 99  0  0  0  0  0  0  0  0999 V2000
   -6.4729   21.7080  -20.8260 C   0  0  0  0  0  0  0  0  0  0  0  0
   -6.6597   22.4568  -22.1122 C   0  0  0  0  0  0  0  0  0  0  0  0
   -6.9600   21.8598  -23.1529 O   0  0  0  0  0  0  0  0  0  0  0  0
   -6.4789   23.8392  -22.0344 N   0  0  0  0  0  0  0  0  0  0  0  0
   -6.2148   24.2455  -21.0695 H   0  0  0  0  0  0  0  0  0  0  0  0
   -6.5772   24.8631  -23.0399 C   0  0  0  0  0  0  0  0  0  0  0  0
   -8.0026   25.2007  -23.3637 C   0  0  0  0  0  0  0  0  0  0  0  0
   -8.3204   24.9006  -24.5685 O   0  0  0  0  0  0  0  0  0  0  0  0
   -8.9020   25.7636  -22.4618 N   0  0  0  0  0  0  0  0  0  0  0  0
   -9.8581   25.4958  -23.4775 H   0  0  0  0  0  0  0  0  0  0  0  0
   -9.9655   26.2974  -21.7716 C   0  0  0  0  0  0  0  0  0  0  0  0
  -10.2279   25.4597  -20.5079 C   0  0  0  0  0  0  0  0  0  0  0  0
   -9.0865   25.0112  -20.0711 O   0  0  0  0  0  0  0  0  0  0  0  0
  -11.3757   25.1868  -19.9088 N   0  0  0  0  0  0  0  0  0  0  0  0
  -10.6902   24.4627  -18.9481 H   0  0  0  0  0  0  0  0  0  0  0  0
  -12.5506   24.8555  -19.2208 C   0  0  0  0  0  0  0  0  0  0  0  0
  -12.6682   23.4165  -18.8778 C   0  0  0  0  0  0  0  0  0  0  0  0
  -11.5767   22.6589  -18.4729 C   0  0  0  0  0  0  0  0  0  0  0  0
  -11.7234   21.3785  -18.0765 C   0  0  0  0  0  0  0  0  0  0  0  0
  -12.9923   20.7775  -18.0597 C   0  0  0  0  0  0  0  0  0  0  0  0
  -14.0708   21.5388  -18.4677 C   0  0  0  0  0  0  0  0  0  0  0  0
  -13.9367   22.8476  -18.8779 C   0  0  0  0  0  0  0  0  0  0  0  0
  -13.0997   19.4191  -17.5820 C   0  0  0  0  0  0  0  0  0  0  0  0
  -13.2587   18.3662  -18.5292 N   0  0  0  0  0  0  0  0  0  0  0  0
  -13.0363   19.1013  -16.3302 N   0  0  0  0  0  0  0  0  0  0  0  0
  -13.9369   18.4291  -19.3106 H   0  0  0  0  0  0  0  0  0  0  0  0
  -12.6835   17.5119  -18.4261 H   0  0  0  0  0  0  0  0  0  0  0  0
  -13.1212   18.0948  -16.0411 H   0  0  0  0  0  0  0  0  0  0  0  0
  -11.1707   26.0765  -22.7006 C   0  0  0  0  0  0  0  0  0  0  0  0
  -11.9827   27.2182  -23.1233 C   0  0  0  0  0  0  0  0  0  0  0  0
  -12.8740   27.0447  -24.2918 C   0  0  0  0  0  0  0  0  0  0  0  0
  -13.4597   28.1163  -24.9747 N   0  0  0  0  0  0  0  0  0  0  0  0
  -13.8783   28.9160  -24.3865 H   0  0  0  0  0  0  0  0  0  0  0  0
  -13.5894   28.3020  -26.3563 C   0  0  0  0  0  0  0  0  0  0  0  0
  -14.4958   27.5747  -27.1665 N   0  0  0  0  0  0  0  0  0  0  0  0
  -12.8261   29.1812  -26.9479 N   0  0  0  0  0  0  0  0  0  0  0  0
  -14.8473   28.0144  -28.0364 H   0  0  0  0  0  0  0  0  0  0  0  0
  -14.8472   26.6122  -26.9582 H   0  0  0  0  0  0  0  0  0  0  0  0
  -12.1356   29.7424  -26.4387 H   0  0  0  0  0  0  0  0  0  0  0  0
   -5.9285   24.2864  -24.2967 C   0  0  0  0  0  0  0  0  0  0  0  0
   -4.5857   24.8962  -24.6039 C   0  0  0  0  0  0  0  0  0  0  0  0
   -4.7129   26.2918  -25.1080 C   0  0  0  0  0  0  0  0  0  0  0  0
   -3.9220   27.3093  -24.4546 N   0  0  0  0  0  0  0  0  0  0  0  0
   -5.4303   26.6683  -26.0356 O   0  0  0  0  0  0  0  0  0  0  0  0
   -3.0061   27.0623  -24.0583 H   0  0  0  0  0  0  0  0  0  0  0  0
   -4.3334   28.2633  -24.4185 H   0  0  0  0  0  0  0  0  0  0  0  0
   -4.4628   22.4802  -19.0854 C   0  0  0  0  0  0  0  0  0  0  0  0
   -4.4369   23.4757  -18.3801 O   0  0  0  0  0  0  0  0  0  0  0  0
   -5.4151   22.0215  -19.9784 N   0  0  0  0  0  0  0  0  0  0  0  0
   -6.1559   23.1576  -19.5847 H   0  0  0  0  0  0  0  0  0  0  0  0
   -3.1953   21.5942  -18.9283 C   0  0  0  0  0  0  0  0  0  0  0  0
   -2.3189   21.5771  -20.0126 N   0  0  0  0  0  0  0  0  0  0  0  0
   -1.6894   22.5053  -20.8500 C   0  0  0  0  0  0  0  0  0  0  0  0
   -1.8295   23.7358  -20.6961 O   0  0  0  0  0  0  0  0  0  0  0  0
   -2.0508   20.5374  -20.2816 H   0  0  0  0  0  0  0  0  0  0  0  0
   -0.8376   22.0194  -21.9644 C   0  0  0  0  0  0  0  0  0  0  0  0
    0.3979   21.5114  -21.5956 N   0  0  0  0  0  0  0  0  0  0  0  0
    0.7931   20.3059  -20.9594 C   0  0  0  0  0  0  0  0  0  0  0  0
   -0.1128   19.4741  -20.6730 O   0  0  0  0  0  0  0  0  0  0  0  0
    1.2772   22.0947  -21.9203 H   0  0  0  0  0  0  0  0  0  0  0  0
    2.1950   20.0018  -20.6660 C   0  0  0  0  0  0  0  0  0  0  0  0
    2.6318   20.7993  -19.5426 N   0  0  0  0  0  0  0  0  0  0  0  0
    3.6665   21.7274  -19.5364 C   0  0  0  0  0  0  0  0  0  0  0  0
    4.2645   21.8856  -20.6602 O   0  0  0  0  0  0  0  0  0  0  0  0
    2.0734   20.6549  -18.6689 H   0  0  0  0  0  0  0  0  0  0  0  0
    4.1507   22.5366  -18.4082 C   0  0  0  0  0  0  0  0  0  0  0  0
    5.3003   23.3543  -18.6675 N   0  0  0  0  0  0  0  0  0  0  0  0
    6.6358   23.0932  -18.3325 C   0  0  0  0  0  0  0  0  0  0  0  0
    7.7591   24.0319  -18.6201 C   0  0  0  0  0  0  0  0  0  0  0  0
    6.9468   22.0249  -17.7561 O   0  0  0  0  0  0  0  0  0  0  0  0
    5.1245   24.2718  -19.1764 H   0  0  0  0  0  0  0  0  0  0  0  0
    3.1700   23.2097  -17.5470 C   0  0  0  0  0  0  0  0  0  0  0  0
    2.5483   24.4854  -18.0827 C   0  0  0  0  0  0  0  0  0  0  0  0
    3.7028   23.4311  -16.1349 C   0  0  0  0  0  0  0  0  0  0  0  0
    2.6204   18.6110  -20.7648 C   0  0  0  0  0  0  0  0  0  0  0  0
    4.0612   18.2507  -20.6812 C   0  0  0  0  0  0  0  0  0  0  0  0
    4.7168   18.4786  -22.0017 C   0  0  0  0  0  0  0  0  0  0  0  0
    4.4307   19.6887  -22.6701 N   0  0  0  0  0  0  0  0  0  0  0  0
    5.4851   17.6501  -22.5015 O   0  0  0  0  0  0  0  0  0  0  0  0
    4.9504   20.5623  -22.4258 H   0  0  0  0  0  0  0  0  0  0  0  0
    3.6778   19.6688  -23.4143 H   0  0  0  0  0  0  0  0  0  0  0  0
   -1.5706   21.3298  -23.0826 C   0  0  0  0  0  0  0  0  0  0  0  0
   -1.1785   21.9498  -24.4192 C   0  0  0  0  0  0  0  0  0  0  0  0
   -2.2923   21.8300  -25.3789 C   0  0  0  0  0  0  0  0  0  0  0  0
   -2.2540   22.1665  -26.7521 N   0  0  0  0  0  0  0  0  0  0  0  0
   -3.4116   21.3817  -24.9313 O   0  0  0  0  0  0  0  0  0  0  0  0
   -2.3433   21.3952  -27.4577 H   0  0  0  0  0  0  0  0  0  0  0  0
   -2.1435   23.1286  -27.0902 H   0  0  0  0  0  0  0  0  0  0  0  0
   -2.5067   22.2011  -17.7080 C   0  0  0  0  0  0  0  0  0  0  0  0
   -0.0902   21.6148  -17.2308 C   0  0  0  0  0  0  0  0  0  0  0  0
   -1.5445   21.3581  -16.9776 C   0  0  0  0  0  0  0  0  0  0  0  0
   -1.8100   21.4779  -15.4797 C   0  0  0  0  0  0  0  0  0  0  0  0
   -7.7904   21.7922  -20.0692 C   0  0  0  0  0  0  0  0  0  0  0  0
   -7.9284   20.8952  -18.9062 C   0  0  0  0  0  0  0  0  0  0  0  0
   -8.0275   21.7301  -17.6497 C   0  0  0  0  0  0  0  0  0  0  0  0
   -8.3329   21.1513  -16.3957 N   0  0  0  0  0  0  0  0  0  0  0  0
   -7.8225   22.9608  -17.7703 O   0  0  0  0  0  0  0  0  0  0  0  0
   -8.2848   21.7385  -15.5361 H   0  0  0  0  0  0  0  0  0  0  0  0
   -8.6273   20.1539  -16.3364 H   0  0  0  0  0  0  0  0  0  0  0  0
 90 91  1  0  0  0
 91 92  1  0  0  0
 91 89  1  0  0  0
 89 51  1  0  0  0
 51 52  1  0  0  0
 52 53  1  0  0  0
 53 54  2  0  0  0
 53 56  1  0  0  0
 56 82  1  0  0  0
 82 83  1  0  0  0
 83 84  1  0  0  0
 84 85  1  0  0  0
 84 86  2  0  0  0
 56 57  1  0  0  0
 57 58  1  0  0  0
 58 59  2  0  0  0
 58 61  1  0  0  0
 61 75  1  0  0  0
 75 76  1  0  0  0
 76 77  1  0  0  0
 77 78  1  0  0  0
 77 79  2  0  0  0
 61 62  1  0  0  0
 62 63  1  0  0  0
 63 64  2  0  0  0
 63 66  1  0  0  0
 66 67  1  0  0  0
 67 68  1  0  0  0
 68 69  1  0  0  0
 68 70  2  0  0  0
 66 72  1  0  0  0
 72 73  1  0  0  0
 72 74  1  0  0  0
 51 47  1  0  0  0
 47 48  2  0  0  0
 47 49  1  0  0  0
 49  1  1  0  0  0
  1 93  1  0  0  0
 93 94  1  0  0  0
 94 95  1  0  0  0
 95 96  1  0  0  0
 95 97  2  0  0  0
  1  2  1  0  0  0
  2  3  2  0  0  0
  2  4  1  0  0  0
  4  6  1  0  0  0
  6 40  1  0  0  0
 40 41  1  0  0  0
 41 42  1  0  0  0
 42 43  1  0  0  0
 42 44  2  0  0  0
  6  7  1  0  0  0
  7  8  2  0  0  0
  7  9  1  0  0  0
  9 11  1  0  0  0
 11 29  1  0  0  0
 29 30  1  0  0  0
 30 31  1  0  0  0
 31 32  1  0  0  0
 32 34  1  0  0  0
 34 35  1  0  0  0
 34 36  2  0  0  0
 11 12  1  0  0  0
 12 13  2  0  0  0
 12 14  1  0  0  0
 14 16  1  0  0  0
 16 17  1  0  0  0
 17 18  2  0  0  0
 18 19  1  0  0  0
 19 20  2  0  0  0
 20 21  1  0  0  0
 21 22  2  0  0  0
 20 23  1  0  0  0
 23 24  1  0  0  0
 23 25  2  0  0  0
 22 17  1  0  0  0
 52 55  1  0  0  0
 85 87  1  0  0  0
 85 88  1  0  0  0
 57 60  1  0  0  0
 78 80  1  0  0  0
 78 81  1  0  0  0
 62 65  1  0  0  0
 67 71  1  0  0  0
 49 50  1  0  0  0
 96 98  1  0  0  0
 96 99  1  0  0  0
  4  5  1  0  0  0
 43 45  1  0  0  0
 43 46  1  0  0  0
  9 10  1  0  0  0
 32 33  1  0  0  0
 35 37  1  0  0  0
 35 38  1  0  0  0
 36 39  1  0  0  0
 14 15  1  0  0  0
 24 26  1  0  0  0
 24 27  1  0  0  0
 25 28  1  0  0  0
M  END
> <minimizedAffinity>
-7.73991

> <CNNscore>
0.1965622008

> <CNNaffinity>
7.3014860153

> <CNN_VS>
1.4351961613

> <CNNaffinity_variance>
1.3742737770

$$$$
[H]N=C(c1c([H])c([H])c(C([H])([H])N([H])C(=O)[C@@]([H])(N([H])C(=O)[C@@]([H])(N([H])C(=O)[C@@]([H])(N([H])C(=O)[C@@]([H])(N([H])C(=O)[C@@]([H])(N([H])C(=O)[C@@]([H])(N([H])C(=O)[C@@]([H])(N([H])C(=O)C([H])([H])[H])C([H])(C([H])([H])[H])C([H])([H])[H])C([H])([H])C([H])([H])C(=O)N([H])[H])C([H])([H])C([H])([H])C(=O)N([H])[H])C([H])([H])C([H])(C([H])([H])[H])C([H])([H])[H])C([H])([H])C([H])([H])C(=O)N([H])[H])C([H])([H])C([H])([H])C(=O)N([H])[H])C([H])([H])C([H])([H])C([H])([H])N([H])C(=N[H])N([H])[H])c([H])c1[H])N([H])[H]


 99 99  0  0  0  0  0  0  0  0999 V2000
   -5.9824   23.2704  -22.9274 C   0  0  0  0  0  0  0  0  0  0  0  0
   -4.5279   23.3453  -22.5690 C   0  0  0  0  0  0  0  0  0  0  0  0
   -4.1001   24.2575  -21.8516 O   0  0  0  0  0  0  0  0  0  0  0  0
   -3.7272   22.3273  -23.0909 N   0  0  0  0  0  0  0  0  0  0  0  0
   -4.2152   21.5872  -23.7072 H   0  0  0  0  0  0  0  0  0  0  0  0
   -2.3175   22.0730  -22.9602 C   0  0  0  0  0  0  0  0  0  0  0  0
   -1.7906   22.4920  -21.6195 C   0  0  0  0  0  0  0  0  0  0  0  0
   -1.2661   23.6613  -21.6378 O   0  0  0  0  0  0  0  0  0  0  0  0
   -1.8687   21.7158  -20.4660 N   0  0  0  0  0  0  0  0  0  0  0  0
   -1.4083   22.8945  -19.8209 H   0  0  0  0  0  0  0  0  0  0  0  0
   -1.8315   21.1595  -19.2084 C   0  0  0  0  0  0  0  0  0  0  0  0
   -1.1597   22.1425  -18.2337 C   0  0  0  0  0  0  0  0  0  0  0  0
   -1.6484   23.3296  -18.4497 O   0  0  0  0  0  0  0  0  0  0  0  0
   -0.2369   21.9095  -17.3145 N   0  0  0  0  0  0  0  0  0  0  0  0
   -0.2635   23.2485  -16.9633 H   0  0  0  0  0  0  0  0  0  0  0  0
    0.7387   21.7400  -16.3231 C   0  0  0  0  0  0  0  0  0  0  0  0
    1.9656   22.5478  -16.5341 C   0  0  0  0  0  0  0  0  0  0  0  0
    2.6941   23.0799  -15.4780 C   0  0  0  0  0  0  0  0  0  0  0  0
    3.8561   23.7306  -15.6885 C   0  0  0  0  0  0  0  0  0  0  0  0
    4.3630   23.8836  -16.9890 C   0  0  0  0  0  0  0  0  0  0  0  0
    3.6287   23.3537  -18.0328 C   0  0  0  0  0  0  0  0  0  0  0  0
    2.4383   22.6882  -17.8340 C   0  0  0  0  0  0  0  0  0  0  0  0
    5.6344   24.5477  -17.1541 C   0  0  0  0  0  0  0  0  0  0  0  0
    5.8769   25.2845  -18.3497 N   0  0  0  0  0  0  0  0  0  0  0  0
    6.5655   24.5282  -16.2571 N   0  0  0  0  0  0  0  0  0  0  0  0
    5.6526   24.9002  -19.2858 H   0  0  0  0  0  0  0  0  0  0  0  0
    6.2964   26.2280  -18.2773 H   0  0  0  0  0  0  0  0  0  0  0  0
    7.4717   25.0300  -16.4327 H   0  0  0  0  0  0  0  0  0  0  0  0
   -0.8761   19.9631  -19.3504 C   0  0  0  0  0  0  0  0  0  0  0  0
   -0.1125   19.7842  -20.5859 C   0  0  0  0  0  0  0  0  0  0  0  0
    1.2521   20.3529  -20.6501 C   0  0  0  0  0  0  0  0  0  0  0  0
    1.8078   20.8818  -21.8203 N   0  0  0  0  0  0  0  0  0  0  0  0
    1.1350   21.3092  -22.5450 H   0  0  0  0  0  0  0  0  0  0  0  0
    3.1545   20.9317  -22.1994 C   0  0  0  0  0  0  0  0  0  0  0  0
    4.2243   21.0934  -21.2848 N   0  0  0  0  0  0  0  0  0  0  0  0
    3.4556   20.8414  -23.4671 N   0  0  0  0  0  0  0  0  0  0  0  0
    5.1545   20.7125  -21.5361 H   0  0  0  0  0  0  0  0  0  0  0  0
    4.1545   21.5749  -20.3593 H   0  0  0  0  0  0  0  0  0  0  0  0
    2.7429   20.7339  -24.1960 H   0  0  0  0  0  0  0  0  0  0  0  0
   -1.6326   22.9250  -24.0270 C   0  0  0  0  0  0  0  0  0  0  0  0
   -1.4686   22.2090  -25.3423 C   0  0  0  0  0  0  0  0  0  0  0  0
   -0.0553   22.2282  -25.8114 C   0  0  0  0  0  0  0  0  0  0  0  0
    0.9779   22.3186  -24.8053 N   0  0  0  0  0  0  0  0  0  0  0  0
    0.3242   22.1727  -26.9818 O   0  0  0  0  0  0  0  0  0  0  0  0
    0.8229   21.8970  -23.8806 H   0  0  0  0  0  0  0  0  0  0  0  0
    1.8468   22.8200  -25.0779 H   0  0  0  0  0  0  0  0  0  0  0  0
   -7.8348   22.1744  -21.1856 C   0  0  0  0  0  0  0  0  0  0  0  0
   -8.3667   21.0790  -21.2646 O   0  0  0  0  0  0  0  0  0  0  0  0
   -6.9097   22.7986  -22.0039 N   0  0  0  0  0  0  0  0  0  0  0  0
   -6.9534   21.6057  -22.7588 H   0  0  0  0  0  0  0  0  0  0  0  0
   -8.2939   22.9815  -19.9391 C   0  0  0  0  0  0  0  0  0  0  0  0
   -9.1760   22.3318  -19.0766 N   0  0  0  0  0  0  0  0  0  0  0  0
  -10.5263   22.4180  -18.7186 C   0  0  0  0  0  0  0  0  0  0  0  0
  -11.3000   23.2399  -19.2510 O   0  0  0  0  0  0  0  0  0  0  0  0
   -8.6580   21.5251  -18.5233 H   0  0  0  0  0  0  0  0  0  0  0  0
  -11.0593   21.5165  -17.6666 C   0  0  0  0  0  0  0  0  0  0  0  0
  -10.1146   20.9675  -16.8142 N   0  0  0  0  0  0  0  0  0  0  0  0
   -9.7326   19.6301  -16.5322 C   0  0  0  0  0  0  0  0  0  0  0  0
  -10.3115   18.7108  -17.1759 O   0  0  0  0  0  0  0  0  0  0  0  0
   -9.4528   21.6856  -16.2990 H   0  0  0  0  0  0  0  0  0  0  0  0
   -8.6867   19.3059  -15.5602 C   0  0  0  0  0  0  0  0  0  0  0  0
   -7.4894   18.9042  -16.2630 N   0  0  0  0  0  0  0  0  0  0  0  0
   -6.9094   17.6410  -16.2591 C   0  0  0  0  0  0  0  0  0  0  0  0
   -7.5317   16.7569  -15.5688 O   0  0  0  0  0  0  0  0  0  0  0  0
   -7.0562   19.6604  -16.8431 H   0  0  0  0  0  0  0  0  0  0  0  0
   -5.6823   17.2056  -16.9424 C   0  0  0  0  0  0  0  0  0  0  0  0
   -5.8425   16.7449  -18.2913 N   0  0  0  0  0  0  0  0  0  0  0  0
   -6.0309   15.4291  -18.7351 C   0  0  0  0  0  0  0  0  0  0  0  0
   -6.1537   15.0510  -20.1731 C   0  0  0  0  0  0  0  0  0  0  0  0
   -6.1030   14.4873  -17.9117 O   0  0  0  0  0  0  0  0  0  0  0  0
   -5.8167   17.4878  -19.0523 H   0  0  0  0  0  0  0  0  0  0  0  0
   -4.4549   17.9915  -16.7632 C   0  0  0  0  0  0  0  0  0  0  0  0
   -3.3785   17.8327  -17.8201 C   0  0  0  0  0  0  0  0  0  0  0  0
   -3.8602   17.8170  -15.3693 C   0  0  0  0  0  0  0  0  0  0  0  0
   -8.5732   20.1544  -14.3802 C   0  0  0  0  0  0  0  0  0  0  0  0
   -8.2333   19.5698  -13.0553 C   0  0  0  0  0  0  0  0  0  0  0  0
   -9.1918   18.4755  -12.7246 C   0  0  0  0  0  0  0  0  0  0  0  0
   -8.7016   17.1518  -12.7476 N   0  0  0  0  0  0  0  0  0  0  0  0
  -10.3713   18.7048  -12.4368 O   0  0  0  0  0  0  0  0  0  0  0  0
   -8.1969   16.7615  -11.9195 H   0  0  0  0  0  0  0  0  0  0  0  0
   -8.8652   16.5863  -13.6276 H   0  0  0  0  0  0  0  0  0  0  0  0
  -12.3796   21.9273  -17.0739 C   0  0  0  0  0  0  0  0  0  0  0  0
  -13.1997   20.6896  -16.7275 C   0  0  0  0  0  0  0  0  0  0  0  0
  -13.6480   20.0177  -17.9618 C   0  0  0  0  0  0  0  0  0  0  0  0
  -13.2332   18.7458  -18.4207 N   0  0  0  0  0  0  0  0  0  0  0  0
  -14.4943   20.6438  -18.7008 O   0  0  0  0  0  0  0  0  0  0  0  0
  -13.9388   17.9698  -18.4459 H   0  0  0  0  0  0  0  0  0  0  0  0
  -12.2757   18.5467  -18.7299 H   0  0  0  0  0  0  0  0  0  0  0  0
   -6.9784   23.2728  -19.2206 C   0  0  0  0  0  0  0  0  0  0  0  0
   -5.6258   21.3540  -18.2723 C   0  0  0  0  0  0  0  0  0  0  0  0
   -6.6373   22.4379  -18.0559 C   0  0  0  0  0  0  0  0  0  0  0  0
   -6.1580   23.3360  -16.9192 C   0  0  0  0  0  0  0  0  0  0  0  0
   -6.3898   24.6529  -23.4161 C   0  0  0  0  0  0  0  0  0  0  0  0
   -7.8395   24.9214  -23.4666 C   0  0  0  0  0  0  0  0  0  0  0  0
   -8.1931   25.9192  -22.3872 C   0  0  0  0  0  0  0  0  0  0  0  0
   -7.2648   26.2913  -21.3870 N   0  0  0  0  0  0  0  0  0  0  0  0
   -9.3479   26.4052  -22.4222 O   0  0  0  0  0  0  0  0  0  0  0  0
   -7.5053   27.0610  -20.7268 H   0  0  0  0  0  0  0  0  0  0  0  0
   -6.3600   25.7832  -21.2962 H   0  0  0  0  0  0  0  0  0  0  0  0
 90 91  1  0  0  0
 91 92  1  0  0  0
 91 89  1  0  0  0
 89 51  1  0  0  0
 51 52  1  0  0  0
 52 53  1  0  0  0
 53 54  2  0  0  0
 53 56  1  0  0  0
 56 82  1  0  0  0
 82 83  1  0  0  0
 83 84  1  0  0  0
 84 85  1  0  0  0
 84 86  2  0  0  0
 56 57  1  0  0  0
 57 58  1  0  0  0
 58 59  2  0  0  0
 58 61  1  0  0  0
 61 75  1  0  0  0
 75 76  1  0  0  0
 76 77  1  0  0  0
 77 78  1  0  0  0
 77 79  2  0  0  0
 61 62  1  0  0  0
 62 63  1  0  0  0
 63 64  2  0  0  0
 63 66  1  0  0  0
 66 67  1  0  0  0
 67 68  1  0  0  0
 68 69  1  0  0  0
 68 70  2  0  0  0
 66 72  1  0  0  0
 72 73  1  0  0  0
 72 74  1  0  0  0
 51 47  1  0  0  0
 47 48  2  0  0  0
 47 49  1  0  0  0
 49  1  1  0  0  0
  1 93  1  0  0  0
 93 94  1  0  0  0
 94 95  1  0  0  0
 95 96  1  0  0  0
 95 97  2  0  0  0
  1  2  1  0  0  0
  2  3  2  0  0  0
  2  4  1  0  0  0
  4  6  1  0  0  0
  6 40  1  0  0  0
 40 41  1  0  0  0
 41 42  1  0  0  0
 42 43  1  0  0  0
 42 44  2  0  0  0
  6  7  1  0  0  0
  7  8  2  0  0  0
  7  9  1  0  0  0
  9 11  1  0  0  0
 11 29  1  0  0  0
 29 30  1  0  0  0
 30 31  1  0  0  0
 31 32  1  0  0  0
 32 34  1  0  0  0
 34 35  1  0  0  0
 34 36  2  0  0  0
 11 12  1  0  0  0
 12 13  2  0  0  0
 12 14  1  0  0  0
 14 16  1  0  0  0
 16 17  1  0  0  0
 17 18  2  0  0  0
 18 19  1  0  0  0
 19 20  2  0  0  0
 20 21  1  0  0  0
 21 22  2  0  0  0
 20 23  1  0  0  0
 23 24  1  0  0  0
 23 25  2  0  0  0
 22 17  1  0  0  0
 52 55  1  0  0  0
 85 87  1  0  0  0
 85 88  1  0  0  0
 57 60  1  0  0  0
 78 80  1  0  0  0
 78 81  1  0  0  0
 62 65  1  0  0  0
 67 71  1  0  0  0
 49 50  1  0  0  0
 96 98  1  0  0  0
 96 99  1  0  0  0
  4  5  1  0  0  0
 43 45  1  0  0  0
 43 46  1  0  0  0
  9 10  1  0  0  0
 32 33  1  0  0  0
 35 37  1  0  0  0
 35 38  1  0  0  0
 36 39  1  0  0  0
 14 15  1  0  0  0
 24 26  1  0  0  0
 24 27  1  0  0  0
 25 28  1  0  0  0
M  END
> <minimizedAffinity>
-6.86384

> <CNNscore>
0.1937579513

> <CNNaffinity>
7.1540846825

> <CNN_VS>
1.3861608505

> <CNNaffinity_variance>
1.9284255505

$$$$
[H]N=C(c1c([H])c([H])c(C([H])([H])N([H])C(=O)[C@@]([H])(N([H])C(=O)[C@@]([H])(N([H])C(=O)[C@@]([H])(N([H])C(=O)[C@@]([H])(N([H])C(=O)[C@@]([H])(N([H])C(=O)[C@@]([H])(N([H])C(=O)[C@@]([H])(N([H])C(=O)C([H])([H])[H])C([H])(C([H])([H])[H])C([H])([H])[H])C([H])([H])C([H])([H])C(=O)N([H])[H])C([H])([H])C([H])([H])C(=O)N([H])[H])C([H])([H])C([H])(C([H])([H])[H])C([H])([H])[H])C([H])([H])C([H])([H])C(=O)N([H])[H])C([H])([H])C([H])([H])C(=O)N([H])[H])C([H])([H])C([H])([H])C([H])([H])N([H])C(=N[H])N([H])[H])c([H])c1[H])N([H])[H]


 99 99  0  0  0  0  0  0  0  0999 V2000
   -1.9261   21.8923  -20.7096 C   0  0  0  0  0  0  0  0  0  0  0  0
   -2.0545   22.7858  -21.9075 C   0  0  0  0  0  0  0  0  0  0  0  0
   -1.6248   23.9452  -21.8798 O   0  0  0  0  0  0  0  0  0  0  0  0
   -2.6730   22.2132  -23.0207 N   0  0  0  0  0  0  0  0  0  0  0  0
   -3.0097   21.1920  -22.9231 H   0  0  0  0  0  0  0  0  0  0  0  0
   -2.9616   22.7521  -24.3227 C   0  0  0  0  0  0  0  0  0  0  0  0
   -4.4274   22.7074  -24.6394 C   0  0  0  0  0  0  0  0  0  0  0  0
   -4.9947   21.6431  -24.2059 O   0  0  0  0  0  0  0  0  0  0  0  0
   -5.1171   23.7109  -25.3151 N   0  0  0  0  0  0  0  0  0  0  0  0
   -6.2670   22.9642  -24.9441 H   0  0  0  0  0  0  0  0  0  0  0  0
   -6.0124   24.5481  -25.9396 C   0  0  0  0  0  0  0  0  0  0  0  0
   -7.3610   24.4981  -25.2004 C   0  0  0  0  0  0  0  0  0  0  0  0
   -8.3138   24.5882  -26.0829 O   0  0  0  0  0  0  0  0  0  0  0  0
   -7.6003   24.3916  -23.9034 N   0  0  0  0  0  0  0  0  0  0  0  0
   -8.9601   24.4089  -24.1635 H   0  0  0  0  0  0  0  0  0  0  0  0
   -7.9313   24.2813  -22.5464 C   0  0  0  0  0  0  0  0  0  0  0  0
   -8.7607   25.3988  -22.0309 C   0  0  0  0  0  0  0  0  0  0  0  0
   -8.3070   26.2657  -21.0451 C   0  0  0  0  0  0  0  0  0  0  0  0
   -9.0400   27.3294  -20.6588 C   0  0  0  0  0  0  0  0  0  0  0  0
  -10.2863   27.5903  -21.2508 C   0  0  0  0  0  0  0  0  0  0  0  0
  -10.7298   26.7198  -22.2278 C   0  0  0  0  0  0  0  0  0  0  0  0
   -9.9935   25.6270  -22.6317 C   0  0  0  0  0  0  0  0  0  0  0  0
  -11.0088   28.7687  -20.8333 C   0  0  0  0  0  0  0  0  0  0  0  0
  -11.3930   29.7258  -21.8169 N   0  0  0  0  0  0  0  0  0  0  0  0
  -11.3488   28.9935  -19.6062 N   0  0  0  0  0  0  0  0  0  0  0  0
  -10.7341   30.0599  -22.5439 H   0  0  0  0  0  0  0  0  0  0  0  0
  -12.3572   30.1017  -21.7967 H   0  0  0  0  0  0  0  0  0  0  0  0
  -11.8742   29.8697  -19.3611 H   0  0  0  0  0  0  0  0  0  0  0  0
   -6.2432   23.8997  -27.3146 C   0  0  0  0  0  0  0  0  0  0  0  0
   -5.1072   23.3677  -28.0683 C   0  0  0  0  0  0  0  0  0  0  0  0
   -5.2067   23.3298  -29.5443 C   0  0  0  0  0  0  0  0  0  0  0  0
   -5.7737   24.3611  -30.3010 N   0  0  0  0  0  0  0  0  0  0  0  0
   -6.7124   24.1641  -30.7916 H   0  0  0  0  0  0  0  0  0  0  0  0
   -5.2780   25.6512  -30.5242 C   0  0  0  0  0  0  0  0  0  0  0  0
   -3.9038   25.9890  -30.4568 N   0  0  0  0  0  0  0  0  0  0  0  0
   -6.1208   26.6115  -30.7950 N   0  0  0  0  0  0  0  0  0  0  0  0
   -3.5615   26.7908  -31.0168 H   0  0  0  0  0  0  0  0  0  0  0  0
   -3.1910   25.4891  -29.8779 H   0  0  0  0  0  0  0  0  0  0  0  0
   -7.1326   26.4564  -30.8519 H   0  0  0  0  0  0  0  0  0  0  0  0
   -2.2322   21.8573  -25.3229 C   0  0  0  0  0  0  0  0  0  0  0  0
   -0.7860   22.2347  -25.5110 C   0  0  0  0  0  0  0  0  0  0  0  0
   -0.4935   22.6254  -26.9181 C   0  0  0  0  0  0  0  0  0  0  0  0
   -1.6020   22.6523  -27.8446 N   0  0  0  0  0  0  0  0  0  0  0  0
    0.6085   22.9322  -27.3744 O   0  0  0  0  0  0  0  0  0  0  0  0
   -2.5417   22.8921  -27.5034 H   0  0  0  0  0  0  0  0  0  0  0  0
   -1.3840   22.4203  -28.8341 H   0  0  0  0  0  0  0  0  0  0  0  0
    0.4907   21.0972  -19.6170 C   0  0  0  0  0  0  0  0  0  0  0  0
    0.6639   20.4404  -18.6033 O   0  0  0  0  0  0  0  0  0  0  0  0
   -0.6694   21.5385  -20.2291 N   0  0  0  0  0  0  0  0  0  0  0  0
   -1.3347   20.8529  -19.1889 H   0  0  0  0  0  0  0  0  0  0  0  0
    1.8210   21.4868  -20.3203 C   0  0  0  0  0  0  0  0  0  0  0  0
    2.8893   21.8043  -19.4825 N   0  0  0  0  0  0  0  0  0  0  0  0
    3.2408   22.8285  -18.5956 C   0  0  0  0  0  0  0  0  0  0  0  0
    2.4782   23.7873  -18.3576 O   0  0  0  0  0  0  0  0  0  0  0  0
    3.6750   21.0268  -19.5398 H   0  0  0  0  0  0  0  0  0  0  0  0
    4.5634   22.7865  -17.9229 C   0  0  0  0  0  0  0  0  0  0  0  0
    4.5383   22.4755  -16.5726 N   0  0  0  0  0  0  0  0  0  0  0  0
    5.1769   23.0453  -15.4405 C   0  0  0  0  0  0  0  0  0  0  0  0
    5.9038   24.0602  -15.6309 O   0  0  0  0  0  0  0  0  0  0  0  0
    3.8266   21.6872  -16.2711 H   0  0  0  0  0  0  0  0  0  0  0  0
    4.9888   22.5142  -14.0891 C   0  0  0  0  0  0  0  0  0  0  0  0
    3.5749   22.3817  -13.8204 N   0  0  0  0  0  0  0  0  0  0  0  0
    2.8870   22.8924  -12.7260 C   0  0  0  0  0  0  0  0  0  0  0  0
    3.6009   23.5611  -11.8961 O   0  0  0  0  0  0  0  0  0  0  0  0
    3.0429   21.8640  -14.5586 H   0  0  0  0  0  0  0  0  0  0  0  0
    1.4571   22.7566  -12.4110 C   0  0  0  0  0  0  0  0  0  0  0  0
    0.5757   22.6165  -13.5339 N   0  0  0  0  0  0  0  0  0  0  0  0
    0.4516   21.5216  -14.3997 C   0  0  0  0  0  0  0  0  0  0  0  0
   -0.4787   21.4907  -15.5656 C   0  0  0  0  0  0  0  0  0  0  0  0
    1.1438   20.4923  -14.2222 O   0  0  0  0  0  0  0  0  0  0  0  0
   -0.0649   23.4406  -13.7396 H   0  0  0  0  0  0  0  0  0  0  0  0
    1.0583   21.9098  -11.2796 C   0  0  0  0  0  0  0  0  0  0  0  0
    0.6345   22.6195  -10.0077 C   0  0  0  0  0  0  0  0  0  0  0  0
    2.1002   20.8399  -10.9685 C   0  0  0  0  0  0  0  0  0  0  0  0
    5.9036   21.4725  -13.6383 C   0  0  0  0  0  0  0  0  0  0  0  0
    7.1787   21.8251  -12.9582 C   0  0  0  0  0  0  0  0  0  0  0  0
    8.2681   21.9655  -13.9677 C   0  0  0  0  0  0  0  0  0  0  0  0
    8.6807   23.2734  -14.3025 N   0  0  0  0  0  0  0  0  0  0  0  0
    8.7999   20.9833  -14.4961 O   0  0  0  0  0  0  0  0  0  0  0  0
    9.3713   23.7789  -13.7021 H   0  0  0  0  0  0  0  0  0  0  0  0
    8.2632   23.7089  -15.1726 H   0  0  0  0  0  0  0  0  0  0  0  0
    5.6887   22.2244  -18.7481 C   0  0  0  0  0  0  0  0  0  0  0  0
    6.6364   23.3442  -19.1633 C   0  0  0  0  0  0  0  0  0  0  0  0
    7.9779   23.1081  -18.5973 C   0  0  0  0  0  0  0  0  0  0  0  0
    9.2115   23.4637  -19.1907 N   0  0  0  0  0  0  0  0  0  0  0  0
    8.0417   22.5178  -17.4563 O   0  0  0  0  0  0  0  0  0  0  0  0
    9.7937   24.2031  -18.7269 H   0  0  0  0  0  0  0  0  0  0  0  0
    9.5634   23.0328  -20.0524 H   0  0  0  0  0  0  0  0  0  0  0  0
    2.1498   20.2399  -21.1381 C   0  0  0  0  0  0  0  0  0  0  0  0
    4.1446   18.8999  -21.9355 C   0  0  0  0  0  0  0  0  0  0  0  0
    3.4332   20.2164  -21.8608 C   0  0  0  0  0  0  0  0  0  0  0  0
    3.2192   20.7393  -23.2783 C   0  0  0  0  0  0  0  0  0  0  0  0
   -2.7518   22.5218  -19.5970 C   0  0  0  0  0  0  0  0  0  0  0  0
   -4.1700   22.1203  -19.5358 C   0  0  0  0  0  0  0  0  0  0  0  0
   -4.2759   20.7963  -18.8136 C   0  0  0  0  0  0  0  0  0  0  0  0
   -3.4050   20.4580  -17.7516 N   0  0  0  0  0  0  0  0  0  0  0  0
   -5.1754   20.0125  -19.1979 O   0  0  0  0  0  0  0  0  0  0  0  0
   -3.5773   19.5863  -17.2069 H   0  0  0  0  0  0  0  0  0  0  0  0
   -2.5850   21.0620  -17.5333 H   0  0  0  0  0  0  0  0  0  0  0  0
 90 91  1  0  0  0
 91 92  1  0  0  0
 91 89  1  0  0  0
 89 51  1  0  0  0
 51 52  1  0  0  0
 52 53  1  0  0  0
 53 54  2  0  0  0
 53 56  1  0  0  0
 56 82  1  0  0  0
 82 83  1  0  0  0
 83 84  1  0  0  0
 84 85  1  0  0  0
 84 86  2  0  0  0
 56 57  1  0  0  0
 57 58  1  0  0  0
 58 59  2  0  0  0
 58 61  1  0  0  0
 61 75  1  0  0  0
 75 76  1  0  0  0
 76 77  1  0  0  0
 77 78  1  0  0  0
 77 79  2  0  0  0
 61 62  1  0  0  0
 62 63  1  0  0  0
 63 64  2  0  0  0
 63 66  1  0  0  0
 66 67  1  0  0  0
 67 68  1  0  0  0
 68 69  1  0  0  0
 68 70  2  0  0  0
 66 72  1  0  0  0
 72 73  1  0  0  0
 72 74  1  0  0  0
 51 47  1  0  0  0
 47 48  2  0  0  0
 47 49  1  0  0  0
 49  1  1  0  0  0
  1 93  1  0  0  0
 93 94  1  0  0  0
 94 95  1  0  0  0
 95 96  1  0  0  0
 95 97  2  0  0  0
  1  2  1  0  0  0
  2  3  2  0  0  0
  2  4  1  0  0  0
  4  6  1  0  0  0
  6 40  1  0  0  0
 40 41  1  0  0  0
 41 42  1  0  0  0
 42 43  1  0  0  0
 42 44  2  0  0  0
  6  7  1  0  0  0
  7  8  2  0  0  0
  7  9  1  0  0  0
  9 11  1  0  0  0
 11 29  1  0  0  0
 29 30  1  0  0  0
 30 31  1  0  0  0
 31 32  1  0  0  0
 32 34  1  0  0  0
 34 35  1  0  0  0
 34 36  2  0  0  0
 11 12  1  0  0  0
 12 13  2  0  0  0
 12 14  1  0  0  0
 14 16  1  0  0  0
 16 17  1  0  0  0
 17 18  2  0  0  0
 18 19  1  0  0  0
 19 20  2  0  0  0
 20 21  1  0  0  0
 21 22  2  0  0  0
 20 23  1  0  0  0
 23 24  1  0  0  0
 23 25  2  0  0  0
 22 17  1  0  0  0
 52 55  1  0  0  0
 85 87  1  0  0  0
 85 88  1  0  0  0
 57 60  1  0  0  0
 78 80  1  0  0  0
 78 81  1  0  0  0
 62 65  1  0  0  0
 67 71  1  0  0  0
 49 50  1  0  0  0
 96 98  1  0  0  0
 96 99  1  0  0  0
  4  5  1  0  0  0
 43 45  1  0  0  0
 43 46  1  0  0  0
  9 10  1  0  0  0
 32 33  1  0  0  0
 35 37  1  0  0  0
 35 38  1  0  0  0
 36 39  1  0  0  0
 14 15  1  0  0  0
 24 26  1  0  0  0
 24 27  1  0  0  0
 25 28  1  0  0  0
M  END
> <minimizedAffinity>
-7.28886

> <CNNscore>
0.0955088213

> <CNNaffinity>
7.3904776573

> <CNN_VS>
0.7058557868

> <CNNaffinity_variance>
0.4814904332

$$$$
[H]N=C(c1c([H])c([H])c(C([H])([H])N([H])C(=O)[C@@]([H])(N([H])C(=O)[C@@]([H])(N([H])C(=O)[C@@]([H])(N([H])C(=O)[C@@]([H])(N([H])C(=O)[C@@]([H])(N([H])C(=O)[C@@]([H])(N([H])C(=O)[C@@]([H])(N([H])C(=O)C([H])([H])[H])C([H])(C([H])([H])[H])C([H])([H])[H])C([H])([H])C([H])([H])C(=O)N([H])[H])C([H])([H])C([H])([H])C(=O)N([H])[H])C([H])([H])C([H])(C([H])([H])[H])C([H])([H])[H])C([H])([H])C([H])([H])C(=O)N([H])[H])C([H])([H])C([H])([H])C(=O)N([H])[H])C([H])([H])C([H])([H])C([H])([H])N([H])C(=N[H])N([H])[H])c([H])c1[H])N([H])[H]


 99 99  0  0  0  0  0  0  0  0999 V2000
   -7.8518   23.4371  -21.4811 C   0  0  0  0  0  0  0  0  0  0  0  0
   -6.6944   23.1261  -22.3831 C   0  0  0  0  0  0  0  0  0  0  0  0
   -6.4137   21.9564  -22.6703 O   0  0  0  0  0  0  0  0  0  0  0  0
   -5.9899   24.2334  -22.8600 N   0  0  0  0  0  0  0  0  0  0  0  0
   -6.3284   25.2062  -22.5363 H   0  0  0  0  0  0  0  0  0  0  0  0
   -4.8496   24.3238  -23.7320 C   0  0  0  0  0  0  0  0  0  0  0  0
   -3.5673   24.4808  -22.9692 C   0  0  0  0  0  0  0  0  0  0  0  0
   -2.7837   25.3494  -23.4929 O   0  0  0  0  0  0  0  0  0  0  0  0
   -3.2521   23.7801  -21.8078 N   0  0  0  0  0  0  0  0  0  0  0  0
   -2.1486   24.6723  -21.7471 H   0  0  0  0  0  0  0  0  0  0  0  0
   -2.7174   23.2346  -20.6637 C   0  0  0  0  0  0  0  0  0  0  0  0
   -1.2471   22.8573  -20.9154 C   0  0  0  0  0  0  0  0  0  0  0  0
   -0.5191   23.4120  -19.9896 O   0  0  0  0  0  0  0  0  0  0  0  0
   -0.7275   22.1142  -21.8791 N   0  0  0  0  0  0  0  0  0  0  0  0
    0.5304   22.3026  -21.3320 H   0  0  0  0  0  0  0  0  0  0  0  0
   -0.1058   21.3402  -22.8678 C   0  0  0  0  0  0  0  0  0  0  0  0
   -0.5099   21.6861  -24.2533 C   0  0  0  0  0  0  0  0  0  0  0  0
   -1.8380   21.8750  -24.6132 C   0  0  0  0  0  0  0  0  0  0  0  0
   -2.1746   22.2801  -25.8544 C   0  0  0  0  0  0  0  0  0  0  0  0
   -1.1836   22.5262  -26.8182 C   0  0  0  0  0  0  0  0  0  0  0  0
    0.1342   22.3318  -26.4509 C   0  0  0  0  0  0  0  0  0  0  0  0
    0.4940   21.9157  -25.1873 C   0  0  0  0  0  0  0  0  0  0  0  0
   -1.5959   23.0032  -28.1172 C   0  0  0  0  0  0  0  0  0  0  0  0
   -2.9880   23.0836  -28.4117 N   0  0  0  0  0  0  0  0  0  0  0  0
   -0.7624   23.3861  -29.0286 N   0  0  0  0  0  0  0  0  0  0  0  0
   -3.6408   22.3091  -28.1919 H   0  0  0  0  0  0  0  0  0  0  0  0
   -3.3528   23.9394  -28.8655 H   0  0  0  0  0  0  0  0  0  0  0  0
   -1.1208   23.7238  -29.9567 H   0  0  0  0  0  0  0  0  0  0  0  0
   -3.4824   21.9136  -20.4794 C   0  0  0  0  0  0  0  0  0  0  0  0
   -4.0083   21.5549  -19.1617 C   0  0  0  0  0  0  0  0  0  0  0  0
   -4.0430   22.6020  -18.1167 C   0  0  0  0  0  0  0  0  0  0  0  0
   -5.1014   23.5056  -17.9719 N   0  0  0  0  0  0  0  0  0  0  0  0
   -5.7126   23.7033  -18.8369 H   0  0  0  0  0  0  0  0  0  0  0  0
   -5.4893   24.2168  -16.8301 C   0  0  0  0  0  0  0  0  0  0  0  0
   -6.4051   23.7230  -15.8686 N   0  0  0  0  0  0  0  0  0  0  0  0
   -4.9992   25.4117  -16.6358 N   0  0  0  0  0  0  0  0  0  0  0  0
   -6.3333   24.0646  -14.8930 H   0  0  0  0  0  0  0  0  0  0  0  0
   -7.1633   23.0298  -16.0630 H   0  0  0  0  0  0  0  0  0  0  0  0
   -4.3394   25.8489  -17.2873 H   0  0  0  0  0  0  0  0  0  0  0  0
   -5.0584   25.5812  -24.5736 C   0  0  0  0  0  0  0  0  0  0  0  0
   -4.8521   25.3489  -26.0477 C   0  0  0  0  0  0  0  0  0  0  0  0
   -5.9812   24.5891  -26.6525 C   0  0  0  0  0  0  0  0  0  0  0  0
   -7.3113   24.8753  -26.1658 N   0  0  0  0  0  0  0  0  0  0  0  0
   -5.8938   23.7346  -27.5350 O   0  0  0  0  0  0  0  0  0  0  0  0
   -7.5384   25.8236  -25.8401 H   0  0  0  0  0  0  0  0  0  0  0  0
   -7.9861   24.0845  -26.1704 H   0  0  0  0  0  0  0  0  0  0  0  0
   -9.4734   25.5950  -22.0978 C   0  0  0  0  0  0  0  0  0  0  0  0
   -9.1618   26.7747  -22.1106 O   0  0  0  0  0  0  0  0  0  0  0  0
   -8.7365   24.4616  -21.8019 N   0  0  0  0  0  0  0  0  0  0  0  0
   -7.6589   25.3568  -21.6227 H   0  0  0  0  0  0  0  0  0  0  0  0
  -10.9589   25.3572  -22.4888 C   0  0  0  0  0  0  0  0  0  0  0  0
  -11.7364   24.6671  -21.5596 N   0  0  0  0  0  0  0  0  0  0  0  0
  -12.1232   24.8116  -20.2222 C   0  0  0  0  0  0  0  0  0  0  0  0
  -11.7796   25.7968  -19.5375 O   0  0  0  0  0  0  0  0  0  0  0  0
  -12.1627   23.7508  -22.0109 H   0  0  0  0  0  0  0  0  0  0  0  0
  -12.9574   23.7600  -19.5883 C   0  0  0  0  0  0  0  0  0  0  0  0
  -12.2836   22.8868  -18.7492 N   0  0  0  0  0  0  0  0  0  0  0  0
  -11.9105   22.9593  -17.3819 C   0  0  0  0  0  0  0  0  0  0  0  0
  -12.2588   23.9874  -16.7366 O   0  0  0  0  0  0  0  0  0  0  0  0
  -12.0495   21.8940  -19.1717 H   0  0  0  0  0  0  0  0  0  0  0  0
  -11.1783   21.8810  -16.7147 C   0  0  0  0  0  0  0  0  0  0  0  0
  -10.6907   22.3531  -15.4387 N   0  0  0  0  0  0  0  0  0  0  0  0
   -9.4390   22.1077  -14.8865 C   0  0  0  0  0  0  0  0  0  0  0  0
   -8.6503   21.4040  -15.6133 O   0  0  0  0  0  0  0  0  0  0  0  0
  -11.3666   22.9586  -14.9166 H   0  0  0  0  0  0  0  0  0  0  0  0
   -8.9205   22.5521  -13.5842 C   0  0  0  0  0  0  0  0  0  0  0  0
   -9.7079   23.5329  -12.8946 N   0  0  0  0  0  0  0  0  0  0  0  0
   -9.5420   24.9245  -12.8935 C   0  0  0  0  0  0  0  0  0  0  0  0
  -10.4012   25.8590  -12.1099 C   0  0  0  0  0  0  0  0  0  0  0  0
   -8.6317   25.4542  -13.5725 O   0  0  0  0  0  0  0  0  0  0  0  0
  -10.5184   23.1658  -12.3117 H   0  0  0  0  0  0  0  0  0  0  0  0
   -8.3480   21.5541  -12.6718 C   0  0  0  0  0  0  0  0  0  0  0  0
   -9.0913   21.3061  -11.3730 C   0  0  0  0  0  0  0  0  0  0  0  0
   -6.8694   21.8095  -12.3968 C   0  0  0  0  0  0  0  0  0  0  0  0
  -11.7183   20.5310  -16.8195 C   0  0  0  0  0  0  0  0  0  0  0  0
  -13.1766   20.2831  -16.6628 C   0  0  0  0  0  0  0  0  0  0  0  0
  -13.7666   19.8902  -17.9754 C   0  0  0  0  0  0  0  0  0  0  0  0
  -13.4536   18.6061  -18.4714 N   0  0  0  0  0  0  0  0  0  0  0  0
  -14.5048   20.6484  -18.6132 O   0  0  0  0  0  0  0  0  0  0  0  0
  -13.9894   17.7695  -18.1457 H   0  0  0  0  0  0  0  0  0  0  0  0
  -12.6645   18.5333  -19.1735 H   0  0  0  0  0  0  0  0  0  0  0  0
  -14.3400   24.1918  -19.1819 C   0  0  0  0  0  0  0  0  0  0  0  0
  -15.1712   24.5023  -20.4217 C   0  0  0  0  0  0  0  0  0  0  0  0
  -15.4936   25.9410  -20.4678 C   0  0  0  0  0  0  0  0  0  0  0  0
  -14.8371   26.9695  -19.7524 N   0  0  0  0  0  0  0  0  0  0  0  0
  -16.4677   26.3038  -21.2253 O   0  0  0  0  0  0  0  0  0  0  0  0
  -14.2856   27.6797  -20.2929 H   0  0  0  0  0  0  0  0  0  0  0  0
  -14.8751   27.0535  -18.7309 H   0  0  0  0  0  0  0  0  0  0  0  0
  -11.4935   26.7763  -22.6678 C   0  0  0  0  0  0  0  0  0  0  0  0
  -13.5207   28.2761  -22.8954 C   0  0  0  0  0  0  0  0  0  0  0  0
  -12.8956   26.9288  -23.0931 C   0  0  0  0  0  0  0  0  0  0  0  0
  -13.0174   26.5430  -24.5645 C   0  0  0  0  0  0  0  0  0  0  0  0
   -8.6135   22.1360  -21.2735 C   0  0  0  0  0  0  0  0  0  0  0  0
   -9.3386   22.0062  -19.9955 C   0  0  0  0  0  0  0  0  0  0  0  0
   -8.3587   22.1656  -18.8552 C   0  0  0  0  0  0  0  0  0  0  0  0
   -7.5471   21.0927  -18.4182 N   0  0  0  0  0  0  0  0  0  0  0  0
   -8.2960   23.2957  -18.3166 O   0  0  0  0  0  0  0  0  0  0  0  0
   -6.8076   21.2683  -17.7051 H   0  0  0  0  0  0  0  0  0  0  0  0
   -7.7047   20.1317  -18.7878 H   0  0  0  0  0  0  0  0  0  0  0  0
 90 91  1  0  0  0
 91 92  1  0  0  0
 91 89  1  0  0  0
 89 51  1  0  0  0
 51 52  1  0  0  0
 52 53  1  0  0  0
 53 54  2  0  0  0
 53 56  1  0  0  0
 56 82  1  0  0  0
 82 83  1  0  0  0
 83 84  1  0  0  0
 84 85  1  0  0  0
 84 86  2  0  0  0
 56 57  1  0  0  0
 57 58  1  0  0  0
 58 59  2  0  0  0
 58 61  1  0  0  0
 61 75  1  0  0  0
 75 76  1  0  0  0
 76 77  1  0  0  0
 77 78  1  0  0  0
 77 79  2  0  0  0
 61 62  1  0  0  0
 62 63  1  0  0  0
 63 64  2  0  0  0
 63 66  1  0  0  0
 66 67  1  0  0  0
 67 68  1  0  0  0
 68 69  1  0  0  0
 68 70  2  0  0  0
 66 72  1  0  0  0
 72 73  1  0  0  0
 72 74  1  0  0  0
 51 47  1  0  0  0
 47 48  2  0  0  0
 47 49  1  0  0  0
 49  1  1  0  0  0
  1 93  1  0  0  0
 93 94  1  0  0  0
 94 95  1  0  0  0
 95 96  1  0  0  0
 95 97  2  0  0  0
  1  2  1  0  0  0
  2  3  2  0  0  0
  2  4  1  0  0  0
  4  6  1  0  0  0
  6 40  1  0  0  0
 40 41  1  0  0  0
 41 42  1  0  0  0
 42 43  1  0  0  0
 42 44  2  0  0  0
  6  7  1  0  0  0
  7  8  2  0  0  0
  7  9  1  0  0  0
  9 11  1  0  0  0
 11 29  1  0  0  0
 29 30  1  0  0  0
 30 31  1  0  0  0
 31 32  1  0  0  0
 32 34  1  0  0  0
 34 35  1  0  0  0
 34 36  2  0  0  0
 11 12  1  0  0  0
 12 13  2  0  0  0
 12 14  1  0  0  0
 14 16  1  0  0  0
 16 17  1  0  0  0
 17 18  2  0  0  0
 18 19  1  0  0  0
 19 20  2  0  0  0
 20 21  1  0  0  0
 21 22  2  0  0  0
 20 23  1  0  0  0
 23 24  1  0  0  0
 23 25  2  0  0  0
 22 17  1  0  0  0
 52 55  1  0  0  0
 85 87  1  0  0  0
 85 88  1  0  0  0
 57 60  1  0  0  0
 78 80  1  0  0  0
 78 81  1  0  0  0
 62 65  1  0  0  0
 67 71  1  0  0  0
 49 50  1  0  0  0
 96 98  1  0  0  0
 96 99  1  0  0  0
  4  5  1  0  0  0
 43 45  1  0  0  0
 43 46  1  0  0  0
  9 10  1  0  0  0
 32 33  1  0  0  0
 35 37  1  0  0  0
 35 38  1  0  0  0
 36 39  1  0  0  0
 14 15  1  0  0  0
 24 26  1  0  0  0
 24 27  1  0  0  0
 25 28  1  0  0  0
M  END
> <minimizedAffinity>
-7.91192

> <CNNscore>
0.0944015309

> <CNNaffinity>
7.3728437424

> <CNN_VS>
0.6960077286

> <CNNaffinity_variance>
1.1589696407

$$$$
[H]N=C(c1c([H])c([H])c(C([H])([H])N([H])C(=O)[C@@]([H])(N([H])C(=O)[C@@]([H])(N([H])C(=O)[C@@]([H])(N([H])C(=O)[C@@]([H])(N([H])C(=O)[C@@]([H])(N([H])C(=O)[C@@]([H])(N([H])C(=O)[C@@]([H])(N([H])C(=O)C([H])([H])[H])C([H])(C([H])([H])[H])C([H])([H])[H])C([H])([H])C([H])([H])C(=O)N([H])[H])C([H])([H])C([H])([H])C(=O)N([H])[H])C([H])([H])C([H])(C([H])([H])[H])C([H])([H])[H])C([H])([H])C([H])([H])C(=O)N([H])[H])C([H])([H])C([H])([H])C(=O)N([H])[H])C([H])([H])C([H])([H])C([H])([H])N([H])C(=N[H])N([H])[H])c([H])c1[H])N([H])[H]


 99 99  0  0  0  0  0  0  0  0999 V2000
   -0.6687   22.6770  -19.0083 C   0  0  0  0  0  0  0  0  0  0  0  0
    0.6460   23.3835  -18.8593 C   0  0  0  0  0  0  0  0  0  0  0  0
    0.6976   24.6182  -18.8079 O   0  0  0  0  0  0  0  0  0  0  0  0
    1.7674   22.5554  -18.7790 N   0  0  0  0  0  0  0  0  0  0  0  0
    1.5960   21.4911  -18.8388 H   0  0  0  0  0  0  0  0  0  0  0  0
    3.1637   22.8673  -18.6308 C   0  0  0  0  0  0  0  0  0  0  0  0
    4.0252   22.0464  -19.5444 C   0  0  0  0  0  0  0  0  0  0  0  0
    5.2721   22.3167  -19.4234 O   0  0  0  0  0  0  0  0  0  0  0  0
    3.5423   21.0799  -20.4229 N   0  0  0  0  0  0  0  0  0  0  0  0
    4.9166   20.7671  -20.5988 H   0  0  0  0  0  0  0  0  0  0  0  0
    3.3233   20.0850  -21.3474 C   0  0  0  0  0  0  0  0  0  0  0  0
    2.5550   20.6629  -22.5488 C   0  0  0  0  0  0  0  0  0  0  0  0
    3.3949   20.8268  -23.5299 O   0  0  0  0  0  0  0  0  0  0  0  0
    1.2729   20.9740  -22.6504 N   0  0  0  0  0  0  0  0  0  0  0  0
    1.4818   21.3617  -23.9632 H   0  0  0  0  0  0  0  0  0  0  0  0
   -0.0708   21.3267  -22.8327 C   0  0  0  0  0  0  0  0  0  0  0  0
   -0.3827   21.8517  -24.1853 C   0  0  0  0  0  0  0  0  0  0  0  0
    0.6079   22.1469  -25.1130 C   0  0  0  0  0  0  0  0  0  0  0  0
    0.2980   22.5335  -26.3670 C   0  0  0  0  0  0  0  0  0  0  0  0
   -1.0429   22.6438  -26.7690 C   0  0  0  0  0  0  0  0  0  0  0  0
   -2.0205   22.3512  -25.8374 C   0  0  0  0  0  0  0  0  0  0  0  0
   -1.7198   21.9573  -24.5514 C   0  0  0  0  0  0  0  0  0  0  0  0
   -1.3188   23.0164  -28.1364 C   0  0  0  0  0  0  0  0  0  0  0  0
   -0.2268   23.3034  -29.0061 N   0  0  0  0  0  0  0  0  0  0  0  0
   -2.5141   23.0826  -28.6252 N   0  0  0  0  0  0  0  0  0  0  0  0
    0.5595   23.9135  -28.7163 H   0  0  0  0  0  0  0  0  0  0  0  0
   -0.2262   22.8948  -29.9571 H   0  0  0  0  0  0  0  0  0  0  0  0
   -2.6542   23.3602  -29.6288 H   0  0  0  0  0  0  0  0  0  0  0  0
    2.3630   19.1143  -20.6404 C   0  0  0  0  0  0  0  0  0  0  0  0
    2.6843   18.6188  -19.3014 C   0  0  0  0  0  0  0  0  0  0  0  0
    2.0221   17.3785  -18.8399 C   0  0  0  0  0  0  0  0  0  0  0  0
    0.8278   16.8979  -19.3880 N   0  0  0  0  0  0  0  0  0  0  0  0
   -0.0865   17.3955  -19.1099 H   0  0  0  0  0  0  0  0  0  0  0  0
    0.6434   15.8257  -20.2691 C   0  0  0  0  0  0  0  0  0  0  0  0
    1.2412   15.7488  -21.5512 N   0  0  0  0  0  0  0  0  0  0  0  0
   -0.1346   14.8407  -19.9082 N   0  0  0  0  0  0  0  0  0  0  0  0
    1.4218   14.8138  -21.9596 H   0  0  0  0  0  0  0  0  0  0  0  0
    1.5208   16.5714  -22.1329 H   0  0  0  0  0  0  0  0  0  0  0  0
   -0.6150   14.8217  -19.0028 H   0  0  0  0  0  0  0  0  0  0  0  0
    3.5266   22.5126  -17.1902 C   0  0  0  0  0  0  0  0  0  0  0  0
    3.4124   23.6804  -16.2454 C   0  0  0  0  0  0  0  0  0  0  0  0
    2.6958   23.3121  -14.9928 C   0  0  0  0  0  0  0  0  0  0  0  0
    1.5900   22.3890  -15.1065 N   0  0  0  0  0  0  0  0  0  0  0  0
    2.9551   23.7182  -13.8594 O   0  0  0  0  0  0  0  0  0  0  0  0
    1.6066   21.6662  -15.8374 H   0  0  0  0  0  0  0  0  0  0  0  0
    0.8147   22.5091  -14.4245 H   0  0  0  0  0  0  0  0  0  0  0  0
   -2.2638   23.4685  -21.1286 C   0  0  0  0  0  0  0  0  0  0  0  0
   -1.9940   24.2876  -21.9918 O   0  0  0  0  0  0  0  0  0  0  0  0
   -1.5358   23.0180  -20.0413 N   0  0  0  0  0  0  0  0  0  0  0  0
   -0.5241   23.8824  -20.5145 H   0  0  0  0  0  0  0  0  0  0  0  0
   -3.6729   22.8384  -21.3116 C   0  0  0  0  0  0  0  0  0  0  0  0
   -4.4956   22.8345  -20.1858 N   0  0  0  0  0  0  0  0  0  0  0  0
   -5.1959   21.8966  -19.4183 C   0  0  0  0  0  0  0  0  0  0  0  0
   -5.1520   20.6743  -19.6665 O   0  0  0  0  0  0  0  0  0  0  0  0
   -4.6286   23.8618  -19.7958 H   0  0  0  0  0  0  0  0  0  0  0  0
   -6.0276   22.3628  -18.2805 C   0  0  0  0  0  0  0  0  0  0  0  0
   -7.3923   22.4100  -18.5168 N   0  0  0  0  0  0  0  0  0  0  0  0
   -8.2687   23.4596  -18.8965 C   0  0  0  0  0  0  0  0  0  0  0  0
   -7.7602   24.5966  -19.1053 O   0  0  0  0  0  0  0  0  0  0  0  0
   -7.9204   21.4407  -18.4963 H   0  0  0  0  0  0  0  0  0  0  0  0
   -9.7062   23.2487  -19.0777 C   0  0  0  0  0  0  0  0  0  0  0  0
  -10.2335   24.2745  -19.9488 N   0  0  0  0  0  0  0  0  0  0  0  0
  -11.2569   25.1676  -19.6541 C   0  0  0  0  0  0  0  0  0  0  0  0
  -11.7525   25.0603  -18.4757 O   0  0  0  0  0  0  0  0  0  0  0  0
   -9.7553   24.3382  -20.8779 H   0  0  0  0  0  0  0  0  0  0  0  0
  -11.8317   26.2053  -20.5229 C   0  0  0  0  0  0  0  0  0  0  0  0
  -11.1186   27.4488  -20.5749 N   0  0  0  0  0  0  0  0  0  0  0  0
  -11.6481   28.7405  -20.6977 C   0  0  0  0  0  0  0  0  0  0  0  0
  -10.8114   29.9731  -20.7767 C   0  0  0  0  0  0  0  0  0  0  0  0
  -12.8880   28.9142  -20.7502 O   0  0  0  0  0  0  0  0  0  0  0  0
  -10.0583   27.3903  -20.5125 H   0  0  0  0  0  0  0  0  0  0  0  0
  -12.3687   25.8149  -21.8327 C   0  0  0  0  0  0  0  0  0  0  0  0
  -13.2332   24.5693  -21.8757 C   0  0  0  0  0  0  0  0  0  0  0  0
  -11.2815   25.7436  -22.9005 C   0  0  0  0  0  0  0  0  0  0  0  0
  -10.1755   21.8761  -19.2227 C   0  0  0  0  0  0  0  0  0  0  0  0
  -10.8055   21.1650  -18.0780 C   0  0  0  0  0  0  0  0  0  0  0  0
  -12.0415   21.8848  -17.6542 C   0  0  0  0  0  0  0  0  0  0  0  0
  -11.9964   22.5926  -16.4335 N   0  0  0  0  0  0  0  0  0  0  0  0
  -13.0713   21.8729  -18.3369 O   0  0  0  0  0  0  0  0  0  0  0  0
  -11.5975   23.5583  -16.3979 H   0  0  0  0  0  0  0  0  0  0  0  0
  -12.3766   22.1063  -15.5733 H   0  0  0  0  0  0  0  0  0  0  0  0
   -5.5697   21.9121  -16.9202 C   0  0  0  0  0  0  0  0  0  0  0  0
   -6.3219   22.6804  -15.8393 C   0  0  0  0  0  0  0  0  0  0  0  0
   -5.8492   24.0768  -15.7889 C   0  0  0  0  0  0  0  0  0  0  0  0
   -4.5788   24.5459  -16.1967 N   0  0  0  0  0  0  0  0  0  0  0  0
   -6.6627   24.9591  -15.3262 O   0  0  0  0  0  0  0  0  0  0  0  0
   -4.5250   25.1802  -17.0308 H   0  0  0  0  0  0  0  0  0  0  0  0
   -3.7083   24.2956  -15.7155 H   0  0  0  0  0  0  0  0  0  0  0  0
   -4.2908   23.7025  -22.4085 C   0  0  0  0  0  0  0  0  0  0  0  0
   -5.1629   21.5754  -23.4693 C   0  0  0  0  0  0  0  0  0  0  0  0
   -5.2570   23.0630  -23.3182 C   0  0  0  0  0  0  0  0  0  0  0  0
   -6.6730   23.4225  -22.8776 C   0  0  0  0  0  0  0  0  0  0  0  0
   -0.3679   21.1859  -19.0504 C   0  0  0  0  0  0  0  0  0  0  0  0
   -1.4899   20.3089  -19.4352 C   0  0  0  0  0  0  0  0  0  0  0  0
   -1.8611   19.4386  -18.2560 C   0  0  0  0  0  0  0  0  0  0  0  0
   -3.1662   19.4441  -17.7106 N   0  0  0  0  0  0  0  0  0  0  0  0
   -0.9580   18.7078  -17.7855 O   0  0  0  0  0  0  0  0  0  0  0  0
   -3.4145   18.7531  -16.9711 H   0  0  0  0  0  0  0  0  0  0  0  0
   -3.8641   20.1491  -18.0282 H   0  0  0  0  0  0  0  0  0  0  0  0
 90 91  1  0  0  0
 91 92  1  0  0  0
 91 89  1  0  0  0
 89 51  1  0  0  0
 51 52  1  0  0  0
 52 53  1  0  0  0
 53 54  2  0  0  0
 53 56  1  0  0  0
 56 82  1  0  0  0
 82 83  1  0  0  0
 83 84  1  0  0  0
 84 85  1  0  0  0
 84 86  2  0  0  0
 56 57  1  0  0  0
 57 58  1  0  0  0
 58 59  2  0  0  0
 58 61  1  0  0  0
 61 75  1  0  0  0
 75 76  1  0  0  0
 76 77  1  0  0  0
 77 78  1  0  0  0
 77 79  2  0  0  0
 61 62  1  0  0  0
 62 63  1  0  0  0
 63 64  2  0  0  0
 63 66  1  0  0  0
 66 67  1  0  0  0
 67 68  1  0  0  0
 68 69  1  0  0  0
 68 70  2  0  0  0
 66 72  1  0  0  0
 72 73  1  0  0  0
 72 74  1  0  0  0
 51 47  1  0  0  0
 47 48  2  0  0  0
 47 49  1  0  0  0
 49  1  1  0  0  0
  1 93  1  0  0  0
 93 94  1  0  0  0
 94 95  1  0  0  0
 95 96  1  0  0  0
 95 97  2  0  0  0
  1  2  1  0  0  0
  2  3  2  0  0  0
  2  4  1  0  0  0
  4  6  1  0  0  0
  6 40  1  0  0  0
 40 41  1  0  0  0
 41 42  1  0  0  0
 42 43  1  0  0  0
 42 44  2  0  0  0
  6  7  1  0  0  0
  7  8  2  0  0  0
  7  9  1  0  0  0
  9 11  1  0  0  0
 11 29  1  0  0  0
 29 30  1  0  0  0
 30 31  1  0  0  0
 31 32  1  0  0  0
 32 34  1  0  0  0
 34 35  1  0  0  0
 34 36  2  0  0  0
 11 12  1  0  0  0
 12 13  2  0  0  0
 12 14  1  0  0  0
 14 16  1  0  0  0
 16 17  1  0  0  0
 17 18  2  0  0  0
 18 19  1  0  0  0
 19 20  2  0  0  0
 20 21  1  0  0  0
 21 22  2  0  0  0
 20 23  1  0  0  0
 23 24  1  0  0  0
 23 25  2  0  0  0
 22 17  1  0  0  0
 52 55  1  0  0  0
 85 87  1  0  0  0
 85 88  1  0  0  0
 57 60  1  0  0  0
 78 80  1  0  0  0
 78 81  1  0  0  0
 62 65  1  0  0  0
 67 71  1  0  0  0
 49 50  1  0  0  0
 96 98  1  0  0  0
 96 99  1  0  0  0
  4  5  1  0  0  0
 43 45  1  0  0  0
 43 46  1  0  0  0
  9 10  1  0  0  0
 32 33  1  0  0  0
 35 37  1  0  0  0
 35 38  1  0  0  0
 36 39  1  0  0  0
 14 15  1  0  0  0
 24 26  1  0  0  0
 24 27  1  0  0  0
 25 28  1  0  0  0
M  END
> <minimizedAffinity>
-7.40464

> <CNNscore>
0.0924429372

> <CNNaffinity>
7.3810415268

> <CNN_VS>
0.6823251843

> <CNNaffinity_variance>
1.5900634527

$$$$
[H]N=C(c1c([H])c([H])c(C([H])([H])N([H])C(=O)[C@@]([H])(N([H])C(=O)[C@@]([H])(N([H])C(=O)[C@@]([H])(N([H])C(=O)[C@@]([H])(N([H])C(=O)[C@@]([H])(N([H])C(=O)[C@@]([H])(N([H])C(=O)[C@@]([H])(N([H])C(=O)C([H])([H])[H])C([H])(C([H])([H])[H])C([H])([H])[H])C([H])([H])C([H])([H])C(=O)N([H])[H])C([H])([H])C([H])([H])C(=O)N([H])[H])C([H])([H])C([H])(C([H])([H])[H])C([H])([H])[H])C([H])([H])C([H])([H])C(=O)N([H])[H])C([H])([H])C([H])([H])C(=O)N([H])[H])C([H])([H])C([H])([H])C([H])([H])N([H])C(=N[H])N([H])[H])c([H])c1[H])N([H])[H]


 99 99  0  0  0  0  0  0  0  0999 V2000
   -2.4955   22.4629  -22.2868 C   0  0  0  0  0  0  0  0  0  0  0  0
   -3.8645   21.8510  -22.2559 C   0  0  0  0  0  0  0  0  0  0  0  0
   -4.2514   21.1214  -23.1766 O   0  0  0  0  0  0  0  0  0  0  0  0
   -4.6353   22.1594  -21.1332 N   0  0  0  0  0  0  0  0  0  0  0  0
   -4.1895   22.8106  -20.3964 H   0  0  0  0  0  0  0  0  0  0  0  0
   -5.9666   21.7603  -20.7623 C   0  0  0  0  0  0  0  0  0  0  0  0
   -6.9955   22.2554  -21.7354 C   0  0  0  0  0  0  0  0  0  0  0  0
   -7.6389   21.3027  -22.3020 O   0  0  0  0  0  0  0  0  0  0  0  0
   -7.2497   23.5997  -21.9954 N   0  0  0  0  0  0  0  0  0  0  0  0
   -8.3591   23.0949  -22.7248 H   0  0  0  0  0  0  0  0  0  0  0  0
   -7.6916   24.8334  -22.4138 C   0  0  0  0  0  0  0  0  0  0  0  0
   -6.7838   25.3453  -23.5458 C   0  0  0  0  0  0  0  0  0  0  0  0
   -7.1099   26.5788  -23.8043 O   0  0  0  0  0  0  0  0  0  0  0  0
   -5.8242   24.7111  -24.1998 N   0  0  0  0  0  0  0  0  0  0  0  0
   -5.5854   25.8569  -24.9396 H   0  0  0  0  0  0  0  0  0  0  0  0
   -4.7965   24.1055  -24.9350 C   0  0  0  0  0  0  0  0  0  0  0  0
   -4.8804   24.3353  -26.3988 C   0  0  0  0  0  0  0  0  0  0  0  0
   -4.8026   23.2971  -27.3182 C   0  0  0  0  0  0  0  0  0  0  0  0
   -4.9749   23.5176  -28.6372 C   0  0  0  0  0  0  0  0  0  0  0  0
   -5.2429   24.8102  -29.1157 C   0  0  0  0  0  0  0  0  0  0  0  0
   -5.3146   25.8363  -28.1931 C   0  0  0  0  0  0  0  0  0  0  0  0
   -5.1384   25.6274  -26.8423 C   0  0  0  0  0  0  0  0  0  0  0  0
   -5.4653   24.9830  -30.5319 C   0  0  0  0  0  0  0  0  0  0  0  0
   -4.6247   25.8763  -31.2575 N   0  0  0  0  0  0  0  0  0  0  0  0
   -6.3809   24.3478  -31.1878 N   0  0  0  0  0  0  0  0  0  0  0  0
   -4.3978   26.8242  -30.9049 H   0  0  0  0  0  0  0  0  0  0  0  0
   -4.2372   25.5684  -32.1666 H   0  0  0  0  0  0  0  0  0  0  0  0
   -6.4969   24.5146  -32.2186 H   0  0  0  0  0  0  0  0  0  0  0  0
   -7.4468   25.7539  -21.2068 C   0  0  0  0  0  0  0  0  0  0  0  0
   -8.5819   26.3747  -20.5229 C   0  0  0  0  0  0  0  0  0  0  0  0
   -9.8278   26.5871  -21.2926 C   0  0  0  0  0  0  0  0  0  0  0  0
  -10.9924   25.8392  -21.0875 N   0  0  0  0  0  0  0  0  0  0  0  0
  -11.1799   25.0124  -21.7523 H   0  0  0  0  0  0  0  0  0  0  0  0
  -11.9835   26.0201  -20.1154 C   0  0  0  0  0  0  0  0  0  0  0  0
  -13.1888   26.7291  -20.3427 N   0  0  0  0  0  0  0  0  0  0  0  0
  -11.7923   25.5263  -18.9216 N   0  0  0  0  0  0  0  0  0  0  0  0
  -14.0237   26.4823  -19.7808 H   0  0  0  0  0  0  0  0  0  0  0  0
  -13.3106   27.4963  -21.0426 H   0  0  0  0  0  0  0  0  0  0  0  0
  -10.9438   25.0094  -18.6689 H   0  0  0  0  0  0  0  0  0  0  0  0
   -6.2420   22.4106  -19.4080 C   0  0  0  0  0  0  0  0  0  0  0  0
   -5.0260   23.0657  -18.8067 C   0  0  0  0  0  0  0  0  0  0  0  0
   -5.3331   23.7114  -17.5002 C   0  0  0  0  0  0  0  0  0  0  0  0
   -6.5230   23.2748  -16.8063 N   0  0  0  0  0  0  0  0  0  0  0  0
   -4.6673   24.5872  -16.9466 O   0  0  0  0  0  0  0  0  0  0  0  0
   -6.8389   22.3015  -16.9056 H   0  0  0  0  0  0  0  0  0  0  0  0
   -7.0099   23.9885  -16.2283 H   0  0  0  0  0  0  0  0  0  0  0  0
   -1.1012   22.9774  -19.9506 C   0  0  0  0  0  0  0  0  0  0  0  0
   -0.9299   24.0601  -19.4144 O   0  0  0  0  0  0  0  0  0  0  0  0
   -1.7748   22.6311  -21.1088 N   0  0  0  0  0  0  0  0  0  0  0  0
   -2.0856   24.0062  -21.1946 H   0  0  0  0  0  0  0  0  0  0  0  0
   -0.4394   21.8056  -19.1728 C   0  0  0  0  0  0  0  0  0  0  0  0
    0.9547   21.7790  -19.1702 N   0  0  0  0  0  0  0  0  0  0  0  0
    1.9759   20.9661  -19.6755 C   0  0  0  0  0  0  0  0  0  0  0  0
    1.7350   19.9558  -20.3675 O   0  0  0  0  0  0  0  0  0  0  0  0
    1.3606   22.6434  -18.6105 H   0  0  0  0  0  0  0  0  0  0  0  0
    3.3900   21.3021  -19.3739 C   0  0  0  0  0  0  0  0  0  0  0  0
    3.5809   22.3861  -18.5318 N   0  0  0  0  0  0  0  0  0  0  0  0
    3.1589   22.6618  -17.2052 C   0  0  0  0  0  0  0  0  0  0  0  0
    2.4986   21.7675  -16.6061 O   0  0  0  0  0  0  0  0  0  0  0  0
    4.2608   23.1729  -18.9029 H   0  0  0  0  0  0  0  0  0  0  0  0
    3.4926   23.9146  -16.5248 C   0  0  0  0  0  0  0  0  0  0  0  0
    3.4570   23.7057  -15.0950 N   0  0  0  0  0  0  0  0  0  0  0  0
    4.2769   22.8577  -14.3599 C   0  0  0  0  0  0  0  0  0  0  0  0
    5.1579   22.2229  -15.0428 O   0  0  0  0  0  0  0  0  0  0  0  0
    2.7462   24.2871  -14.5924 H   0  0  0  0  0  0  0  0  0  0  0  0
    4.2522   22.6048  -12.9115 C   0  0  0  0  0  0  0  0  0  0  0  0
    2.9561   22.4129  -12.3280 N   0  0  0  0  0  0  0  0  0  0  0  0
    2.0444   23.3935  -11.9142 C   0  0  0  0  0  0  0  0  0  0  0  0
    0.7278   23.0852  -11.2839 C   0  0  0  0  0  0  0  0  0  0  0  0
    2.3118   24.6089  -12.0608 O   0  0  0  0  0  0  0  0  0  0  0  0
    2.6424   21.4058  -12.1904 H   0  0  0  0  0  0  0  0  0  0  0  0
    5.2632   21.7119  -12.3311 C   0  0  0  0  0  0  0  0  0  0  0  0
    4.8570   20.2670  -12.1115 C   0  0  0  0  0  0  0  0  0  0  0  0
    5.8773   22.2898  -11.0599 C   0  0  0  0  0  0  0  0  0  0  0  0
    4.5487   24.7372  -17.1018 C   0  0  0  0  0  0  0  0  0  0  0  0
    5.9799   24.3845  -16.9015 C   0  0  0  0  0  0  0  0  0  0  0  0
    6.6985   24.4262  -18.2081 C   0  0  0  0  0  0  0  0  0  0  0  0
    6.8276   23.2133  -18.9190 N   0  0  0  0  0  0  0  0  0  0  0  0
    7.1652   25.4755  -18.6641 O   0  0  0  0  0  0  0  0  0  0  0  0
    6.0475   22.8713  -19.5252 H   0  0  0  0  0  0  0  0  0  0  0  0
    7.7339   22.6772  -18.8085 H   0  0  0  0  0  0  0  0  0  0  0  0
    4.3128   20.1245  -19.2163 C   0  0  0  0  0  0  0  0  0  0  0  0
    5.2958   20.0769  -20.3807 C   0  0  0  0  0  0  0  0  0  0  0  0
    4.8025   19.1563  -21.4224 C   0  0  0  0  0  0  0  0  0  0  0  0
    4.8232   17.7431  -21.3688 N   0  0  0  0  0  0  0  0  0  0  0  0
    4.3087   19.6806  -22.4880 O   0  0  0  0  0  0  0  0  0  0  0  0
    3.9082   17.2321  -21.3182 H   0  0  0  0  0  0  0  0  0  0  0  0
    5.6900   17.1948  -21.3773 H   0  0  0  0  0  0  0  0  0  0  0  0
   -0.9619   22.0040  -17.7518 C   0  0  0  0  0  0  0  0  0  0  0  0
   -0.6111   20.1786  -16.0327 C   0  0  0  0  0  0  0  0  0  0  0  0
   -1.4996   20.8250  -17.0514 C   0  0  0  0  0  0  0  0  0  0  0  0
   -2.8202   21.1982  -16.3840 C   0  0  0  0  0  0  0  0  0  0  0  0
   -1.6760   21.6644  -23.2901 C   0  0  0  0  0  0  0  0  0  0  0  0
   -0.2930   21.3441  -22.8889 C   0  0  0  0  0  0  0  0  0  0  0  0
    0.6410   21.6831  -24.0283 C   0  0  0  0  0  0  0  0  0  0  0  0
    2.0223   21.3839  -23.9703 N   0  0  0  0  0  0  0  0  0  0  0  0
    0.1330   22.2393  -25.0302 O   0  0  0  0  0  0  0  0  0  0  0  0
    2.6135   21.5317  -24.8157 H   0  0  0  0  0  0  0  0  0  0  0  0
    2.4480   21.0429  -23.0830 H   0  0  0  0  0  0  0  0  0  0  0  0
 90 91  1  0  0  0
 91 92  1  0  0  0
 91 89  1  0  0  0
 89 51  1  0  0  0
 51 52  1  0  0  0
 52 53  1  0  0  0
 53 54  2  0  0  0
 53 56  1  0  0  0
 56 82  1  0  0  0
 82 83  1  0  0  0
 83 84  1  0  0  0
 84 85  1  0  0  0
 84 86  2  0  0  0
 56 57  1  0  0  0
 57 58  1  0  0  0
 58 59  2  0  0  0
 58 61  1  0  0  0
 61 75  1  0  0  0
 75 76  1  0  0  0
 76 77  1  0  0  0
 77 78  1  0  0  0
 77 79  2  0  0  0
 61 62  1  0  0  0
 62 63  1  0  0  0
 63 64  2  0  0  0
 63 66  1  0  0  0
 66 67  1  0  0  0
 67 68  1  0  0  0
 68 69  1  0  0  0
 68 70  2  0  0  0
 66 72  1  0  0  0
 72 73  1  0  0  0
 72 74  1  0  0  0
 51 47  1  0  0  0
 47 48  2  0  0  0
 47 49  1  0  0  0
 49  1  1  0  0  0
  1 93  1  0  0  0
 93 94  1  0  0  0
 94 95  1  0  0  0
 95 96  1  0  0  0
 95 97  2  0  0  0
  1  2  1  0  0  0
  2  3  2  0  0  0
  2  4  1  0  0  0
  4  6  1  0  0  0
  6 40  1  0  0  0
 40 41  1  0  0  0
 41 42  1  0  0  0
 42 43  1  0  0  0
 42 44  2  0  0  0
  6  7  1  0  0  0
  7  8  2  0  0  0
  7  9  1  0  0  0
  9 11  1  0  0  0
 11 29  1  0  0  0
 29 30  1  0  0  0
 30 31  1  0  0  0
 31 32  1  0  0  0
 32 34  1  0  0  0
 34 35  1  0  0  0
 34 36  2  0  0  0
 11 12  1  0  0  0
 12 13  2  0  0  0
 12 14  1  0  0  0
 14 16  1  0  0  0
 16 17  1  0  0  0
 17 18  2  0  0  0
 18 19  1  0  0  0
 19 20  2  0  0  0
 20 21  1  0  0  0
 21 22  2  0  0  0
 20 23  1  0  0  0
 23 24  1  0  0  0
 23 25  2  0  0  0
 22 17  1  0  0  0
 52 55  1  0  0  0
 85 87  1  0  0  0
 85 88  1  0  0  0
 57 60  1  0  0  0
 78 80  1  0  0  0
 78 81  1  0  0  0
 62 65  1  0  0  0
 67 71  1  0  0  0
 49 50  1  0  0  0
 96 98  1  0  0  0
 96 99  1  0  0  0
  4  5  1  0  0  0
 43 45  1  0  0  0
 43 46  1  0  0  0
  9 10  1  0  0  0
 32 33  1  0  0  0
 35 37  1  0  0  0
 35 38  1  0  0  0
 36 39  1  0  0  0
 14 15  1  0  0  0
 24 26  1  0  0  0
 24 27  1  0  0  0
 25 28  1  0  0  0
M  END
> <minimizedAffinity>
-7.67353

> <CNNscore>
0.0897786021

> <CNNaffinity>
7.3570051193

> <CNN_VS>
0.6605016589

> <CNNaffinity_variance>
1.3986837864

$$$$
[H]C1=C(C(=O)[O-])N2C(=O)/C(=C(\[H])c3sc4c(c3[H])C(=O)C([H])([H])O4)[C@@]2([H])S1


 21 24  0  0  0  0  0  0  0  0999 V2000
   -0.6087   22.2476  -25.1736 C   0  0  0  0  0  0  0  0  0  0  0  0
   -0.2200   22.1594  -26.4231 C   0  0  0  0  0  0  0  0  0  0  0  0
   -1.5915   22.7710  -27.3983 S   0  0  0  0  0  0  0  0  0  0  0  0
   -2.8250   22.5489  -26.0487 C   0  0  0  0  0  0  0  0  0  0  0  0
   -1.8870   22.7686  -24.9440 N   0  0  0  0  0  0  0  0  0  0  0  0
   -2.9628   23.4305  -24.2778 C   0  0  0  0  0  0  0  0  0  0  0  0
   -3.3200   23.7177  -23.1012 O   0  0  0  0  0  0  0  0  0  0  0  0
   -3.5652   23.6816  -25.5952 C   0  0  0  0  0  0  0  0  0  0  0  0
   -4.4247   24.6041  -26.0439 C   0  0  0  0  0  0  0  0  0  0  0  0
   -4.8613   24.6093  -27.4519 C   0  0  0  0  0  0  0  0  0  0  0  0
   -4.9342   25.6900  -28.3028 C   0  0  0  0  0  0  0  0  0  0  0  0
   -5.3204   25.4556  -29.5711 C   0  0  0  0  0  0  0  0  0  0  0  0
   -5.5608   26.2311  -30.8198 C   0  0  0  0  0  0  0  0  0  0  0  0
   -5.7408   27.4683  -30.9568 O   0  0  0  0  0  0  0  0  0  0  0  0
   -5.5510   25.2362  -31.9404 C   0  0  0  0  0  0  0  0  0  0  0  0
   -5.9985   24.0587  -31.2642 O   0  0  0  0  0  0  0  0  0  0  0  0
   -5.6072   24.1691  -29.9099 C   0  0  0  0  0  0  0  0  0  0  0  0
   -5.3348   23.3155  -28.4591 S   0  0  0  0  0  0  0  0  0  0  0  0
   -0.2398   21.7210  -22.7585 O   0  0  0  0  0  0  0  0  0  0  0  0
    0.2697   21.8282  -24.0588 C   0  0  0  0  0  0  0  0  0  0  0  0
    1.4867   21.5514  -24.2002 O   0  0  0  0  0  0  0  0  0  0  0  0
 19 20  1  0  0  0
 20 21  2  0  0  0
 20  1  1  0  0  0
  1  2  2  0  0  0
  2  3  1  0  0  0
  3  4  1  0  0  0
  4  5  1  0  0  0
  5  6  1  0  0  0
  6  7  2  0  0  0
  6  8  1  0  0  0
  8  9  2  0  0  0
  9 10  1  0  0  0
 10 11  2  0  0  0
 11 12  1  0  0  0
 12 13  1  0  0  0
 13 14  2  0  0  0
 13 15  1  0  0  0
 15 16  1  0  0  0
 16 17  1  0  0  0
 17 18  1  0  0  0
  5  1  1  0  0  0
 18 10  1  0  0  0
  8  4  1  0  0  0
 17 12  2  0  0  0
M  CHG 1  19  -1
M  END
> <minimizedAffinity>
-7.66548

> <CNNscore>
0.6602687836

> <CNNaffinity>
6.3897466660

> <CNN_VS>
4.2189502716

> <CNNaffinity_variance>
0.5799508095

$$$$
[H]C1=C(C(=O)[O-])N2C(=O)/C(=C(\[H])c3sc4c(c3[H])C(=O)C([H])([H])O4)[C@@]2([H])S1


 21 24  0  0  0  0  0  0  0  0999 V2000
   -6.7337   24.9447  -22.8173 C   0  0  0  0  0  0  0  0  0  0  0  0
   -5.5795   24.9711  -22.1951 C   0  0  0  0  0  0  0  0  0  0  0  0
   -4.3759   24.3935  -23.3883 S   0  0  0  0  0  0  0  0  0  0  0  0
   -5.6334   23.5941  -24.4708 C   0  0  0  0  0  0  0  0  0  0  0  0
   -6.7240   24.5195  -24.1505 N   0  0  0  0  0  0  0  0  0  0  0  0
   -7.1185   24.3894  -25.5168 C   0  0  0  0  0  0  0  0  0  0  0  0
   -8.1564   24.5216  -26.2239 O   0  0  0  0  0  0  0  0  0  0  0  0
   -5.7350   24.0059  -25.8334 C   0  0  0  0  0  0  0  0  0  0  0  0
   -5.0062   24.0649  -26.9543 C   0  0  0  0  0  0  0  0  0  0  0  0
   -3.6086   23.5964  -26.9729 C   0  0  0  0  0  0  0  0  0  0  0  0
   -2.8032   23.3188  -25.8905 C   0  0  0  0  0  0  0  0  0  0  0  0
   -1.5642   22.8561  -26.1421 C   0  0  0  0  0  0  0  0  0  0  0  0
   -0.3586   22.4363  -25.3746 C   0  0  0  0  0  0  0  0  0  0  0  0
   -0.0614   22.6823  -24.1776 O   0  0  0  0  0  0  0  0  0  0  0  0
    0.4810   21.6309  -26.3192 C   0  0  0  0  0  0  0  0  0  0  0  0
    0.1123   22.2094  -27.5736 O   0  0  0  0  0  0  0  0  0  0  0  0
   -1.2078   22.6998  -27.4463 C   0  0  0  0  0  0  0  0  0  0  0  0
   -2.6013   23.2000  -28.2922 S   0  0  0  0  0  0  0  0  0  0  0  0
   -8.8160   26.3239  -22.7269 O   0  0  0  0  0  0  0  0  0  0  0  0
   -7.9851   25.3585  -22.1442 C   0  0  0  0  0  0  0  0  0  0  0  0
   -8.3703   24.8884  -21.0450 O   0  0  0  0  0  0  0  0  0  0  0  0
 19 20  1  0  0  0
 20 21  2  0  0  0
 20  1  1  0  0  0
  1  2  2  0  0  0
  2  3  1  0  0  0
  3  4  1  0  0  0
  4  5  1  0  0  0
  5  6  1  0  0  0
  6  7  2  0  0  0
  6  8  1  0  0  0
  8  9  2  0  0  0
  9 10  1  0  0  0
 10 11  2  0  0  0
 11 12  1  0  0  0
 12 13  1  0  0  0
 13 14  2  0  0  0
 13 15  1  0  0  0
 15 16  1  0  0  0
 16 17  1  0  0  0
 17 18  1  0  0  0
  5  1  1  0  0  0
 18 10  1  0  0  0
  8  4  1  0  0  0
 17 12  2  0  0  0
M  CHG 1  19  -1
M  END
> <minimizedAffinity>
-7.07278

> <CNNscore>
0.6421808004

> <CNNaffinity>
5.9470710754

> <CNN_VS>
3.8190948963

> <CNNaffinity_variance>
0.4895525873

$$$$
[H]C1=C(C(=O)[O-])N2C(=O)/C(=C(\[H])c3sc4c(c3[H])C(=O)C([H])([H])O4)[C@@]2([H])S1


 21 24  0  0  0  0  0  0  0  0999 V2000
   -6.7803   25.0065  -22.7590 C   0  0  0  0  0  0  0  0  0  0  0  0
   -7.8666   24.8142  -23.4683 C   0  0  0  0  0  0  0  0  0  0  0  0
   -7.3234   24.7505  -25.1733 S   0  0  0  0  0  0  0  0  0  0  0  0
   -5.7174   25.5860  -24.8335 C   0  0  0  0  0  0  0  0  0  0  0  0
   -5.5729   25.0912  -23.4614 N   0  0  0  0  0  0  0  0  0  0  0  0
   -4.1740   25.0017  -23.7341 C   0  0  0  0  0  0  0  0  0  0  0  0
   -3.0804   24.9947  -23.1028 O   0  0  0  0  0  0  0  0  0  0  0  0
   -4.5038   24.9119  -25.1640 C   0  0  0  0  0  0  0  0  0  0  0  0
   -3.8584   24.3989  -26.2181 C   0  0  0  0  0  0  0  0  0  0  0  0
   -4.4502   24.4539  -27.5671 C   0  0  0  0  0  0  0  0  0  0  0  0
   -4.5927   25.5602  -28.3753 C   0  0  0  0  0  0  0  0  0  0  0  0
   -5.1245   25.3707  -29.5976 C   0  0  0  0  0  0  0  0  0  0  0  0
   -5.4854   26.1869  -30.7901 C   0  0  0  0  0  0  0  0  0  0  0  0
   -5.6502   27.4309  -30.8731 O   0  0  0  0  0  0  0  0  0  0  0  0
   -5.6251   25.2249  -31.9307 C   0  0  0  0  0  0  0  0  0  0  0  0
   -6.0215   24.0377  -31.2396 O   0  0  0  0  0  0  0  0  0  0  0  0
   -5.4780   24.1007  -29.9359 C   0  0  0  0  0  0  0  0  0  0  0  0
   -5.0645   23.2000  -28.5483 S   0  0  0  0  0  0  0  0  0  0  0  0
   -7.9035   24.5709  -20.5692 O   0  0  0  0  0  0  0  0  0  0  0  0
   -6.8288   25.1152  -21.2838 C   0  0  0  0  0  0  0  0  0  0  0  0
   -5.9413   25.6830  -20.6000 O   0  0  0  0  0  0  0  0  0  0  0  0
 19 20  1  0  0  0
 20 21  2  0  0  0
 20  1  1  0  0  0
  1  2  2  0  0  0
  2  3  1  0  0  0
  3  4  1  0  0  0
  4  5  1  0  0  0
  5  6  1  0  0  0
  6  7  2  0  0  0
  6  8  1  0  0  0
  8  9  2  0  0  0
  9 10  1  0  0  0
 10 11  2  0  0  0
 11 12  1  0  0  0
 12 13  1  0  0  0
 13 14  2  0  0  0
 13 15  1  0  0  0
 15 16  1  0  0  0
 16 17  1  0  0  0
 17 18  1  0  0  0
  5  1  1  0  0  0
 18 10  1  0  0  0
  8  4  1  0  0  0
 17 12  2  0  0  0
M  CHG 1  19  -1
M  END
> <minimizedAffinity>
-7.36079

> <CNNscore>
0.4989944398

> <CNNaffinity>
5.8343048096

> <CNN_VS>
2.9112856388

> <CNNaffinity_variance>
0.2152902782

$$$$
[H]C1=C(C(=O)[O-])N2C(=O)/C(=C(\[H])c3sc4c(c3[H])C(=O)C([H])([H])O4)[C@@]2([H])S1


 21 24  0  0  0  0  0  0  0  0999 V2000
   -4.5483   22.9751  -26.4979 C   0  0  0  0  0  0  0  0  0  0  0  0
   -4.9521   22.8401  -25.2574 C   0  0  0  0  0  0  0  0  0  0  0  0
   -3.5048   22.3348  -24.3322 S   0  0  0  0  0  0  0  0  0  0  0  0
   -2.5827   21.7708  -25.8235 C   0  0  0  0  0  0  0  0  0  0  0  0
   -3.1958   22.7231  -26.7539 N   0  0  0  0  0  0  0  0  0  0  0  0
   -1.9167   22.7961  -27.3847 C   0  0  0  0  0  0  0  0  0  0  0  0
   -1.4270   23.0905  -28.5109 O   0  0  0  0  0  0  0  0  0  0  0  0
   -1.3157   22.3586  -26.1164 C   0  0  0  0  0  0  0  0  0  0  0  0
   -0.0961   22.5076  -25.5860 C   0  0  0  0  0  0  0  0  0  0  0  0
    0.2259   21.9472  -24.2611 C   0  0  0  0  0  0  0  0  0  0  0  0
   -0.6314   21.7603  -23.1993 C   0  0  0  0  0  0  0  0  0  0  0  0
   -0.1288   21.1857  -22.0904 C   0  0  0  0  0  0  0  0  0  0  0  0
   -0.6000   20.7898  -20.7340 C   0  0  0  0  0  0  0  0  0  0  0  0
   -1.6259   21.1703  -20.1140 O   0  0  0  0  0  0  0  0  0  0  0  0
    0.4069   19.8122  -20.2084 C   0  0  0  0  0  0  0  0  0  0  0  0
    1.5880   20.2444  -20.8885 O   0  0  0  0  0  0  0  0  0  0  0  0
    1.1863   20.8356  -22.1085 C   0  0  0  0  0  0  0  0  0  0  0  0
    1.6939   21.3134  -23.6647 S   0  0  0  0  0  0  0  0  0  0  0  0
   -6.7718   23.8232  -27.2617 O   0  0  0  0  0  0  0  0  0  0  0  0
   -5.4775   23.3879  -27.5734 C   0  0  0  0  0  0  0  0  0  0  0  0
   -5.1774   23.3748  -28.7930 O   0  0  0  0  0  0  0  0  0  0  0  0
 19 20  1  0  0  0
 20 21  2  0  0  0
 20  1  1  0  0  0
  1  2  2  0  0  0
  2  3  1  0  0  0
  3  4  1  0  0  0
  4  5  1  0  0  0
  5  6  1  0  0  0
  6  7  2  0  0  0
  6  8  1  0  0  0
  8  9  2  0  0  0
  9 10  1  0  0  0
 10 11  2  0  0  0
 11 12  1  0  0  0
 12 13  1  0  0  0
 13 14  2  0  0  0
 13 15  1  0  0  0
 15 16  1  0  0  0
 16 17  1  0  0  0
 17 18  1  0  0  0
  5  1  1  0  0  0
 18 10  1  0  0  0
  8  4  1  0  0  0
 17 12  2  0  0  0
M  CHG 1  19  -1
M  END
> <minimizedAffinity>
-6.75808

> <CNNscore>
0.4474993944

> <CNNaffinity>
5.6319670677

> <CNN_VS>
2.5203018188

> <CNNaffinity_variance>
0.3509915471

$$$$
[H]C1=C(C(=O)[O-])N2C(=O)/C(=C(\[H])c3sc4c(c3[H])C(=O)C([H])([H])O4)[C@@]2([H])S1


 21 24  0  0  0  0  0  0  0  0999 V2000
   -1.3629   22.6950  -26.6846 C   0  0  0  0  0  0  0  0  0  0  0  0
   -1.1702   21.8770  -25.6777 C   0  0  0  0  0  0  0  0  0  0  0  0
   -2.6836   21.9251  -24.7219 S   0  0  0  0  0  0  0  0  0  0  0  0
   -3.2513   23.5189  -25.4500 C   0  0  0  0  0  0  0  0  0  0  0  0
   -2.6072   23.3317  -26.7533 N   0  0  0  0  0  0  0  0  0  0  0  0
   -3.7541   23.9715  -27.3140 C   0  0  0  0  0  0  0  0  0  0  0  0
   -4.0706   24.6175  -28.3518 O   0  0  0  0  0  0  0  0  0  0  0  0
   -4.5100   23.5631  -26.1210 C   0  0  0  0  0  0  0  0  0  0  0  0
   -5.8128   23.3602  -25.8923 C   0  0  0  0  0  0  0  0  0  0  0  0
   -6.2908   22.9427  -24.5617 C   0  0  0  0  0  0  0  0  0  0  0  0
   -6.9194   23.7209  -23.6148 C   0  0  0  0  0  0  0  0  0  0  0  0
   -7.3137   23.1166  -22.4781 C   0  0  0  0  0  0  0  0  0  0  0  0
   -7.9887   23.4836  -21.2021 C   0  0  0  0  0  0  0  0  0  0  0  0
   -8.1426   24.6224  -20.6911 O   0  0  0  0  0  0  0  0  0  0  0  0
   -8.4775   22.2005  -20.6016 C   0  0  0  0  0  0  0  0  0  0  0  0
   -7.5218   21.2736  -21.1225 O   0  0  0  0  0  0  0  0  0  0  0  0
   -7.0595   21.7851  -22.3570 C   0  0  0  0  0  0  0  0  0  0  0  0
   -6.2781   21.4039  -23.8239 S   0  0  0  0  0  0  0  0  0  0  0  0
   -0.6674   23.3571  -28.9921 O   0  0  0  0  0  0  0  0  0  0  0  0
   -0.3175   22.9228  -27.7072 C   0  0  0  0  0  0  0  0  0  0  0  0
    0.9084   22.7472  -27.4978 O   0  0  0  0  0  0  0  0  0  0  0  0
 19 20  1  0  0  0
 20 21  2  0  0  0
 20  1  1  0  0  0
  1  2  2  0  0  0
  2  3  1  0  0  0
  3  4  1  0  0  0
  4  5  1  0  0  0
  5  6  1  0  0  0
  6  7  2  0  0  0
  6  8  1  0  0  0
  8  9  2  0  0  0
  9 10  1  0  0  0
 10 11  2  0  0  0
 11 12  1  0  0  0
 12 13  1  0  0  0
 13 14  2  0  0  0
 13 15  1  0  0  0
 15 16  1  0  0  0
 16 17  1  0  0  0
 17 18  1  0  0  0
  5  1  1  0  0  0
 18 10  1  0  0  0
  8  4  1  0  0  0
 17 12  2  0  0  0
M  CHG 1  19  -1
M  END
> <minimizedAffinity>
-7.18448

> <CNNscore>
0.4242723286

> <CNNaffinity>
5.6366963387

> <CNN_VS>
2.3914942741

> <CNNaffinity_variance>
0.2296078950

$$$$
[H]C1=C(C(=O)[O-])N2C(=O)/C(=C(\[H])c3sc4c(c3[H])C(=O)C([H])([H])O4)[C@@]2([H])S1


 21 24  0  0  0  0  0  0  0  0999 V2000
   -1.9989   22.8880  -22.7269 C   0  0  0  0  0  0  0  0  0  0  0  0
   -1.4670   22.4059  -23.8245 C   0  0  0  0  0  0  0  0  0  0  0  0
   -2.5597   22.9097  -25.1505 S   0  0  0  0  0  0  0  0  0  0  0  0
   -3.9844   23.2415  -24.0314 C   0  0  0  0  0  0  0  0  0  0  0  0
   -3.1806   23.6245  -22.8670 N   0  0  0  0  0  0  0  0  0  0  0  0
   -4.1985   24.5871  -22.5906 C   0  0  0  0  0  0  0  0  0  0  0  0
   -4.6538   25.2340  -21.6063 O   0  0  0  0  0  0  0  0  0  0  0  0
   -4.5612   24.5467  -24.0148 C   0  0  0  0  0  0  0  0  0  0  0  0
   -5.1701   25.4200  -24.8257 C   0  0  0  0  0  0  0  0  0  0  0  0
   -5.4036   25.0977  -26.2451 C   0  0  0  0  0  0  0  0  0  0  0  0
   -5.2600   25.9351  -27.3293 C   0  0  0  0  0  0  0  0  0  0  0  0
   -5.4847   25.4132  -28.5498 C   0  0  0  0  0  0  0  0  0  0  0  0
   -5.4780   25.8652  -29.9691 C   0  0  0  0  0  0  0  0  0  0  0  0
   -5.5255   27.0371  -30.4231 O   0  0  0  0  0  0  0  0  0  0  0  0
   -5.4010   24.6237  -30.8048 C   0  0  0  0  0  0  0  0  0  0  0  0
   -6.0422   23.6767  -29.9468 O   0  0  0  0  0  0  0  0  0  0  0  0
   -5.8355   24.0998  -28.6136 C   0  0  0  0  0  0  0  0  0  0  0  0
   -5.8459   23.6208  -26.9770 S   0  0  0  0  0  0  0  0  0  0  0  0
   -1.1749   23.7520  -20.5312 O   0  0  0  0  0  0  0  0  0  0  0  0
   -1.3706   22.6742  -21.4041 C   0  0  0  0  0  0  0  0  0  0  0  0
   -0.9845   21.5522  -20.9921 O   0  0  0  0  0  0  0  0  0  0  0  0
 19 20  1  0  0  0
 20 21  2  0  0  0
 20  1  1  0  0  0
  1  2  2  0  0  0
  2  3  1  0  0  0
  3  4  1  0  0  0
  4  5  1  0  0  0
  5  6  1  0  0  0
  6  7  2  0  0  0
  6  8  1  0  0  0
  8  9  2  0  0  0
  9 10  1  0  0  0
 10 11  2  0  0  0
 11 12  1  0  0  0
 12 13  1  0  0  0
 13 14  2  0  0  0
 13 15  1  0  0  0
 15 16  1  0  0  0
 16 17  1  0  0  0
 17 18  1  0  0  0
  5  1  1  0  0  0
 18 10  1  0  0  0
  8  4  1  0  0  0
 17 12  2  0  0  0
M  CHG 1  19  -1
M  END
> <minimizedAffinity>
-7.35595

> <CNNscore>
0.4221231639

> <CNNaffinity>
5.9386610985

> <CNN_VS>
2.5068464279

> <CNNaffinity_variance>
0.4226741195

$$$$
[H]C1=C(C(=O)[O-])N2C(=O)/C(=C(\[H])c3sc4c(c3[H])C(=O)C([H])([H])O4)[C@@]2([H])S1


 21 24  0  0  0  0  0  0  0  0999 V2000
   -4.8842   24.5450  -28.8607 C   0  0  0  0  0  0  0  0  0  0  0  0
   -3.7164   23.9646  -29.0010 C   0  0  0  0  0  0  0  0  0  0  0  0
   -3.2617   23.3961  -27.3651 S   0  0  0  0  0  0  0  0  0  0  0  0
   -4.4368   24.5207  -26.5010 C   0  0  0  0  0  0  0  0  0  0  0  0
   -5.4346   24.5561  -27.5742 N   0  0  0  0  0  0  0  0  0  0  0  0
   -6.4185   24.5816  -26.5395 C   0  0  0  0  0  0  0  0  0  0  0  0
   -7.6144   24.9513  -26.3730 O   0  0  0  0  0  0  0  0  0  0  0  0
   -5.4313   23.9574  -25.6465 C   0  0  0  0  0  0  0  0  0  0  0  0
   -5.5448   23.2115  -24.5412 C   0  0  0  0  0  0  0  0  0  0  0  0
   -4.3482   22.7115  -23.8404 C   0  0  0  0  0  0  0  0  0  0  0  0
   -3.7128   23.2787  -22.7579 C   0  0  0  0  0  0  0  0  0  0  0  0
   -2.6548   22.6221  -22.2460 C   0  0  0  0  0  0  0  0  0  0  0  0
   -1.6643   22.7977  -21.1474 C   0  0  0  0  0  0  0  0  0  0  0  0
   -1.3649   23.8434  -20.5161 O   0  0  0  0  0  0  0  0  0  0  0  0
   -1.0557   21.4488  -20.9112 C   0  0  0  0  0  0  0  0  0  0  0  0
   -1.1775   20.8630  -22.2096 O   0  0  0  0  0  0  0  0  0  0  0  0
   -2.2988   21.4503  -22.8397 C   0  0  0  0  0  0  0  0  0  0  0  0
   -3.4412   21.2886  -24.0953 S   0  0  0  0  0  0  0  0  0  0  0  0
   -5.9160   24.3683  -31.1302 O   0  0  0  0  0  0  0  0  0  0  0  0
   -5.5920   25.1475  -30.0124 C   0  0  0  0  0  0  0  0  0  0  0  0
   -5.9358   26.3546  -30.0616 O   0  0  0  0  0  0  0  0  0  0  0  0
 19 20  1  0  0  0
 20 21  2  0  0  0
 20  1  1  0  0  0
  1  2  2  0  0  0
  2  3  1  0  0  0
  3  4  1  0  0  0
  4  5  1  0  0  0
  5  6  1  0  0  0
  6  7  2  0  0  0
  6  8  1  0  0  0
  8  9  2  0  0  0
  9 10  1  0  0  0
 10 11  2  0  0  0
 11 12  1  0  0  0
 12 13  1  0  0  0
 13 14  2  0  0  0
 13 15  1  0  0  0
 15 16  1  0  0  0
 16 17  1  0  0  0
 17 18  1  0  0  0
  5  1  1  0  0  0
 18 10  1  0  0  0
  8  4  1  0  0  0
 17 12  2  0  0  0
M  CHG 1  19  -1
M  END
> <minimizedAffinity>
-7.06036

> <CNNscore>
0.4150561094

> <CNNaffinity>
6.0680418015

> <CNN_VS>
2.5185778141

> <CNNaffinity_variance>
0.3977192044

$$$$
[H]C1=C(C(=O)[O-])N2C(=O)/C(=C(\[H])c3sc4c(c3[H])C(=O)C([H])([H])O4)[C@@]2([H])S1


 21 24  0  0  0  0  0  0  0  0999 V2000
   -4.6681   23.3414  -27.4792 C   0  0  0  0  0  0  0  0  0  0  0  0
   -5.2338   23.3530  -26.2960 C   0  0  0  0  0  0  0  0  0  0  0  0
   -3.9373   22.9228  -25.1384 S   0  0  0  0  0  0  0  0  0  0  0  0
   -2.8503   22.1780  -26.4253 C   0  0  0  0  0  0  0  0  0  0  0  0
   -3.3036   23.0342  -27.5252 N   0  0  0  0  0  0  0  0  0  0  0  0
   -1.9519   23.0100  -27.9850 C   0  0  0  0  0  0  0  0  0  0  0  0
   -1.3103   23.1676  -29.0611 O   0  0  0  0  0  0  0  0  0  0  0  0
   -1.5361   22.7029  -26.6086 C   0  0  0  0  0  0  0  0  0  0  0  0
   -0.3909   22.8839  -25.9402 C   0  0  0  0  0  0  0  0  0  0  0  0
   -0.2633   22.4668  -24.5321 C   0  0  0  0  0  0  0  0  0  0  0  0
   -0.9019   23.0060  -23.4372 C   0  0  0  0  0  0  0  0  0  0  0  0
   -0.6697   22.4346  -22.2404 C   0  0  0  0  0  0  0  0  0  0  0  0
   -1.0771   22.6265  -20.8206 C   0  0  0  0  0  0  0  0  0  0  0  0
   -1.5864   23.6398  -20.2770 O   0  0  0  0  0  0  0  0  0  0  0  0
   -0.7611   21.3422  -20.1159 C   0  0  0  0  0  0  0  0  0  0  0  0
    0.3354   20.8637  -20.8988 O   0  0  0  0  0  0  0  0  0  0  0  0
    0.1773   21.3697  -22.2096 C   0  0  0  0  0  0  0  0  0  0  0  0
    0.6320   21.1878  -23.8430 S   0  0  0  0  0  0  0  0  0  0  0  0
   -5.2550   22.8873  -29.8658 O   0  0  0  0  0  0  0  0  0  0  0  0
   -5.4349   23.6522  -28.7063 C   0  0  0  0  0  0  0  0  0  0  0  0
   -6.2673   24.5895  -28.7861 O   0  0  0  0  0  0  0  0  0  0  0  0
 19 20  1  0  0  0
 20 21  2  0  0  0
 20  1  1  0  0  0
  1  2  2  0  0  0
  2  3  1  0  0  0
  3  4  1  0  0  0
  4  5  1  0  0  0
  5  6  1  0  0  0
  6  7  2  0  0  0
  6  8  1  0  0  0
  8  9  2  0  0  0
  9 10  1  0  0  0
 10 11  2  0  0  0
 11 12  1  0  0  0
 12 13  1  0  0  0
 13 14  2  0  0  0
 13 15  1  0  0  0
 15 16  1  0  0  0
 16 17  1  0  0  0
 17 18  1  0  0  0
  5  1  1  0  0  0
 18 10  1  0  0  0
  8  4  1  0  0  0
 17 12  2  0  0  0
M  CHG 1  19  -1
M  END
> <minimizedAffinity>
-6.64956

> <CNNscore>
0.3671322763

> <CNNaffinity>
5.7142181396

> <CNN_VS>
2.0978739262

> <CNNaffinity_variance>
0.4137263894

$$$$
[H]C1=C(C(=O)[O-])N2C(=O)/C(=C(\[H])c3sc4c(c3[H])C(=O)C([H])([H])O4)[C@@]2([H])S1


 21 24  0  0  0  0  0  0  0  0999 V2000
   -1.4867   21.5803  -22.2936 C   0  0  0  0  0  0  0  0  0  0  0  0
   -2.7711   21.8048  -22.1513 C   0  0  0  0  0  0  0  0  0  0  0  0
   -3.3323   22.4132  -23.7391 S   0  0  0  0  0  0  0  0  0  0  0  0
   -1.6435   22.8765  -24.3095 C   0  0  0  0  0  0  0  0  0  0  0  0
   -0.9349   21.8402  -23.5530 N   0  0  0  0  0  0  0  0  0  0  0  0
   -0.0567   21.7449  -24.6751 C   0  0  0  0  0  0  0  0  0  0  0  0
    1.1225   21.3726  -24.9311 O   0  0  0  0  0  0  0  0  0  0  0  0
   -1.1351   22.2948  -25.5094 C   0  0  0  0  0  0  0  0  0  0  0  0
   -1.4071   22.2148  -26.8173 C   0  0  0  0  0  0  0  0  0  0  0  0
   -2.5902   22.8857  -27.3859 C   0  0  0  0  0  0  0  0  0  0  0  0
   -2.6411   23.6924  -28.5012 C   0  0  0  0  0  0  0  0  0  0  0  0
   -3.8462   24.1668  -28.8688 C   0  0  0  0  0  0  0  0  0  0  0  0
   -4.4188   25.0404  -29.9307 C   0  0  0  0  0  0  0  0  0  0  0  0
   -3.8287   25.8609  -30.6791 O   0  0  0  0  0  0  0  0  0  0  0  0
   -5.8908   24.7606  -29.9561 C   0  0  0  0  0  0  0  0  0  0  0  0
   -6.1184   24.3720  -28.5991 O   0  0  0  0  0  0  0  0  0  0  0  0
   -4.9172   23.8103  -28.1084 C   0  0  0  0  0  0  0  0  0  0  0  0
   -4.2252   22.8256  -26.9004 S   0  0  0  0  0  0  0  0  0  0  0  0
   -0.0784   19.7933  -21.2594 O   0  0  0  0  0  0  0  0  0  0  0  0
   -0.6634   21.0633  -21.1777 C   0  0  0  0  0  0  0  0  0  0  0  0
   -0.4436   21.7062  -20.1213 O   0  0  0  0  0  0  0  0  0  0  0  0
 19 20  1  0  0  0
 20 21  2  0  0  0
 20  1  1  0  0  0
  1  2  2  0  0  0
  2  3  1  0  0  0
  3  4  1  0  0  0
  4  5  1  0  0  0
  5  6  1  0  0  0
  6  7  2  0  0  0
  6  8  1  0  0  0
  8  9  2  0  0  0
  9 10  1  0  0  0
 10 11  2  0  0  0
 11 12  1  0  0  0
 12 13  1  0  0  0
 13 14  2  0  0  0
 13 15  1  0  0  0
 15 16  1  0  0  0
 16 17  1  0  0  0
 17 18  1  0  0  0
  5  1  1  0  0  0
 18 10  1  0  0  0
  8  4  1  0  0  0
 17 12  2  0  0  0
M  CHG 1  19  -1
M  END
> <minimizedAffinity>
-7.00783

> <CNNscore>
0.3577811718

> <CNNaffinity>
5.7300124168

> <CNN_VS>
2.0500905514

> <CNNaffinity_variance>
0.4252643585

$$$$
[H]c1c([H])c([H])c(C(=O)c2c([H])c([H])c([H])c([N+](=O)[O-])c2[H])c([H])c1[H]


 17 18  0  0  0  0  0  0  0  0999 V2000
   -5.1420   24.2185  -26.9025 C   0  0  0  0  0  0  0  0  0  0  0  0
   -5.6200   23.8441  -28.1377 C   0  0  0  0  0  0  0  0  0  0  0  0
   -4.8213   23.1662  -29.0232 C   0  0  0  0  0  0  0  0  0  0  0  0
   -3.5056   22.8197  -28.7377 C   0  0  0  0  0  0  0  0  0  0  0  0
   -3.0139   23.1863  -27.5070 C   0  0  0  0  0  0  0  0  0  0  0  0
   -3.8344   23.8694  -26.6291 C   0  0  0  0  0  0  0  0  0  0  0  0
   -6.7623   24.2738  -25.0775 O   0  0  0  0  0  0  0  0  0  0  0  0
   -5.9399   24.9254  -25.9561 N   0  0  0  0  0  0  0  0  0  0  0  0
   -5.8906   26.1598  -25.9297 O   0  0  0  0  0  0  0  0  0  0  0  0
   -1.6705   22.8555  -27.1309 C   0  0  0  0  0  0  0  0  0  0  0  0
   -0.7799   23.0137  -28.0426 O   0  0  0  0  0  0  0  0  0  0  0  0
   -1.1951   22.3722  -25.8666 C   0  0  0  0  0  0  0  0  0  0  0  0
    0.1814   22.2270  -25.6791 C   0  0  0  0  0  0  0  0  0  0  0  0
    0.7326   21.7911  -24.4925 C   0  0  0  0  0  0  0  0  0  0  0  0
   -0.0871   21.4749  -23.4202 C   0  0  0  0  0  0  0  0  0  0  0  0
   -1.4424   21.6231  -23.6204 C   0  0  0  0  0  0  0  0  0  0  0  0
   -2.0010   22.0554  -24.7950 C   0  0  0  0  0  0  0  0  0  0  0  0
  7  8  1  0  0  0
  8  9  2  0  0  0
  8  1  1  0  0  0
  1  2  2  0  0  0
  2  3  1  0  0  0
  3  4  2  0  0  0
  4  5  1  0  0  0
  5  6  2  0  0  0
  5 10  1  0  0  0
 10 11  2  0  0  0
 10 12  1  0  0  0
 12 13  2  0  0  0
 13 14  1  0  0  0
 14 15  2  0  0  0
 15 16  1  0  0  0
 16 17  2  0  0  0
  6  1  1  0  0  0
 17 12  1  0  0  0
M  CHG 1   7  -1
M  CHG 1   8   1
M  END
> <minimizedAffinity>
-7.19801

> <CNNscore>
0.6093171835

> <CNNaffinity>
4.9772887230

> <CNN_VS>
3.0327475071

> <CNNaffinity_variance>
0.1447705775

$$$$
[H]c1c([H])c([H])c(C(=O)c2c([H])c([H])c([H])c([N+](=O)[O-])c2[H])c([H])c1[H]


 17 18  0  0  0  0  0  0  0  0999 V2000
   -0.5381   22.1828  -25.6565 C   0  0  0  0  0  0  0  0  0  0  0  0
    0.3581   22.3805  -26.6823 C   0  0  0  0  0  0  0  0  0  0  0  0
   -0.0702   22.7930  -27.9184 C   0  0  0  0  0  0  0  0  0  0  0  0
   -1.4079   23.0338  -28.2103 C   0  0  0  0  0  0  0  0  0  0  0  0
   -2.3153   22.8415  -27.1952 C   0  0  0  0  0  0  0  0  0  0  0  0
   -1.8638   22.4250  -25.9569 C   0  0  0  0  0  0  0  0  0  0  0  0
   -1.0399   21.3481  -23.4181 O   0  0  0  0  0  0  0  0  0  0  0  0
   -0.1326   21.7529  -24.3593 N   0  0  0  0  0  0  0  0  0  0  0  0
    1.0699   21.7481  -24.0752 O   0  0  0  0  0  0  0  0  0  0  0  0
   -3.7123   23.0802  -27.4115 C   0  0  0  0  0  0  0  0  0  0  0  0
   -4.4919   22.7494  -26.4458 O   0  0  0  0  0  0  0  0  0  0  0  0
   -4.3493   23.6421  -28.5676 C   0  0  0  0  0  0  0  0  0  0  0  0
   -4.2276   25.0142  -28.7995 C   0  0  0  0  0  0  0  0  0  0  0  0
   -4.7857   25.6399  -29.8945 C   0  0  0  0  0  0  0  0  0  0  0  0
   -5.5046   24.9042  -30.8237 C   0  0  0  0  0  0  0  0  0  0  0  0
   -5.6160   23.5522  -30.5813 C   0  0  0  0  0  0  0  0  0  0  0  0
   -5.0657   22.9201  -29.4968 C   0  0  0  0  0  0  0  0  0  0  0  0
  7  8  1  0  0  0
  8  9  2  0  0  0
  8  1  1  0  0  0
  1  2  2  0  0  0
  2  3  1  0  0  0
  3  4  2  0  0  0
  4  5  1  0  0  0
  5  6  2  0  0  0
  5 10  1  0  0  0
 10 11  2  0  0  0
 10 12  1  0  0  0
 12 13  2  0  0  0
 13 14  1  0  0  0
 14 15  2  0  0  0
 15 16  1  0  0  0
 16 17  2  0  0  0
  6  1  1  0  0  0
 17 12  1  0  0  0
M  CHG 1   7  -1
M  CHG 1   8   1
M  END
> <minimizedAffinity>
-8.11717

> <CNNscore>
0.5826342702

> <CNNaffinity>
4.8733968735

> <CNN_VS>
2.8394079208

> <CNNaffinity_variance>
0.2756659985

$$$$
[H]c1c([H])c([H])c(C(=O)c2c([H])c([H])c([H])c([N+](=O)[O-])c2[H])c([H])c1[H]


 17 18  0  0  0  0  0  0  0  0999 V2000
   -4.8885   24.9431  -30.1630 C   0  0  0  0  0  0  0  0  0  0  0  0
   -5.5508   23.7863  -30.5059 C   0  0  0  0  0  0  0  0  0  0  0  0
   -5.4704   22.6702  -29.7126 C   0  0  0  0  0  0  0  0  0  0  0  0
   -4.7315   22.6345  -28.5356 C   0  0  0  0  0  0  0  0  0  0  0  0
   -4.0647   23.7830  -28.1791 C   0  0  0  0  0  0  0  0  0  0  0  0
   -4.1579   24.8970  -28.9923 C   0  0  0  0  0  0  0  0  0  0  0  0
   -5.9159   27.0700  -30.7791 O   0  0  0  0  0  0  0  0  0  0  0  0
   -4.9456   26.1223  -30.9618 N   0  0  0  0  0  0  0  0  0  0  0  0
   -4.0986   26.2928  -31.8451 O   0  0  0  0  0  0  0  0  0  0  0  0
   -3.2906   23.8320  -26.9733 C   0  0  0  0  0  0  0  0  0  0  0  0
   -3.7544   24.5848  -26.0417 O   0  0  0  0  0  0  0  0  0  0  0  0
   -2.0661   23.1468  -26.6750 C   0  0  0  0  0  0  0  0  0  0  0  0
   -1.1240   22.9837  -27.6933 C   0  0  0  0  0  0  0  0  0  0  0  0
    0.0895   22.3588  -27.4962 C   0  0  0  0  0  0  0  0  0  0  0  0
    0.4192   21.8598  -26.2456 C   0  0  0  0  0  0  0  0  0  0  0  0
   -0.5201   22.0282  -25.2515 C   0  0  0  0  0  0  0  0  0  0  0  0
   -1.7289   22.6474  -25.4361 C   0  0  0  0  0  0  0  0  0  0  0  0
  7  8  1  0  0  0
  8  9  2  0  0  0
  8  1  1  0  0  0
  1  2  2  0  0  0
  2  3  1  0  0  0
  3  4  2  0  0  0
  4  5  1  0  0  0
  5  6  2  0  0  0
  5 10  1  0  0  0
 10 11  2  0  0  0
 10 12  1  0  0  0
 12 13  2  0  0  0
 13 14  1  0  0  0
 14 15  2  0  0  0
 15 16  1  0  0  0
 16 17  2  0  0  0
  6  1  1  0  0  0
 17 12  1  0  0  0
M  CHG 1   7  -1
M  CHG 1   8   1
M  END
> <minimizedAffinity>
-7.36708

> <CNNscore>
0.5260051489

> <CNNaffinity>
5.1704835892

> <CNN_VS>
2.7197010517

> <CNNaffinity_variance>
0.0975457504

$$$$
[H]c1c([H])c([H])c(C(=O)c2c([H])c([H])c([H])c([N+](=O)[O-])c2[H])c([H])c1[H]


 17 18  0  0  0  0  0  0  0  0999 V2000
   -5.1088   24.4257  -28.7667 C   0  0  0  0  0  0  0  0  0  0  0  0
   -6.0239   24.0963  -27.7927 C   0  0  0  0  0  0  0  0  0  0  0  0
   -5.6408   23.3936  -26.6788 C   0  0  0  0  0  0  0  0  0  0  0  0
   -4.3318   22.9773  -26.4643 C   0  0  0  0  0  0  0  0  0  0  0  0
   -3.4058   23.2996  -27.4283 C   0  0  0  0  0  0  0  0  0  0  0  0
   -3.8119   24.0077  -28.5438 C   0  0  0  0  0  0  0  0  0  0  0  0
   -5.7757   24.5203  -31.1130 O   0  0  0  0  0  0  0  0  0  0  0  0
   -5.4683   25.1527  -29.9389 N   0  0  0  0  0  0  0  0  0  0  0  0
   -5.5004   26.3872  -29.8955 O   0  0  0  0  0  0  0  0  0  0  0  0
   -2.0322   22.9176  -27.2761 C   0  0  0  0  0  0  0  0  0  0  0  0
   -1.3087   23.0004  -28.3341 O   0  0  0  0  0  0  0  0  0  0  0  0
   -1.3638   22.4566  -26.0935 C   0  0  0  0  0  0  0  0  0  0  0  0
    0.0216   22.2822  -26.1314 C   0  0  0  0  0  0  0  0  0  0  0  0
    0.7528   21.8645  -25.0393 C   0  0  0  0  0  0  0  0  0  0  0  0
    0.1159   21.5978  -23.8373 C   0  0  0  0  0  0  0  0  0  0  0  0
   -1.2506   21.7744  -23.8155 C   0  0  0  0  0  0  0  0  0  0  0  0
   -1.9872   22.1889  -24.8945 C   0  0  0  0  0  0  0  0  0  0  0  0
  7  8  1  0  0  0
  8  9  2  0  0  0
  8  1  1  0  0  0
  1  2  2  0  0  0
  2  3  1  0  0  0
  3  4  2  0  0  0
  4  5  1  0  0  0
  5  6  2  0  0  0
  5 10  1  0  0  0
 10 11  2  0  0  0
 10 12  1  0  0  0
 12 13  2  0  0  0
 13 14  1  0  0  0
 14 15  2  0  0  0
 15 16  1  0  0  0
 16 17  2  0  0  0
  6  1  1  0  0  0
 17 12  1  0  0  0
M  CHG 1   7  -1
M  CHG 1   8   1
M  END
> <minimizedAffinity>
-7.47612

> <CNNscore>
0.5224936604

> <CNNaffinity>
5.0720601082

> <CNN_VS>
2.6501193047

> <CNNaffinity_variance>
0.1870201528

$$$$
[H]c1c([H])c([H])c(C(=O)c2c([H])c([H])c([H])c([N+](=O)[O-])c2[H])c([H])c1[H]


 17 18  0  0  0  0  0  0  0  0999 V2000
   -2.6186   22.9171  -26.9290 C   0  0  0  0  0  0  0  0  0  0  0  0
   -2.6599   22.9608  -28.3041 C   0  0  0  0  0  0  0  0  0  0  0  0
   -3.8438   23.1713  -28.9642 C   0  0  0  0  0  0  0  0  0  0  0  0
   -5.0533   23.3509  -28.3027 C   0  0  0  0  0  0  0  0  0  0  0  0
   -5.0280   23.3107  -26.9285 C   0  0  0  0  0  0  0  0  0  0  0  0
   -3.8251   23.0968  -26.2820 C   0  0  0  0  0  0  0  0  0  0  0  0
   -1.3838   22.6579  -24.8393 O   0  0  0  0  0  0  0  0  0  0  0  0
   -1.4091   22.6986  -26.2070 N   0  0  0  0  0  0  0  0  0  0  0  0
   -0.3543   22.5448  -26.8319 O   0  0  0  0  0  0  0  0  0  0  0  0
   -6.2309   23.4993  -26.1715 C   0  0  0  0  0  0  0  0  0  0  0  0
   -7.2178   24.0167  -26.8103 O   0  0  0  0  0  0  0  0  0  0  0  0
   -6.4725   23.1827  -24.7934 C   0  0  0  0  0  0  0  0  0  0  0  0
   -7.0155   24.1673  -23.9646 C   0  0  0  0  0  0  0  0  0  0  0  0
   -7.3026   23.9493  -22.6334 C   0  0  0  0  0  0  0  0  0  0  0  0
   -7.0534   22.7110  -22.0625 C   0  0  0  0  0  0  0  0  0  0  0  0
   -6.5178   21.7502  -22.8925 C   0  0  0  0  0  0  0  0  0  0  0  0
   -6.2285   21.9557  -24.2164 C   0  0  0  0  0  0  0  0  0  0  0  0
  7  8  1  0  0  0
  8  9  2  0  0  0
  8  1  1  0  0  0
  1  2  2  0  0  0
  2  3  1  0  0  0
  3  4  2  0  0  0
  4  5  1  0  0  0
  5  6  2  0  0  0
  5 10  1  0  0  0
 10 11  2  0  0  0
 10 12  1  0  0  0
 12 13  2  0  0  0
 13 14  1  0  0  0
 14 15  2  0  0  0
 15 16  1  0  0  0
 16 17  2  0  0  0
  6  1  1  0  0  0
 17 12  1  0  0  0
M  CHG 1   7  -1
M  CHG 1   8   1
M  END
> <minimizedAffinity>
-6.72423

> <CNNscore>
0.4963318110

> <CNNaffinity>
4.9284515381

> <CNN_VS>
2.4461472034

> <CNNaffinity_variance>
0.2536880672

$$$$
[H]c1c([H])c([H])c(C(=O)c2c([H])c([H])c([H])c([N+](=O)[O-])c2[H])c([H])c1[H]


 17 18  0  0  0  0  0  0  0  0999 V2000
   -4.5294   24.9026  -29.1306 C   0  0  0  0  0  0  0  0  0  0  0  0
   -3.3840   24.1497  -29.0049 C   0  0  0  0  0  0  0  0  0  0  0  0
   -3.2301   23.2757  -27.9589 C   0  0  0  0  0  0  0  0  0  0  0  0
   -4.1993   23.0962  -26.9787 C   0  0  0  0  0  0  0  0  0  0  0  0
   -5.3498   23.8409  -27.0910 C   0  0  0  0  0  0  0  0  0  0  0  0
   -5.4855   24.7165  -28.1520 C   0  0  0  0  0  0  0  0  0  0  0  0
   -5.7505   26.7297  -30.1932 O   0  0  0  0  0  0  0  0  0  0  0  0
   -4.7258   25.8226  -30.2015 N   0  0  0  0  0  0  0  0  0  0  0  0
   -3.9525   25.7991  -31.1649 O   0  0  0  0  0  0  0  0  0  0  0  0
   -6.4030   23.7050  -26.1277 C   0  0  0  0  0  0  0  0  0  0  0  0
   -7.5869   23.9618  -26.5542 O   0  0  0  0  0  0  0  0  0  0  0  0
   -6.3027   23.3178  -24.7501 C   0  0  0  0  0  0  0  0  0  0  0  0
   -6.2085   24.3167  -23.7782 C   0  0  0  0  0  0  0  0  0  0  0  0
   -6.1305   24.0421  -22.4289 C   0  0  0  0  0  0  0  0  0  0  0  0
   -6.1436   22.7290  -21.9850 C   0  0  0  0  0  0  0  0  0  0  0  0
   -6.2368   21.7550  -22.9554 C   0  0  0  0  0  0  0  0  0  0  0  0
   -6.3148   22.0162  -24.2986 C   0  0  0  0  0  0  0  0  0  0  0  0
  7  8  1  0  0  0
  8  9  2  0  0  0
  8  1  1  0  0  0
  1  2  2  0  0  0
  2  3  1  0  0  0
  3  4  2  0  0  0
  4  5  1  0  0  0
  5  6  2  0  0  0
  5 10  1  0  0  0
 10 11  2  0  0  0
 10 12  1  0  0  0
 12 13  2  0  0  0
 13 14  1  0  0  0
 14 15  2  0  0  0
 15 16  1  0  0  0
 16 17  2  0  0  0
  6  1  1  0  0  0
 17 12  1  0  0  0
M  CHG 1   7  -1
M  CHG 1   8   1
M  END
> <minimizedAffinity>
-6.41759

> <CNNscore>
0.4891942143

> <CNNaffinity>
4.9667510986

> <CNN_VS>
2.4297058582

> <CNNaffinity_variance>
0.1996085495

$$$$
[H]c1c([H])c([H])c(C(=O)c2c([H])c([H])c([H])c([N+](=O)[O-])c2[H])c([H])c1[H]


 17 18  0  0  0  0  0  0  0  0999 V2000
   -4.6086   24.6683  -28.1871 C   0  0  0  0  0  0  0  0  0  0  0  0
   -3.6609   24.1485  -29.0393 C   0  0  0  0  0  0  0  0  0  0  0  0
   -2.6969   23.2894  -28.5767 C   0  0  0  0  0  0  0  0  0  0  0  0
   -2.6154   22.8950  -27.2461 C   0  0  0  0  0  0  0  0  0  0  0  0
   -3.5559   23.4053  -26.3825 C   0  0  0  0  0  0  0  0  0  0  0  0
   -4.5187   24.2701  -26.8681 C   0  0  0  0  0  0  0  0  0  0  0  0
   -5.4383   26.3917  -29.7038 O   0  0  0  0  0  0  0  0  0  0  0  0
   -5.6246   25.5651  -28.6290 N   0  0  0  0  0  0  0  0  0  0  0  0
   -6.7015   25.6001  -28.0243 O   0  0  0  0  0  0  0  0  0  0  0  0
   -3.5482   23.0380  -24.9966 C   0  0  0  0  0  0  0  0  0  0  0  0
   -2.3888   22.8953  -24.4627 O   0  0  0  0  0  0  0  0  0  0  0  0
   -4.6696   22.8113  -24.1312 C   0  0  0  0  0  0  0  0  0  0  0  0
   -5.0030   23.7929  -23.1950 C   0  0  0  0  0  0  0  0  0  0  0  0
   -6.0759   23.6739  -22.3366 C   0  0  0  0  0  0  0  0  0  0  0  0
   -6.8779   22.5440  -22.3790 C   0  0  0  0  0  0  0  0  0  0  0  0
   -6.5364   21.5848  -23.3075 C   0  0  0  0  0  0  0  0  0  0  0  0
   -5.4727   21.6924  -24.1652 C   0  0  0  0  0  0  0  0  0  0  0  0
  7  8  1  0  0  0
  8  9  2  0  0  0
  8  1  1  0  0  0
  1  2  2  0  0  0
  2  3  1  0  0  0
  3  4  2  0  0  0
  4  5  1  0  0  0
  5  6  2  0  0  0
  5 10  1  0  0  0
 10 11  2  0  0  0
 10 12  1  0  0  0
 12 13  2  0  0  0
 13 14  1  0  0  0
 14 15  2  0  0  0
 15 16  1  0  0  0
 16 17  2  0  0  0
  6  1  1  0  0  0
 17 12  1  0  0  0
M  CHG 1   7  -1
M  CHG 1   8   1
M  END
> <minimizedAffinity>
-6.52122

> <CNNscore>
0.4666172564

> <CNNaffinity>
5.1108574867

> <CNN_VS>
2.3848142624

> <CNNaffinity_variance>
0.1467863917

$$$$
[H]c1c([H])c([H])c(C(=O)c2c([H])c([H])c([H])c([N+](=O)[O-])c2[H])c([H])c1[H]


 17 18  0  0  0  0  0  0  0  0999 V2000
   -4.1165   23.2452  -28.0098 C   0  0  0  0  0  0  0  0  0  0  0  0
   -3.0157   23.4522  -28.8097 C   0  0  0  0  0  0  0  0  0  0  0  0
   -1.7565   23.1381  -28.3655 C   0  0  0  0  0  0  0  0  0  0  0  0
   -1.5143   22.6013  -27.1062 C   0  0  0  0  0  0  0  0  0  0  0  0
   -2.6043   22.3878  -26.2957 C   0  0  0  0  0  0  0  0  0  0  0  0
   -3.8649   22.7115  -26.7614 C   0  0  0  0  0  0  0  0  0  0  0  0
   -6.2182   24.4611  -27.7587 O   0  0  0  0  0  0  0  0  0  0  0  0
   -5.4402   23.5604  -28.4343 N   0  0  0  0  0  0  0  0  0  0  0  0
   -5.8994   23.0038  -29.4374 O   0  0  0  0  0  0  0  0  0  0  0  0
   -2.4405   21.8257  -24.9869 C   0  0  0  0  0  0  0  0  0  0  0  0
   -3.5167   21.4236  -24.4127 O   0  0  0  0  0  0  0  0  0  0  0  0
   -1.2286   21.6542  -24.2387 C   0  0  0  0  0  0  0  0  0  0  0  0
   -1.3147   21.2233  -22.9128 C   0  0  0  0  0  0  0  0  0  0  0  0
   -0.2049   21.0092  -22.1226 C   0  0  0  0  0  0  0  0  0  0  0  0
    1.0652   21.2217  -22.6358 C   0  0  0  0  0  0  0  0  0  0  0  0
    1.1338   21.6466  -23.9449 C   0  0  0  0  0  0  0  0  0  0  0  0
    0.0379   21.8625  -24.7392 C   0  0  0  0  0  0  0  0  0  0  0  0
  7  8  1  0  0  0
  8  9  2  0  0  0
  8  1  1  0  0  0
  1  2  2  0  0  0
  2  3  1  0  0  0
  3  4  2  0  0  0
  4  5  1  0  0  0
  5  6  2  0  0  0
  5 10  1  0  0  0
 10 11  2  0  0  0
 10 12  1  0  0  0
 12 13  2  0  0  0
 13 14  1  0  0  0
 14 15  2  0  0  0
 15 16  1  0  0  0
 16 17  2  0  0  0
  6  1  1  0  0  0
 17 12  1  0  0  0
M  CHG 1   7  -1
M  CHG 1   8   1
M  END
> <minimizedAffinity>
-6.87603

> <CNNscore>
0.4602887630

> <CNNaffinity>
4.7622165680

> <CNN_VS>
2.1919946671

> <CNNaffinity_variance>
0.1367413998

$$$$
[H]c1c([H])c([H])c(C(=O)c2c([H])c([H])c([H])c([N+](=O)[O-])c2[H])c([H])c1[H]


 17 18  0  0  0  0  0  0  0  0999 V2000
   -5.1894   25.2896  -28.0254 C   0  0  0  0  0  0  0  0  0  0  0  0
   -5.3036   26.3250  -27.1257 C   0  0  0  0  0  0  0  0  0  0  0  0
   -4.8287   26.1974  -25.8452 C   0  0  0  0  0  0  0  0  0  0  0  0
   -4.2138   25.0399  -25.3818 C   0  0  0  0  0  0  0  0  0  0  0  0
   -4.0916   23.9968  -26.2694 C   0  0  0  0  0  0  0  0  0  0  0  0
   -4.5771   24.1449  -27.5551 C   0  0  0  0  0  0  0  0  0  0  0  0
   -5.6569   26.5640  -30.0542 O   0  0  0  0  0  0  0  0  0  0  0  0
   -5.6720   25.3827  -29.3634 N   0  0  0  0  0  0  0  0  0  0  0  0
   -6.1190   24.3709  -29.9140 O   0  0  0  0  0  0  0  0  0  0  0  0
   -3.4585   22.7730  -25.8731 C   0  0  0  0  0  0  0  0  0  0  0  0
   -4.2478   21.8295  -25.5038 O   0  0  0  0  0  0  0  0  0  0  0  0
   -2.0571   22.4683  -25.8382 C   0  0  0  0  0  0  0  0  0  0  0  0
   -1.3146   22.5924  -27.0148 C   0  0  0  0  0  0  0  0  0  0  0  0
    0.0406   22.3430  -27.0736 C   0  0  0  0  0  0  0  0  0  0  0  0
    0.7251   21.9507  -25.9339 C   0  0  0  0  0  0  0  0  0  0  0  0
   -0.0208   21.8328  -24.7812 C   0  0  0  0  0  0  0  0  0  0  0  0
   -1.3675   22.0778  -24.7112 C   0  0  0  0  0  0  0  0  0  0  0  0
  7  8  1  0  0  0
  8  9  2  0  0  0
  8  1  1  0  0  0
  1  2  2  0  0  0
  2  3  1  0  0  0
  3  4  2  0  0  0
  4  5  1  0  0  0
  5  6  2  0  0  0
  5 10  1  0  0  0
 10 11  2  0  0  0
 10 12  1  0  0  0
 12 13  2  0  0  0
 13 14  1  0  0  0
 14 15  2  0  0  0
 15 16  1  0  0  0
 16 17  2  0  0  0
  6  1  1  0  0  0
 17 12  1  0  0  0
M  CHG 1   7  -1
M  CHG 1   8   1
M  END
> <minimizedAffinity>
-7.66791

> <CNNscore>
0.4464804530

> <CNNaffinity>
5.0551252365

> <CNN_VS>
2.2570145130

> <CNNaffinity_variance>
0.2910939157

$$$$
[H]c1nc(N([H])[H])c(C(=O)N([H])c2nc([H])c([H])c([H])c2N2C([H])([H])C([H])([H])C([H])(N([H])[H])C([H])([H])C2([H])[H])nc1-c1nc(N2C([H])([H])C([H])([H])OC([H])([H])C2([H])[H])c([H])c([H])c1C(F)(F)F


 44 48  0  0  0  0  0  0  0  0999 V2000
   -1.2463   22.6691  -25.6913 C   0  0  0  0  0  0  0  0  0  0  0  0
   -2.4570   23.1026  -25.3665 N   0  0  0  0  0  0  0  0  0  0  0  0
   -3.4834   23.3048  -26.2785 C   0  0  0  0  0  0  0  0  0  0  0  0
   -3.1531   23.0233  -27.5419 C   0  0  0  0  0  0  0  0  0  0  0  0
   -1.9010   22.5722  -27.8939 N   0  0  0  0  0  0  0  0  0  0  0  0
   -0.9338   22.3849  -27.0058 C   0  0  0  0  0  0  0  0  0  0  0  0
    0.3650   21.9137  -27.3981 N   0  0  0  0  0  0  0  0  0  0  0  0
    1.0673   22.6212  -27.6869 H   0  0  0  0  0  0  0  0  0  0  0  0
    0.6445   20.9155  -27.4111 H   0  0  0  0  0  0  0  0  0  0  0  0
   -4.7292   23.7018  -25.6537 C   0  0  0  0  0  0  0  0  0  0  0  0
   -4.8853   23.2780  -24.3378 N   0  0  0  0  0  0  0  0  0  0  0  0
   -5.9172   23.5327  -23.5738 C   0  0  0  0  0  0  0  0  0  0  0  0
   -6.9381   24.2978  -24.1414 C   0  0  0  0  0  0  0  0  0  0  0  0
   -6.8508   24.7453  -25.4195 C   0  0  0  0  0  0  0  0  0  0  0  0
   -5.7091   24.4419  -26.2120 C   0  0  0  0  0  0  0  0  0  0  0  0
   -6.0570   23.0484  -22.2474 N   0  0  0  0  0  0  0  0  0  0  0  0
   -5.4073   23.7032  -21.1620 C   0  0  0  0  0  0  0  0  0  0  0  0
   -4.8252   22.7250  -20.1605 C   0  0  0  0  0  0  0  0  0  0  0  0
   -5.2917   21.4283  -20.3425 O   0  0  0  0  0  0  0  0  0  0  0  0
   -6.6678   21.4163  -20.5689 C   0  0  0  0  0  0  0  0  0  0  0  0
   -6.8614   21.8676  -22.0064 C   0  0  0  0  0  0  0  0  0  0  0  0
   -5.6643   24.9862  -27.5748 C   0  0  0  0  0  0  0  0  0  0  0  0
   -6.8794   25.7998  -27.6379 F   0  0  0  0  0  0  0  0  0  0  0  0
   -5.9784   24.0829  -28.5611 F   0  0  0  0  0  0  0  0  0  0  0  0
   -4.6711   25.8757  -27.8449 F   0  0  0  0  0  0  0  0  0  0  0  0
   -0.1823   21.4097  -23.7647 N   0  0  0  0  0  0  0  0  0  0  0  0
   -0.1975   22.4440  -24.7210 C   0  0  0  0  0  0  0  0  0  0  0  0
    0.7925   23.2557  -24.7343 O   0  0  0  0  0  0  0  0  0  0  0  0
   -0.9660   20.7592  -23.7350 H   0  0  0  0  0  0  0  0  0  0  0  0
    0.7811   21.2227  -21.5578 C   0  0  0  0  0  0  0  0  0  0  0  0
    1.9171   20.9544  -20.7684 C   0  0  0  0  0  0  0  0  0  0  0  0
    3.1330   20.7362  -21.3608 C   0  0  0  0  0  0  0  0  0  0  0  0
    3.2599   20.7757  -22.7235 C   0  0  0  0  0  0  0  0  0  0  0  0
    2.1780   21.0283  -23.4580 N   0  0  0  0  0  0  0  0  0  0  0  0
    0.9435   21.2506  -22.9087 C   0  0  0  0  0  0  0  0  0  0  0  0
   -1.5712   21.8689  -16.9828 N   0  0  0  0  0  0  0  0  0  0  0  0
   -0.9047   21.7096  -18.2831 C   0  0  0  0  0  0  0  0  0  0  0  0
   -1.4698   20.4900  -18.9257 C   0  0  0  0  0  0  0  0  0  0  0  0
   -1.2227   20.4193  -20.4160 C   0  0  0  0  0  0  0  0  0  0  0  0
   -0.4039   21.5332  -20.8645 N   0  0  0  0  0  0  0  0  0  0  0  0
   -0.8225   22.8521  -20.5140 C   0  0  0  0  0  0  0  0  0  0  0  0
   -1.1406   22.9895  -19.0401 C   0  0  0  0  0  0  0  0  0  0  0  0
   -1.0084   21.4567  -16.2187 H   0  0  0  0  0  0  0  0  0  0  0  0
   -1.8906   22.8298  -16.8166 H   0  0  0  0  0  0  0  0  0  0  0  0
 36 37  1  0  0  0
 37 38  1  0  0  0
 38 39  1  0  0  0
 39 40  1  0  0  0
 40 41  1  0  0  0
 41 42  1  0  0  0
 40 30  1  0  0  0
 30 31  2  0  0  0
 31 32  1  0  0  0
 32 33  2  0  0  0
 33 34  1  0  0  0
 34 35  2  0  0  0
 35 26  1  0  0  0
 26 27  1  0  0  0
 27 28  2  0  0  0
 27  1  1  0  0  0
  1  2  2  0  0  0
  2  3  1  0  0  0
  3  4  2  0  0  0
  4  5  1  0  0  0
  5  6  2  0  0  0
  6  7  1  0  0  0
  3 10  1  0  0  0
 10 11  2  0  0  0
 11 12  1  0  0  0
 12 13  2  0  0  0
 13 14  1  0  0  0
 14 15  2  0  0  0
 15 22  1  0  0  0
 22 23  1  0  0  0
 22 24  1  0  0  0
 22 25  1  0  0  0
 12 16  1  0  0  0
 16 17  1  0  0  0
 17 18  1  0  0  0
 18 19  1  0  0  0
 19 20  1  0  0  0
 20 21  1  0  0  0
 42 37  1  0  0  0
 35 30  1  0  0  0
  6  1  1  0  0  0
 15 10  1  0  0  0
 21 16  1  0  0  0
 36 43  1  0  0  0
 36 44  1  0  0  0
 26 29  1  0  0  0
  7  8  1  0  0  0
  7  9  1  0  0  0
M  END
> <minimizedAffinity>
-8.58737

> <CNNscore>
0.3823256195

> <CNNaffinity>
7.3176026344

> <CNN_VS>
2.7977068424

> <CNNaffinity_variance>
0.1668045670

$$$$
[H]c1nc(N([H])[H])c(C(=O)N([H])c2nc([H])c([H])c([H])c2N2C([H])([H])C([H])([H])C([H])(N([H])[H])C([H])([H])C2([H])[H])nc1-c1nc(N2C([H])([H])C([H])([H])OC([H])([H])C2([H])[H])c([H])c([H])c1C(F)(F)F


 44 48  0  0  0  0  0  0  0  0999 V2000
   -1.3532   22.4459  -24.0793 C   0  0  0  0  0  0  0  0  0  0  0  0
   -2.5042   22.8143  -24.6260 N   0  0  0  0  0  0  0  0  0  0  0  0
   -2.7099   22.9521  -25.9915 C   0  0  0  0  0  0  0  0  0  0  0  0
   -1.6340   22.6795  -26.7350 C   0  0  0  0  0  0  0  0  0  0  0  0
   -0.4333   22.2956  -26.1817 N   0  0  0  0  0  0  0  0  0  0  0  0
   -0.2581   22.1691  -24.8731 C   0  0  0  0  0  0  0  0  0  0  0  0
    1.0051   21.7675  -24.3199 N   0  0  0  0  0  0  0  0  0  0  0  0
    1.7015   22.5105  -24.1196 H   0  0  0  0  0  0  0  0  0  0  0  0
    1.2644   20.7862  -24.1089 H   0  0  0  0  0  0  0  0  0  0  0  0
   -4.0793   23.2845  -26.3297 C   0  0  0  0  0  0  0  0  0  0  0  0
   -4.9274   23.4516  -25.2396 N   0  0  0  0  0  0  0  0  0  0  0  0
   -6.1956   23.7695  -25.3039 C   0  0  0  0  0  0  0  0  0  0  0  0
   -6.7266   23.9556  -26.5818 C   0  0  0  0  0  0  0  0  0  0  0  0
   -5.9557   23.8098  -27.6892 C   0  0  0  0  0  0  0  0  0  0  0  0
   -4.5815   23.4623  -27.5690 C   0  0  0  0  0  0  0  0  0  0  0  0
   -7.0380   23.8921  -24.1687 N   0  0  0  0  0  0  0  0  0  0  0  0
   -8.0570   24.8866  -24.1235 C   0  0  0  0  0  0  0  0  0  0  0  0
   -8.1673   25.5409  -22.7603 C   0  0  0  0  0  0  0  0  0  0  0  0
   -7.4756   24.8475  -21.7740 O   0  0  0  0  0  0  0  0  0  0  0  0
   -7.6943   23.4740  -21.8777 C   0  0  0  0  0  0  0  0  0  0  0  0
   -6.8440   22.9997  -23.0439 C   0  0  0  0  0  0  0  0  0  0  0  0
   -3.7977   23.3543  -28.8056 C   0  0  0  0  0  0  0  0  0  0  0  0
   -4.8166   23.4936  -29.8472 F   0  0  0  0  0  0  0  0  0  0  0  0
   -3.3784   22.0810  -29.1066 F   0  0  0  0  0  0  0  0  0  0  0  0
   -2.9311   24.3690  -29.0701 F   0  0  0  0  0  0  0  0  0  0  0  0
   -1.4507   21.1171  -21.9218 N   0  0  0  0  0  0  0  0  0  0  0  0
   -1.1671   22.2869  -22.6538 C   0  0  0  0  0  0  0  0  0  0  0  0
   -0.7114   23.2952  -22.0096 O   0  0  0  0  0  0  0  0  0  0  0  0
   -1.8213   20.3076  -22.4174 H   0  0  0  0  0  0  0  0  0  0  0  0
   -0.0728   20.3717  -20.0835 C   0  0  0  0  0  0  0  0  0  0  0  0
    0.2265   20.4434  -18.7084 C   0  0  0  0  0  0  0  0  0  0  0  0
   -0.5625   21.1841  -17.8684 C   0  0  0  0  0  0  0  0  0  0  0  0
   -1.6487   21.8627  -18.3525 C   0  0  0  0  0  0  0  0  0  0  0  0
   -1.9192   21.7882  -19.6545 N   0  0  0  0  0  0  0  0  0  0  0  0
   -1.1575   21.0616  -20.5303 C   0  0  0  0  0  0  0  0  0  0  0  0
    4.0206   17.1947  -20.2621 N   0  0  0  0  0  0  0  0  0  0  0  0
    2.8455   18.0762  -20.2125 C   0  0  0  0  0  0  0  0  0  0  0  0
    3.1580   19.2799  -21.0329 C   0  0  0  0  0  0  0  0  0  0  0  0
    1.9351   20.0706  -21.4407 C   0  0  0  0  0  0  0  0  0  0  0  0
    0.7293   19.5096  -20.8547 N   0  0  0  0  0  0  0  0  0  0  0  0
    0.4806   18.1170  -21.0458 C   0  0  0  0  0  0  0  0  0  0  0  0
    1.6815   17.2594  -20.7072 C   0  0  0  0  0  0  0  0  0  0  0  0
    4.6345   17.3397  -19.4419 H   0  0  0  0  0  0  0  0  0  0  0  0
    3.7743   16.2167  -20.4521 H   0  0  0  0  0  0  0  0  0  0  0  0
 36 37  1  0  0  0
 37 38  1  0  0  0
 38 39  1  0  0  0
 39 40  1  0  0  0
 40 41  1  0  0  0
 41 42  1  0  0  0
 40 30  1  0  0  0
 30 31  2  0  0  0
 31 32  1  0  0  0
 32 33  2  0  0  0
 33 34  1  0  0  0
 34 35  2  0  0  0
 35 26  1  0  0  0
 26 27  1  0  0  0
 27 28  2  0  0  0
 27  1  1  0  0  0
  1  2  2  0  0  0
  2  3  1  0  0  0
  3  4  2  0  0  0
  4  5  1  0  0  0
  5  6  2  0  0  0
  6  7  1  0  0  0
  3 10  1  0  0  0
 10 11  2  0  0  0
 11 12  1  0  0  0
 12 13  2  0  0  0
 13 14  1  0  0  0
 14 15  2  0  0  0
 15 22  1  0  0  0
 22 23  1  0  0  0
 22 24  1  0  0  0
 22 25  1  0  0  0
 12 16  1  0  0  0
 16 17  1  0  0  0
 17 18  1  0  0  0
 18 19  1  0  0  0
 19 20  1  0  0  0
 20 21  1  0  0  0
 42 37  1  0  0  0
 35 30  1  0  0  0
  6  1  1  0  0  0
 15 10  1  0  0  0
 21 16  1  0  0  0
 36 43  1  0  0  0
 36 44  1  0  0  0
 26 29  1  0  0  0
  7  8  1  0  0  0
  7  9  1  0  0  0
M  END
> <minimizedAffinity>
-8.84355

> <CNNscore>
0.3612206876

> <CNNaffinity>
7.3290505409

> <CNN_VS>
2.6474046707

> <CNNaffinity_variance>
0.1776757985

$$$$
[H]c1nc(N([H])[H])c(C(=O)N([H])c2nc([H])c([H])c([H])c2N2C([H])([H])C([H])([H])C([H])(N([H])[H])C([H])([H])C2([H])[H])nc1-c1nc(N2C([H])([H])C([H])([H])OC([H])([H])C2([H])[H])c([H])c([H])c1C(F)(F)F


 44 48  0  0  0  0  0  0  0  0999 V2000
   -1.2566   22.2273  -23.2650 C   0  0  0  0  0  0  0  0  0  0  0  0
   -2.3374   22.5791  -23.9487 N   0  0  0  0  0  0  0  0  0  0  0  0
   -2.4123   22.5955  -25.3344 C   0  0  0  0  0  0  0  0  0  0  0  0
   -1.2850   22.2210  -25.9455 C   0  0  0  0  0  0  0  0  0  0  0  0
   -0.1560   21.8528  -25.2493 N   0  0  0  0  0  0  0  0  0  0  0  0
   -0.1057   21.8434  -23.9240 C   0  0  0  0  0  0  0  0  0  0  0  0
    1.0848   21.4555  -23.2203 N   0  0  0  0  0  0  0  0  0  0  0  0
    1.7892   22.1917  -23.0228 H   0  0  0  0  0  0  0  0  0  0  0  0
    1.2844   20.4905  -22.8984 H   0  0  0  0  0  0  0  0  0  0  0  0
   -3.7309   22.9378  -25.8286 C   0  0  0  0  0  0  0  0  0  0  0  0
   -3.7402   23.7633  -26.9485 N   0  0  0  0  0  0  0  0  0  0  0  0
   -4.8100   24.1852  -27.5738 C   0  0  0  0  0  0  0  0  0  0  0  0
   -6.0380   23.7601  -27.0628 C   0  0  0  0  0  0  0  0  0  0  0  0
   -6.1023   22.9528  -25.9738 C   0  0  0  0  0  0  0  0  0  0  0  0
   -4.9115   22.5206  -25.3268 C   0  0  0  0  0  0  0  0  0  0  0  0
   -4.7790   25.0598  -28.6908 N   0  0  0  0  0  0  0  0  0  0  0  0
   -5.8914   25.8982  -28.9887 C   0  0  0  0  0  0  0  0  0  0  0  0
   -6.1755   25.9763  -30.4760 C   0  0  0  0  0  0  0  0  0  0  0  0
   -5.1371   25.4695  -31.2486 O   0  0  0  0  0  0  0  0  0  0  0  0
   -3.8998   25.9092  -30.7788 C   0  0  0  0  0  0  0  0  0  0  0  0
   -3.6039   25.0842  -29.5380 C   0  0  0  0  0  0  0  0  0  0  0  0
   -5.0525   21.6212  -24.1751 C   0  0  0  0  0  0  0  0  0  0  0  0
   -6.4831   21.3116  -24.1802 F   0  0  0  0  0  0  0  0  0  0  0  0
   -4.9885   22.2447  -22.9524 F   0  0  0  0  0  0  0  0  0  0  0  0
   -4.4620   20.4000  -24.2778 F   0  0  0  0  0  0  0  0  0  0  0  0
   -1.4838   21.0693  -21.0206 N   0  0  0  0  0  0  0  0  0  0  0  0
   -1.2075   22.1960  -21.8198 C   0  0  0  0  0  0  0  0  0  0  0  0
   -0.8908   23.2841  -21.2239 O   0  0  0  0  0  0  0  0  0  0  0  0
   -1.7450   20.1971  -21.4781 H   0  0  0  0  0  0  0  0  0  0  0  0
   -0.1185   20.9226  -19.0336 C   0  0  0  0  0  0  0  0  0  0  0  0
   -0.0071   21.1196  -17.6428 C   0  0  0  0  0  0  0  0  0  0  0  0
   -1.0957   21.5188  -16.9132 C   0  0  0  0  0  0  0  0  0  0  0  0
   -2.3026   21.7311  -17.5240 C   0  0  0  0  0  0  0  0  0  0  0  0
   -2.3937   21.5433  -18.8393 N   0  0  0  0  0  0  0  0  0  0  0  0
   -1.3320   21.1465  -19.6076 C   0  0  0  0  0  0  0  0  0  0  0  0
    4.5607   18.7309  -18.6064 N   0  0  0  0  0  0  0  0  0  0  0  0
    3.2253   19.3312  -18.7353 C   0  0  0  0  0  0  0  0  0  0  0  0
    3.4087   20.7168  -19.2511 C   0  0  0  0  0  0  0  0  0  0  0  0
    2.1522   21.3158  -19.8421 C   0  0  0  0  0  0  0  0  0  0  0  0
    1.0207   20.4168  -19.6876 N   0  0  0  0  0  0  0  0  0  0  0  0
    1.1687   19.0734  -20.1470 C   0  0  0  0  0  0  0  0  0  0  0  0
    2.4363   18.4204  -19.6380 C   0  0  0  0  0  0  0  0  0  0  0  0
    4.9222   18.8212  -17.6412 H   0  0  0  0  0  0  0  0  0  0  0  0
    4.6095   17.7849  -19.0012 H   0  0  0  0  0  0  0  0  0  0  0  0
 36 37  1  0  0  0
 37 38  1  0  0  0
 38 39  1  0  0  0
 39 40  1  0  0  0
 40 41  1  0  0  0
 41 42  1  0  0  0
 40 30  1  0  0  0
 30 31  2  0  0  0
 31 32  1  0  0  0
 32 33  2  0  0  0
 33 34  1  0  0  0
 34 35  2  0  0  0
 35 26  1  0  0  0
 26 27  1  0  0  0
 27 28  2  0  0  0
 27  1  1  0  0  0
  1  2  2  0  0  0
  2  3  1  0  0  0
  3  4  2  0  0  0
  4  5  1  0  0  0
  5  6  2  0  0  0
  6  7  1  0  0  0
  3 10  1  0  0  0
 10 11  2  0  0  0
 11 12  1  0  0  0
 12 13  2  0  0  0
 13 14  1  0  0  0
 14 15  2  0  0  0
 15 22  1  0  0  0
 22 23  1  0  0  0
 22 24  1  0  0  0
 22 25  1  0  0  0
 12 16  1  0  0  0
 16 17  1  0  0  0
 17 18  1  0  0  0
 18 19  1  0  0  0
 19 20  1  0  0  0
 20 21  1  0  0  0
 42 37  1  0  0  0
 35 30  1  0  0  0
  6  1  1  0  0  0
 15 10  1  0  0  0
 21 16  1  0  0  0
 36 43  1  0  0  0
 36 44  1  0  0  0
 26 29  1  0  0  0
  7  8  1  0  0  0
  7  9  1  0  0  0
M  END
> <minimizedAffinity>
-8.26015

> <CNNscore>
0.2595530152

> <CNNaffinity>
7.2065896988

> <CNN_VS>
1.8704921007

> <CNNaffinity_variance>
0.2431520522

$$$$
[H]c1nc(N([H])[H])c(C(=O)N([H])c2nc([H])c([H])c([H])c2N2C([H])([H])C([H])([H])C([H])(N([H])[H])C([H])([H])C2([H])[H])nc1-c1nc(N2C([H])([H])C([H])([H])OC([H])([H])C2([H])[H])c([H])c([H])c1C(F)(F)F


 44 48  0  0  0  0  0  0  0  0999 V2000
   -1.3407   22.4852  -24.1571 C   0  0  0  0  0  0  0  0  0  0  0  0
   -2.5035   22.8316  -24.6929 N   0  0  0  0  0  0  0  0  0  0  0  0
   -2.7156   22.9997  -26.0541 C   0  0  0  0  0  0  0  0  0  0  0  0
   -1.6327   22.7813  -26.8053 C   0  0  0  0  0  0  0  0  0  0  0  0
   -0.4197   22.4209  -26.2635 N   0  0  0  0  0  0  0  0  0  0  0  0
   -0.2385   22.2647  -24.9588 C   0  0  0  0  0  0  0  0  0  0  0  0
    1.0375   21.8885  -24.4175 N   0  0  0  0  0  0  0  0  0  0  0  0
    1.7104   22.6475  -24.1976 H   0  0  0  0  0  0  0  0  0  0  0  0
    1.3280   20.9105  -24.2333 H   0  0  0  0  0  0  0  0  0  0  0  0
   -4.0953   23.2976  -26.3823 C   0  0  0  0  0  0  0  0  0  0  0  0
   -4.9355   23.4616  -25.2856 N   0  0  0  0  0  0  0  0  0  0  0  0
   -6.2109   23.7510  -25.3408 C   0  0  0  0  0  0  0  0  0  0  0  0
   -6.7590   23.9076  -26.6155 C   0  0  0  0  0  0  0  0  0  0  0  0
   -5.9965   23.7631  -27.7289 C   0  0  0  0  0  0  0  0  0  0  0  0
   -4.6140   23.4471  -27.6185 C   0  0  0  0  0  0  0  0  0  0  0  0
   -7.0441   23.8713  -24.1986 N   0  0  0  0  0  0  0  0  0  0  0  0
   -8.0823   24.8457  -24.1553 C   0  0  0  0  0  0  0  0  0  0  0  0
   -8.1919   25.5151  -22.7993 C   0  0  0  0  0  0  0  0  0  0  0  0
   -7.4764   24.8482  -21.8116 O   0  0  0  0  0  0  0  0  0  0  0  0
   -7.6685   23.4694  -21.8958 C   0  0  0  0  0  0  0  0  0  0  0  0
   -6.8208   22.9974  -23.0647 C   0  0  0  0  0  0  0  0  0  0  0  0
   -3.8408   23.3387  -28.8618 C   0  0  0  0  0  0  0  0  0  0  0  0
   -4.8744   23.4301  -29.8941 F   0  0  0  0  0  0  0  0  0  0  0  0
   -3.3887   22.0725  -29.1446 F   0  0  0  0  0  0  0  0  0  0  0  0
   -3.0064   24.3725  -29.1542 F   0  0  0  0  0  0  0  0  0  0  0  0
   -1.4055   23.2587  -21.7430 N   0  0  0  0  0  0  0  0  0  0  0  0
   -1.1475   22.2938  -22.7365 C   0  0  0  0  0  0  0  0  0  0  0  0
   -0.7020   21.1548  -22.3574 O   0  0  0  0  0  0  0  0  0  0  0  0
   -1.7531   24.1731  -22.0278 H   0  0  0  0  0  0  0  0  0  0  0  0
   -2.3074   22.5106  -19.6311 C   0  0  0  0  0  0  0  0  0  0  0  0
   -2.0626   22.0912  -18.3083 C   0  0  0  0  0  0  0  0  0  0  0  0
   -0.7896   22.1115  -17.8024 C   0  0  0  0  0  0  0  0  0  0  0  0
    0.2585   22.5382  -18.5733 C   0  0  0  0  0  0  0  0  0  0  0  0
    0.0137   22.9300  -19.8225 N   0  0  0  0  0  0  0  0  0  0  0  0
   -1.2417   22.9247  -20.3693 C   0  0  0  0  0  0  0  0  0  0  0  0
   -7.2535   21.4553  -18.4893 N   0  0  0  0  0  0  0  0  0  0  0  0
   -5.8557   21.7780  -18.8096 C   0  0  0  0  0  0  0  0  0  0  0  0
   -5.4353   20.8786  -19.9205 C   0  0  0  0  0  0  0  0  0  0  0  0
   -4.2007   21.3547  -20.6526 C   0  0  0  0  0  0  0  0  0  0  0  0
   -3.6550   22.5520  -20.0355 N   0  0  0  0  0  0  0  0  0  0  0  0
   -4.5369   23.6543  -19.8239 C   0  0  0  0  0  0  0  0  0  0  0  0
   -5.8244   23.2467  -19.1395 C   0  0  0  0  0  0  0  0  0  0  0  0
   -7.3144   20.7908  -17.6986 H   0  0  0  0  0  0  0  0  0  0  0  0
   -7.8424   22.2910  -18.4001 H   0  0  0  0  0  0  0  0  0  0  0  0
 36 37  1  0  0  0
 37 38  1  0  0  0
 38 39  1  0  0  0
 39 40  1  0  0  0
 40 41  1  0  0  0
 41 42  1  0  0  0
 40 30  1  0  0  0
 30 31  2  0  0  0
 31 32  1  0  0  0
 32 33  2  0  0  0
 33 34  1  0  0  0
 34 35  2  0  0  0
 35 26  1  0  0  0
 26 27  1  0  0  0
 27 28  2  0  0  0
 27  1  1  0  0  0
  1  2  2  0  0  0
  2  3  1  0  0  0
  3  4  2  0  0  0
  4  5  1  0  0  0
  5  6  2  0  0  0
  6  7  1  0  0  0
  3 10  1  0  0  0
 10 11  2  0  0  0
 11 12  1  0  0  0
 12 13  2  0  0  0
 13 14  1  0  0  0
 14 15  2  0  0  0
 15 22  1  0  0  0
 22 23  1  0  0  0
 22 24  1  0  0  0
 22 25  1  0  0  0
 12 16  1  0  0  0
 16 17  1  0  0  0
 17 18  1  0  0  0
 18 19  1  0  0  0
 19 20  1  0  0  0
 20 21  1  0  0  0
 42 37  1  0  0  0
 35 30  1  0  0  0
  6  1  1  0  0  0
 15 10  1  0  0  0
 21 16  1  0  0  0
 36 43  1  0  0  0
 36 44  1  0  0  0
 26 29  1  0  0  0
  7  8  1  0  0  0
  7  9  1  0  0  0
M  END
> <minimizedAffinity>
-8.77626

> <CNNscore>
0.2169418335

> <CNNaffinity>
7.1173782349

> <CNN_VS>
1.5440571308

> <CNNaffinity_variance>
0.2634265423

$$$$
[H]c1nc(N([H])[H])c(C(=O)N([H])c2nc([H])c([H])c([H])c2N2C([H])([H])C([H])([H])C([H])(N([H])[H])C([H])([H])C2([H])[H])nc1-c1nc(N2C([H])([H])C([H])([H])OC([H])([H])C2([H])[H])c([H])c([H])c1C(F)(F)F


 44 48  0  0  0  0  0  0  0  0999 V2000
   -1.1571   22.1503  -24.3301 C   0  0  0  0  0  0  0  0  0  0  0  0
   -2.3877   22.6299  -24.4520 N   0  0  0  0  0  0  0  0  0  0  0  0
   -2.9363   23.0747  -25.6467 C   0  0  0  0  0  0  0  0  0  0  0  0
   -2.1111   22.9821  -26.6932 C   0  0  0  0  0  0  0  0  0  0  0  0
   -0.8318   22.4860  -26.5819 N   0  0  0  0  0  0  0  0  0  0  0  0
   -0.3269   22.0652  -25.4299 C   0  0  0  0  0  0  0  0  0  0  0  0
    1.0115   21.5520  -25.3394 N   0  0  0  0  0  0  0  0  0  0  0  0
    1.7782   22.2320  -25.1750 H   0  0  0  0  0  0  0  0  0  0  0  0
    1.2594   20.5492  -25.4275 H   0  0  0  0  0  0  0  0  0  0  0  0
   -4.3247   23.4711  -25.5223 C   0  0  0  0  0  0  0  0  0  0  0  0
   -4.8058   23.5167  -24.2177 N   0  0  0  0  0  0  0  0  0  0  0  0
   -6.0180   23.8628  -23.8654 C   0  0  0  0  0  0  0  0  0  0  0  0
   -6.8893   24.2158  -24.8979 C   0  0  0  0  0  0  0  0  0  0  0  0
   -6.4857   24.1951  -26.1934 C   0  0  0  0  0  0  0  0  0  0  0  0
   -5.1576   23.8106  -26.5276 C   0  0  0  0  0  0  0  0  0  0  0  0
   -6.4829   23.8585  -22.5248 N   0  0  0  0  0  0  0  0  0  0  0  0
   -7.4620   22.9159  -22.0979 C   0  0  0  0  0  0  0  0  0  0  0  0
   -8.4909   23.5304  -21.1692 C   0  0  0  0  0  0  0  0  0  0  0  0
   -8.1087   24.7801  -20.6955 O   0  0  0  0  0  0  0  0  0  0  0  0
   -6.7692   24.7824  -20.3070 C   0  0  0  0  0  0  0  0  0  0  0  0
   -5.9591   24.8347  -21.5911 C   0  0  0  0  0  0  0  0  0  0  0  0
   -4.7775   23.8432  -27.9453 C   0  0  0  0  0  0  0  0  0  0  0  0
   -6.0404   24.1663  -28.6110 F   0  0  0  0  0  0  0  0  0  0  0  0
   -4.5664   22.6078  -28.5084 F   0  0  0  0  0  0  0  0  0  0  0  0
   -3.9472   24.8488  -28.3322 F   0  0  0  0  0  0  0  0  0  0  0  0
   -1.1989   20.6846  -22.2613 N   0  0  0  0  0  0  0  0  0  0  0  0
   -0.6129   21.6711  -23.0786 C   0  0  0  0  0  0  0  0  0  0  0  0
    0.4883   22.1921  -22.6846 O   0  0  0  0  0  0  0  0  0  0  0  0
   -2.0794   20.2649  -22.5558 H   0  0  0  0  0  0  0  0  0  0  0  0
   -0.9521   20.6582  -19.8588 C   0  0  0  0  0  0  0  0  0  0  0  0
   -0.3169   20.1063  -18.7286 C   0  0  0  0  0  0  0  0  0  0  0  0
    0.6921   19.1924  -18.8818 C   0  0  0  0  0  0  0  0  0  0  0  0
    1.0953   18.8043  -20.1314 C   0  0  0  0  0  0  0  0  0  0  0  0
    0.4853   19.3322  -21.1912 N   0  0  0  0  0  0  0  0  0  0  0  0
   -0.5282   20.2469  -21.0849 C   0  0  0  0  0  0  0  0  0  0  0  0
   -5.2455   22.0860  -17.3271 N   0  0  0  0  0  0  0  0  0  0  0  0
   -4.0154   21.6956  -18.0305 C   0  0  0  0  0  0  0  0  0  0  0  0
   -4.3486   21.5801  -19.4780 C   0  0  0  0  0  0  0  0  0  0  0  0
   -3.1381   21.6121  -20.3839 C   0  0  0  0  0  0  0  0  0  0  0  0
   -1.9076   21.6620  -19.6122 N   0  0  0  0  0  0  0  0  0  0  0  0
   -1.7846   22.6791  -18.6182 C   0  0  0  0  0  0  0  0  0  0  0  0
   -2.9872   22.7449  -17.7007 C   0  0  0  0  0  0  0  0  0  0  0  0
   -5.7337   21.2613  -16.9373 H   0  0  0  0  0  0  0  0  0  0  0  0
   -5.0957   22.8550  -16.6643 H   0  0  0  0  0  0  0  0  0  0  0  0
 36 37  1  0  0  0
 37 38  1  0  0  0
 38 39  1  0  0  0
 39 40  1  0  0  0
 40 41  1  0  0  0
 41 42  1  0  0  0
 40 30  1  0  0  0
 30 31  2  0  0  0
 31 32  1  0  0  0
 32 33  2  0  0  0
 33 34  1  0  0  0
 34 35  2  0  0  0
 35 26  1  0  0  0
 26 27  1  0  0  0
 27 28  2  0  0  0
 27  1  1  0  0  0
  1  2  2  0  0  0
  2  3  1  0  0  0
  3  4  2  0  0  0
  4  5  1  0  0  0
  5  6  2  0  0  0
  6  7  1  0  0  0
  3 10  1  0  0  0
 10 11  2  0  0  0
 11 12  1  0  0  0
 12 13  2  0  0  0
 13 14  1  0  0  0
 14 15  2  0  0  0
 15 22  1  0  0  0
 22 23  1  0  0  0
 22 24  1  0  0  0
 22 25  1  0  0  0
 12 16  1  0  0  0
 16 17  1  0  0  0
 17 18  1  0  0  0
 18 19  1  0  0  0
 19 20  1  0  0  0
 20 21  1  0  0  0
 42 37  1  0  0  0
 35 30  1  0  0  0
  6  1  1  0  0  0
 15 10  1  0  0  0
 21 16  1  0  0  0
 36 43  1  0  0  0
 36 44  1  0  0  0
 26 29  1  0  0  0
  7  8  1  0  0  0
  7  9  1  0  0  0
M  END
> <minimizedAffinity>
-8.34578

> <CNNscore>
0.2065742016

> <CNNaffinity>
7.1147828102

> <CNN_VS>
1.4697306156

> <CNNaffinity_variance>
0.2372432053

$$$$
[H]c1nc(N([H])[H])c(C(=O)N([H])c2nc([H])c([H])c([H])c2N2C([H])([H])C([H])([H])C([H])(N([H])[H])C([H])([H])C2([H])[H])nc1-c1nc(N2C([H])([H])C([H])([H])OC([H])([H])C2([H])[H])c([H])c([H])c1C(F)(F)F


 44 48  0  0  0  0  0  0  0  0999 V2000
    1.3916   21.1591  -21.7224 C   0  0  0  0  0  0  0  0  0  0  0  0
    0.3495   21.4809  -22.4773 N   0  0  0  0  0  0  0  0  0  0  0  0
    0.3945   21.5982  -23.8594 C   0  0  0  0  0  0  0  0  0  0  0  0
    1.5974   21.3568  -24.3879 C   0  0  0  0  0  0  0  0  0  0  0  0
    2.6876   21.0212  -23.6173 N   0  0  0  0  0  0  0  0  0  0  0  0
    2.6228   20.9137  -22.2969 C   0  0  0  0  0  0  0  0  0  0  0  0
    3.7750   20.5626  -21.5146 N   0  0  0  0  0  0  0  0  0  0  0  0
    4.3976   21.3319  -21.2016 H   0  0  0  0  0  0  0  0  0  0  0  0
    4.0235   19.5933  -21.2438 H   0  0  0  0  0  0  0  0  0  0  0  0
   -0.8995   21.8783  -24.4488 C   0  0  0  0  0  0  0  0  0  0  0  0
   -1.9829   21.6994  -23.5945 N   0  0  0  0  0  0  0  0  0  0  0  0
   -3.2378   21.9083  -23.9031 C   0  0  0  0  0  0  0  0  0  0  0  0
   -3.4938   22.3502  -25.2027 C   0  0  0  0  0  0  0  0  0  0  0  0
   -2.4841   22.5470  -26.0878 C   0  0  0  0  0  0  0  0  0  0  0  0
   -1.1351   22.3054  -25.7064 C   0  0  0  0  0  0  0  0  0  0  0  0
   -4.3193   21.6760  -23.0144 N   0  0  0  0  0  0  0  0  0  0  0  0
   -5.6316   21.4356  -23.5136 C   0  0  0  0  0  0  0  0  0  0  0  0
   -6.6994   22.1337  -22.6944 C   0  0  0  0  0  0  0  0  0  0  0  0
   -6.2200   22.6072  -21.4786 O   0  0  0  0  0  0  0  0  0  0  0  0
   -5.4093   21.6595  -20.8544 C   0  0  0  0  0  0  0  0  0  0  0  0
   -4.0784   21.6975  -21.5859 C   0  0  0  0  0  0  0  0  0  0  0  0
   -0.0898   22.5712  -26.7024 C   0  0  0  0  0  0  0  0  0  0  0  0
   -0.8535   23.0706  -27.8469 F   0  0  0  0  0  0  0  0  0  0  0  0
    0.4376   21.4471  -27.2905 F   0  0  0  0  0  0  0  0  0  0  0  0
    0.7721   23.5870  -26.4270 F   0  0  0  0  0  0  0  0  0  0  0  0
    1.1248   22.0783  -19.3743 N   0  0  0  0  0  0  0  0  0  0  0  0
    1.3170   21.0205  -20.2846 C   0  0  0  0  0  0  0  0  0  0  0  0
    1.4404   19.8395  -19.8059 O   0  0  0  0  0  0  0  0  0  0  0  0
    1.0324   23.0258  -19.7376 H   0  0  0  0  0  0  0  0  0  0  0  0
   -0.2120   21.4736  -17.4557 C   0  0  0  0  0  0  0  0  0  0  0  0
   -0.2539   21.1080  -16.0955 C   0  0  0  0  0  0  0  0  0  0  0  0
    0.8945   21.0963  -15.3486 C   0  0  0  0  0  0  0  0  0  0  0  0
    2.0945   21.4384  -15.9123 C   0  0  0  0  0  0  0  0  0  0  0  0
    2.1204   21.7800  -17.1994 N   0  0  0  0  0  0  0  0  0  0  0  0
    0.9981   21.8040  -17.9836 C   0  0  0  0  0  0  0  0  0  0  0  0
   -5.3695   21.0255  -17.1719 N   0  0  0  0  0  0  0  0  0  0  0  0
   -3.9097   21.1765  -17.2534 C   0  0  0  0  0  0  0  0  0  0  0  0
   -3.3960   20.0733  -18.1129 C   0  0  0  0  0  0  0  0  0  0  0  0
   -2.0034   20.3194  -18.6486 C   0  0  0  0  0  0  0  0  0  0  0  0
   -1.4500   21.5552  -18.1205 N   0  0  0  0  0  0  0  0  0  0  0  0
   -2.2278   22.7447  -18.2538 C   0  0  0  0  0  0  0  0  0  0  0  0
   -3.6558   22.5620  -17.7851 C   0  0  0  0  0  0  0  0  0  0  0  0
   -5.6472   20.5095  -16.3191 H   0  0  0  0  0  0  0  0  0  0  0  0
   -5.8682   21.9089  -17.3262 H   0  0  0  0  0  0  0  0  0  0  0  0
 36 37  1  0  0  0
 37 38  1  0  0  0
 38 39  1  0  0  0
 39 40  1  0  0  0
 40 41  1  0  0  0
 41 42  1  0  0  0
 40 30  1  0  0  0
 30 31  2  0  0  0
 31 32  1  0  0  0
 32 33  2  0  0  0
 33 34  1  0  0  0
 34 35  2  0  0  0
 35 26  1  0  0  0
 26 27  1  0  0  0
 27 28  2  0  0  0
 27  1  1  0  0  0
  1  2  2  0  0  0
  2  3  1  0  0  0
  3  4  2  0  0  0
  4  5  1  0  0  0
  5  6  2  0  0  0
  6  7  1  0  0  0
  3 10  1  0  0  0
 10 11  2  0  0  0
 11 12  1  0  0  0
 12 13  2  0  0  0
 13 14  1  0  0  0
 14 15  2  0  0  0
 15 22  1  0  0  0
 22 23  1  0  0  0
 22 24  1  0  0  0
 22 25  1  0  0  0
 12 16  1  0  0  0
 16 17  1  0  0  0
 17 18  1  0  0  0
 18 19  1  0  0  0
 19 20  1  0  0  0
 20 21  1  0  0  0
 42 37  1  0  0  0
 35 30  1  0  0  0
  6  1  1  0  0  0
 15 10  1  0  0  0
 21 16  1  0  0  0
 36 43  1  0  0  0
 36 44  1  0  0  0
 26 29  1  0  0  0
  7  8  1  0  0  0
  7  9  1  0  0  0
M  END
> <minimizedAffinity>
-7.98599

> <CNNscore>
0.1557893753

> <CNNaffinity>
6.2620697021

> <CNN_VS>
0.9755639434

> <CNNaffinity_variance>
0.5087724924

$$$$
[H]c1nc(N([H])[H])c(C(=O)N([H])c2nc([H])c([H])c([H])c2N2C([H])([H])C([H])([H])C([H])(N([H])[H])C([H])([H])C2([H])[H])nc1-c1nc(N2C([H])([H])C([H])([H])OC([H])([H])C2([H])[H])c([H])c([H])c1C(F)(F)F


 44 48  0  0  0  0  0  0  0  0999 V2000
   -1.0031   22.2609  -21.9485 C   0  0  0  0  0  0  0  0  0  0  0  0
   -1.5881   22.5863  -23.0936 N   0  0  0  0  0  0  0  0  0  0  0  0
   -1.0436   22.3374  -24.3456 C   0  0  0  0  0  0  0  0  0  0  0  0
    0.1456   21.7298  -24.3117 C   0  0  0  0  0  0  0  0  0  0  0  0
    0.7645   21.3857  -23.1312 N   0  0  0  0  0  0  0  0  0  0  0  0
    0.2261   21.6321  -21.9444 C   0  0  0  0  0  0  0  0  0  0  0  0
    0.8921   21.2636  -20.7264 N   0  0  0  0  0  0  0  0  0  0  0  0
    1.5622   21.9434  -20.3190 H   0  0  0  0  0  0  0  0  0  0  0  0
    0.7465   20.3651  -20.2303 H   0  0  0  0  0  0  0  0  0  0  0  0
   -1.9225   22.7167  -25.4336 C   0  0  0  0  0  0  0  0  0  0  0  0
   -3.2438   22.9490  -25.0650 N   0  0  0  0  0  0  0  0  0  0  0  0
   -4.2056   23.3173  -25.8729 C   0  0  0  0  0  0  0  0  0  0  0  0
   -3.8596   23.4896  -27.2147 C   0  0  0  0  0  0  0  0  0  0  0  0
   -2.5889   23.2814  -27.6431 C   0  0  0  0  0  0  0  0  0  0  0  0
   -1.5769   22.8807  -26.7272 C   0  0  0  0  0  0  0  0  0  0  0  0
   -5.5515   23.5061  -25.4649 N   0  0  0  0  0  0  0  0  0  0  0  0
   -6.5847   23.6871  -26.4286 C   0  0  0  0  0  0  0  0  0  0  0  0
   -7.5881   24.7439  -26.0100 C   0  0  0  0  0  0  0  0  0  0  0  0
   -7.4683   25.0982  -24.6712 O   0  0  0  0  0  0  0  0  0  0  0  0
   -7.3063   23.9714  -23.8655 C   0  0  0  0  0  0  0  0  0  0  0  0
   -5.8660   23.5256  -24.0507 C   0  0  0  0  0  0  0  0  0  0  0  0
   -0.2168   22.7061  -27.2516 C   0  0  0  0  0  0  0  0  0  0  0  0
   -0.3562   23.1090  -28.6518 F   0  0  0  0  0  0  0  0  0  0  0  0
    0.1526   21.3988  -27.4567 F   0  0  0  0  0  0  0  0  0  0  0  0
    0.7361   23.5495  -26.7708 F   0  0  0  0  0  0  0  0  0  0  0  0
   -2.6130   21.7312  -20.0623 N   0  0  0  0  0  0  0  0  0  0  0  0
   -1.5991   22.5098  -20.6544 C   0  0  0  0  0  0  0  0  0  0  0  0
   -1.1697   23.5232  -20.0003 O   0  0  0  0  0  0  0  0  0  0  0  0
   -2.9718   20.9254  -20.5724 H   0  0  0  0  0  0  0  0  0  0  0  0
   -2.4681   21.4779  -17.6648 C   0  0  0  0  0  0  0  0  0  0  0  0
   -2.8923   21.9034  -16.3902 C   0  0  0  0  0  0  0  0  0  0  0  0
   -3.8790   22.8462  -16.2706 C   0  0  0  0  0  0  0  0  0  0  0  0
   -4.4640   23.3860  -17.3846 C   0  0  0  0  0  0  0  0  0  0  0  0
   -4.0524   22.9766  -18.5833 N   0  0  0  0  0  0  0  0  0  0  0  0
   -3.0689   22.0384  -18.7496 C   0  0  0  0  0  0  0  0  0  0  0  0
    0.2065   17.9190  -15.0073 N   0  0  0  0  0  0  0  0  0  0  0  0
   -0.5655   18.9104  -15.7699 C   0  0  0  0  0  0  0  0  0  0  0  0
    0.3932   19.9422  -16.2555 C   0  0  0  0  0  0  0  0  0  0  0  0
   -0.1432   20.7812  -17.3937 C   0  0  0  0  0  0  0  0  0  0  0  0
   -1.5225   20.4357  -17.6943 N   0  0  0  0  0  0  0  0  0  0  0  0
   -1.8295   19.0617  -17.9306 C   0  0  0  0  0  0  0  0  0  0  0  0
   -1.2778   18.1489  -16.8561 C   0  0  0  0  0  0  0  0  0  0  0  0
    0.1817   18.1223  -13.9931 H   0  0  0  0  0  0  0  0  0  0  0  0
   -0.0284   16.9530  -15.2620 H   0  0  0  0  0  0  0  0  0  0  0  0
 36 37  1  0  0  0
 37 38  1  0  0  0
 38 39  1  0  0  0
 39 40  1  0  0  0
 40 41  1  0  0  0
 41 42  1  0  0  0
 40 30  1  0  0  0
 30 31  2  0  0  0
 31 32  1  0  0  0
 32 33  2  0  0  0
 33 34  1  0  0  0
 34 35  2  0  0  0
 35 26  1  0  0  0
 26 27  1  0  0  0
 27 28  2  0  0  0
 27  1  1  0  0  0
  1  2  2  0  0  0
  2  3  1  0  0  0
  3  4  2  0  0  0
  4  5  1  0  0  0
  5  6  2  0  0  0
  6  7  1  0  0  0
  3 10  1  0  0  0
 10 11  2  0  0  0
 11 12  1  0  0  0
 12 13  2  0  0  0
 13 14  1  0  0  0
 14 15  2  0  0  0
 15 22  1  0  0  0
 22 23  1  0  0  0
 22 24  1  0  0  0
 22 25  1  0  0  0
 12 16  1  0  0  0
 16 17  1  0  0  0
 17 18  1  0  0  0
 18 19  1  0  0  0
 19 20  1  0  0  0
 20 21  1  0  0  0
 42 37  1  0  0  0
 35 30  1  0  0  0
  6  1  1  0  0  0
 15 10  1  0  0  0
 21 16  1  0  0  0
 36 43  1  0  0  0
 36 44  1  0  0  0
 26 29  1  0  0  0
  7  8  1  0  0  0
  7  9  1  0  0  0
M  END
> <minimizedAffinity>
-8.70747

> <CNNscore>
0.1465840042

> <CNNaffinity>
6.3401117325

> <CNN_VS>
0.9293589592

> <CNNaffinity_variance>
0.3205412328

$$$$
[H]c1nc(N([H])[H])c(C(=O)N([H])c2nc([H])c([H])c([H])c2N2C([H])([H])C([H])([H])C([H])(N([H])[H])C([H])([H])C2([H])[H])nc1-c1nc(N2C([H])([H])C([H])([H])OC([H])([H])C2([H])[H])c([H])c([H])c1C(F)(F)F


 44 48  0  0  0  0  0  0  0  0999 V2000
   -4.6192   22.2171  -22.1193 C   0  0  0  0  0  0  0  0  0  0  0  0
   -3.3735   22.1475  -22.5696 N   0  0  0  0  0  0  0  0  0  0  0  0
   -3.0218   21.6475  -23.8155 C   0  0  0  0  0  0  0  0  0  0  0  0
   -4.0582   21.2299  -24.5476 C   0  0  0  0  0  0  0  0  0  0  0  0
   -5.3561   21.2965  -24.0937 N   0  0  0  0  0  0  0  0  0  0  0  0
   -5.6709   21.7789  -22.8990 C   0  0  0  0  0  0  0  0  0  0  0  0
   -7.0332   21.8374  -22.4479 N   0  0  0  0  0  0  0  0  0  0  0  0
   -7.4184   21.0012  -21.9687 H   0  0  0  0  0  0  0  0  0  0  0  0
   -7.6539   22.6587  -22.5700 H   0  0  0  0  0  0  0  0  0  0  0  0
   -1.6042   21.7610  -24.0943 C   0  0  0  0  0  0  0  0  0  0  0  0
   -0.7696   21.3723  -23.0513 N   0  0  0  0  0  0  0  0  0  0  0  0
    0.5391   21.3737  -23.0830 C   0  0  0  0  0  0  0  0  0  0  0  0
    1.1323   21.8019  -24.2723 C   0  0  0  0  0  0  0  0  0  0  0  0
    0.3782   22.1939  -25.3303 C   0  0  0  0  0  0  0  0  0  0  0  0
   -1.0418   22.1759  -25.2481 C   0  0  0  0  0  0  0  0  0  0  0  0
    1.3565   21.0069  -21.9827 N   0  0  0  0  0  0  0  0  0  0  0  0
    0.8192   20.9506  -20.6647 C   0  0  0  0  0  0  0  0  0  0  0  0
    1.7745   21.5046  -19.6259 C   0  0  0  0  0  0  0  0  0  0  0  0
    3.0639   21.6726  -20.1171 O   0  0  0  0  0  0  0  0  0  0  0  0
    3.4617   20.5701  -20.8729 C   0  0  0  0  0  0  0  0  0  0  0  0
    2.7541   20.7001  -22.2108 C   0  0  0  0  0  0  0  0  0  0  0  0
   -1.7963   22.5803  -26.4408 C   0  0  0  0  0  0  0  0  0  0  0  0
   -0.7719   23.2161  -27.2709 F   0  0  0  0  0  0  0  0  0  0  0  0
   -2.6104   23.6719  -26.2587 F   0  0  0  0  0  0  0  0  0  0  0  0
   -2.2711   21.5802  -27.2313 F   0  0  0  0  0  0  0  0  0  0  0  0
   -4.9637   22.0455  -19.6129 N   0  0  0  0  0  0  0  0  0  0  0  0
   -4.9656   22.7629  -20.8254 C   0  0  0  0  0  0  0  0  0  0  0  0
   -5.3044   23.9969  -20.7853 O   0  0  0  0  0  0  0  0  0  0  0  0
   -4.7040   21.0604  -19.6277 H   0  0  0  0  0  0  0  0  0  0  0  0
   -6.4968   22.6240  -17.8386 C   0  0  0  0  0  0  0  0  0  0  0  0
   -6.6945   23.2178  -16.5761 C   0  0  0  0  0  0  0  0  0  0  0  0
   -5.6618   23.8621  -15.9473 C   0  0  0  0  0  0  0  0  0  0  0  0
   -4.4277   23.9370  -16.5356 C   0  0  0  0  0  0  0  0  0  0  0  0
   -4.2538   23.3698  -17.7280 N   0  0  0  0  0  0  0  0  0  0  0  0
   -5.2566   22.7148  -18.3915 C   0  0  0  0  0  0  0  0  0  0  0  0
  -11.5410   21.4767  -17.4908 N   0  0  0  0  0  0  0  0  0  0  0  0
  -10.1164   21.8199  -17.6046 C   0  0  0  0  0  0  0  0  0  0  0  0
   -9.3512   20.5417  -17.6210 C   0  0  0  0  0  0  0  0  0  0  0  0
   -7.9445   20.6832  -18.1577 C   0  0  0  0  0  0  0  0  0  0  0  0
   -7.6349   22.0716  -18.4557 N   0  0  0  0  0  0  0  0  0  0  0  0
   -8.5385   22.7911  -19.2945 C   0  0  0  0  0  0  0  0  0  0  0  0
   -9.9794   22.6542  -18.8504 C   0  0  0  0  0  0  0  0  0  0  0  0
  -11.8593   21.5133  -16.5069 H   0  0  0  0  0  0  0  0  0  0  0  0
  -12.1272   21.9936  -18.1559 H   0  0  0  0  0  0  0  0  0  0  0  0
 36 37  1  0  0  0
 37 38  1  0  0  0
 38 39  1  0  0  0
 39 40  1  0  0  0
 40 41  1  0  0  0
 41 42  1  0  0  0
 40 30  1  0  0  0
 30 31  2  0  0  0
 31 32  1  0  0  0
 32 33  2  0  0  0
 33 34  1  0  0  0
 34 35  2  0  0  0
 35 26  1  0  0  0
 26 27  1  0  0  0
 27 28  2  0  0  0
 27  1  1  0  0  0
  1  2  2  0  0  0
  2  3  1  0  0  0
  3  4  2  0  0  0
  4  5  1  0  0  0
  5  6  2  0  0  0
  6  7  1  0  0  0
  3 10  1  0  0  0
 10 11  2  0  0  0
 11 12  1  0  0  0
 12 13  2  0  0  0
 13 14  1  0  0  0
 14 15  2  0  0  0
 15 22  1  0  0  0
 22 23  1  0  0  0
 22 24  1  0  0  0
 22 25  1  0  0  0
 12 16  1  0  0  0
 16 17  1  0  0  0
 17 18  1  0  0  0
 18 19  1  0  0  0
 19 20  1  0  0  0
 20 21  1  0  0  0
 42 37  1  0  0  0
 35 30  1  0  0  0
  6  1  1  0  0  0
 15 10  1  0  0  0
 21 16  1  0  0  0
 36 43  1  0  0  0
 36 44  1  0  0  0
 26 29  1  0  0  0
  7  8  1  0  0  0
  7  9  1  0  0  0
M  END
> <minimizedAffinity>
-8.71575

> <CNNscore>
0.0883684307

> <CNNaffinity>
5.9328112602

> <CNN_VS>
0.5242732167

> <CNNaffinity_variance>
0.2590425611

$$$$
[H]c1nc(N([H])[H])c(C(=O)N([H])c2nc([H])c([H])c([H])c2N2C([H])([H])C([H])([H])C([H])(N([H])[H])C([H])([H])C2([H])[H])nc1-c1nc(N2C([H])([H])C([H])([H])OC([H])([H])C2([H])[H])c([H])c([H])c1C(F)(F)F


 44 48  0  0  0  0  0  0  0  0999 V2000
   -1.4723   22.2075  -22.9210 C   0  0  0  0  0  0  0  0  0  0  0  0
   -2.5176   22.5477  -23.6633 N   0  0  0  0  0  0  0  0  0  0  0  0
   -2.5412   22.4896  -25.0497 C   0  0  0  0  0  0  0  0  0  0  0  0
   -1.4027   22.0544  -25.5964 C   0  0  0  0  0  0  0  0  0  0  0  0
   -0.3101   21.6974  -24.8389 N   0  0  0  0  0  0  0  0  0  0  0  0
   -0.3087   21.7597  -23.5140 C   0  0  0  0  0  0  0  0  0  0  0  0
    0.8445   21.3820  -22.7457 N   0  0  0  0  0  0  0  0  0  0  0  0
    1.5606   22.1103  -22.5616 H   0  0  0  0  0  0  0  0  0  0  0  0
    1.0064   20.4315  -22.3647 H   0  0  0  0  0  0  0  0  0  0  0  0
   -3.8313   22.8365  -25.6115 C   0  0  0  0  0  0  0  0  0  0  0  0
   -3.7803   23.6733  -26.7218 N   0  0  0  0  0  0  0  0  0  0  0  0
   -4.8148   24.1013  -27.4001 C   0  0  0  0  0  0  0  0  0  0  0  0
   -6.0684   23.6706  -26.9611 C   0  0  0  0  0  0  0  0  0  0  0  0
   -6.1912   22.8523  -25.8855 C   0  0  0  0  0  0  0  0  0  0  0  0
   -5.0370   22.4138  -25.1790 C   0  0  0  0  0  0  0  0  0  0  0  0
   -4.7238   24.9872  -28.5048 N   0  0  0  0  0  0  0  0  0  0  0  0
   -5.8101   25.8456  -28.8396 C   0  0  0  0  0  0  0  0  0  0  0  0
   -6.0300   25.9440  -30.3365 C   0  0  0  0  0  0  0  0  0  0  0  0
   -4.9676   25.4298  -31.0706 O   0  0  0  0  0  0  0  0  0  0  0  0
   -3.7448   25.8455  -30.5442 C   0  0  0  0  0  0  0  0  0  0  0  0
   -3.5137   25.0028  -29.3015 C   0  0  0  0  0  0  0  0  0  0  0  0
   -5.2398   21.5026  -24.0459 C   0  0  0  0  0  0  0  0  0  0  0  0
   -6.6446   21.1172  -24.1885 F   0  0  0  0  0  0  0  0  0  0  0  0
   -5.3270   22.1228  -22.8229 F   0  0  0  0  0  0  0  0  0  0  0  0
   -4.5776   20.3152  -24.0908 F   0  0  0  0  0  0  0  0  0  0  0  0
   -1.8474   21.1920  -20.6280 N   0  0  0  0  0  0  0  0  0  0  0  0
   -1.4769   22.2547  -21.4754 C   0  0  0  0  0  0  0  0  0  0  0  0
   -1.1184   23.3548  -20.9272 O   0  0  0  0  0  0  0  0  0  0  0  0
   -2.1428   20.3118  -21.0476 H   0  0  0  0  0  0  0  0  0  0  0  0
   -2.8617   21.4669  -18.4533 C   0  0  0  0  0  0  0  0  0  0  0  0
   -2.6986   21.5007  -17.0541 C   0  0  0  0  0  0  0  0  0  0  0  0
   -1.4476   21.4112  -16.5029 C   0  0  0  0  0  0  0  0  0  0  0  0
   -0.3427   21.2878  -17.3021 C   0  0  0  0  0  0  0  0  0  0  0  0
   -0.5110   21.2551  -18.6229 N   0  0  0  0  0  0  0  0  0  0  0  0
   -1.7421   21.3397  -19.2164 C   0  0  0  0  0  0  0  0  0  0  0  0
   -7.7483   22.8523  -17.4125 N   0  0  0  0  0  0  0  0  0  0  0  0
   -6.3598   22.4804  -17.7192 C   0  0  0  0  0  0  0  0  0  0  0  0
   -6.3481   21.0233  -18.0295 C   0  0  0  0  0  0  0  0  0  0  0  0
   -5.1111   20.5709  -18.7726 C   0  0  0  0  0  0  0  0  0  0  0  0
   -4.1689   21.6653  -18.9362 N   0  0  0  0  0  0  0  0  0  0  0  0
   -4.6510   22.8800  -19.5107 C   0  0  0  0  0  0  0  0  0  0  0  0
   -5.9225   23.3710  -18.8517 C   0  0  0  0  0  0  0  0  0  0  0  0
   -7.9234   22.8440  -16.3928 H   0  0  0  0  0  0  0  0  0  0  0  0
   -8.0456   23.7068  -17.8969 H   0  0  0  0  0  0  0  0  0  0  0  0
 36 37  1  0  0  0
 37 38  1  0  0  0
 38 39  1  0  0  0
 39 40  1  0  0  0
 40 41  1  0  0  0
 41 42  1  0  0  0
 40 30  1  0  0  0
 30 31  2  0  0  0
 31 32  1  0  0  0
 32 33  2  0  0  0
 33 34  1  0  0  0
 34 35  2  0  0  0
 35 26  1  0  0  0
 26 27  1  0  0  0
 27 28  2  0  0  0
 27  1  1  0  0  0
  1  2  2  0  0  0
  2  3  1  0  0  0
  3  4  2  0  0  0
  4  5  1  0  0  0
  5  6  2  0  0  0
  6  7  1  0  0  0
  3 10  1  0  0  0
 10 11  2  0  0  0
 11 12  1  0  0  0
 12 13  2  0  0  0
 13 14  1  0  0  0
 14 15  2  0  0  0
 15 22  1  0  0  0
 22 23  1  0  0  0
 22 24  1  0  0  0
 22 25  1  0  0  0
 12 16  1  0  0  0
 16 17  1  0  0  0
 17 18  1  0  0  0
 18 19  1  0  0  0
 19 20  1  0  0  0
 20 21  1  0  0  0
 42 37  1  0  0  0
 35 30  1  0  0  0
  6  1  1  0  0  0
 15 10  1  0  0  0
 21 16  1  0  0  0
 36 43  1  0  0  0
 36 44  1  0  0  0
 26 29  1  0  0  0
  7  8  1  0  0  0
  7  9  1  0  0  0
M  END
> <minimizedAffinity>
-8.51971

> <CNNscore>
0.0784695148

> <CNNaffinity>
6.8352851868

> <CNN_VS>
0.5363615155

> <CNNaffinity_variance>
0.1020236015

$$$$
[H]c1c([H])c([H])c(-c2c([H])c([H])c([H])c([H])c2N([H])C(=O)C2(c3c([H])c([H])c(OC([H])([H])[H])c([H])c3[H])C([H])([H])C([H])([H])C([H])([H])C2([H])[H])c([H])c1[H]


 29 32  0  0  0  0  0  0  0  0999 V2000
   -3.3908   23.5784  -23.4959 C   0  0  0  0  0  0  0  0  0  0  0  0
   -2.8269   24.4235  -22.7727 O   0  0  0  0  0  0  0  0  0  0  0  0
   -2.7272   22.4536  -24.0285 N   0  0  0  0  0  0  0  0  0  0  0  0
   -3.3406   21.7902  -24.6207 H   0  0  0  0  0  0  0  0  0  0  0  0
   -1.3980   22.1020  -23.8483 C   0  0  0  0  0  0  0  0  0  0  0  0
   -0.8661   21.7269  -22.6437 C   0  0  0  0  0  0  0  0  0  0  0  0
    0.4657   21.3123  -22.4779 C   0  0  0  0  0  0  0  0  0  0  0  0
    1.2820   21.2797  -23.5801 C   0  0  0  0  0  0  0  0  0  0  0  0
    0.7865   21.6479  -24.8007 C   0  0  0  0  0  0  0  0  0  0  0  0
   -0.5472   22.0616  -24.9526 C   0  0  0  0  0  0  0  0  0  0  0  0
   -0.9456   22.4781  -26.2842 C   0  0  0  0  0  0  0  0  0  0  0  0
   -0.0346   22.9733  -27.1698 C   0  0  0  0  0  0  0  0  0  0  0  0
   -0.4123   23.3750  -28.4503 C   0  0  0  0  0  0  0  0  0  0  0  0
   -1.7299   23.2784  -28.8509 C   0  0  0  0  0  0  0  0  0  0  0  0
   -2.6478   22.7841  -27.9712 C   0  0  0  0  0  0  0  0  0  0  0  0
   -2.2575   22.3856  -26.6929 C   0  0  0  0  0  0  0  0  0  0  0  0
   -4.8640   23.7891  -23.8060 C   0  0  0  0  0  0  0  0  0  0  0  0
   -5.6359   22.5533  -23.5682 C   0  0  0  0  0  0  0  0  0  0  0  0
   -6.9536   22.9405  -22.9377 C   0  0  0  0  0  0  0  0  0  0  0  0
   -6.9550   24.4529  -22.9950 C   0  0  0  0  0  0  0  0  0  0  0  0
   -5.4748   24.7514  -22.7781 C   0  0  0  0  0  0  0  0  0  0  0  0
   -5.3505   25.4510  -27.6881 C   0  0  0  0  0  0  0  0  0  0  0  0
   -5.9062   24.2364  -27.3647 C   0  0  0  0  0  0  0  0  0  0  0  0
   -5.7181   23.7301  -26.0905 C   0  0  0  0  0  0  0  0  0  0  0  0
   -4.9905   24.3941  -25.1152 C   0  0  0  0  0  0  0  0  0  0  0  0
   -4.4472   25.6095  -25.4749 C   0  0  0  0  0  0  0  0  0  0  0  0
   -4.6136   26.1397  -26.7272 C   0  0  0  0  0  0  0  0  0  0  0  0
   -4.5796   25.7806  -29.9880 C   0  0  0  0  0  0  0  0  0  0  0  0
   -5.4834   26.0439  -28.9430 O   0  0  0  0  0  0  0  0  0  0  0  0
 28 29  1  0  0  0
 29 22  1  0  0  0
 22 23  2  0  0  0
 23 24  1  0  0  0
 24 25  2  0  0  0
 25 26  1  0  0  0
 26 27  2  0  0  0
 25 17  1  0  0  0
 17 18  1  0  0  0
 18 19  1  0  0  0
 19 20  1  0  0  0
 20 21  1  0  0  0
 17  1  1  0  0  0
  1  2  2  0  0  0
  1  3  1  0  0  0
  3  5  1  0  0  0
  5  6  2  0  0  0
  6  7  1  0  0  0
  7  8  2  0  0  0
  8  9  1  0  0  0
  9 10  2  0  0  0
 10 11  1  0  0  0
 11 12  2  0  0  0
 12 13  1  0  0  0
 13 14  2  0  0  0
 14 15  1  0  0  0
 15 16  2  0  0  0
 27 22  1  0  0  0
 21 17  1  0  0  0
 10  5  1  0  0  0
 16 11  1  0  0  0
  3  4  1  0  0  0
M  END
> <minimizedAffinity>
-9.73489

> <CNNscore>
0.5649003983

> <CNNaffinity>
6.9569334984

> <CNN_VS>
3.9299745560

> <CNNaffinity_variance>
0.1837998331

$$$$
[H]c1c([H])c([H])c(-c2c([H])c([H])c([H])c([H])c2N([H])C(=O)C2(c3c([H])c([H])c(OC([H])([H])[H])c([H])c3[H])C([H])([H])C([H])([H])C([H])([H])C2([H])[H])c([H])c1[H]


 29 32  0  0  0  0  0  0  0  0999 V2000
   -4.3935   23.3250  -24.3103 C   0  0  0  0  0  0  0  0  0  0  0  0
   -4.8029   22.1667  -24.0955 O   0  0  0  0  0  0  0  0  0  0  0  0
   -3.0634   23.7292  -24.0721 N   0  0  0  0  0  0  0  0  0  0  0  0
   -2.8384   24.7557  -24.3227 H   0  0  0  0  0  0  0  0  0  0  0  0
   -2.0251   22.9493  -23.5858 C   0  0  0  0  0  0  0  0  0  0  0  0
   -1.8287   22.6858  -22.2567 C   0  0  0  0  0  0  0  0  0  0  0  0
   -0.8125   21.8451  -21.7733 C   0  0  0  0  0  0  0  0  0  0  0  0
    0.0317   21.2532  -22.6784 C   0  0  0  0  0  0  0  0  0  0  0  0
   -0.1330   21.4930  -24.0150 C   0  0  0  0  0  0  0  0  0  0  0  0
   -1.1527   22.3368  -24.4851 C   0  0  0  0  0  0  0  0  0  0  0  0
   -1.1976   22.5576  -25.9185 C   0  0  0  0  0  0  0  0  0  0  0  0
   -0.1251   23.0704  -26.5864 C   0  0  0  0  0  0  0  0  0  0  0  0
   -0.1632   23.2845  -27.9635 C   0  0  0  0  0  0  0  0  0  0  0  0
   -1.2995   22.9785  -28.6855 C   0  0  0  0  0  0  0  0  0  0  0  0
   -2.3770   22.4651  -28.0251 C   0  0  0  0  0  0  0  0  0  0  0  0
   -2.3266   22.2555  -26.6471 C   0  0  0  0  0  0  0  0  0  0  0  0
   -5.3916   24.3339  -24.8550 C   0  0  0  0  0  0  0  0  0  0  0  0
   -6.7528   24.0517  -24.3580 C   0  0  0  0  0  0  0  0  0  0  0  0
   -7.4188   25.3721  -24.0468 C   0  0  0  0  0  0  0  0  0  0  0  0
   -6.4362   26.4050  -24.5552 C   0  0  0  0  0  0  0  0  0  0  0  0
   -5.1097   25.7162  -24.2506 C   0  0  0  0  0  0  0  0  0  0  0  0
   -5.0440   24.5164  -29.0877 C   0  0  0  0  0  0  0  0  0  0  0  0
   -5.8436   23.5756  -28.4843 C   0  0  0  0  0  0  0  0  0  0  0  0
   -5.9231   23.5486  -27.1029 C   0  0  0  0  0  0  0  0  0  0  0  0
   -5.2299   24.4322  -26.2904 C   0  0  0  0  0  0  0  0  0  0  0  0
   -4.4373   25.3621  -26.9299 C   0  0  0  0  0  0  0  0  0  0  0  0
   -4.3354   25.4166  -28.2951 C   0  0  0  0  0  0  0  0  0  0  0  0
   -5.1010   25.8410  -31.1456 C   0  0  0  0  0  0  0  0  0  0  0  0
   -4.8981   24.6241  -30.4702 O   0  0  0  0  0  0  0  0  0  0  0  0
 28 29  1  0  0  0
 29 22  1  0  0  0
 22 23  2  0  0  0
 23 24  1  0  0  0
 24 25  2  0  0  0
 25 26  1  0  0  0
 26 27  2  0  0  0
 25 17  1  0  0  0
 17 18  1  0  0  0
 18 19  1  0  0  0
 19 20  1  0  0  0
 20 21  1  0  0  0
 17  1  1  0  0  0
  1  2  2  0  0  0
  1  3  1  0  0  0
  3  5  1  0  0  0
  5  6  2  0  0  0
  6  7  1  0  0  0
  7  8  2  0  0  0
  8  9  1  0  0  0
  9 10  2  0  0  0
 10 11  1  0  0  0
 11 12  2  0  0  0
 12 13  1  0  0  0
 13 14  2  0  0  0
 14 15  1  0  0  0
 15 16  2  0  0  0
 27 22  1  0  0  0
 21 17  1  0  0  0
 10  5  1  0  0  0
 16 11  1  0  0  0
  3  4  1  0  0  0
M  END
> <minimizedAffinity>
-9.28599

> <CNNscore>
0.3297440112

> <CNNaffinity>
6.6042923927

> <CNN_VS>
2.1777257919

> <CNNaffinity_variance>
0.1305936873

$$$$
[H]c1c([H])c([H])c(-c2c([H])c([H])c([H])c([H])c2N([H])C(=O)C2(c3c([H])c([H])c(OC([H])([H])[H])c([H])c3[H])C([H])([H])C([H])([H])C([H])([H])C2([H])[H])c([H])c1[H]


 29 32  0  0  0  0  0  0  0  0999 V2000
   -3.3258   23.3143  -28.3701 C   0  0  0  0  0  0  0  0  0  0  0  0
   -3.0958   22.2683  -29.0092 O   0  0  0  0  0  0  0  0  0  0  0  0
   -2.6076   23.6852  -27.2143 N   0  0  0  0  0  0  0  0  0  0  0  0
   -2.8955   24.6277  -26.7715 H   0  0  0  0  0  0  0  0  0  0  0  0
   -1.5675   22.9907  -26.6154 C   0  0  0  0  0  0  0  0  0  0  0  0
   -0.3108   22.8917  -27.1496 C   0  0  0  0  0  0  0  0  0  0  0  0
    0.7561   22.2395  -26.5098 C   0  0  0  0  0  0  0  0  0  0  0  0
    0.5318   21.6691  -25.2824 C   0  0  0  0  0  0  0  0  0  0  0  0
   -0.7112   21.7470  -24.7166 C   0  0  0  0  0  0  0  0  0  0  0  0
   -1.7699   22.4013  -25.3677 C   0  0  0  0  0  0  0  0  0  0  0  0
   -3.0555   22.3748  -24.6954 C   0  0  0  0  0  0  0  0  0  0  0  0
   -3.9094   21.3228  -24.8488 C   0  0  0  0  0  0  0  0  0  0  0  0
   -5.1457   21.2925  -24.2051 C   0  0  0  0  0  0  0  0  0  0  0  0
   -5.5337   22.3381  -23.3913 C   0  0  0  0  0  0  0  0  0  0  0  0
   -4.6854   23.3944  -23.2323 C   0  0  0  0  0  0  0  0  0  0  0  0
   -3.4513   23.4130  -23.8816 C   0  0  0  0  0  0  0  0  0  0  0  0
   -4.4368   24.2188  -28.8780 C   0  0  0  0  0  0  0  0  0  0  0  0
   -3.8837   25.3728  -29.6142 C   0  0  0  0  0  0  0  0  0  0  0  0
   -4.7707   25.6319  -30.8100 C   0  0  0  0  0  0  0  0  0  0  0  0
   -5.9357   24.6863  -30.6116 C   0  0  0  0  0  0  0  0  0  0  0  0
   -5.2335   23.4932  -29.9710 C   0  0  0  0  0  0  0  0  0  0  0  0
   -7.1277   24.9266  -25.6643 C   0  0  0  0  0  0  0  0  0  0  0  0
   -7.0679   23.6986  -26.2785 C   0  0  0  0  0  0  0  0  0  0  0  0
   -6.1810   23.5138  -27.3246 C   0  0  0  0  0  0  0  0  0  0  0  0
   -5.3418   24.5153  -27.7875 C   0  0  0  0  0  0  0  0  0  0  0  0
   -5.4291   25.7341  -27.1482 C   0  0  0  0  0  0  0  0  0  0  0  0
   -6.2959   25.9515  -26.1097 C   0  0  0  0  0  0  0  0  0  0  0  0
   -7.5059   25.6359  -23.3521 C   0  0  0  0  0  0  0  0  0  0  0  0
   -7.9868   25.2111  -24.6036 O   0  0  0  0  0  0  0  0  0  0  0  0
 28 29  1  0  0  0
 29 22  1  0  0  0
 22 23  2  0  0  0
 23 24  1  0  0  0
 24 25  2  0  0  0
 25 26  1  0  0  0
 26 27  2  0  0  0
 25 17  1  0  0  0
 17 18  1  0  0  0
 18 19  1  0  0  0
 19 20  1  0  0  0
 20 21  1  0  0  0
 17  1  1  0  0  0
  1  2  2  0  0  0
  1  3  1  0  0  0
  3  5  1  0  0  0
  5  6  2  0  0  0
  6  7  1  0  0  0
  7  8  2  0  0  0
  8  9  1  0  0  0
  9 10  2  0  0  0
 10 11  1  0  0  0
 11 12  2  0  0  0
 12 13  1  0  0  0
 13 14  2  0  0  0
 14 15  1  0  0  0
 15 16  2  0  0  0
 27 22  1  0  0  0
 21 17  1  0  0  0
 10  5  1  0  0  0
 16 11  1  0  0  0
  3  4  1  0  0  0
M  END
> <minimizedAffinity>
-10.03041

> <CNNscore>
0.2842942774

> <CNNaffinity>
6.3167219162

> <CNN_VS>
1.7958078384

> <CNNaffinity_variance>
0.4373154044

$$$$
[H]c1c([H])c([H])c(-c2c([H])c([H])c([H])c([H])c2N([H])C(=O)C2(c3c([H])c([H])c(OC([H])([H])[H])c([H])c3[H])C([H])([H])C([H])([H])C([H])([H])C2([H])[H])c([H])c1[H]


 29 32  0  0  0  0  0  0  0  0999 V2000
   -1.5366   22.7011  -22.0733 C   0  0  0  0  0  0  0  0  0  0  0  0
   -1.3324   23.9159  -22.2684 O   0  0  0  0  0  0  0  0  0  0  0  0
   -1.4760   21.7346  -23.0988 N   0  0  0  0  0  0  0  0  0  0  0  0
   -1.6524   20.7154  -22.7869 H   0  0  0  0  0  0  0  0  0  0  0  0
   -1.1887   21.9510  -24.4380 C   0  0  0  0  0  0  0  0  0  0  0  0
    0.0774   21.9280  -24.9585 C   0  0  0  0  0  0  0  0  0  0  0  0
    0.3583   22.0865  -26.3257 C   0  0  0  0  0  0  0  0  0  0  0  0
   -0.6899   22.2746  -27.1906 C   0  0  0  0  0  0  0  0  0  0  0  0
   -1.9693   22.3041  -26.7076 C   0  0  0  0  0  0  0  0  0  0  0  0
   -2.2363   22.1454  -25.3378 C   0  0  0  0  0  0  0  0  0  0  0  0
   -3.6268   22.2469  -24.9357 C   0  0  0  0  0  0  0  0  0  0  0  0
   -4.3204   21.1509  -24.5146 C   0  0  0  0  0  0  0  0  0  0  0  0
   -5.6565   21.2431  -24.1273 C   0  0  0  0  0  0  0  0  0  0  0  0
   -6.3104   22.4585  -24.1629 C   0  0  0  0  0  0  0  0  0  0  0  0
   -5.6240   23.5599  -24.5829 C   0  0  0  0  0  0  0  0  0  0  0  0
   -4.2876   23.4548  -24.9678 C   0  0  0  0  0  0  0  0  0  0  0  0
   -1.8645   22.2620  -20.6554 C   0  0  0  0  0  0  0  0  0  0  0  0
   -1.1367   21.0268  -20.3032 C   0  0  0  0  0  0  0  0  0  0  0  0
   -0.6750   21.1501  -18.8695 C   0  0  0  0  0  0  0  0  0  0  0  0
   -1.3255   22.4282  -18.3855 C   0  0  0  0  0  0  0  0  0  0  0  0
   -1.2846   23.2719  -19.6557 C   0  0  0  0  0  0  0  0  0  0  0  0
   -6.0956   22.3385  -20.2536 C   0  0  0  0  0  0  0  0  0  0  0  0
   -5.4172   23.4070  -20.7890 C   0  0  0  0  0  0  0  0  0  0  0  0
   -4.0390   23.3417  -20.8961 C   0  0  0  0  0  0  0  0  0  0  0  0
   -3.3022   22.2412  -20.4867 C   0  0  0  0  0  0  0  0  0  0  0  0
   -4.0157   21.1880  -19.9542 C   0  0  0  0  0  0  0  0  0  0  0  0
   -5.3800   21.2195  -19.8332 C   0  0  0  0  0  0  0  0  0  0  0  0
   -8.3137   21.6482  -21.0258 C   0  0  0  0  0  0  0  0  0  0  0  0
   -7.4815   22.3086  -20.1040 O   0  0  0  0  0  0  0  0  0  0  0  0
 28 29  1  0  0  0
 29 22  1  0  0  0
 22 23  2  0  0  0
 23 24  1  0  0  0
 24 25  2  0  0  0
 25 26  1  0  0  0
 26 27  2  0  0  0
 25 17  1  0  0  0
 17 18  1  0  0  0
 18 19  1  0  0  0
 19 20  1  0  0  0
 20 21  1  0  0  0
 17  1  1  0  0  0
  1  2  2  0  0  0
  1  3  1  0  0  0
  3  5  1  0  0  0
  5  6  2  0  0  0
  6  7  1  0  0  0
  7  8  2  0  0  0
  8  9  1  0  0  0
  9 10  2  0  0  0
 10 11  1  0  0  0
 11 12  2  0  0  0
 12 13  1  0  0  0
 13 14  2  0  0  0
 14 15  1  0  0  0
 15 16  2  0  0  0
 27 22  1  0  0  0
 21 17  1  0  0  0
 10  5  1  0  0  0
 16 11  1  0  0  0
  3  4  1  0  0  0
M  END
> <minimizedAffinity>
-8.04275

> <CNNscore>
0.2833009064

> <CNNaffinity>
5.8404073715

> <CNN_VS>
1.6545927525

> <CNNaffinity_variance>
0.1462935060

$$$$
[H]c1c([H])c([H])c(-c2c([H])c([H])c([H])c([H])c2N([H])C(=O)C2(c3c([H])c([H])c(OC([H])([H])[H])c([H])c3[H])C([H])([H])C([H])([H])C([H])([H])C2([H])[H])c([H])c1[H]


 29 32  0  0  0  0  0  0  0  0999 V2000
   -1.3702   22.7777  -22.1360 C   0  0  0  0  0  0  0  0  0  0  0  0
   -1.4043   24.0009  -22.3767 O   0  0  0  0  0  0  0  0  0  0  0  0
   -1.1818   21.8002  -23.1352 N   0  0  0  0  0  0  0  0  0  0  0  0
   -1.1509   20.7786  -22.7851 H   0  0  0  0  0  0  0  0  0  0  0  0
   -1.0053   22.0143  -24.4938 C   0  0  0  0  0  0  0  0  0  0  0  0
    0.2171   22.0256  -25.1104 C   0  0  0  0  0  0  0  0  0  0  0  0
    0.3868   22.1814  -26.4961 C   0  0  0  0  0  0  0  0  0  0  0  0
   -0.7301   22.3304  -27.2786 C   0  0  0  0  0  0  0  0  0  0  0  0
   -1.9689   22.3248  -26.6984 C   0  0  0  0  0  0  0  0  0  0  0  0
   -2.1246   22.1693  -25.3112 C   0  0  0  0  0  0  0  0  0  0  0  0
   -3.4825   22.2317  -24.8036 C   0  0  0  0  0  0  0  0  0  0  0  0
   -4.1794   21.0959  -24.5139 C   0  0  0  0  0  0  0  0  0  0  0  0
   -5.4843   21.1504  -24.0261 C   0  0  0  0  0  0  0  0  0  0  0  0
   -6.1029   22.3681  -23.8246 C   0  0  0  0  0  0  0  0  0  0  0  0
   -5.4129   23.5092  -24.1117 C   0  0  0  0  0  0  0  0  0  0  0  0
   -4.1080   23.4415  -24.5993 C   0  0  0  0  0  0  0  0  0  0  0  0
   -1.5415   22.3404  -20.6903 C   0  0  0  0  0  0  0  0  0  0  0  0
   -2.6974   23.0154  -20.0675 C   0  0  0  0  0  0  0  0  0  0  0  0
   -3.4087   22.0097  -19.1920 C   0  0  0  0  0  0  0  0  0  0  0  0
   -2.5017   20.7983  -19.2170 C   0  0  0  0  0  0  0  0  0  0  0  0
   -1.9678   20.8667  -20.6442 C   0  0  0  0  0  0  0  0  0  0  0  0
    2.1206   22.8084  -18.5830 C   0  0  0  0  0  0  0  0  0  0  0  0
    1.0881   23.6991  -18.4121 C   0  0  0  0  0  0  0  0  0  0  0  0
   -0.0847   23.5118  -19.1225 C   0  0  0  0  0  0  0  0  0  0  0  0
   -0.2713   22.4599  -20.0058 C   0  0  0  0  0  0  0  0  0  0  0  0
    0.7856   21.5862  -20.1525 C   0  0  0  0  0  0  0  0  0  0  0  0
    1.9605   21.7422  -19.4652 C   0  0  0  0  0  0  0  0  0  0  0  0
    3.7262   24.0915  -17.2534 C   0  0  0  0  0  0  0  0  0  0  0  0
    3.3394   22.9115  -17.9138 O   0  0  0  0  0  0  0  0  0  0  0  0
 28 29  1  0  0  0
 29 22  1  0  0  0
 22 23  2  0  0  0
 23 24  1  0  0  0
 24 25  2  0  0  0
 25 26  1  0  0  0
 26 27  2  0  0  0
 25 17  1  0  0  0
 17 18  1  0  0  0
 18 19  1  0  0  0
 19 20  1  0  0  0
 20 21  1  0  0  0
 17  1  1  0  0  0
  1  2  2  0  0  0
  1  3  1  0  0  0
  3  5  1  0  0  0
  5  6  2  0  0  0
  6  7  1  0  0  0
  7  8  2  0  0  0
  8  9  1  0  0  0
  9 10  2  0  0  0
 10 11  1  0  0  0
 11 12  2  0  0  0
 12 13  1  0  0  0
 13 14  2  0  0  0
 14 15  1  0  0  0
 15 16  2  0  0  0
 27 22  1  0  0  0
 21 17  1  0  0  0
 10  5  1  0  0  0
 16 11  1  0  0  0
  3  4  1  0  0  0
M  END
> <minimizedAffinity>
-7.57695

> <CNNscore>
0.2653822601

> <CNNaffinity>
5.7956585884

> <CNN_VS>
1.5380649567

> <CNNaffinity_variance>
0.1344781071

$$$$
[H]c1c([H])c([H])c(-c2c([H])c([H])c([H])c([H])c2N([H])C(=O)C2(c3c([H])c([H])c(OC([H])([H])[H])c([H])c3[H])C([H])([H])C([H])([H])C([H])([H])C2([H])[H])c([H])c1[H]


 29 32  0  0  0  0  0  0  0  0999 V2000
   -1.2346   22.6630  -21.9392 C   0  0  0  0  0  0  0  0  0  0  0  0
   -1.2024   23.8910  -22.1543 O   0  0  0  0  0  0  0  0  0  0  0  0
   -1.1224   21.6979  -22.9617 N   0  0  0  0  0  0  0  0  0  0  0  0
   -1.1441   20.6690  -22.6332 H   0  0  0  0  0  0  0  0  0  0  0  0
   -0.9599   21.9306  -24.3190 C   0  0  0  0  0  0  0  0  0  0  0  0
    0.2542   21.9282  -24.9520 C   0  0  0  0  0  0  0  0  0  0  0  0
    0.4084   22.1031  -26.3372 C   0  0  0  0  0  0  0  0  0  0  0  0
   -0.7158   22.2865  -27.1019 C   0  0  0  0  0  0  0  0  0  0  0  0
   -1.9466   22.2955  -26.5050 C   0  0  0  0  0  0  0  0  0  0  0  0
   -2.0868   22.1205  -25.1185 C   0  0  0  0  0  0  0  0  0  0  0  0
   -3.4363   22.2010  -24.5914 C   0  0  0  0  0  0  0  0  0  0  0  0
   -3.9786   23.3965  -24.2225 C   0  0  0  0  0  0  0  0  0  0  0  0
   -5.2747   23.4791  -23.7154 C   0  0  0  0  0  0  0  0  0  0  0  0
   -6.0424   22.3403  -23.5754 C   0  0  0  0  0  0  0  0  0  0  0  0
   -5.5076   21.1402  -23.9421 C   0  0  0  0  0  0  0  0  0  0  0  0
   -4.2098   21.0705  -24.4480 C   0  0  0  0  0  0  0  0  0  0  0  0
   -1.4032   22.2053  -20.4995 C   0  0  0  0  0  0  0  0  0  0  0  0
   -2.4920   22.9472  -19.8333 C   0  0  0  0  0  0  0  0  0  0  0  0
   -3.2538   21.9752  -18.9623 C   0  0  0  0  0  0  0  0  0  0  0  0
   -2.4381   20.7024  -19.0363 C   0  0  0  0  0  0  0  0  0  0  0  0
   -1.9343   20.7656  -20.4748 C   0  0  0  0  0  0  0  0  0  0  0  0
    2.4417   22.1271  -18.6883 C   0  0  0  0  0  0  0  0  0  0  0  0
    2.0890   21.1986  -19.6381 C   0  0  0  0  0  0  0  0  0  0  0  0
    0.8247   21.2578  -20.1977 C   0  0  0  0  0  0  0  0  0  0  0  0
   -0.1120   22.2168  -19.8447 C   0  0  0  0  0  0  0  0  0  0  0  0
    0.2762   23.1318  -18.8887 C   0  0  0  0  0  0  0  0  0  0  0  0
    1.5195   23.1019  -18.3140 C   0  0  0  0  0  0  0  0  0  0  0  0
    4.6529   23.1290  -18.3727 C   0  0  0  0  0  0  0  0  0  0  0  0
    3.6897   22.1506  -18.0670 O   0  0  0  0  0  0  0  0  0  0  0  0
 28 29  1  0  0  0
 29 22  1  0  0  0
 22 23  2  0  0  0
 23 24  1  0  0  0
 24 25  2  0  0  0
 25 26  1  0  0  0
 26 27  2  0  0  0
 25 17  1  0  0  0
 17 18  1  0  0  0
 18 19  1  0  0  0
 19 20  1  0  0  0
 20 21  1  0  0  0
 17  1  1  0  0  0
  1  2  2  0  0  0
  1  3  1  0  0  0
  3  5  1  0  0  0
  5  6  2  0  0  0
  6  7  1  0  0  0
  7  8  2  0  0  0
  8  9  1  0  0  0
  9 10  2  0  0  0
 10 11  1  0  0  0
 11 12  2  0  0  0
 12 13  1  0  0  0
 13 14  2  0  0  0
 14 15  1  0  0  0
 15 16  2  0  0  0
 27 22  1  0  0  0
 21 17  1  0  0  0
 10  5  1  0  0  0
 16 11  1  0  0  0
  3  4  1  0  0  0
M  END
> <minimizedAffinity>
-7.30280

> <CNNscore>
0.2605370879

> <CNNaffinity>
5.7823228836

> <CNN_VS>
1.5065095425

> <CNNaffinity_variance>
0.1715163738

$$$$
[H]c1c([H])c([H])c(-c2c([H])c([H])c([H])c([H])c2N([H])C(=O)C2(c3c([H])c([H])c(OC([H])([H])[H])c([H])c3[H])C([H])([H])C([H])([H])C([H])([H])C2([H])[H])c([H])c1[H]


 29 32  0  0  0  0  0  0  0  0999 V2000
   -4.0713   23.2774  -21.5237 C   0  0  0  0  0  0  0  0  0  0  0  0
   -3.8601   24.4595  -21.1869 O   0  0  0  0  0  0  0  0  0  0  0  0
   -3.2961   22.1936  -21.0613 N   0  0  0  0  0  0  0  0  0  0  0  0
   -3.6021   21.2198  -21.4151 H   0  0  0  0  0  0  0  0  0  0  0  0
   -2.2183   22.2459  -20.1903 C   0  0  0  0  0  0  0  0  0  0  0  0
   -2.3421   22.2899  -18.8275 C   0  0  0  0  0  0  0  0  0  0  0  0
   -1.2473   22.2805  -17.9474 C   0  0  0  0  0  0  0  0  0  0  0  0
    0.0168   22.2240  -18.4774 C   0  0  0  0  0  0  0  0  0  0  0  0
    0.1805   22.1795  -19.8347 C   0  0  0  0  0  0  0  0  0  0  0  0
   -0.9228   22.1906  -20.7038 C   0  0  0  0  0  0  0  0  0  0  0  0
   -0.6252   22.1929  -22.1240 C   0  0  0  0  0  0  0  0  0  0  0  0
   -1.1565   23.1356  -22.9538 C   0  0  0  0  0  0  0  0  0  0  0  0
   -0.8738   23.1421  -24.3190 C   0  0  0  0  0  0  0  0  0  0  0  0
   -0.0418   22.1842  -24.8632 C   0  0  0  0  0  0  0  0  0  0  0  0
    0.4940   21.2375  -24.0401 C   0  0  0  0  0  0  0  0  0  0  0  0
    0.2035   21.2415  -22.6760 C   0  0  0  0  0  0  0  0  0  0  0  0
   -5.2243   23.0136  -22.4785 C   0  0  0  0  0  0  0  0  0  0  0  0
   -5.8719   21.7207  -22.1805 C   0  0  0  0  0  0  0  0  0  0  0  0
   -7.3640   21.8983  -22.3415 C   0  0  0  0  0  0  0  0  0  0  0  0
   -7.5060   23.2939  -22.9100 C   0  0  0  0  0  0  0  0  0  0  0  0
   -6.3586   24.0108  -22.2053 C   0  0  0  0  0  0  0  0  0  0  0  0
   -3.8623   23.7678  -26.4340 C   0  0  0  0  0  0  0  0  0  0  0  0
   -4.1279   24.8020  -25.5688 C   0  0  0  0  0  0  0  0  0  0  0  0
   -4.5749   24.5110  -24.2918 C   0  0  0  0  0  0  0  0  0  0  0  0
   -4.7691   23.2157  -23.8379 C   0  0  0  0  0  0  0  0  0  0  0  0
   -4.4931   22.2034  -24.7328 C   0  0  0  0  0  0  0  0  0  0  0  0
   -4.0495   22.4560  -26.0042 C   0  0  0  0  0  0  0  0  0  0  0  0
   -3.0028   22.8822  -28.5480 C   0  0  0  0  0  0  0  0  0  0  0  0
   -3.4089   23.9584  -27.7386 O   0  0  0  0  0  0  0  0  0  0  0  0
 28 29  1  0  0  0
 29 22  1  0  0  0
 22 23  2  0  0  0
 23 24  1  0  0  0
 24 25  2  0  0  0
 25 26  1  0  0  0
 26 27  2  0  0  0
 25 17  1  0  0  0
 17 18  1  0  0  0
 18 19  1  0  0  0
 19 20  1  0  0  0
 20 21  1  0  0  0
 17  1  1  0  0  0
  1  2  2  0  0  0
  1  3  1  0  0  0
  3  5  1  0  0  0
  5  6  2  0  0  0
  6  7  1  0  0  0
  7  8  2  0  0  0
  8  9  1  0  0  0
  9 10  2  0  0  0
 10 11  1  0  0  0
 11 12  2  0  0  0
 12 13  1  0  0  0
 13 14  2  0  0  0
 14 15  1  0  0  0
 15 16  2  0  0  0
 27 22  1  0  0  0
 21 17  1  0  0  0
 10  5  1  0  0  0
 16 11  1  0  0  0
  3  4  1  0  0  0
M  END
> <minimizedAffinity>
-6.65580

> <CNNscore>
0.2335787565

> <CNNaffinity>
6.0356044769

> <CNN_VS>
1.4097889662

> <CNNaffinity_variance>
0.1808774471

$$$$
[H]c1c([H])c([H])c(-c2c([H])c([H])c([H])c([H])c2N([H])C(=O)C2(c3c([H])c([H])c(OC([H])([H])[H])c([H])c3[H])C([H])([H])C([H])([H])C([H])([H])C2([H])[H])c([H])c1[H]


 29 32  0  0  0  0  0  0  0  0999 V2000
   -1.0653   22.5959  -22.4058 C   0  0  0  0  0  0  0  0  0  0  0  0
   -1.1665   23.8332  -22.5250 O   0  0  0  0  0  0  0  0  0  0  0  0
   -0.9268   21.7241  -23.5059 N   0  0  0  0  0  0  0  0  0  0  0  0
   -0.8272   20.6772  -23.2586 H   0  0  0  0  0  0  0  0  0  0  0  0
   -0.8762   22.0701  -24.8478 C   0  0  0  0  0  0  0  0  0  0  0  0
    0.2849   22.1606  -25.5675 C   0  0  0  0  0  0  0  0  0  0  0  0
    0.3267   22.4509  -26.9413 C   0  0  0  0  0  0  0  0  0  0  0  0
   -0.8579   22.6555  -27.6023 C   0  0  0  0  0  0  0  0  0  0  0  0
   -2.0387   22.5739  -26.9166 C   0  0  0  0  0  0  0  0  0  0  0  0
   -2.0664   22.2839  -25.5426 C   0  0  0  0  0  0  0  0  0  0  0  0
   -3.3730   22.2749  -24.9115 C   0  0  0  0  0  0  0  0  0  0  0  0
   -4.0086   23.4378  -24.5905 C   0  0  0  0  0  0  0  0  0  0  0  0
   -5.2639   23.4346  -23.9840 C   0  0  0  0  0  0  0  0  0  0  0  0
   -5.8946   22.2414  -23.6933 C   0  0  0  0  0  0  0  0  0  0  0  0
   -5.2658   21.0734  -24.0111 C   0  0  0  0  0  0  0  0  0  0  0  0
   -4.0100   21.0897  -24.6176 C   0  0  0  0  0  0  0  0  0  0  0  0
   -1.0947   22.0202  -20.9993 C   0  0  0  0  0  0  0  0  0  0  0  0
   -1.0304   23.0936  -19.9876 C   0  0  0  0  0  0  0  0  0  0  0  0
   -1.9651   22.7266  -18.8582 C   0  0  0  0  0  0  0  0  0  0  0  0
   -2.4187   21.3239  -19.2013 C   0  0  0  0  0  0  0  0  0  0  0  0
   -2.4722   21.4020  -20.7237 C   0  0  0  0  0  0  0  0  0  0  0  0
    1.9213   19.0462  -20.6409 C   0  0  0  0  0  0  0  0  0  0  0  0
    2.2241   20.3797  -20.5046 C   0  0  0  0  0  0  0  0  0  0  0  0
    1.2120   21.3146  -20.6345 C   0  0  0  0  0  0  0  0  0  0  0  0
   -0.1044   20.9691  -20.8971 C   0  0  0  0  0  0  0  0  0  0  0  0
   -0.3716   19.6225  -21.0280 C   0  0  0  0  0  0  0  0  0  0  0  0
    0.6062   18.6706  -20.9058 C   0  0  0  0  0  0  0  0  0  0  0  0
    2.8549   16.9039  -21.3698 C   0  0  0  0  0  0  0  0  0  0  0  0
    2.8695   18.0303  -20.5277 O   0  0  0  0  0  0  0  0  0  0  0  0
 28 29  1  0  0  0
 29 22  1  0  0  0
 22 23  2  0  0  0
 23 24  1  0  0  0
 24 25  2  0  0  0
 25 26  1  0  0  0
 26 27  2  0  0  0
 25 17  1  0  0  0
 17 18  1  0  0  0
 18 19  1  0  0  0
 19 20  1  0  0  0
 20 21  1  0  0  0
 17  1  1  0  0  0
  1  2  2  0  0  0
  1  3  1  0  0  0
  3  5  1  0  0  0
  5  6  2  0  0  0
  6  7  1  0  0  0
  7  8  2  0  0  0
  8  9  1  0  0  0
  9 10  2  0  0  0
 10 11  1  0  0  0
 11 12  2  0  0  0
 12 13  1  0  0  0
 13 14  2  0  0  0
 14 15  1  0  0  0
 15 16  2  0  0  0
 27 22  1  0  0  0
 21 17  1  0  0  0
 10  5  1  0  0  0
 16 11  1  0  0  0
  3  4  1  0  0  0
M  END
> <minimizedAffinity>
-7.83797

> <CNNscore>
0.2163318545

> <CNNaffinity>
5.6381874084

> <CNN_VS>
1.2197195292

> <CNNaffinity_variance>
0.2322902381

$$$$
[H]c1c([H])c([H])c(-c2c([H])c([H])c([H])c([H])c2N([H])C(=O)C2(c3c([H])c([H])c(OC([H])([H])[H])c([H])c3[H])C([H])([H])C([H])([H])C([H])([H])C2([H])[H])c([H])c1[H]


 29 32  0  0  0  0  0  0  0  0999 V2000
   -1.5921   22.9419  -22.8733 C   0  0  0  0  0  0  0  0  0  0  0  0
   -1.0789   24.0764  -22.9410 O   0  0  0  0  0  0  0  0  0  0  0  0
   -1.6960   22.0753  -23.9814 N   0  0  0  0  0  0  0  0  0  0  0  0
   -2.1428   21.1130  -23.7776 H   0  0  0  0  0  0  0  0  0  0  0  0
   -1.2636   22.3162  -25.2767 C   0  0  0  0  0  0  0  0  0  0  0  0
    0.0052   22.0512  -25.7176 C   0  0  0  0  0  0  0  0  0  0  0  0
    0.4210   22.2391  -27.0461 C   0  0  0  0  0  0  0  0  0  0  0  0
   -0.4903   22.7136  -27.9552 C   0  0  0  0  0  0  0  0  0  0  0  0
   -1.7677   22.9904  -27.5519 C   0  0  0  0  0  0  0  0  0  0  0  0
   -2.1704   22.7991  -26.2199 C   0  0  0  0  0  0  0  0  0  0  0  0
   -3.5340   23.1761  -25.8977 C   0  0  0  0  0  0  0  0  0  0  0  0
   -3.9547   24.4678  -26.0163 C   0  0  0  0  0  0  0  0  0  0  0  0
   -5.2637   24.8352  -25.7079 C   0  0  0  0  0  0  0  0  0  0  0  0
   -6.1692   23.8886  -25.2719 C   0  0  0  0  0  0  0  0  0  0  0  0
   -5.7566   22.5941  -25.1505 C   0  0  0  0  0  0  0  0  0  0  0  0
   -4.4444   22.2390  -25.4621 C   0  0  0  0  0  0  0  0  0  0  0  0
   -2.1249   22.4904  -21.5231 C   0  0  0  0  0  0  0  0  0  0  0  0
   -1.6113   21.1511  -21.1735 C   0  0  0  0  0  0  0  0  0  0  0  0
   -1.2923   21.1449  -19.6963 C   0  0  0  0  0  0  0  0  0  0  0  0
   -1.8127   22.4786  -19.2052 C   0  0  0  0  0  0  0  0  0  0  0  0
   -1.5241   23.3639  -20.4134 C   0  0  0  0  0  0  0  0  0  0  0  0
   -6.3236   23.1542  -21.5070 C   0  0  0  0  0  0  0  0  0  0  0  0
   -5.4439   24.1971  -21.6721 C   0  0  0  0  0  0  0  0  0  0  0  0
   -4.0848   23.9363  -21.6654 C   0  0  0  0  0  0  0  0  0  0  0  0
   -3.5621   22.6632  -21.4993 C   0  0  0  0  0  0  0  0  0  0  0  0
   -4.4738   21.6415  -21.3360 C   0  0  0  0  0  0  0  0  0  0  0  0
   -5.8256   21.8643  -21.3373 C   0  0  0  0  0  0  0  0  0  0  0  0
   -8.3367   24.3758  -22.1758 C   0  0  0  0  0  0  0  0  0  0  0  0
   -7.7085   23.3148  -21.4991 O   0  0  0  0  0  0  0  0  0  0  0  0
 28 29  1  0  0  0
 29 22  1  0  0  0
 22 23  2  0  0  0
 23 24  1  0  0  0
 24 25  2  0  0  0
 25 26  1  0  0  0
 26 27  2  0  0  0
 25 17  1  0  0  0
 17 18  1  0  0  0
 18 19  1  0  0  0
 19 20  1  0  0  0
 20 21  1  0  0  0
 17  1  1  0  0  0
  1  2  2  0  0  0
  1  3  1  0  0  0
  3  5  1  0  0  0
  5  6  2  0  0  0
  6  7  1  0  0  0
  7  8  2  0  0  0
  8  9  1  0  0  0
  9 10  2  0  0  0
 10 11  1  0  0  0
 11 12  2  0  0  0
 12 13  1  0  0  0
 13 14  2  0  0  0
 14 15  1  0  0  0
 15 16  2  0  0  0
 27 22  1  0  0  0
 21 17  1  0  0  0
 10  5  1  0  0  0
 16 11  1  0  0  0
  3  4  1  0  0  0
M  END
> <minimizedAffinity>
-7.90384

> <CNNscore>
0.1820780635

> <CNNaffinity>
5.9226827621

> <CNN_VS>
1.0783905983

> <CNNaffinity_variance>
0.1645409167

$$$$
[H]c1nc(N2C([H])([H])[C@@]3([H])N(C([H])([H])[H])C([H])([H])[C@]2([H])C3([H])[H])c([H])nc1-c1c([H])c([H])c([H])c([H])c1[H]


 20 23  0  0  0  0  0  0  0  0999 V2000
    1.3014   20.9686  -22.3670 C   0  0  0  0  0  0  0  0  0  0  0  0
    1.7598   21.3188  -23.6201 C   0  0  0  0  0  0  0  0  0  0  0  0
    0.8889   21.6878  -24.5752 N   0  0  0  0  0  0  0  0  0  0  0  0
   -0.4438   21.7408  -24.3862 C   0  0  0  0  0  0  0  0  0  0  0  0
   -0.9001   21.3916  -23.1368 C   0  0  0  0  0  0  0  0  0  0  0  0
   -0.0250   21.0174  -22.1659 N   0  0  0  0  0  0  0  0  0  0  0  0
    4.0081   18.5561  -18.2500 C   0  0  0  0  0  0  0  0  0  0  0  0
    3.0870   19.5350  -18.8205 N   0  0  0  0  0  0  0  0  0  0  0  0
    2.2428   18.8042  -19.7752 C   0  0  0  0  0  0  0  0  0  0  0  0
    2.6962   19.2474  -21.1506 C   0  0  0  0  0  0  0  0  0  0  0  0
    4.1709   19.5607  -20.8266 C   0  0  0  0  0  0  0  0  0  0  0  0
    3.8138   20.4725  -19.6371 C   0  0  0  0  0  0  0  0  0  0  0  0
    2.8161   21.3872  -20.3078 C   0  0  0  0  0  0  0  0  0  0  0  0
    2.2051   20.5760  -21.3455 N   0  0  0  0  0  0  0  0  0  0  0  0
   -1.3002   22.1556  -25.4926 C   0  0  0  0  0  0  0  0  0  0  0  0
   -0.8101   22.4627  -26.7407 C   0  0  0  0  0  0  0  0  0  0  0  0
   -1.6620   22.8575  -27.7798 C   0  0  0  0  0  0  0  0  0  0  0  0
   -3.0218   22.9505  -27.5828 C   0  0  0  0  0  0  0  0  0  0  0  0
   -3.5164   22.6449  -26.3383 C   0  0  0  0  0  0  0  0  0  0  0  0
   -2.6692   22.2576  -25.3234 C   0  0  0  0  0  0  0  0  0  0  0  0
  7  8  1  0  0  0
  8  9  1  0  0  0
  9 10  1  0  0  0
 10 11  1  0  0  0
 11 12  1  0  0  0
 12 13  1  0  0  0
 13 14  1  0  0  0
 14  1  1  0  0  0
  1  2  2  0  0  0
  2  3  1  0  0  0
  3  4  2  0  0  0
  4  5  1  0  0  0
  5  6  2  0  0  0
  4 15  1  0  0  0
 15 16  2  0  0  0
 16 17  1  0  0  0
 17 18  2  0  0  0
 18 19  1  0  0  0
 19 20  2  0  0  0
 12  8  1  0  0  0
  6  1  1  0  0  0
 20 15  1  0  0  0
 14 10  1  0  0  0
M  END
> <minimizedAffinity>
-6.22408

> <CNNscore>
0.4545800388

> <CNNaffinity>
4.8032569885

> <CNN_VS>
2.1834647655

> <CNNaffinity_variance>
0.0838121772

$$$$
[H]c1nc(N2C([H])([H])[C@@]3([H])N(C([H])([H])[H])C([H])([H])[C@]2([H])C3([H])[H])c([H])nc1-c1c([H])c([H])c([H])c([H])c1[H]


 20 23  0  0  0  0  0  0  0  0999 V2000
    0.5062   21.3388  -22.9004 C   0  0  0  0  0  0  0  0  0  0  0  0
   -0.8655   21.3291  -22.7542 C   0  0  0  0  0  0  0  0  0  0  0  0
   -1.6530   21.6985  -23.7790 N   0  0  0  0  0  0  0  0  0  0  0  0
   -1.1791   22.0900  -24.9775 C   0  0  0  0  0  0  0  0  0  0  0  0
    0.1883   22.0996  -25.1226 C   0  0  0  0  0  0  0  0  0  0  0  0
    0.9911   21.7272  -24.0904 N   0  0  0  0  0  0  0  0  0  0  0  0
    3.0958   20.5948  -18.1216 C   0  0  0  0  0  0  0  0  0  0  0  0
    2.9083   21.2129  -19.4312 N   0  0  0  0  0  0  0  0  0  0  0  0
    1.4788   21.5344  -19.5383 C   0  0  0  0  0  0  0  0  0  0  0  0
    0.9071   20.5469  -20.5340 C   0  0  0  0  0  0  0  0  0  0  0  0
    1.8710   19.3696  -20.2834 C   0  0  0  0  0  0  0  0  0  0  0  0
    3.1299   20.2383  -20.4681 C   0  0  0  0  0  0  0  0  0  0  0  0
    2.8042   20.8798  -21.7965 C   0  0  0  0  0  0  0  0  0  0  0  0
    1.3544   20.9524  -21.8300 N   0  0  0  0  0  0  0  0  0  0  0  0
   -2.1236   22.4709  -26.0227 C   0  0  0  0  0  0  0  0  0  0  0  0
   -3.4754   22.5922  -25.7984 C   0  0  0  0  0  0  0  0  0  0  0  0
   -4.3531   22.9600  -26.8259 C   0  0  0  0  0  0  0  0  0  0  0  0
   -3.8876   23.2124  -28.0972 C   0  0  0  0  0  0  0  0  0  0  0  0
   -2.5386   23.0927  -28.3265 C   0  0  0  0  0  0  0  0  0  0  0  0
   -1.6842   22.7303  -27.3084 C   0  0  0  0  0  0  0  0  0  0  0  0
  7  8  1  0  0  0
  8  9  1  0  0  0
  9 10  1  0  0  0
 10 11  1  0  0  0
 11 12  1  0  0  0
 12 13  1  0  0  0
 13 14  1  0  0  0
 14  1  1  0  0  0
  1  2  2  0  0  0
  2  3  1  0  0  0
  3  4  2  0  0  0
  4  5  1  0  0  0
  5  6  2  0  0  0
  4 15  1  0  0  0
 15 16  2  0  0  0
 16 17  1  0  0  0
 17 18  2  0  0  0
 18 19  1  0  0  0
 19 20  2  0  0  0
 12  8  1  0  0  0
  6  1  1  0  0  0
 20 15  1  0  0  0
 14 10  1  0  0  0
M  END
> <minimizedAffinity>
-6.59695

> <CNNscore>
0.3716295660

> <CNNaffinity>
5.0300693512

> <CNN_VS>
1.8693225384

> <CNNaffinity_variance>
0.1243134364

$$$$
[H]c1nc(N2C([H])([H])[C@@]3([H])N(C([H])([H])[H])C([H])([H])[C@]2([H])C3([H])[H])c([H])nc1-c1c([H])c([H])c([H])c([H])c1[H]


 20 23  0  0  0  0  0  0  0  0999 V2000
    1.9123   20.9852  -21.7369 C   0  0  0  0  0  0  0  0  0  0  0  0
    0.5387   21.1091  -21.7099 C   0  0  0  0  0  0  0  0  0  0  0  0
   -0.1291   21.4295  -22.8317 N   0  0  0  0  0  0  0  0  0  0  0  0
    0.4706   21.6446  -24.0185 C   0  0  0  0  0  0  0  0  0  0  0  0
    1.8399   21.5210  -24.0447 C   0  0  0  0  0  0  0  0  0  0  0  0
    2.5220   21.1971  -22.9140 N   0  0  0  0  0  0  0  0  0  0  0  0
    5.6689   19.8765  -17.8956 C   0  0  0  0  0  0  0  0  0  0  0  0
    4.7223   19.5190  -18.9484 N   0  0  0  0  0  0  0  0  0  0  0  0
    4.9389   20.4738  -20.0438 C   0  0  0  0  0  0  0  0  0  0  0  0
    3.7352   21.3928  -20.0343 C   0  0  0  0  0  0  0  0  0  0  0  0
    3.3954   21.3261  -18.5316 C   0  0  0  0  0  0  0  0  0  0  0  0
    3.3773   19.7857  -18.5079 C   0  0  0  0  0  0  0  0  0  0  0  0
    2.4412   19.5241  -19.6643 C   0  0  0  0  0  0  0  0  0  0  0  0
    2.6353   20.6478  -20.5631 N   0  0  0  0  0  0  0  0  0  0  0  0
   -0.3504   21.9875  -25.1751 C   0  0  0  0  0  0  0  0  0  0  0  0
   -1.7253   21.9515  -25.1511 C   0  0  0  0  0  0  0  0  0  0  0  0
   -2.4817   22.2874  -26.2808 C   0  0  0  0  0  0  0  0  0  0  0  0
   -1.8695   22.6655  -27.4551 C   0  0  0  0  0  0  0  0  0  0  0  0
   -0.4967   22.7032  -27.4844 C   0  0  0  0  0  0  0  0  0  0  0  0
    0.2374   22.3707  -26.3671 C   0  0  0  0  0  0  0  0  0  0  0  0
  7  8  1  0  0  0
  8  9  1  0  0  0
  9 10  1  0  0  0
 10 11  1  0  0  0
 11 12  1  0  0  0
 12 13  1  0  0  0
 13 14  1  0  0  0
 14  1  1  0  0  0
  1  2  2  0  0  0
  2  3  1  0  0  0
  3  4  2  0  0  0
  4  5  1  0  0  0
  5  6  2  0  0  0
  4 15  1  0  0  0
 15 16  2  0  0  0
 16 17  1  0  0  0
 17 18  2  0  0  0
 18 19  1  0  0  0
 19 20  2  0  0  0
 12  8  1  0  0  0
  6  1  1  0  0  0
 20 15  1  0  0  0
 14 10  1  0  0  0
M  END
> <minimizedAffinity>
-6.11578

> <CNNscore>
0.3644241691

> <CNNaffinity>
4.6592969894

> <CNN_VS>
1.6979603767

> <CNNaffinity_variance>
0.1479764283

$$$$
[H]c1nc(N2C([H])([H])[C@@]3([H])N(C([H])([H])[H])C([H])([H])[C@]2([H])C3([H])[H])c([H])nc1-c1c([H])c([H])c([H])c([H])c1[H]


 20 23  0  0  0  0  0  0  0  0999 V2000
   -0.7510   21.1651  -21.6153 C   0  0  0  0  0  0  0  0  0  0  0  0
    0.3807   21.2646  -22.3978 C   0  0  0  0  0  0  0  0  0  0  0  0
    0.2754   21.6232  -23.6890 N   0  0  0  0  0  0  0  0  0  0  0  0
   -0.8975   21.9011  -24.2903 C   0  0  0  0  0  0  0  0  0  0  0  0
   -2.0253   21.8018  -23.5098 C   0  0  0  0  0  0  0  0  0  0  0  0
   -1.9263   21.4396  -22.2030 N   0  0  0  0  0  0  0  0  0  0  0  0
   -0.4706   20.8921  -16.1433 C   0  0  0  0  0  0  0  0  0  0  0  0
    0.0998   20.9378  -17.4867 N   0  0  0  0  0  0  0  0  0  0  0  0
   -0.6257   21.9903  -18.2107 C   0  0  0  0  0  0  0  0  0  0  0  0
   -1.5106   21.2709  -19.2071 C   0  0  0  0  0  0  0  0  0  0  0  0
   -1.7337   19.9602  -18.4260 C   0  0  0  0  0  0  0  0  0  0  0  0
   -0.2275   19.7293  -18.1984 C   0  0  0  0  0  0  0  0  0  0  0  0
    0.2690   19.8683  -19.6183 C   0  0  0  0  0  0  0  0  0  0  0  0
   -0.6603   20.7878  -20.2501 N   0  0  0  0  0  0  0  0  0  0  0  0
   -0.8986   22.2812  -25.6993 C   0  0  0  0  0  0  0  0  0  0  0  0
    0.2565   22.4878  -26.4171 C   0  0  0  0  0  0  0  0  0  0  0  0
    0.2176   22.8520  -27.7688 C   0  0  0  0  0  0  0  0  0  0  0  0
   -0.9831   23.0151  -28.4232 C   0  0  0  0  0  0  0  0  0  0  0  0
   -2.1396   22.8100  -27.7109 C   0  0  0  0  0  0  0  0  0  0  0  0
   -2.0897   22.4519  -26.3816 C   0  0  0  0  0  0  0  0  0  0  0  0
  7  8  1  0  0  0
  8  9  1  0  0  0
  9 10  1  0  0  0
 10 11  1  0  0  0
 11 12  1  0  0  0
 12 13  1  0  0  0
 13 14  1  0  0  0
 14  1  1  0  0  0
  1  2  2  0  0  0
  2  3  1  0  0  0
  3  4  2  0  0  0
  4  5  1  0  0  0
  5  6  2  0  0  0
  4 15  1  0  0  0
 15 16  2  0  0  0
 16 17  1  0  0  0
 17 18  2  0  0  0
 18 19  1  0  0  0
 19 20  2  0  0  0
 12  8  1  0  0  0
  6  1  1  0  0  0
 20 15  1  0  0  0
 14 10  1  0  0  0
M  END
> <minimizedAffinity>
-6.16303

> <CNNscore>
0.2564597428

> <CNNaffinity>
4.7373476028

> <CNN_VS>
1.2149389982

> <CNNaffinity_variance>
0.1289121807

$$$$
[H]c1nc(N2C([H])([H])[C@@]3([H])N(C([H])([H])[H])C([H])([H])[C@]2([H])C3([H])[H])c([H])nc1-c1c([H])c([H])c([H])c([H])c1[H]


 20 23  0  0  0  0  0  0  0  0999 V2000
   -2.7786   22.9340  -25.4988 C   0  0  0  0  0  0  0  0  0  0  0  0
   -3.8409   23.8126  -25.5483 C   0  0  0  0  0  0  0  0  0  0  0  0
   -4.3169   24.2251  -26.7358 N   0  0  0  0  0  0  0  0  0  0  0  0
   -3.8111   23.8263  -27.9188 C   0  0  0  0  0  0  0  0  0  0  0  0
   -2.7521   22.9505  -27.8689 C   0  0  0  0  0  0  0  0  0  0  0  0
   -2.2655   22.5289  -26.6713 N   0  0  0  0  0  0  0  0  0  0  0  0
    0.2239   21.0195  -21.3255 C   0  0  0  0  0  0  0  0  0  0  0  0
   -0.7366   20.8940  -22.4182 N   0  0  0  0  0  0  0  0  0  0  0  0
   -0.1686   21.6277  -23.5572 C   0  0  0  0  0  0  0  0  0  0  0  0
   -1.0052   22.8822  -23.6987 C   0  0  0  0  0  0  0  0  0  0  0  0
   -1.4188   23.0612  -22.2240 C   0  0  0  0  0  0  0  0  0  0  0  0
   -1.9400   21.6170  -22.0968 C   0  0  0  0  0  0  0  0  0  0  0  0
   -2.8545   21.5694  -23.2983 C   0  0  0  0  0  0  0  0  0  0  0  0
   -2.2618   22.4870  -24.2548 N   0  0  0  0  0  0  0  0  0  0  0  0
   -4.4042   24.3364  -29.1508 C   0  0  0  0  0  0  0  0  0  0  0  0
   -5.3713   23.6538  -29.8515 C   0  0  0  0  0  0  0  0  0  0  0  0
   -5.9186   24.1740  -31.0310 C   0  0  0  0  0  0  0  0  0  0  0  0
   -5.5034   25.3897  -31.5273 C   0  0  0  0  0  0  0  0  0  0  0  0
   -4.5378   26.0754  -30.8313 C   0  0  0  0  0  0  0  0  0  0  0  0
   -4.0064   25.5543  -29.6721 C   0  0  0  0  0  0  0  0  0  0  0  0
  7  8  1  0  0  0
  8  9  1  0  0  0
  9 10  1  0  0  0
 10 11  1  0  0  0
 11 12  1  0  0  0
 12 13  1  0  0  0
 13 14  1  0  0  0
 14  1  1  0  0  0
  1  2  2  0  0  0
  2  3  1  0  0  0
  3  4  2  0  0  0
  4  5  1  0  0  0
  5  6  2  0  0  0
  4 15  1  0  0  0
 15 16  2  0  0  0
 16 17  1  0  0  0
 17 18  2  0  0  0
 18 19  1  0  0  0
 19 20  2  0  0  0
 12  8  1  0  0  0
  6  1  1  0  0  0
 20 15  1  0  0  0
 14 10  1  0  0  0
M  END
> <minimizedAffinity>
-7.83619

> <CNNscore>
0.2336060852

> <CNNaffinity>
5.4581842422

> <CNN_VS>
1.2750650644

> <CNNaffinity_variance>
0.2981655896

$$$$
[H]c1nc(N2C([H])([H])[C@@]3([H])N(C([H])([H])[H])C([H])([H])[C@]2([H])C3([H])[H])c([H])nc1-c1c([H])c([H])c([H])c([H])c1[H]


 20 23  0  0  0  0  0  0  0  0999 V2000
   -3.3286   23.7490  -26.9946 C   0  0  0  0  0  0  0  0  0  0  0  0
   -3.6061   23.8184  -25.6451 C   0  0  0  0  0  0  0  0  0  0  0  0
   -2.7886   23.2230  -24.7596 N   0  0  0  0  0  0  0  0  0  0  0  0
   -1.6813   22.5414  -25.1113 C   0  0  0  0  0  0  0  0  0  0  0  0
   -1.4053   22.4725  -26.4567 C   0  0  0  0  0  0  0  0  0  0  0  0
   -2.2277   23.0724  -27.3581 N   0  0  0  0  0  0  0  0  0  0  0  0
   -5.5824   26.4558  -31.2006 C   0  0  0  0  0  0  0  0  0  0  0  0
   -5.0835   26.3339  -29.8337 N   0  0  0  0  0  0  0  0  0  0  0  0
   -3.8025   25.6199  -29.9209 C   0  0  0  0  0  0  0  0  0  0  0  0
   -4.0626   24.2360  -29.3636 C   0  0  0  0  0  0  0  0  0  0  0  0
   -5.5533   24.1046  -29.7358 C   0  0  0  0  0  0  0  0  0  0  0  0
   -5.9320   25.4467  -29.0807 C   0  0  0  0  0  0  0  0  0  0  0  0
   -5.3145   25.2475  -27.7164 C   0  0  0  0  0  0  0  0  0  0  0  0
   -4.1797   24.3710  -27.9450 N   0  0  0  0  0  0  0  0  0  0  0  0
   -0.8629   21.9326  -24.0677 C   0  0  0  0  0  0  0  0  0  0  0  0
   -1.3951   21.4114  -22.9112 C   0  0  0  0  0  0  0  0  0  0  0  0
   -0.5788   20.8343  -21.9304 C   0  0  0  0  0  0  0  0  0  0  0  0
    0.7870   20.7708  -22.0945 C   0  0  0  0  0  0  0  0  0  0  0  0
    1.3236   21.2898  -23.2476 C   0  0  0  0  0  0  0  0  0  0  0  0
    0.5112   21.8552  -24.2059 C   0  0  0  0  0  0  0  0  0  0  0  0
  7  8  1  0  0  0
  8  9  1  0  0  0
  9 10  1  0  0  0
 10 11  1  0  0  0
 11 12  1  0  0  0
 12 13  1  0  0  0
 13 14  1  0  0  0
 14  1  1  0  0  0
  1  2  2  0  0  0
  2  3  1  0  0  0
  3  4  2  0  0  0
  4  5  1  0  0  0
  5  6  2  0  0  0
  4 15  1  0  0  0
 15 16  2  0  0  0
 16 17  1  0  0  0
 17 18  2  0  0  0
 18 19  1  0  0  0
 19 20  2  0  0  0
 12  8  1  0  0  0
  6  1  1  0  0  0
 20 15  1  0  0  0
 14 10  1  0  0  0
M  END
> <minimizedAffinity>
-7.64460

> <CNNscore>
0.2275699228

> <CNNaffinity>
5.8352127075

> <CNN_VS>
1.3279188871

> <CNNaffinity_variance>
0.1627187282

$$$$
[H]c1nc(N2C([H])([H])[C@@]3([H])N(C([H])([H])[H])C([H])([H])[C@]2([H])C3([H])[H])c([H])nc1-c1c([H])c([H])c([H])c([H])c1[H]


 20 23  0  0  0  0  0  0  0  0999 V2000
    0.0035   21.4091  -20.3257 C   0  0  0  0  0  0  0  0  0  0  0  0
    0.9629   21.1244  -21.2752 C   0  0  0  0  0  0  0  0  0  0  0  0
    0.6934   21.3096  -22.5791 N   0  0  0  0  0  0  0  0  0  0  0  0
   -0.4873   21.7691  -23.0365 C   0  0  0  0  0  0  0  0  0  0  0  0
   -1.4432   22.0527  -22.0896 C   0  0  0  0  0  0  0  0  0  0  0  0
   -1.1777   21.8678  -20.7689 N   0  0  0  0  0  0  0  0  0  0  0  0
    1.3906   19.5865  -15.3407 C   0  0  0  0  0  0  0  0  0  0  0  0
    0.4517   19.8551  -16.4263 N   0  0  0  0  0  0  0  0  0  0  0  0
    1.1099   19.4148  -17.6636 C   0  0  0  0  0  0  0  0  0  0  0  0
    1.4796   20.6811  -18.4077 C   0  0  0  0  0  0  0  0  0  0  0  0
    1.6693   21.6211  -17.2001 C   0  0  0  0  0  0  0  0  0  0  0  0
    0.2944   21.2766  -16.5963 C   0  0  0  0  0  0  0  0  0  0  0  0
   -0.5811   21.5136  -17.8043 C   0  0  0  0  0  0  0  0  0  0  0  0
    0.2688   21.2200  -18.9443 N   0  0  0  0  0  0  0  0  0  0  0  0
   -0.6743   21.9334  -24.4745 C   0  0  0  0  0  0  0  0  0  0  0  0
    0.3729   22.1229  -25.3461 C   0  0  0  0  0  0  0  0  0  0  0  0
    0.1560   22.2770  -26.7211 C   0  0  0  0  0  0  0  0  0  0  0  0
   -1.1174   22.2434  -27.2445 C   0  0  0  0  0  0  0  0  0  0  0  0
   -2.1666   22.0543  -26.3783 C   0  0  0  0  0  0  0  0  0  0  0  0
   -1.9418   21.9039  -25.0275 C   0  0  0  0  0  0  0  0  0  0  0  0
  7  8  1  0  0  0
  8  9  1  0  0  0
  9 10  1  0  0  0
 10 11  1  0  0  0
 11 12  1  0  0  0
 12 13  1  0  0  0
 13 14  1  0  0  0
 14  1  1  0  0  0
  1  2  2  0  0  0
  2  3  1  0  0  0
  3  4  2  0  0  0
  4  5  1  0  0  0
  5  6  2  0  0  0
  4 15  1  0  0  0
 15 16  2  0  0  0
 16 17  1  0  0  0
 17 18  2  0  0  0
 18 19  1  0  0  0
 19 20  2  0  0  0
 12  8  1  0  0  0
  6  1  1  0  0  0
 20 15  1  0  0  0
 14 10  1  0  0  0
M  END
> <minimizedAffinity>
-5.75600

> <CNNscore>
0.2016860396

> <CNNaffinity>
4.3754434586

> <CNN_VS>
0.8824658394

> <CNNaffinity_variance>
0.1230621561

$$$$
[H]c1nc(N2C([H])([H])[C@@]3([H])N(C([H])([H])[H])C([H])([H])[C@]2([H])C3([H])[H])c([H])nc1-c1c([H])c([H])c([H])c([H])c1[H]


 20 23  0  0  0  0  0  0  0  0999 V2000
   -0.9593   21.3559  -22.4890 C   0  0  0  0  0  0  0  0  0  0  0  0
   -0.2135   21.5960  -23.6244 C   0  0  0  0  0  0  0  0  0  0  0  0
   -0.8239   21.9669  -24.7631 N   0  0  0  0  0  0  0  0  0  0  0  0
   -2.1569   22.1254  -24.8749 C   0  0  0  0  0  0  0  0  0  0  0  0
   -2.8998   21.8860  -23.7427 C   0  0  0  0  0  0  0  0  0  0  0  0
   -2.2892   21.5105  -22.5874 N   0  0  0  0  0  0  0  0  0  0  0  0
    1.9008   18.9426  -18.4775 C   0  0  0  0  0  0  0  0  0  0  0  0
    0.6916   19.2064  -19.2524 N   0  0  0  0  0  0  0  0  0  0  0  0
    1.0882   19.1708  -20.6665 C   0  0  0  0  0  0  0  0  0  0  0  0
    1.0451   20.6075  -21.1436 C   0  0  0  0  0  0  0  0  0  0  0  0
    1.3669   21.3119  -19.8101 C   0  0  0  0  0  0  0  0  0  0  0  0
    0.2614   20.5644  -19.0401 C   0  0  0  0  0  0  0  0  0  0  0  0
   -0.9122   20.8358  -19.9518 C   0  0  0  0  0  0  0  0  0  0  0  0
   -0.3333   20.9633  -21.2772 N   0  0  0  0  0  0  0  0  0  0  0  0
   -2.7167   22.5316  -26.1599 C   0  0  0  0  0  0  0  0  0  0  0  0
   -4.0586   22.7689  -26.3475 C   0  0  0  0  0  0  0  0  0  0  0  0
   -4.5610   23.1577  -27.5956 C   0  0  0  0  0  0  0  0  0  0  0  0
   -3.7235   23.3148  -28.6775 C   0  0  0  0  0  0  0  0  0  0  0  0
   -2.3825   23.0791  -28.4955 C   0  0  0  0  0  0  0  0  0  0  0  0
   -1.8991   22.6971  -27.2633 C   0  0  0  0  0  0  0  0  0  0  0  0
  7  8  1  0  0  0
  8  9  1  0  0  0
  9 10  1  0  0  0
 10 11  1  0  0  0
 11 12  1  0  0  0
 12 13  1  0  0  0
 13 14  1  0  0  0
 14  1  1  0  0  0
  1  2  2  0  0  0
  2  3  1  0  0  0
  3  4  2  0  0  0
  4  5  1  0  0  0
  5  6  2  0  0  0
  4 15  1  0  0  0
 15 16  2  0  0  0
 16 17  1  0  0  0
 17 18  2  0  0  0
 18 19  1  0  0  0
 19 20  2  0  0  0
 12  8  1  0  0  0
  6  1  1  0  0  0
 20 15  1  0  0  0
 14 10  1  0  0  0
M  END
> <minimizedAffinity>
-6.25952

> <CNNscore>
0.1938446462

> <CNNaffinity>
4.9364166260

> <CNN_VS>
0.9568979144

> <CNNaffinity_variance>
0.0675316304

$$$$
[H]c1nc(N2C([H])([H])[C@@]3([H])N(C([H])([H])[H])C([H])([H])[C@]2([H])C3([H])[H])c([H])nc1-c1c([H])c([H])c([H])c([H])c1[H]


 20 23  0  0  0  0  0  0  0  0999 V2000
   -5.0791   22.0619  -22.6999 C   0  0  0  0  0  0  0  0  0  0  0  0
   -5.0657   21.3801  -23.8991 C   0  0  0  0  0  0  0  0  0  0  0  0
   -4.0151   21.5009  -24.7289 N   0  0  0  0  0  0  0  0  0  0  0  0
   -2.9399   22.2668  -24.4608 C   0  0  0  0  0  0  0  0  0  0  0  0
   -2.9539   22.9462  -23.2653 C   0  0  0  0  0  0  0  0  0  0  0  0
   -4.0132   22.8287  -22.4210 N   0  0  0  0  0  0  0  0  0  0  0  0
   -8.5632   20.9646  -18.6068 C   0  0  0  0  0  0  0  0  0  0  0  0
   -7.9636   20.7342  -19.9181 N   0  0  0  0  0  0  0  0  0  0  0  0
   -6.5105   20.8526  -19.7373 C   0  0  0  0  0  0  0  0  0  0  0  0
   -6.1173   22.1576  -20.3976 C   0  0  0  0  0  0  0  0  0  0  0  0
   -7.4333   22.9349  -20.1929 C   0  0  0  0  0  0  0  0  0  0  0  0
   -8.2986   21.8174  -20.8061 C   0  0  0  0  0  0  0  0  0  0  0  0
   -7.5594   21.6075  -22.1068 C   0  0  0  0  0  0  0  0  0  0  0  0
   -6.1792   21.9474  -21.8105 N   0  0  0  0  0  0  0  0  0  0  0  0
   -1.8529   22.3267  -25.4326 C   0  0  0  0  0  0  0  0  0  0  0  0
   -2.0492   22.6649  -26.7515 C   0  0  0  0  0  0  0  0  0  0  0  0
   -0.9818   22.7123  -27.6568 C   0  0  0  0  0  0  0  0  0  0  0  0
    0.3020   22.4205  -27.2527 C   0  0  0  0  0  0  0  0  0  0  0  0
    0.5034   22.0822  -25.9367 C   0  0  0  0  0  0  0  0  0  0  0  0
   -0.5539   22.0387  -25.0547 C   0  0  0  0  0  0  0  0  0  0  0  0
  7  8  1  0  0  0
  8  9  1  0  0  0
  9 10  1  0  0  0
 10 11  1  0  0  0
 11 12  1  0  0  0
 12 13  1  0  0  0
 13 14  1  0  0  0
 14  1  1  0  0  0
  1  2  2  0  0  0
  2  3  1  0  0  0
  3  4  2  0  0  0
  4  5  1  0  0  0
  5  6  2  0  0  0
  4 15  1  0  0  0
 15 16  2  0  0  0
 16 17  1  0  0  0
 17 18  2  0  0  0
 18 19  1  0  0  0
 19 20  2  0  0  0
 12  8  1  0  0  0
  6  1  1  0  0  0
 20 15  1  0  0  0
 14 10  1  0  0  0
M  END
> <minimizedAffinity>
-6.95484

> <CNNscore>
0.1935443580

> <CNNaffinity>
4.7584733963

> <CNN_VS>
0.9209756851

> <CNNaffinity_variance>
0.1373004615

$$$$
[H]c1c(N([H])C(=O)[C@@]2([H])N(C(=O)c3c([H])c([H])c(F)c([H])c3[H])C([H])([H])c3c([H])c([H])c([H])c([H])c3C2([H])[H])noc1C(C([H])([H])[H])(C([H])([H])[H])C([H])([H])[H]


 32 35  0  0  0  0  0  0  0  0999 V2000
   -6.4095   22.0317  -19.4367 C   0  0  0  0  0  0  0  0  0  0  0  0
   -6.2835   20.5435  -19.2392 C   0  0  0  0  0  0  0  0  0  0  0  0
   -4.9432   20.1372  -18.7598 C   0  0  0  0  0  0  0  0  0  0  0  0
   -4.7497   18.8126  -18.3541 C   0  0  0  0  0  0  0  0  0  0  0  0
   -3.5421   18.3414  -17.8986 C   0  0  0  0  0  0  0  0  0  0  0  0
   -2.4915   19.2301  -17.8474 C   0  0  0  0  0  0  0  0  0  0  0  0
   -2.6526   20.5376  -18.2395 C   0  0  0  0  0  0  0  0  0  0  0  0
   -3.8857   20.9968  -18.6983 C   0  0  0  0  0  0  0  0  0  0  0  0
   -4.0079   22.4075  -19.0828 C   0  0  0  0  0  0  0  0  0  0  0  0
   -5.1998   22.6411  -19.9231 N   0  0  0  0  0  0  0  0  0  0  0  0
   -4.9910   23.4391  -21.0651 C   0  0  0  0  0  0  0  0  0  0  0  0
   -3.7459   23.8038  -21.2902 O   0  0  0  0  0  0  0  0  0  0  0  0
   -5.8977   23.9355  -22.0573 C   0  0  0  0  0  0  0  0  0  0  0  0
   -6.9932   24.7338  -21.8843 C   0  0  0  0  0  0  0  0  0  0  0  0
   -7.9032   25.0527  -22.9078 C   0  0  0  0  0  0  0  0  0  0  0  0
   -7.7213   24.5581  -24.1734 C   0  0  0  0  0  0  0  0  0  0  0  0
   -8.5994   24.8596  -25.1760 F   0  0  0  0  0  0  0  0  0  0  0  0
   -6.6298   23.7577  -24.3829 C   0  0  0  0  0  0  0  0  0  0  0  0
   -5.7455   23.4487  -23.3842 C   0  0  0  0  0  0  0  0  0  0  0  0
   -6.8123   22.0436  -16.9475 N   0  0  0  0  0  0  0  0  0  0  0  0
   -6.7660   22.7047  -18.1841 C   0  0  0  0  0  0  0  0  0  0  0  0
   -7.0445   23.9508  -18.2199 O   0  0  0  0  0  0  0  0  0  0  0  0
   -6.5955   21.0408  -16.8080 H   0  0  0  0  0  0  0  0  0  0  0  0
   -7.1188   23.9455  -13.8566 C   0  0  0  0  0  0  0  0  0  0  0  0
   -6.3387   23.3804  -14.8610 C   0  0  0  0  0  0  0  0  0  0  0  0
   -7.1984   22.7672  -15.7622 C   0  0  0  0  0  0  0  0  0  0  0  0
   -8.4349   22.9795  -15.2765 N   0  0  0  0  0  0  0  0  0  0  0  0
   -8.3504   23.6707  -14.1640 O   0  0  0  0  0  0  0  0  0  0  0  0
   -6.1709   26.0632  -13.1673 C   0  0  0  0  0  0  0  0  0  0  0  0
   -6.5471   24.7024  -12.7014 C   0  0  0  0  0  0  0  0  0  0  0  0
   -5.3247   23.9637  -12.1867 C   0  0  0  0  0  0  0  0  0  0  0  0
   -7.5757   24.7319  -11.5816 C   0  0  0  0  0  0  0  0  0  0  0  0
 29 30  1  0  0  0
 30 31  1  0  0  0
 30 32  1  0  0  0
 30 24  1  0  0  0
 24 25  2  0  0  0
 25 26  1  0  0  0
 26 20  1  0  0  0
 20 21  1  0  0  0
 21 22  2  0  0  0
 21  1  1  0  0  0
  1  2  1  0  0  0
  2  3  1  0  0  0
  3  4  2  0  0  0
  4  5  1  0  0  0
  5  6  2  0  0  0
  6  7  1  0  0  0
  7  8  2  0  0  0
  8  9  1  0  0  0
  9 10  1  0  0  0
 10 11  1  0  0  0
 11 12  2  0  0  0
 11 13  1  0  0  0
 13 14  2  0  0  0
 14 15  1  0  0  0
 15 16  2  0  0  0
 16 17  1  0  0  0
 16 18  1  0  0  0
 18 19  2  0  0  0
 26 27  2  0  0  0
 27 28  1  0  0  0
 28 24  1  0  0  0
 10  1  1  0  0  0
 19 13  1  0  0  0
  8  3  1  0  0  0
 20 23  1  0  0  0
M  END
> <minimizedAffinity>
-5.97410

> <CNNscore>
0.3761248887

> <CNNaffinity>
5.5017480850

> <CNN_VS>
2.0693442822

> <CNNaffinity_variance>
0.7714725733

$$$$
[H]c1c(N([H])C(=O)[C@@]2([H])N(C(=O)c3c([H])c([H])c(F)c([H])c3[H])C([H])([H])c3c([H])c([H])c([H])c([H])c3C2([H])[H])noc1C(C([H])([H])[H])(C([H])([H])[H])C([H])([H])[H]


 32 35  0  0  0  0  0  0  0  0999 V2000
    1.4945   20.2389  -18.4536 C   0  0  0  0  0  0  0  0  0  0  0  0
    1.8387   20.3776  -16.9935 C   0  0  0  0  0  0  0  0  0  0  0  0
    2.4481   21.6865  -16.6668 C   0  0  0  0  0  0  0  0  0  0  0  0
    2.6390   22.0199  -15.3218 C   0  0  0  0  0  0  0  0  0  0  0  0
    3.1997   23.2084  -14.9208 C   0  0  0  0  0  0  0  0  0  0  0  0
    3.5820   24.0943  -15.9033 C   0  0  0  0  0  0  0  0  0  0  0  0
    3.4063   23.7935  -17.2329 C   0  0  0  0  0  0  0  0  0  0  0  0
    2.8351   22.5826  -17.6197 C   0  0  0  0  0  0  0  0  0  0  0  0
    2.6503   22.3223  -19.0518 C   0  0  0  0  0  0  0  0  0  0  0  0
    2.4438   20.8849  -19.3213 N   0  0  0  0  0  0  0  0  0  0  0  0
    3.1855   20.3556  -20.3956 C   0  0  0  0  0  0  0  0  0  0  0  0
    4.0346   21.1827  -20.9690 O   0  0  0  0  0  0  0  0  0  0  0  0
    3.1973   19.0533  -20.9931 C   0  0  0  0  0  0  0  0  0  0  0  0
    4.0503   18.5602  -21.9399 C   0  0  0  0  0  0  0  0  0  0  0  0
    3.8924   17.3113  -22.5667 C   0  0  0  0  0  0  0  0  0  0  0  0
    2.8347   16.5027  -22.2396 C   0  0  0  0  0  0  0  0  0  0  0  0
    2.6696   15.2876  -22.8426 F   0  0  0  0  0  0  0  0  0  0  0  0
    1.9623   16.9646  -21.2902 C   0  0  0  0  0  0  0  0  0  0  0  0
    2.1187   18.1814  -20.6818 C   0  0  0  0  0  0  0  0  0  0  0  0
   -0.6760   21.3115  -17.7489 N   0  0  0  0  0  0  0  0  0  0  0  0
    0.1760   20.8101  -18.7443 C   0  0  0  0  0  0  0  0  0  0  0  0
   -0.2135   20.8558  -19.9599 O   0  0  0  0  0  0  0  0  0  0  0  0
   -0.4526   21.3308  -16.7381 H   0  0  0  0  0  0  0  0  0  0  0  0
   -4.1472   21.9812  -18.6251 C   0  0  0  0  0  0  0  0  0  0  0  0
   -3.1395   21.0978  -18.2500 C   0  0  0  0  0  0  0  0  0  0  0  0
   -1.9704   21.8333  -18.1099 C   0  0  0  0  0  0  0  0  0  0  0  0
   -2.3100   23.1020  -18.4013 N   0  0  0  0  0  0  0  0  0  0  0  0
   -3.5878   23.1512  -18.6968 O   0  0  0  0  0  0  0  0  0  0  0  0
   -5.9514   21.9778  -20.2384 C   0  0  0  0  0  0  0  0  0  0  0  0
   -5.5606   21.5591  -18.8665 C   0  0  0  0  0  0  0  0  0  0  0  0
   -6.4549   22.2252  -17.8362 C   0  0  0  0  0  0  0  0  0  0  0  0
   -5.6612   20.0553  -18.6636 C   0  0  0  0  0  0  0  0  0  0  0  0
 29 30  1  0  0  0
 30 31  1  0  0  0
 30 32  1  0  0  0
 30 24  1  0  0  0
 24 25  2  0  0  0
 25 26  1  0  0  0
 26 20  1  0  0  0
 20 21  1  0  0  0
 21 22  2  0  0  0
 21  1  1  0  0  0
  1  2  1  0  0  0
  2  3  1  0  0  0
  3  4  2  0  0  0
  4  5  1  0  0  0
  5  6  2  0  0  0
  6  7  1  0  0  0
  7  8  2  0  0  0
  8  9  1  0  0  0
  9 10  1  0  0  0
 10 11  1  0  0  0
 11 12  2  0  0  0
 11 13  1  0  0  0
 13 14  2  0  0  0
 14 15  1  0  0  0
 15 16  2  0  0  0
 16 17  1  0  0  0
 16 18  1  0  0  0
 18 19  2  0  0  0
 26 27  2  0  0  0
 27 28  1  0  0  0
 28 24  1  0  0  0
 10  1  1  0  0  0
 19 13  1  0  0  0
  8  3  1  0  0  0
 20 23  1  0  0  0
M  END
> <minimizedAffinity>
-5.82446

> <CNNscore>
0.3359649479

> <CNNaffinity>
5.5115675926

> <CNN_VS>
1.8516935110

> <CNNaffinity_variance>
0.3579145074

$$$$
[H]c1c(N([H])C(=O)[C@@]2([H])N(C(=O)c3c([H])c([H])c(F)c([H])c3[H])C([H])([H])c3c([H])c([H])c([H])c([H])c3C2([H])[H])noc1C(C([H])([H])[H])(C([H])([H])[H])C([H])([H])[H]


 32 35  0  0  0  0  0  0  0  0999 V2000
   -3.7761   21.7464  -23.1930 C   0  0  0  0  0  0  0  0  0  0  0  0
   -5.1190   21.3437  -22.6416 C   0  0  0  0  0  0  0  0  0  0  0  0
   -5.9107   22.4954  -22.1540 C   0  0  0  0  0  0  0  0  0  0  0  0
   -7.2464   22.2867  -21.7949 C   0  0  0  0  0  0  0  0  0  0  0  0
   -8.0587   23.2917  -21.3283 C   0  0  0  0  0  0  0  0  0  0  0  0
   -7.5125   24.5510  -21.2185 C   0  0  0  0  0  0  0  0  0  0  0  0
   -6.2030   24.7856  -21.5642 C   0  0  0  0  0  0  0  0  0  0  0  0
   -5.3950   23.7529  -22.0360 C   0  0  0  0  0  0  0  0  0  0  0  0
   -4.0111   24.0635  -22.4119 C   0  0  0  0  0  0  0  0  0  0  0  0
   -3.1793   22.8450  -22.4800 N   0  0  0  0  0  0  0  0  0  0  0  0
   -1.9184   22.9348  -21.8584 C   0  0  0  0  0  0  0  0  0  0  0  0
   -1.6728   24.0595  -21.2192 O   0  0  0  0  0  0  0  0  0  0  0  0
   -0.8278   22.0086  -21.7813 C   0  0  0  0  0  0  0  0  0  0  0  0
   -0.3702   21.3232  -20.6913 C   0  0  0  0  0  0  0  0  0  0  0  0
    0.7989   20.5417  -20.6878 C   0  0  0  0  0  0  0  0  0  0  0  0
    1.5580   20.4283  -21.8238 C   0  0  0  0  0  0  0  0  0  0  0  0
    2.6967   19.6731  -21.8325 F   0  0  0  0  0  0  0  0  0  0  0  0
    1.1252   21.0992  -22.9366 C   0  0  0  0  0  0  0  0  0  0  0  0
   -0.0135   21.8597  -22.9369 C   0  0  0  0  0  0  0  0  0  0  0  0
   -2.8058   22.6916  -25.3199 N   0  0  0  0  0  0  0  0  0  0  0  0
   -3.8778   22.1417  -24.6011 C   0  0  0  0  0  0  0  0  0  0  0  0
   -4.9928   21.9751  -25.2016 O   0  0  0  0  0  0  0  0  0  0  0  0
   -1.8607   22.8582  -24.9313 H   0  0  0  0  0  0  0  0  0  0  0  0
   -3.8021   24.0300  -28.5574 C   0  0  0  0  0  0  0  0  0  0  0  0
   -3.9666   23.9423  -27.1783 C   0  0  0  0  0  0  0  0  0  0  0  0
   -2.9904   23.0814  -26.6953 C   0  0  0  0  0  0  0  0  0  0  0  0
   -2.2926   22.6906  -27.7770 N   0  0  0  0  0  0  0  0  0  0  0  0
   -2.7937   23.2640  -28.8460 O   0  0  0  0  0  0  0  0  0  0  0  0
   -3.7990   25.7892  -30.2197 C   0  0  0  0  0  0  0  0  0  0  0  0
   -4.6690   24.8738  -29.4352 C   0  0  0  0  0  0  0  0  0  0  0  0
   -5.6234   25.6702  -28.5635 C   0  0  0  0  0  0  0  0  0  0  0  0
   -5.5030   23.9598  -30.3194 C   0  0  0  0  0  0  0  0  0  0  0  0
 29 30  1  0  0  0
 30 31  1  0  0  0
 30 32  1  0  0  0
 30 24  1  0  0  0
 24 25  2  0  0  0
 25 26  1  0  0  0
 26 20  1  0  0  0
 20 21  1  0  0  0
 21 22  2  0  0  0
 21  1  1  0  0  0
  1  2  1  0  0  0
  2  3  1  0  0  0
  3  4  2  0  0  0
  4  5  1  0  0  0
  5  6  2  0  0  0
  6  7  1  0  0  0
  7  8  2  0  0  0
  8  9  1  0  0  0
  9 10  1  0  0  0
 10 11  1  0  0  0
 11 12  2  0  0  0
 11 13  1  0  0  0
 13 14  2  0  0  0
 14 15  1  0  0  0
 15 16  2  0  0  0
 16 17  1  0  0  0
 16 18  1  0  0  0
 18 19  2  0  0  0
 26 27  2  0  0  0
 27 28  1  0  0  0
 28 24  1  0  0  0
 10  1  1  0  0  0
 19 13  1  0  0  0
  8  3  1  0  0  0
 20 23  1  0  0  0
M  END
> <minimizedAffinity>
-8.99914

> <CNNscore>
0.2340762317

> <CNNaffinity>
6.4675168991

> <CNN_VS>
1.5138919353

> <CNNaffinity_variance>
0.2227005959

$$$$
[H]c1c(N([H])C(=O)[C@@]2([H])N(C(=O)c3c([H])c([H])c(F)c([H])c3[H])C([H])([H])c3c([H])c([H])c([H])c([H])c3C2([H])[H])noc1C(C([H])([H])[H])(C([H])([H])[H])C([H])([H])[H]


 32 35  0  0  0  0  0  0  0  0999 V2000
    0.0153   20.7373  -19.2577 C   0  0  0  0  0  0  0  0  0  0  0  0
    0.4433   21.7783  -18.2563 C   0  0  0  0  0  0  0  0  0  0  0  0
    1.8684   22.1554  -18.3904 C   0  0  0  0  0  0  0  0  0  0  0  0
    2.3458   23.2443  -17.6535 C   0  0  0  0  0  0  0  0  0  0  0  0
    3.6521   23.6666  -17.7088 C   0  0  0  0  0  0  0  0  0  0  0  0
    4.5100   22.9728  -18.5328 C   0  0  0  0  0  0  0  0  0  0  0  0
    4.0687   21.8991  -19.2687 C   0  0  0  0  0  0  0  0  0  0  0  0
    2.7395   21.4862  -19.1994 C   0  0  0  0  0  0  0  0  0  0  0  0
    2.3167   20.3480  -20.0233 C   0  0  0  0  0  0  0  0  0  0  0  0
    1.0440   19.7722  -19.5436 N   0  0  0  0  0  0  0  0  0  0  0  0
    1.0092   18.3669  -19.4526 C   0  0  0  0  0  0  0  0  0  0  0  0
    2.1394   17.7466  -19.7206 O   0  0  0  0  0  0  0  0  0  0  0  0
   -0.0469   17.4619  -19.1080 C   0  0  0  0  0  0  0  0  0  0  0  0
   -0.6241   16.4950  -19.8821 C   0  0  0  0  0  0  0  0  0  0  0  0
   -1.7531   15.7500  -19.4977 C   0  0  0  0  0  0  0  0  0  0  0  0
   -2.3447   15.9697  -18.2806 C   0  0  0  0  0  0  0  0  0  0  0  0
   -3.4429   15.2533  -17.8963 F   0  0  0  0  0  0  0  0  0  0  0  0
   -1.7884   16.9294  -17.4772 C   0  0  0  0  0  0  0  0  0  0  0  0
   -0.6890   17.6534  -17.8544 C   0  0  0  0  0  0  0  0  0  0  0  0
   -0.7242   20.6069  -21.6649 N   0  0  0  0  0  0  0  0  0  0  0  0
   -0.3733   21.3533  -20.5300 C   0  0  0  0  0  0  0  0  0  0  0  0
   -0.3960   22.6280  -20.6078 O   0  0  0  0  0  0  0  0  0  0  0  0
   -0.7480   19.5725  -21.7046 H   0  0  0  0  0  0  0  0  0  0  0  0
   -2.2360   22.2534  -24.5404 C   0  0  0  0  0  0  0  0  0  0  0  0
   -2.3481   21.6391  -23.2967 C   0  0  0  0  0  0  0  0  0  0  0  0
   -1.0691   21.2845  -22.8895 C   0  0  0  0  0  0  0  0  0  0  0  0
   -0.2544   21.6873  -23.8813 N   0  0  0  0  0  0  0  0  0  0  0  0
   -0.9694   22.2489  -24.8279 O   0  0  0  0  0  0  0  0  0  0  0  0
   -3.7001   24.1593  -24.8268 C   0  0  0  0  0  0  0  0  0  0  0  0
   -3.4078   22.7817  -25.3033 C   0  0  0  0  0  0  0  0  0  0  0  0
   -4.6010   21.8748  -25.0610 C   0  0  0  0  0  0  0  0  0  0  0  0
   -3.0838   22.7335  -26.7884 C   0  0  0  0  0  0  0  0  0  0  0  0
 29 30  1  0  0  0
 30 31  1  0  0  0
 30 32  1  0  0  0
 30 24  1  0  0  0
 24 25  2  0  0  0
 25 26  1  0  0  0
 26 20  1  0  0  0
 20 21  1  0  0  0
 21 22  2  0  0  0
 21  1  1  0  0  0
  1  2  1  0  0  0
  2  3  1  0  0  0
  3  4  2  0  0  0
  4  5  1  0  0  0
  5  6  2  0  0  0
  6  7  1  0  0  0
  7  8  2  0  0  0
  8  9  1  0  0  0
  9 10  1  0  0  0
 10 11  1  0  0  0
 11 12  2  0  0  0
 11 13  1  0  0  0
 13 14  2  0  0  0
 14 15  1  0  0  0
 15 16  2  0  0  0
 16 17  1  0  0  0
 16 18  1  0  0  0
 18 19  2  0  0  0
 26 27  2  0  0  0
 27 28  1  0  0  0
 28 24  1  0  0  0
 10  1  1  0  0  0
 19 13  1  0  0  0
  8  3  1  0  0  0
 20 23  1  0  0  0
M  END
> <minimizedAffinity>
-6.51818

> <CNNscore>
0.2256726474

> <CNNaffinity>
5.6517143250

> <CNN_VS>
1.2754373550

> <CNNaffinity_variance>
0.1006637439

$$$$
[H]c1c(N([H])C(=O)[C@@]2([H])N(C(=O)c3c([H])c([H])c(F)c([H])c3[H])C([H])([H])c3c([H])c([H])c([H])c([H])c3C2([H])[H])noc1C(C([H])([H])[H])(C([H])([H])[H])C([H])([H])[H]


 32 35  0  0  0  0  0  0  0  0999 V2000
    0.1665   20.2898  -19.9451 C   0  0  0  0  0  0  0  0  0  0  0  0
    1.6405   20.1135  -19.6887 C   0  0  0  0  0  0  0  0  0  0  0  0
    2.1673   21.0601  -18.6798 C   0  0  0  0  0  0  0  0  0  0  0  0
    3.4720   20.8803  -18.2089 C   0  0  0  0  0  0  0  0  0  0  0  0
    4.0489   21.7087  -17.2768 C   0  0  0  0  0  0  0  0  0  0  0  0
    3.2903   22.7541  -16.7995 C   0  0  0  0  0  0  0  0  0  0  0  0
    2.0053   22.9550  -17.2440 C   0  0  0  0  0  0  0  0  0  0  0  0
    1.4375   22.1033  -18.1898 C   0  0  0  0  0  0  0  0  0  0  0  0
    0.0544   22.3504  -18.6126 C   0  0  0  0  0  0  0  0  0  0  0  0
   -0.2571   21.6639  -19.8826 N   0  0  0  0  0  0  0  0  0  0  0  0
   -0.9384   22.4394  -20.8412 C   0  0  0  0  0  0  0  0  0  0  0  0
   -1.1347   23.7020  -20.5231 O   0  0  0  0  0  0  0  0  0  0  0  0
   -1.4650   22.1090  -22.1322 C   0  0  0  0  0  0  0  0  0  0  0  0
   -0.8347   22.1529  -23.3439 C   0  0  0  0  0  0  0  0  0  0  0  0
   -1.4816   21.9425  -24.5747 C   0  0  0  0  0  0  0  0  0  0  0  0
   -2.8250   21.6716  -24.6121 C   0  0  0  0  0  0  0  0  0  0  0  0
   -3.4650   21.4667  -25.8019 F   0  0  0  0  0  0  0  0  0  0  0  0
   -3.4870   21.6156  -23.4144 C   0  0  0  0  0  0  0  0  0  0  0  0
   -2.8544   21.8212  -22.2175 C   0  0  0  0  0  0  0  0  0  0  0  0
   -2.0204   19.7067  -18.8335 N   0  0  0  0  0  0  0  0  0  0  0  0
   -0.6344   19.5399  -18.9729 C   0  0  0  0  0  0  0  0  0  0  0  0
   -0.0435   18.6938  -18.2202 O   0  0  0  0  0  0  0  0  0  0  0  0
   -2.5946   20.3566  -19.3991 H   0  0  0  0  0  0  0  0  0  0  0  0
   -3.9741   17.3796  -16.8253 C   0  0  0  0  0  0  0  0  0  0  0  0
   -3.4084   17.7550  -18.0401 C   0  0  0  0  0  0  0  0  0  0  0  0
   -2.7360   18.9522  -17.8353 C   0  0  0  0  0  0  0  0  0  0  0  0
   -2.9198   19.2467  -16.5356 N   0  0  0  0  0  0  0  0  0  0  0  0
   -3.6464   18.3071  -15.9771 O   0  0  0  0  0  0  0  0  0  0  0  0
   -5.0507   15.9515  -15.1945 C   0  0  0  0  0  0  0  0  0  0  0  0
   -4.7770   16.1319  -16.6446 C   0  0  0  0  0  0  0  0  0  0  0  0
   -3.9834   14.9548  -17.1827 C   0  0  0  0  0  0  0  0  0  0  0  0
   -6.0495   16.2480  -17.4693 C   0  0  0  0  0  0  0  0  0  0  0  0
 29 30  1  0  0  0
 30 31  1  0  0  0
 30 32  1  0  0  0
 30 24  1  0  0  0
 24 25  2  0  0  0
 25 26  1  0  0  0
 26 20  1  0  0  0
 20 21  1  0  0  0
 21 22  2  0  0  0
 21  1  1  0  0  0
  1  2  1  0  0  0
  2  3  1  0  0  0
  3  4  2  0  0  0
  4  5  1  0  0  0
  5  6  2  0  0  0
  6  7  1  0  0  0
  7  8  2  0  0  0
  8  9  1  0  0  0
  9 10  1  0  0  0
 10 11  1  0  0  0
 11 12  2  0  0  0
 11 13  1  0  0  0
 13 14  2  0  0  0
 14 15  1  0  0  0
 15 16  2  0  0  0
 16 17  1  0  0  0
 16 18  1  0  0  0
 18 19  2  0  0  0
 26 27  2  0  0  0
 27 28  1  0  0  0
 28 24  1  0  0  0
 10  1  1  0  0  0
 19 13  1  0  0  0
  8  3  1  0  0  0
 20 23  1  0  0  0
M  END
> <minimizedAffinity>
-5.57552

> <CNNscore>
0.2183814943

> <CNNaffinity>
5.4540772438

> <CNN_VS>
1.1910694838

> <CNNaffinity_variance>
0.2390634269

$$$$
[H]c1c(N([H])C(=O)[C@@]2([H])N(C(=O)c3c([H])c([H])c(F)c([H])c3[H])C([H])([H])c3c([H])c([H])c([H])c([H])c3C2([H])[H])noc1C(C([H])([H])[H])(C([H])([H])[H])C([H])([H])[H]


 32 35  0  0  0  0  0  0  0  0999 V2000
   -4.1216   22.4614  -23.9171 C   0  0  0  0  0  0  0  0  0  0  0  0
   -5.3642   21.7448  -23.4566 C   0  0  0  0  0  0  0  0  0  0  0  0
   -6.1714   22.5433  -22.5068 C   0  0  0  0  0  0  0  0  0  0  0  0
   -7.4413   22.0779  -22.1502 C   0  0  0  0  0  0  0  0  0  0  0  0
   -8.2615   22.7467  -21.2740 C   0  0  0  0  0  0  0  0  0  0  0  0
   -7.7918   23.9245  -20.7368 C   0  0  0  0  0  0  0  0  0  0  0  0
   -6.5480   24.4060  -21.0691 C   0  0  0  0  0  0  0  0  0  0  0  0
   -5.7309   23.7131  -21.9604 C   0  0  0  0  0  0  0  0  0  0  0  0
   -4.4218   24.2837  -22.2975 C   0  0  0  0  0  0  0  0  0  0  0  0
   -3.5233   23.2718  -22.8892 N   0  0  0  0  0  0  0  0  0  0  0  0
   -2.2094   23.2549  -22.3815 C   0  0  0  0  0  0  0  0  0  0  0  0
   -1.9693   24.0803  -21.3840 O   0  0  0  0  0  0  0  0  0  0  0  0
   -1.0576   22.4857  -22.7485 C   0  0  0  0  0  0  0  0  0  0  0  0
   -0.3005   21.6618  -21.9641 C   0  0  0  0  0  0  0  0  0  0  0  0
    0.8978   21.0582  -22.3850 C   0  0  0  0  0  0  0  0  0  0  0  0
    1.3750   21.2780  -23.6513 C   0  0  0  0  0  0  0  0  0  0  0  0
    2.5389   20.6984  -24.0715 F   0  0  0  0  0  0  0  0  0  0  0  0
    0.6378   22.0957  -24.4660 C   0  0  0  0  0  0  0  0  0  0  0  0
   -0.5287   22.6823  -24.0532 C   0  0  0  0  0  0  0  0  0  0  0  0
   -5.6430   23.3527  -25.7197 N   0  0  0  0  0  0  0  0  0  0  0  0
   -4.4069   23.3390  -25.0563 C   0  0  0  0  0  0  0  0  0  0  0  0
   -3.4888   24.1293  -25.4613 O   0  0  0  0  0  0  0  0  0  0  0  0
   -6.4538   22.7612  -25.4655 H   0  0  0  0  0  0  0  0  0  0  0  0
   -5.6627   25.1741  -28.8737 C   0  0  0  0  0  0  0  0  0  0  0  0
   -5.1989   24.1305  -28.0784 C   0  0  0  0  0  0  0  0  0  0  0  0
   -5.8396   24.2250  -26.8504 C   0  0  0  0  0  0  0  0  0  0  0  0
   -6.6445   25.2983  -26.9496 N   0  0  0  0  0  0  0  0  0  0  0  0
   -6.5159   25.8271  -28.1439 O   0  0  0  0  0  0  0  0  0  0  0  0
   -3.7220   25.5092  -30.2808 C   0  0  0  0  0  0  0  0  0  0  0  0
   -5.2048   25.4014  -30.2783 C   0  0  0  0  0  0  0  0  0  0  0  0
   -5.8286   26.6849  -30.7966 C   0  0  0  0  0  0  0  0  0  0  0  0
   -5.7090   24.2586  -31.1458 C   0  0  0  0  0  0  0  0  0  0  0  0
 29 30  1  0  0  0
 30 31  1  0  0  0
 30 32  1  0  0  0
 30 24  1  0  0  0
 24 25  2  0  0  0
 25 26  1  0  0  0
 26 20  1  0  0  0
 20 21  1  0  0  0
 21 22  2  0  0  0
 21  1  1  0  0  0
  1  2  1  0  0  0
  2  3  1  0  0  0
  3  4  2  0  0  0
  4  5  1  0  0  0
  5  6  2  0  0  0
  6  7  1  0  0  0
  7  8  2  0  0  0
  8  9  1  0  0  0
  9 10  1  0  0  0
 10 11  1  0  0  0
 11 12  2  0  0  0
 11 13  1  0  0  0
 13 14  2  0  0  0
 14 15  1  0  0  0
 15 16  2  0  0  0
 16 17  1  0  0  0
 16 18  1  0  0  0
 18 19  2  0  0  0
 26 27  2  0  0  0
 27 28  1  0  0  0
 28 24  1  0  0  0
 10  1  1  0  0  0
 19 13  1  0  0  0
  8  3  1  0  0  0
 20 23  1  0  0  0
M  END
> <minimizedAffinity>
-10.04928

> <CNNscore>
0.2172194570

> <CNNaffinity>
6.5580191612

> <CNN_VS>
1.4245293140

> <CNNaffinity_variance>
0.2282571793

$$$$
[H]c1c(N([H])C(=O)[C@@]2([H])N(C(=O)c3c([H])c([H])c(F)c([H])c3[H])C([H])([H])c3c([H])c([H])c([H])c([H])c3C2([H])[H])noc1C(C([H])([H])[H])(C([H])([H])[H])C([H])([H])[H]


 32 35  0  0  0  0  0  0  0  0999 V2000
    0.9676   20.7997  -20.8081 C   0  0  0  0  0  0  0  0  0  0  0  0
    2.4537   21.0444  -20.7730 C   0  0  0  0  0  0  0  0  0  0  0  0
    2.8680   21.9155  -19.6502 C   0  0  0  0  0  0  0  0  0  0  0  0
    4.2336   22.0673  -19.3882 C   0  0  0  0  0  0  0  0  0  0  0  0
    4.7144   22.8568  -18.3717 C   0  0  0  0  0  0  0  0  0  0  0  0
    3.7931   23.5170  -17.5897 C   0  0  0  0  0  0  0  0  0  0  0  0
    2.4450   23.3865  -17.8238 C   0  0  0  0  0  0  0  0  0  0  0  0
    1.9768   22.5804  -18.8598 C   0  0  0  0  0  0  0  0  0  0  0  0
    0.5271   22.4589  -19.0511 C   0  0  0  0  0  0  0  0  0  0  0  0
    0.1971   21.9430  -20.3951 N   0  0  0  0  0  0  0  0  0  0  0  0
   -0.8325   22.6258  -21.0719 C   0  0  0  0  0  0  0  0  0  0  0  0
   -1.3118   23.6903  -20.4628 O   0  0  0  0  0  0  0  0  0  0  0  0
   -1.4682   22.3801  -22.3323 C   0  0  0  0  0  0  0  0  0  0  0  0
   -2.7178   21.8812  -22.5711 C   0  0  0  0  0  0  0  0  0  0  0  0
   -3.1990   21.5443  -23.8488 C   0  0  0  0  0  0  0  0  0  0  0  0
   -2.4037   21.7108  -24.9530 C   0  0  0  0  0  0  0  0  0  0  0  0
   -2.8594   21.3858  -26.1995 F   0  0  0  0  0  0  0  0  0  0  0  0
   -1.1460   22.2135  -24.7498 C   0  0  0  0  0  0  0  0  0  0  0  0
   -0.6801   22.5404  -23.5044 C   0  0  0  0  0  0  0  0  0  0  0  0
    1.5202   18.7447  -19.4552 N   0  0  0  0  0  0  0  0  0  0  0  0
    0.5935   19.6815  -19.9369 C   0  0  0  0  0  0  0  0  0  0  0  0
   -0.6318   19.5562  -19.5988 O   0  0  0  0  0  0  0  0  0  0  0  0
    2.5349   18.7617  -19.6606 H   0  0  0  0  0  0  0  0  0  0  0  0
    0.5643   16.3980  -16.8390 C   0  0  0  0  0  0  0  0  0  0  0  0
    1.0472   17.6413  -17.2362 C   0  0  0  0  0  0  0  0  0  0  0  0
    1.0719   17.6556  -18.6242 C   0  0  0  0  0  0  0  0  0  0  0  0
    0.6155   16.4476  -19.0016 N   0  0  0  0  0  0  0  0  0  0  0  0
    0.3285   15.7402  -17.9339 O   0  0  0  0  0  0  0  0  0  0  0  0
   -0.7409   16.7887  -14.8385 C   0  0  0  0  0  0  0  0  0  0  0  0
    0.3874   16.0054  -15.4077 C   0  0  0  0  0  0  0  0  0  0  0  0
    1.6710   16.3044  -14.6541 C   0  0  0  0  0  0  0  0  0  0  0  0
    0.1496   14.5049  -15.3401 C   0  0  0  0  0  0  0  0  0  0  0  0
 29 30  1  0  0  0
 30 31  1  0  0  0
 30 32  1  0  0  0
 30 24  1  0  0  0
 24 25  2  0  0  0
 25 26  1  0  0  0
 26 20  1  0  0  0
 20 21  1  0  0  0
 21 22  2  0  0  0
 21  1  1  0  0  0
  1  2  1  0  0  0
  2  3  1  0  0  0
  3  4  2  0  0  0
  4  5  1  0  0  0
  5  6  2  0  0  0
  6  7  1  0  0  0
  7  8  2  0  0  0
  8  9  1  0  0  0
  9 10  1  0  0  0
 10 11  1  0  0  0
 11 12  2  0  0  0
 11 13  1  0  0  0
 13 14  2  0  0  0
 14 15  1  0  0  0
 15 16  2  0  0  0
 16 17  1  0  0  0
 16 18  1  0  0  0
 18 19  2  0  0  0
 26 27  2  0  0  0
 27 28  1  0  0  0
 28 24  1  0  0  0
 10  1  1  0  0  0
 19 13  1  0  0  0
  8  3  1  0  0  0
 20 23  1  0  0  0
M  END
> <minimizedAffinity>
-5.98626

> <CNNscore>
0.2101909816

> <CNNaffinity>
5.4468889236

> <CNN_VS>
1.1448869705

> <CNNaffinity_variance>
0.3245303929

$$$$
[H]c1c(N([H])C(=O)[C@@]2([H])N(C(=O)c3c([H])c([H])c(F)c([H])c3[H])C([H])([H])c3c([H])c([H])c([H])c([H])c3C2([H])[H])noc1C(C([H])([H])[H])(C([H])([H])[H])C([H])([H])[H]


 32 35  0  0  0  0  0  0  0  0999 V2000
   -6.3767   24.4426  -20.1684 C   0  0  0  0  0  0  0  0  0  0  0  0
   -6.9747   25.8201  -20.0485 C   0  0  0  0  0  0  0  0  0  0  0  0
   -8.3102   25.9254  -20.6785 C   0  0  0  0  0  0  0  0  0  0  0  0
   -9.0575   27.0901  -20.4745 C   0  0  0  0  0  0  0  0  0  0  0  0
  -10.3037   27.2814  -21.0205 C   0  0  0  0  0  0  0  0  0  0  0  0
  -10.8191   26.2685  -21.7981 C   0  0  0  0  0  0  0  0  0  0  0  0
  -10.1074   25.1129  -22.0156 C   0  0  0  0  0  0  0  0  0  0  0  0
   -8.8447   24.9375  -21.4526 C   0  0  0  0  0  0  0  0  0  0  0  0
   -8.1384   23.6752  -21.6987 C   0  0  0  0  0  0  0  0  0  0  0  0
   -6.6941   23.7957  -21.4142 N   0  0  0  0  0  0  0  0  0  0  0  0
   -5.8356   23.2463  -22.3866 C   0  0  0  0  0  0  0  0  0  0  0  0
   -6.4209   22.7738  -23.4674 O   0  0  0  0  0  0  0  0  0  0  0  0
   -4.4101   23.1072  -22.4275 C   0  0  0  0  0  0  0  0  0  0  0  0
   -3.4996   23.8779  -23.0942 C   0  0  0  0  0  0  0  0  0  0  0  0
   -2.1295   23.5748  -23.1851 C   0  0  0  0  0  0  0  0  0  0  0  0
   -1.6290   22.4494  -22.5829 C   0  0  0  0  0  0  0  0  0  0  0  0
   -0.2998   22.1433  -22.6654 F   0  0  0  0  0  0  0  0  0  0  0  0
   -2.5140   21.6564  -21.9019 C   0  0  0  0  0  0  0  0  0  0  0  0
   -3.8478   21.9541  -21.8153 C   0  0  0  0  0  0  0  0  0  0  0  0
   -6.6786   22.1734  -19.1111 N   0  0  0  0  0  0  0  0  0  0  0  0
   -6.8420   23.5666  -19.0889 C   0  0  0  0  0  0  0  0  0  0  0  0
   -7.4201   24.0966  -18.0807 O   0  0  0  0  0  0  0  0  0  0  0  0
   -6.2164   21.6473  -19.8737 H   0  0  0  0  0  0  0  0  0  0  0  0
   -8.5397   20.1443  -16.7269 C   0  0  0  0  0  0  0  0  0  0  0  0
   -8.4560   20.8167  -17.9424 C   0  0  0  0  0  0  0  0  0  0  0  0
   -7.1875   21.3750  -18.0242 C   0  0  0  0  0  0  0  0  0  0  0  0
   -6.5704   21.0274  -16.8804 N   0  0  0  0  0  0  0  0  0  0  0  0
   -7.3890   20.3093  -16.1476 O   0  0  0  0  0  0  0  0  0  0  0  0
   -9.8341   19.4698  -14.7962 C   0  0  0  0  0  0  0  0  0  0  0  0
   -9.7602   19.4064  -16.2797 C   0  0  0  0  0  0  0  0  0  0  0  0
   -9.6591   17.9639  -16.7422 C   0  0  0  0  0  0  0  0  0  0  0  0
  -10.9764   20.0239  -16.9522 C   0  0  0  0  0  0  0  0  0  0  0  0
 29 30  1  0  0  0
 30 31  1  0  0  0
 30 32  1  0  0  0
 30 24  1  0  0  0
 24 25  2  0  0  0
 25 26  1  0  0  0
 26 20  1  0  0  0
 20 21  1  0  0  0
 21 22  2  0  0  0
 21  1  1  0  0  0
  1  2  1  0  0  0
  2  3  1  0  0  0
  3  4  2  0  0  0
  4  5  1  0  0  0
  5  6  2  0  0  0
  6  7  1  0  0  0
  7  8  2  0  0  0
  8  9  1  0  0  0
  9 10  1  0  0  0
 10 11  1  0  0  0
 11 12  2  0  0  0
 11 13  1  0  0  0
 13 14  2  0  0  0
 14 15  1  0  0  0
 15 16  2  0  0  0
 16 17  1  0  0  0
 16 18  1  0  0  0
 18 19  2  0  0  0
 26 27  2  0  0  0
 27 28  1  0  0  0
 28 24  1  0  0  0
 10  1  1  0  0  0
 19 13  1  0  0  0
  8  3  1  0  0  0
 20 23  1  0  0  0
M  END
> <minimizedAffinity>
-6.36912

> <CNNscore>
0.2101156414

> <CNNaffinity>
5.6228837967

> <CNN_VS>
1.1814558506

> <CNNaffinity_variance>
0.3532868028

$$$$
[H]c1c(N([H])C(=O)[C@@]2([H])N(C(=O)c3c([H])c([H])c(F)c([H])c3[H])C([H])([H])c3c([H])c([H])c([H])c([H])c3C2([H])[H])noc1C(C([H])([H])[H])(C([H])([H])[H])C([H])([H])[H]


 32 35  0  0  0  0  0  0  0  0999 V2000
    0.3786   20.8646  -20.9880 C   0  0  0  0  0  0  0  0  0  0  0  0
    1.8050   20.8550  -21.4725 C   0  0  0  0  0  0  0  0  0  0  0  0
    2.7636   21.3360  -20.4521 C   0  0  0  0  0  0  0  0  0  0  0  0
    4.1331   21.1990  -20.7016 C   0  0  0  0  0  0  0  0  0  0  0  0
    5.0975   21.6187  -19.8176 C   0  0  0  0  0  0  0  0  0  0  0  0
    4.6736   22.1955  -18.6413 C   0  0  0  0  0  0  0  0  0  0  0  0
    3.3344   22.3429  -18.3692 C   0  0  0  0  0  0  0  0  0  0  0  0
    2.3711   21.9104  -19.2786 C   0  0  0  0  0  0  0  0  0  0  0  0
    0.9555   22.0716  -18.9277 C   0  0  0  0  0  0  0  0  0  0  0  0
    0.0855   21.9723  -20.1171 N   0  0  0  0  0  0  0  0  0  0  0  0
   -0.9154   22.9581  -20.2215 C   0  0  0  0  0  0  0  0  0  0  0  0
   -0.8966   23.8949  -19.2964 O   0  0  0  0  0  0  0  0  0  0  0  0
   -1.9721   23.1438  -21.1712 C   0  0  0  0  0  0  0  0  0  0  0  0
   -1.9307   23.7937  -22.3726 C   0  0  0  0  0  0  0  0  0  0  0  0
   -3.0612   24.0434  -23.1708 C   0  0  0  0  0  0  0  0  0  0  0  0
   -4.3018   23.6269  -22.7619 C   0  0  0  0  0  0  0  0  0  0  0  0
   -5.4080   23.8649  -23.5280 F   0  0  0  0  0  0  0  0  0  0  0  0
   -4.3786   22.9678  -21.5639 C   0  0  0  0  0  0  0  0  0  0  0  0
   -3.2759   22.7262  -20.7886 C   0  0  0  0  0  0  0  0  0  0  0  0
    0.7414   18.4263  -20.4572 N   0  0  0  0  0  0  0  0  0  0  0  0
    0.0588   19.6354  -20.2559 C   0  0  0  0  0  0  0  0  0  0  0  0
   -0.8826   19.6675  -19.3932 O   0  0  0  0  0  0  0  0  0  0  0  0
    1.5237   18.2961  -21.1229 H   0  0  0  0  0  0  0  0  0  0  0  0
    0.2935   15.6029  -18.2005 C   0  0  0  0  0  0  0  0  0  0  0  0
    0.9727   16.7567  -18.5799 C   0  0  0  0  0  0  0  0  0  0  0  0
    0.3513   17.2517  -19.7184 C   0  0  0  0  0  0  0  0  0  0  0  0
   -0.6540   16.3959  -19.9768 N   0  0  0  0  0  0  0  0  0  0  0  0
   -0.6581   15.4465  -19.0705 O   0  0  0  0  0  0  0  0  0  0  0  0
    0.4833   13.3485  -17.3404 C   0  0  0  0  0  0  0  0  0  0  0  0
    0.6679   14.7854  -17.0065 C   0  0  0  0  0  0  0  0  0  0  0  0
   -0.2262   15.1764  -15.8435 C   0  0  0  0  0  0  0  0  0  0  0  0
    2.1011   15.1159  -16.6200 C   0  0  0  0  0  0  0  0  0  0  0  0
 29 30  1  0  0  0
 30 31  1  0  0  0
 30 32  1  0  0  0
 30 24  1  0  0  0
 24 25  2  0  0  0
 25 26  1  0  0  0
 26 20  1  0  0  0
 20 21  1  0  0  0
 21 22  2  0  0  0
 21  1  1  0  0  0
  1  2  1  0  0  0
  2  3  1  0  0  0
  3  4  2  0  0  0
  4  5  1  0  0  0
  5  6  2  0  0  0
  6  7  1  0  0  0
  7  8  2  0  0  0
  8  9  1  0  0  0
  9 10  1  0  0  0
 10 11  1  0  0  0
 11 12  2  0  0  0
 11 13  1  0  0  0
 13 14  2  0  0  0
 14 15  1  0  0  0
 15 16  2  0  0  0
 16 17  1  0  0  0
 16 18  1  0  0  0
 18 19  2  0  0  0
 26 27  2  0  0  0
 27 28  1  0  0  0
 28 24  1  0  0  0
 10  1  1  0  0  0
 19 13  1  0  0  0
  8  3  1  0  0  0
 20 23  1  0  0  0
M  END
> <minimizedAffinity>
-5.84914

> <CNNscore>
0.1970469356

> <CNNaffinity>
5.3852100372

> <CNN_VS>
1.0611391068

> <CNNaffinity_variance>
0.6660896540

$$$$
[H]N=C(N([H])[H])N([H])C([H])([H])C([H])([H])C([H])([H])C([H])([H])[C@@]([H])(C(=O)N([H])[C@]([H])(C(=O)O[H])C([H])([H])C(=O)O[H])N([H])C(=O)[C@@]([H])(N([H])C(=O)[C@@]([H])(N([H])C(=O)[C@@]([H])(N([H])C(=O)C([H])([H])[H])C([H])([H])O[H])C([H])(C([H])([H])[H])C([H])([H])[H])C([H])(C([H])([H])[H])C([H])([H])[H]


 56 55  0  0  0  0  0  0  0  0999 V2000
   -5.2859   24.5541  -22.6204 C   0  0  0  0  0  0  0  0  0  0  0  0
   -4.3329   24.9755  -21.8466 O   0  0  0  0  0  0  0  0  0  0  0  0
   -6.5581   24.7183  -22.1166 N   0  0  0  0  0  0  0  0  0  0  0  0
   -7.3456   24.2433  -22.6594 H   0  0  0  0  0  0  0  0  0  0  0  0
   -6.9576   25.4078  -20.9179 C   0  0  0  0  0  0  0  0  0  0  0  0
   -7.3168   24.5610  -19.7598 C   0  0  0  0  0  0  0  0  0  0  0  0
   -6.9664   24.9029  -18.6151 O   0  0  0  0  0  0  0  0  0  0  0  0
   -8.0562   23.3829  -19.9457 N   0  0  0  0  0  0  0  0  0  0  0  0
   -8.3422   23.0853  -20.9215 H   0  0  0  0  0  0  0  0  0  0  0  0
   -8.4576   22.4908  -18.8583 C   0  0  0  0  0  0  0  0  0  0  0  0
   -7.6136   21.2742  -18.9845 C   0  0  0  0  0  0  0  0  0  0  0  0
   -8.0760   20.0741  -19.4850 O   0  0  0  0  0  0  0  0  0  0  0  0
   -6.3986   21.2910  -18.6305 O   0  0  0  0  0  0  0  0  0  0  0  0
   -7.4764   19.5284  -20.1130 H   0  0  0  0  0  0  0  0  0  0  0  0
   -9.9184   22.1051  -19.1413 C   0  0  0  0  0  0  0  0  0  0  0  0
  -10.6510   21.6697  -17.9692 C   0  0  0  0  0  0  0  0  0  0  0  0
  -11.1737   20.4156  -17.7950 O   0  0  0  0  0  0  0  0  0  0  0  0
  -10.8507   22.4838  -17.0077 O   0  0  0  0  0  0  0  0  0  0  0  0
  -12.1995   20.3530  -17.5999 H   0  0  0  0  0  0  0  0  0  0  0  0
   -8.1952   26.1708  -21.3507 C   0  0  0  0  0  0  0  0  0  0  0  0
   -8.9883   25.7256  -22.5036 C   0  0  0  0  0  0  0  0  0  0  0  0
  -10.4517   25.7350  -21.9419 C   0  0  0  0  0  0  0  0  0  0  0  0
  -10.6231   26.6376  -20.7633 C   0  0  0  0  0  0  0  0  0  0  0  0
  -11.6915   27.5807  -21.1339 N   0  0  0  0  0  0  0  0  0  0  0  0
  -12.5791   27.1717  -21.4637 H   0  0  0  0  0  0  0  0  0  0  0  0
  -11.5498   28.9693  -21.0425 C   0  0  0  0  0  0  0  0  0  0  0  0
  -11.6447   29.6621  -19.8248 N   0  0  0  0  0  0  0  0  0  0  0  0
  -11.3165   29.6399  -22.1359 N   0  0  0  0  0  0  0  0  0  0  0  0
  -11.6110   30.7312  -19.8447 H   0  0  0  0  0  0  0  0  0  0  0  0
  -11.7397   29.2324  -18.9121 H   0  0  0  0  0  0  0  0  0  0  0  0
  -11.1994   30.6364  -22.1878 H   0  0  0  0  0  0  0  0  0  0  0  0
   -4.9157   23.9894  -23.8955 C   0  0  0  0  0  0  0  0  0  0  0  0
   -2.7586   22.5022  -23.9870 C   0  0  0  0  0  0  0  0  0  0  0  0
   -3.1239   21.4715  -23.3168 O   0  0  0  0  0  0  0  0  0  0  0  0
   -3.6099   23.5486  -24.1972 N   0  0  0  0  0  0  0  0  0  0  0  0
   -3.0655   24.4002  -24.7444 H   0  0  0  0  0  0  0  0  0  0  0  0
   -1.3464   22.4651  -24.4989 C   0  0  0  0  0  0  0  0  0  0  0  0
    0.4286   21.4981  -22.6444 C   0  0  0  0  0  0  0  0  0  0  0  0
    1.5825   21.0309  -22.9017 O   0  0  0  0  0  0  0  0  0  0  0  0
   -0.4401   21.9705  -23.5436 N   0  0  0  0  0  0  0  0  0  0  0  0
    0.4730   21.8632  -24.5253 H   0  0  0  0  0  0  0  0  0  0  0  0
    0.1911   21.4249  -21.1384 C   0  0  0  0  0  0  0  0  0  0  0  0
   -3.3039   22.5255  -19.9463 C   0  0  0  0  0  0  0  0  0  0  0  0
   -1.8589   22.5129  -20.2634 C   0  0  0  0  0  0  0  0  0  0  0  0
   -1.1901   23.5382  -20.0055 O   0  0  0  0  0  0  0  0  0  0  0  0
   -1.2087   21.3588  -20.8534 N   0  0  0  0  0  0  0  0  0  0  0  0
   -1.8304   20.5351  -21.0297 H   0  0  0  0  0  0  0  0  0  0  0  0
    0.7832   20.0548  -20.7776 C   0  0  0  0  0  0  0  0  0  0  0  0
   -0.1503   19.0963  -21.1160 O   0  0  0  0  0  0  0  0  0  0  0  0
   -0.1580   18.2705  -20.6050 H   0  0  0  0  0  0  0  0  0  0  0  0
   -1.0955   22.0282  -25.8873 C   0  0  0  0  0  0  0  0  0  0  0  0
   -2.0880   22.5849  -26.8994 C   0  0  0  0  0  0  0  0  0  0  0  0
    0.3108   22.3633  -26.3568 C   0  0  0  0  0  0  0  0  0  0  0  0
   -5.9975   23.2474  -24.6347 C   0  0  0  0  0  0  0  0  0  0  0  0
   -5.9943   23.4483  -26.1106 C   0  0  0  0  0  0  0  0  0  0  0  0
   -6.2467   21.8791  -24.1307 C   0  0  0  0  0  0  0  0  0  0  0  0
 43 44  1  0  0  0
 44 45  2  0  0  0
 44 46  1  0  0  0
 46 42  1  0  0  0
 42 48  1  0  0  0
 48 49  1  0  0  0
 42 38  1  0  0  0
 38 39  2  0  0  0
 38 40  1  0  0  0
 40 37  1  0  0  0
 37 51  1  0  0  0
 51 52  1  0  0  0
 51 53  1  0  0  0
 37 33  1  0  0  0
 33 34  2  0  0  0
 33 35  1  0  0  0
 35 32  1  0  0  0
 32 54  1  0  0  0
 54 55  1  0  0  0
 54 56  1  0  0  0
 32  1  1  0  0  0
  1  2  2  0  0  0
  1  3  1  0  0  0
  3  5  1  0  0  0
  5 20  1  0  0  0
 20 21  1  0  0  0
 21 22  1  0  0  0
 22 23  1  0  0  0
 23 24  1  0  0  0
 24 26  1  0  0  0
 26 27  1  0  0  0
 26 28  2  0  0  0
  5  6  1  0  0  0
  6  7  2  0  0  0
  6  8  1  0  0  0
  8 10  1  0  0  0
 10 15  1  0  0  0
 15 16  1  0  0  0
 16 17  1  0  0  0
 16 18  2  0  0  0
 10 11  1  0  0  0
 11 12  1  0  0  0
 11 13  2  0  0  0
 46 47  1  0  0  0
 49 50  1  0  0  0
 40 41  1  0  0  0
 35 36  1  0  0  0
  3  4  1  0  0  0
 24 25  1  0  0  0
 27 29  1  0  0  0
 27 30  1  0  0  0
 28 31  1  0  0  0
  8  9  1  0  0  0
 17 19  1  0  0  0
 12 14  1  0  0  0
M  END
> <minimizedAffinity>
-7.38912

> <CNNscore>
0.2679380774

> <CNNaffinity>
5.8505573273

> <CNN_VS>
1.5675871372

> <CNNaffinity_variance>
1.1028915644

$$$$
[H]N=C(N([H])[H])N([H])C([H])([H])C([H])([H])C([H])([H])C([H])([H])[C@@]([H])(C(=O)N([H])[C@]([H])(C(=O)O[H])C([H])([H])C(=O)O[H])N([H])C(=O)[C@@]([H])(N([H])C(=O)[C@@]([H])(N([H])C(=O)[C@@]([H])(N([H])C(=O)C([H])([H])[H])C([H])([H])O[H])C([H])(C([H])([H])[H])C([H])([H])[H])C([H])(C([H])([H])[H])C([H])([H])[H]


 56 55  0  0  0  0  0  0  0  0999 V2000
   -3.9972   21.4618  -22.8253 C   0  0  0  0  0  0  0  0  0  0  0  0
   -5.0307   21.2121  -23.5698 O   0  0  0  0  0  0  0  0  0  0  0  0
   -4.2661   21.5763  -21.4785 N   0  0  0  0  0  0  0  0  0  0  0  0
   -3.4667   21.9322  -20.8663 H   0  0  0  0  0  0  0  0  0  0  0  0
   -5.5080   21.3259  -20.7953 C   0  0  0  0  0  0  0  0  0  0  0  0
   -6.7046   22.0092  -21.3326 C   0  0  0  0  0  0  0  0  0  0  0  0
   -7.7410   21.3548  -21.5509 O   0  0  0  0  0  0  0  0  0  0  0  0
   -6.6780   23.3888  -21.5874 N   0  0  0  0  0  0  0  0  0  0  0  0
   -5.7914   23.9426  -21.4145 H   0  0  0  0  0  0  0  0  0  0  0  0
   -7.8150   24.1440  -22.1133 C   0  0  0  0  0  0  0  0  0  0  0  0
   -7.3861   24.6780  -23.4322 C   0  0  0  0  0  0  0  0  0  0  0  0
   -7.7060   25.9423  -23.8834 O   0  0  0  0  0  0  0  0  0  0  0  0
   -6.6858   23.9745  -24.2175 O   0  0  0  0  0  0  0  0  0  0  0  0
   -6.9955   26.4935  -24.3764 H   0  0  0  0  0  0  0  0  0  0  0  0
   -8.0236   25.3245  -21.1512 C   0  0  0  0  0  0  0  0  0  0  0  0
   -6.9866   25.4579  -20.1479 C   0  0  0  0  0  0  0  0  0  0  0  0
   -5.7401   25.9781  -20.3761 O   0  0  0  0  0  0  0  0  0  0  0  0
   -7.2069   25.0704  -18.9527 O   0  0  0  0  0  0  0  0  0  0  0  0
   -4.9225   25.3712  -20.1364 H   0  0  0  0  0  0  0  0  0  0  0  0
   -5.2485   21.8518  -19.3963 C   0  0  0  0  0  0  0  0  0  0  0  0
   -5.5408   21.0275  -18.2168 C   0  0  0  0  0  0  0  0  0  0  0  0
   -4.6893   19.7372  -18.4762 C   0  0  0  0  0  0  0  0  0  0  0  0
   -3.3246   19.8021  -17.8710 C   0  0  0  0  0  0  0  0  0  0  0  0
   -2.3842   19.8013  -19.0042 N   0  0  0  0  0  0  0  0  0  0  0  0
   -2.4604   19.0183  -19.6712 H   0  0  0  0  0  0  0  0  0  0  0  0
   -1.4305   20.8046  -19.2055 C   0  0  0  0  0  0  0  0  0  0  0  0
   -0.0714   20.5256  -19.4217 N   0  0  0  0  0  0  0  0  0  0  0  0
   -1.8280   22.0462  -19.1945 N   0  0  0  0  0  0  0  0  0  0  0  0
    0.6123   21.3463  -19.4821 H   0  0  0  0  0  0  0  0  0  0  0  0
    0.3265   19.6002  -19.5317 H   0  0  0  0  0  0  0  0  0  0  0  0
   -1.2318   22.8441  -19.3263 H   0  0  0  0  0  0  0  0  0  0  0  0
   -2.7133   21.5732  -23.4740 C   0  0  0  0  0  0  0  0  0  0  0  0
   -2.7436   22.6137  -25.8802 C   0  0  0  0  0  0  0  0  0  0  0  0
   -3.1842   23.7955  -25.6476 O   0  0  0  0  0  0  0  0  0  0  0  0
   -2.5605   21.7144  -24.8694 N   0  0  0  0  0  0  0  0  0  0  0  0
   -2.2415   20.6961  -25.2963 H   0  0  0  0  0  0  0  0  0  0  0  0
   -2.4636   22.3078  -27.3243 C   0  0  0  0  0  0  0  0  0  0  0  0
   -4.5374   23.0101  -28.9768 C   0  0  0  0  0  0  0  0  0  0  0  0
   -4.9238   22.3542  -29.9949 O   0  0  0  0  0  0  0  0  0  0  0  0
   -3.5281   22.6728  -28.1684 N   0  0  0  0  0  0  0  0  0  0  0  0
   -3.3830   21.4912  -28.7943 H   0  0  0  0  0  0  0  0  0  0  0  0
   -5.4103   24.2537  -28.8306 C   0  0  0  0  0  0  0  0  0  0  0  0
   -5.0907   26.8475  -25.9992 C   0  0  0  0  0  0  0  0  0  0  0  0
   -5.6417   25.8723  -26.9656 C   0  0  0  0  0  0  0  0  0  0  0  0
   -6.8712   25.6431  -26.9353 O   0  0  0  0  0  0  0  0  0  0  0  0
   -4.8058   25.1890  -27.9336 N   0  0  0  0  0  0  0  0  0  0  0  0
   -3.7899   25.4409  -27.9060 H   0  0  0  0  0  0  0  0  0  0  0  0
   -5.3385   24.8736  -30.2337 C   0  0  0  0  0  0  0  0  0  0  0  0
   -6.4438   25.6857  -30.3865 O   0  0  0  0  0  0  0  0  0  0  0  0
   -6.7939   25.8110  -31.2837 H   0  0  0  0  0  0  0  0  0  0  0  0
   -1.1148   22.5688  -27.8667 C   0  0  0  0  0  0  0  0  0  0  0  0
   -1.0743   23.6673  -28.9207 C   0  0  0  0  0  0  0  0  0  0  0  0
   -0.1068   22.9060  -26.7801 C   0  0  0  0  0  0  0  0  0  0  0  0
   -1.6147   22.2171  -22.6704 C   0  0  0  0  0  0  0  0  0  0  0  0
   -0.2471   21.7025  -22.9597 C   0  0  0  0  0  0  0  0  0  0  0  0
   -1.7725   23.6767  -22.4890 C   0  0  0  0  0  0  0  0  0  0  0  0
 43 44  1  0  0  0
 44 45  2  0  0  0
 44 46  1  0  0  0
 46 42  1  0  0  0
 42 48  1  0  0  0
 48 49  1  0  0  0
 42 38  1  0  0  0
 38 39  2  0  0  0
 38 40  1  0  0  0
 40 37  1  0  0  0
 37 51  1  0  0  0
 51 52  1  0  0  0
 51 53  1  0  0  0
 37 33  1  0  0  0
 33 34  2  0  0  0
 33 35  1  0  0  0
 35 32  1  0  0  0
 32 54  1  0  0  0
 54 55  1  0  0  0
 54 56  1  0  0  0
 32  1  1  0  0  0
  1  2  2  0  0  0
  1  3  1  0  0  0
  3  5  1  0  0  0
  5 20  1  0  0  0
 20 21  1  0  0  0
 21 22  1  0  0  0
 22 23  1  0  0  0
 23 24  1  0  0  0
 24 26  1  0  0  0
 26 27  1  0  0  0
 26 28  2  0  0  0
  5  6  1  0  0  0
  6  7  2  0  0  0
  6  8  1  0  0  0
  8 10  1  0  0  0
 10 15  1  0  0  0
 15 16  1  0  0  0
 16 17  1  0  0  0
 16 18  2  0  0  0
 10 11  1  0  0  0
 11 12  1  0  0  0
 11 13  2  0  0  0
 46 47  1  0  0  0
 49 50  1  0  0  0
 40 41  1  0  0  0
 35 36  1  0  0  0
  3  4  1  0  0  0
 24 25  1  0  0  0
 27 29  1  0  0  0
 27 30  1  0  0  0
 28 31  1  0  0  0
  8  9  1  0  0  0
 17 19  1  0  0  0
 12 14  1  0  0  0
M  END
> <minimizedAffinity>
-7.18193

> <CNNscore>
0.1341122985

> <CNNaffinity>
6.2932443619

> <CNN_VS>
0.8440014720

> <CNNaffinity_variance>
0.5263772011

$$$$
[H]N=C(N([H])[H])N([H])C([H])([H])C([H])([H])C([H])([H])C([H])([H])[C@@]([H])(C(=O)N([H])[C@]([H])(C(=O)O[H])C([H])([H])C(=O)O[H])N([H])C(=O)[C@@]([H])(N([H])C(=O)[C@@]([H])(N([H])C(=O)[C@@]([H])(N([H])C(=O)C([H])([H])[H])C([H])([H])O[H])C([H])(C([H])([H])[H])C([H])([H])[H])C([H])(C([H])([H])[H])C([H])([H])[H]


 56 55  0  0  0  0  0  0  0  0999 V2000
   -3.8941   23.4285  -22.1086 C   0  0  0  0  0  0  0  0  0  0  0  0
   -3.9034   24.6224  -21.5994 O   0  0  0  0  0  0  0  0  0  0  0  0
   -3.3624   22.4535  -21.2924 N   0  0  0  0  0  0  0  0  0  0  0  0
   -3.2013   21.4983  -21.7417 H   0  0  0  0  0  0  0  0  0  0  0  0
   -2.9463   22.5727  -19.9197 C   0  0  0  0  0  0  0  0  0  0  0  0
   -1.7573   21.7883  -19.5216 C   0  0  0  0  0  0  0  0  0  0  0  0
   -1.3556   21.8343  -18.3440 O   0  0  0  0  0  0  0  0  0  0  0  0
   -1.0892   20.9884  -20.4611 N   0  0  0  0  0  0  0  0  0  0  0  0
   -1.4232   20.9604  -21.4662 H   0  0  0  0  0  0  0  0  0  0  0  0
    0.0891   20.1784  -20.1529 C   0  0  0  0  0  0  0  0  0  0  0  0
    1.2692   21.0005  -20.5271 C   0  0  0  0  0  0  0  0  0  0  0  0
    1.8333   20.9956  -21.7866 O   0  0  0  0  0  0  0  0  0  0  0  0
    1.8194   21.7642  -19.6809 O   0  0  0  0  0  0  0  0  0  0  0  0
    2.1439   21.8811  -22.2003 H   0  0  0  0  0  0  0  0  0  0  0  0
    0.0246   18.9600  -21.0879 C   0  0  0  0  0  0  0  0  0  0  0  0
    0.2973   17.6975  -20.4308 C   0  0  0  0  0  0  0  0  0  0  0  0
    0.1289   16.4650  -21.0044 O   0  0  0  0  0  0  0  0  0  0  0  0
    0.7223   17.6874  -19.2281 O   0  0  0  0  0  0  0  0  0  0  0  0
   -0.4969   15.7917  -20.5050 H   0  0  0  0  0  0  0  0  0  0  0  0
   -4.1417   22.0494  -19.1463 C   0  0  0  0  0  0  0  0  0  0  0  0
   -4.7761   20.7769  -19.5129 C   0  0  0  0  0  0  0  0  0  0  0  0
   -4.9652   20.0717  -18.1258 C   0  0  0  0  0  0  0  0  0  0  0  0
   -5.9901   20.7350  -17.2641 C   0  0  0  0  0  0  0  0  0  0  0  0
   -7.1158   19.7893  -17.1816 N   0  0  0  0  0  0  0  0  0  0  0  0
   -7.2814   19.3420  -16.2671 H   0  0  0  0  0  0  0  0  0  0  0  0
   -7.9497   19.4984  -18.2664 C   0  0  0  0  0  0  0  0  0  0  0  0
   -8.7282   20.4757  -18.9072 N   0  0  0  0  0  0  0  0  0  0  0  0
   -7.9975   18.2686  -18.6966 N   0  0  0  0  0  0  0  0  0  0  0  0
   -9.4059   20.1631  -19.6737 H   0  0  0  0  0  0  0  0  0  0  0  0
   -8.7021   21.4688  -18.7080 H   0  0  0  0  0  0  0  0  0  0  0  0
   -8.5604   17.9473  -19.4642 H   0  0  0  0  0  0  0  0  0  0  0  0
   -4.4420   23.2586  -23.4325 C   0  0  0  0  0  0  0  0  0  0  0  0
   -2.5345   22.3042  -24.9569 C   0  0  0  0  0  0  0  0  0  0  0  0
   -1.8642   21.5965  -24.1234 O   0  0  0  0  0  0  0  0  0  0  0  0
   -3.6509   22.9875  -24.5687 N   0  0  0  0  0  0  0  0  0  0  0  0
   -4.0523   23.6207  -25.4399 H   0  0  0  0  0  0  0  0  0  0  0  0
   -1.9939   22.3251  -26.3586 C   0  0  0  0  0  0  0  0  0  0  0  0
   -3.8522   23.1549  -28.1978 C   0  0  0  0  0  0  0  0  0  0  0  0
   -4.0066   22.6675  -29.3617 O   0  0  0  0  0  0  0  0  0  0  0  0
   -2.9489   22.7547  -27.2979 N   0  0  0  0  0  0  0  0  0  0  0  0
   -2.5858   21.7214  -28.0786 H   0  0  0  0  0  0  0  0  0  0  0  0
   -4.8634   24.2804  -27.9961 C   0  0  0  0  0  0  0  0  0  0  0  0
   -4.7145   27.1184  -25.3940 C   0  0  0  0  0  0  0  0  0  0  0  0
   -5.2051   26.0503  -26.2924 C   0  0  0  0  0  0  0  0  0  0  0  0
   -6.4302   25.7971  -26.2926 O   0  0  0  0  0  0  0  0  0  0  0  0
   -4.3156   25.3039  -27.1610 N   0  0  0  0  0  0  0  0  0  0  0  0
   -3.3068   25.5800  -27.1139 H   0  0  0  0  0  0  0  0  0  0  0  0
   -4.9815   24.8742  -29.4073 C   0  0  0  0  0  0  0  0  0  0  0  0
   -6.2971   24.7452  -29.8038 O   0  0  0  0  0  0  0  0  0  0  0  0
   -6.4779   24.6592  -30.7541 H   0  0  0  0  0  0  0  0  0  0  0  0
   -0.6197   22.8133  -26.5926 C   0  0  0  0  0  0  0  0  0  0  0  0
    0.4610   21.9404  -25.9684 C   0  0  0  0  0  0  0  0  0  0  0  0
   -0.3074   22.9839  -28.0704 C   0  0  0  0  0  0  0  0  0  0  0  0
   -5.8359   22.6944  -23.5091 C   0  0  0  0  0  0  0  0  0  0  0  0
   -6.7755   23.2119  -22.4757 C   0  0  0  0  0  0  0  0  0  0  0  0
   -6.3517   22.5391  -24.8868 C   0  0  0  0  0  0  0  0  0  0  0  0
 43 44  1  0  0  0
 44 45  2  0  0  0
 44 46  1  0  0  0
 46 42  1  0  0  0
 42 48  1  0  0  0
 48 49  1  0  0  0
 42 38  1  0  0  0
 38 39  2  0  0  0
 38 40  1  0  0  0
 40 37  1  0  0  0
 37 51  1  0  0  0
 51 52  1  0  0  0
 51 53  1  0  0  0
 37 33  1  0  0  0
 33 34  2  0  0  0
 33 35  1  0  0  0
 35 32  1  0  0  0
 32 54  1  0  0  0
 54 55  1  0  0  0
 54 56  1  0  0  0
 32  1  1  0  0  0
  1  2  2  0  0  0
  1  3  1  0  0  0
  3  5  1  0  0  0
  5 20  1  0  0  0
 20 21  1  0  0  0
 21 22  1  0  0  0
 22 23  1  0  0  0
 23 24  1  0  0  0
 24 26  1  0  0  0
 26 27  1  0  0  0
 26 28  2  0  0  0
  5  6  1  0  0  0
  6  7  2  0  0  0
  6  8  1  0  0  0
  8 10  1  0  0  0
 10 15  1  0  0  0
 15 16  1  0  0  0
 16 17  1  0  0  0
 16 18  2  0  0  0
 10 11  1  0  0  0
 11 12  1  0  0  0
 11 13  2  0  0  0
 46 47  1  0  0  0
 49 50  1  0  0  0
 40 41  1  0  0  0
 35 36  1  0  0  0
  3  4  1  0  0  0
 24 25  1  0  0  0
 27 29  1  0  0  0
 27 30  1  0  0  0
 28 31  1  0  0  0
  8  9  1  0  0  0
 17 19  1  0  0  0
 12 14  1  0  0  0
M  END
> <minimizedAffinity>
-6.55194

> <CNNscore>
0.1032224745

> <CNNaffinity>
6.2098808289

> <CNN_VS>
0.6409992576

> <CNNaffinity_variance>
0.3936280608

$$$$
[H]N=C(N([H])[H])N([H])C([H])([H])C([H])([H])C([H])([H])C([H])([H])[C@@]([H])(C(=O)N([H])[C@]([H])(C(=O)O[H])C([H])([H])C(=O)O[H])N([H])C(=O)[C@@]([H])(N([H])C(=O)[C@@]([H])(N([H])C(=O)[C@@]([H])(N([H])C(=O)C([H])([H])[H])C([H])([H])O[H])C([H])(C([H])([H])[H])C([H])([H])[H])C([H])(C([H])([H])[H])C([H])([H])[H]


 56 55  0  0  0  0  0  0  0  0999 V2000
   -3.6060   23.8426  -22.9547 C   0  0  0  0  0  0  0  0  0  0  0  0
   -3.8246   24.4649  -21.8368 O   0  0  0  0  0  0  0  0  0  0  0  0
   -4.3576   24.2851  -24.0218 N   0  0  0  0  0  0  0  0  0  0  0  0
   -4.3112   23.6931  -24.9094 H   0  0  0  0  0  0  0  0  0  0  0  0
   -5.2419   25.4195  -24.0770 C   0  0  0  0  0  0  0  0  0  0  0  0
   -6.6252   25.1998  -23.6021 C   0  0  0  0  0  0  0  0  0  0  0  0
   -7.5388   25.0214  -24.4289 O   0  0  0  0  0  0  0  0  0  0  0  0
   -6.9081   25.1828  -22.2278 N   0  0  0  0  0  0  0  0  0  0  0  0
   -6.1326   25.3485  -21.5250 H   0  0  0  0  0  0  0  0  0  0  0  0
   -8.2438   24.9681  -21.6718 C   0  0  0  0  0  0  0  0  0  0  0  0
   -8.9550   26.2684  -21.7825 C   0  0  0  0  0  0  0  0  0  0  0  0
   -9.7916   26.5929  -22.8309 O   0  0  0  0  0  0  0  0  0  0  0  0
   -8.8205   27.1565  -20.8908 O   0  0  0  0  0  0  0  0  0  0  0  0
  -10.6668   27.0915  -22.6382 H   0  0  0  0  0  0  0  0  0  0  0  0
   -8.0387   24.6473  -20.1826 C   0  0  0  0  0  0  0  0  0  0  0  0
   -6.6488   24.6020  -19.7752 C   0  0  0  0  0  0  0  0  0  0  0  0
   -5.8107   23.5364  -19.9717 O   0  0  0  0  0  0  0  0  0  0  0  0
   -6.1286   25.6047  -19.1826 O   0  0  0  0  0  0  0  0  0  0  0  0
   -5.3474   23.1355  -19.1238 H   0  0  0  0  0  0  0  0  0  0  0  0
   -5.2942   25.7491  -25.5568 C   0  0  0  0  0  0  0  0  0  0  0  0
   -4.8021   24.7940  -26.5578 C   0  0  0  0  0  0  0  0  0  0  0  0
   -4.8139   25.6389  -27.8781 C   0  0  0  0  0  0  0  0  0  0  0  0
   -4.1012   24.9715  -29.0093 C   0  0  0  0  0  0  0  0  0  0  0  0
   -4.3273   25.8282  -30.1854 N   0  0  0  0  0  0  0  0  0  0  0  0
   -3.5517   26.4477  -30.4656 H   0  0  0  0  0  0  0  0  0  0  0  0
   -5.5180   25.8184  -30.9195 C   0  0  0  0  0  0  0  0  0  0  0  0
   -6.1693   26.9953  -31.3225 N   0  0  0  0  0  0  0  0  0  0  0  0
   -6.0357   24.6661  -31.2419 N   0  0  0  0  0  0  0  0  0  0  0  0
   -7.1197   26.9097  -31.8064 H   0  0  0  0  0  0  0  0  0  0  0  0
   -5.8116   27.9350  -31.1978 H   0  0  0  0  0  0  0  0  0  0  0  0
   -6.8849   24.5408  -31.7640 H   0  0  0  0  0  0  0  0  0  0  0  0
   -2.6145   22.7945  -22.9573 C   0  0  0  0  0  0  0  0  0  0  0  0
   -1.4072   22.5904  -20.6391 C   0  0  0  0  0  0  0  0  0  0  0  0
   -1.1144   23.8138  -20.3891 O   0  0  0  0  0  0  0  0  0  0  0  0
   -2.0712   22.2398  -21.7794 N   0  0  0  0  0  0  0  0  0  0  0  0
   -2.1609   21.0963  -21.8515 H   0  0  0  0  0  0  0  0  0  0  0  0
   -0.9591   21.6003  -19.6016 C   0  0  0  0  0  0  0  0  0  0  0  0
    1.6455   21.9918  -18.8354 C   0  0  0  0  0  0  0  0  0  0  0  0
    2.0534   22.9011  -18.0462 O   0  0  0  0  0  0  0  0  0  0  0  0
    0.3782   21.7964  -19.2120 N   0  0  0  0  0  0  0  0  0  0  0  0
   -0.0541   22.7288  -18.3445 H   0  0  0  0  0  0  0  0  0  0  0  0
    2.8421   21.1612  -19.2916 C   0  0  0  0  0  0  0  0  0  0  0  0
    3.0179   20.7621  -23.1200 C   0  0  0  0  0  0  0  0  0  0  0  0
    2.7309   20.5295  -21.6874 C   0  0  0  0  0  0  0  0  0  0  0  0
    2.0953   19.4987  -21.3737 O   0  0  0  0  0  0  0  0  0  0  0  0
    3.1640   21.4505  -20.6545 N   0  0  0  0  0  0  0  0  0  0  0  0
    3.7002   22.2838  -20.9926 H   0  0  0  0  0  0  0  0  0  0  0  0
    3.9833   21.7293  -18.4353 C   0  0  0  0  0  0  0  0  0  0  0  0
    4.5993   22.7223  -19.1695 O   0  0  0  0  0  0  0  0  0  0  0  0
    5.5417   22.8895  -19.0050 H   0  0  0  0  0  0  0  0  0  0  0  0
   -1.8837   21.2343  -18.5095 C   0  0  0  0  0  0  0  0  0  0  0  0
   -3.3234   21.0285  -18.9614 C   0  0  0  0  0  0  0  0  0  0  0  0
   -1.4324   19.9927  -17.7577 C   0  0  0  0  0  0  0  0  0  0  0  0
   -2.6598   21.8377  -24.1192 C   0  0  0  0  0  0  0  0  0  0  0  0
   -3.9499   21.1104  -24.2778 C   0  0  0  0  0  0  0  0  0  0  0  0
   -2.0031   22.3419  -25.3451 C   0  0  0  0  0  0  0  0  0  0  0  0
 43 44  1  0  0  0
 44 45  2  0  0  0
 44 46  1  0  0  0
 46 42  1  0  0  0
 42 48  1  0  0  0
 48 49  1  0  0  0
 42 38  1  0  0  0
 38 39  2  0  0  0
 38 40  1  0  0  0
 40 37  1  0  0  0
 37 51  1  0  0  0
 51 52  1  0  0  0
 51 53  1  0  0  0
 37 33  1  0  0  0
 33 34  2  0  0  0
 33 35  1  0  0  0
 35 32  1  0  0  0
 32 54  1  0  0  0
 54 55  1  0  0  0
 54 56  1  0  0  0
 32  1  1  0  0  0
  1  2  2  0  0  0
  1  3  1  0  0  0
  3  5  1  0  0  0
  5 20  1  0  0  0
 20 21  1  0  0  0
 21 22  1  0  0  0
 22 23  1  0  0  0
 23 24  1  0  0  0
 24 26  1  0  0  0
 26 27  1  0  0  0
 26 28  2  0  0  0
  5  6  1  0  0  0
  6  7  2  0  0  0
  6  8  1  0  0  0
  8 10  1  0  0  0
 10 15  1  0  0  0
 15 16  1  0  0  0
 16 17  1  0  0  0
 16 18  2  0  0  0
 10 11  1  0  0  0
 11 12  1  0  0  0
 11 13  2  0  0  0
 46 47  1  0  0  0
 49 50  1  0  0  0
 40 41  1  0  0  0
 35 36  1  0  0  0
  3  4  1  0  0  0
 24 25  1  0  0  0
 27 29  1  0  0  0
 27 30  1  0  0  0
 28 31  1  0  0  0
  8  9  1  0  0  0
 17 19  1  0  0  0
 12 14  1  0  0  0
M  END
> <minimizedAffinity>
-6.97611

> <CNNscore>
0.0990397930

> <CNNaffinity>
6.2611980438

> <CNN_VS>
0.6201077700

> <CNNaffinity_variance>
0.4890331626

$$$$
[H]N=C(N([H])[H])N([H])C([H])([H])C([H])([H])C([H])([H])C([H])([H])[C@@]([H])(C(=O)N([H])[C@]([H])(C(=O)O[H])C([H])([H])C(=O)O[H])N([H])C(=O)[C@@]([H])(N([H])C(=O)[C@@]([H])(N([H])C(=O)[C@@]([H])(N([H])C(=O)C([H])([H])[H])C([H])([H])O[H])C([H])(C([H])([H])[H])C([H])([H])[H])C([H])(C([H])([H])[H])C([H])([H])[H]


 56 55  0  0  0  0  0  0  0  0999 V2000
   -2.7089   23.6353  -23.1354 C   0  0  0  0  0  0  0  0  0  0  0  0
   -2.8568   24.8829  -22.8093 O   0  0  0  0  0  0  0  0  0  0  0  0
   -3.8482   23.0195  -23.6067 N   0  0  0  0  0  0  0  0  0  0  0  0
   -3.7938   21.9607  -23.7348 H   0  0  0  0  0  0  0  0  0  0  0  0
   -5.1247   23.6162  -23.9005 C   0  0  0  0  0  0  0  0  0  0  0  0
   -6.1601   23.5070  -22.8500 C   0  0  0  0  0  0  0  0  0  0  0  0
   -6.3452   22.4161  -22.2793 O   0  0  0  0  0  0  0  0  0  0  0  0
   -6.9248   24.6271  -22.4898 N   0  0  0  0  0  0  0  0  0  0  0  0
   -6.7763   25.5517  -22.9854 H   0  0  0  0  0  0  0  0  0  0  0  0
   -7.9639   24.6094  -21.4606 C   0  0  0  0  0  0  0  0  0  0  0  0
   -9.1459   25.2905  -22.0503 C   0  0  0  0  0  0  0  0  0  0  0  0
   -9.0561   26.2835  -23.0044 O   0  0  0  0  0  0  0  0  0  0  0  0
  -10.3184   24.9754  -21.6928 O   0  0  0  0  0  0  0  0  0  0  0  0
   -9.7199   26.2892  -23.7862 H   0  0  0  0  0  0  0  0  0  0  0  0
   -7.4309   25.4683  -20.3025 C   0  0  0  0  0  0  0  0  0  0  0  0
   -6.5422   24.7599  -19.4035 C   0  0  0  0  0  0  0  0  0  0  0  0
   -5.3639   24.1679  -19.7743 O   0  0  0  0  0  0  0  0  0  0  0  0
   -6.8436   24.6517  -18.1687 O   0  0  0  0  0  0  0  0  0  0  0  0
   -5.2579   23.1493  -19.5611 H   0  0  0  0  0  0  0  0  0  0  0  0
   -5.5988   22.8440  -25.1170 C   0  0  0  0  0  0  0  0  0  0  0  0
   -4.9467   23.0204  -26.4209 C   0  0  0  0  0  0  0  0  0  0  0  0
   -5.6400   24.3087  -26.9836 C   0  0  0  0  0  0  0  0  0  0  0  0
   -4.7160   25.4792  -27.0796 C   0  0  0  0  0  0  0  0  0  0  0  0
   -5.4267   26.6028  -26.4466 N   0  0  0  0  0  0  0  0  0  0  0  0
   -6.0538   27.1559  -27.0505 H   0  0  0  0  0  0  0  0  0  0  0  0
   -5.2930   26.9247  -25.0918 C   0  0  0  0  0  0  0  0  0  0  0  0
   -4.0496   27.1872  -24.4946 N   0  0  0  0  0  0  0  0  0  0  0  0
   -6.3715   26.9852  -24.3618 N   0  0  0  0  0  0  0  0  0  0  0  0
   -4.0169   27.3419  -23.4365 H   0  0  0  0  0  0  0  0  0  0  0  0
   -3.1652   27.2486  -24.9852 H   0  0  0  0  0  0  0  0  0  0  0  0
   -6.3932   27.2049  -23.3817 H   0  0  0  0  0  0  0  0  0  0  0  0
   -1.3973   23.0530  -22.9860 C   0  0  0  0  0  0  0  0  0  0  0  0
   -0.7858   22.7077  -20.4601 C   0  0  0  0  0  0  0  0  0  0  0  0
   -1.1271   23.8351  -19.9528 O   0  0  0  0  0  0  0  0  0  0  0  0
   -0.9488   22.4516  -21.7912 N   0  0  0  0  0  0  0  0  0  0  0  0
   -0.5067   21.4241  -22.0553 H   0  0  0  0  0  0  0  0  0  0  0  0
   -0.1963   21.7221  -19.4912 C   0  0  0  0  0  0  0  0  0  0  0  0
    2.5359   21.5667  -19.6801 C   0  0  0  0  0  0  0  0  0  0  0  0
    3.1816   20.6758  -20.3167 O   0  0  0  0  0  0  0  0  0  0  0  0
    1.2053   21.6474  -19.5847 N   0  0  0  0  0  0  0  0  0  0  0  0
    1.0519   20.6466  -20.4701 H   0  0  0  0  0  0  0  0  0  0  0  0
    3.5291   22.5285  -19.0333 C   0  0  0  0  0  0  0  0  0  0  0  0
    3.2628   23.6305  -15.3506 C   0  0  0  0  0  0  0  0  0  0  0  0
    3.3415   23.6477  -16.8279 C   0  0  0  0  0  0  0  0  0  0  0  0
    3.3003   24.7557  -17.4072 O   0  0  0  0  0  0  0  0  0  0  0  0
    3.4663   22.4317  -17.6079 N   0  0  0  0  0  0  0  0  0  0  0  0
    3.5059   21.5448  -17.0529 H   0  0  0  0  0  0  0  0  0  0  0  0
    4.8823   21.9407  -19.4593 C   0  0  0  0  0  0  0  0  0  0  0  0
    5.3616   21.1924  -18.4033 O   0  0  0  0  0  0  0  0  0  0  0  0
    6.3243   21.1083  -18.3073 H   0  0  0  0  0  0  0  0  0  0  0  0
   -0.7384   21.6497  -18.1192 C   0  0  0  0  0  0  0  0  0  0  0  0
   -2.1078   20.9892  -18.0299 C   0  0  0  0  0  0  0  0  0  0  0  0
    0.2025   20.9399  -17.1593 C   0  0  0  0  0  0  0  0  0  0  0  0
   -0.7799   22.4737  -24.2312 C   0  0  0  0  0  0  0  0  0  0  0  0
    0.5578   21.8496  -24.0314 C   0  0  0  0  0  0  0  0  0  0  0  0
   -1.7383   21.7710  -25.1121 C   0  0  0  0  0  0  0  0  0  0  0  0
 43 44  1  0  0  0
 44 45  2  0  0  0
 44 46  1  0  0  0
 46 42  1  0  0  0
 42 48  1  0  0  0
 48 49  1  0  0  0
 42 38  1  0  0  0
 38 39  2  0  0  0
 38 40  1  0  0  0
 40 37  1  0  0  0
 37 51  1  0  0  0
 51 52  1  0  0  0
 51 53  1  0  0  0
 37 33  1  0  0  0
 33 34  2  0  0  0
 33 35  1  0  0  0
 35 32  1  0  0  0
 32 54  1  0  0  0
 54 55  1  0  0  0
 54 56  1  0  0  0
 32  1  1  0  0  0
  1  2  2  0  0  0
  1  3  1  0  0  0
  3  5  1  0  0  0
  5 20  1  0  0  0
 20 21  1  0  0  0
 21 22  1  0  0  0
 22 23  1  0  0  0
 23 24  1  0  0  0
 24 26  1  0  0  0
 26 27  1  0  0  0
 26 28  2  0  0  0
  5  6  1  0  0  0
  6  7  2  0  0  0
  6  8  1  0  0  0
  8 10  1  0  0  0
 10 15  1  0  0  0
 15 16  1  0  0  0
 16 17  1  0  0  0
 16 18  2  0  0  0
 10 11  1  0  0  0
 11 12  1  0  0  0
 11 13  2  0  0  0
 46 47  1  0  0  0
 49 50  1  0  0  0
 40 41  1  0  0  0
 35 36  1  0  0  0
  3  4  1  0  0  0
 24 25  1  0  0  0
 27 29  1  0  0  0
 27 30  1  0  0  0
 28 31  1  0  0  0
  8  9  1  0  0  0
 17 19  1  0  0  0
 12 14  1  0  0  0
M  END
> <minimizedAffinity>
-7.14023

> <CNNscore>
0.0969588980

> <CNNaffinity>
5.8406910896

> <CNN_VS>
0.5663069487

> <CNNaffinity_variance>
0.5307037234

$$$$
[H]N=C(N([H])[H])N([H])C([H])([H])C([H])([H])C([H])([H])C([H])([H])[C@@]([H])(C(=O)N([H])[C@]([H])(C(=O)O[H])C([H])([H])C(=O)O[H])N([H])C(=O)[C@@]([H])(N([H])C(=O)[C@@]([H])(N([H])C(=O)[C@@]([H])(N([H])C(=O)C([H])([H])[H])C([H])([H])O[H])C([H])(C([H])([H])[H])C([H])([H])[H])C([H])(C([H])([H])[H])C([H])([H])[H]


 56 55  0  0  0  0  0  0  0  0999 V2000
   -2.9551   22.0367  -24.1085 C   0  0  0  0  0  0  0  0  0  0  0  0
   -2.6476   20.8838  -23.5978 O   0  0  0  0  0  0  0  0  0  0  0  0
   -3.4817   22.9451  -23.2157 N   0  0  0  0  0  0  0  0  0  0  0  0
   -3.8844   23.8405  -23.6359 H   0  0  0  0  0  0  0  0  0  0  0  0
   -3.6059   22.8184  -21.7873 C   0  0  0  0  0  0  0  0  0  0  0  0
   -4.6928   23.5925  -21.1496 C   0  0  0  0  0  0  0  0  0  0  0  0
   -4.7975   24.8115  -21.3804 O   0  0  0  0  0  0  0  0  0  0  0  0
   -5.6082   22.9579  -20.2961 N   0  0  0  0  0  0  0  0  0  0  0  0
   -5.5103   21.9234  -20.0892 H   0  0  0  0  0  0  0  0  0  0  0  0
   -6.7136   23.6448  -19.6287 C   0  0  0  0  0  0  0  0  0  0  0  0
   -6.4659   23.5125  -18.1693 C   0  0  0  0  0  0  0  0  0  0  0  0
   -6.0597   22.3384  -17.5684 O   0  0  0  0  0  0  0  0  0  0  0  0
   -6.6188   24.5023  -17.3955 O   0  0  0  0  0  0  0  0  0  0  0  0
   -5.3491   22.3730  -16.8298 H   0  0  0  0  0  0  0  0  0  0  0  0
   -7.9829   22.8538  -19.9837 C   0  0  0  0  0  0  0  0  0  0  0  0
   -7.7231   21.5576  -20.5773 C   0  0  0  0  0  0  0  0  0  0  0  0
   -7.7818   21.2859  -21.9187 O   0  0  0  0  0  0  0  0  0  0  0  0
   -7.4188   20.5683  -19.8319 O   0  0  0  0  0  0  0  0  0  0  0  0
   -8.4247   20.5171  -22.2185 H   0  0  0  0  0  0  0  0  0  0  0  0
   -2.2806   23.3482  -21.2738 C   0  0  0  0  0  0  0  0  0  0  0  0
   -1.3354   22.4642  -20.5797 C   0  0  0  0  0  0  0  0  0  0  0  0
   -1.4781   22.9105  -19.0839 C   0  0  0  0  0  0  0  0  0  0  0  0
   -1.7643   21.7744  -18.1563 C   0  0  0  0  0  0  0  0  0  0  0  0
   -3.1518   21.3690  -18.4369 N   0  0  0  0  0  0  0  0  0  0  0  0
   -3.8195   22.1217  -18.6636 H   0  0  0  0  0  0  0  0  0  0  0  0
   -3.5762   20.0361  -18.4197 C   0  0  0  0  0  0  0  0  0  0  0  0
   -2.6853   18.9560  -18.5254 N   0  0  0  0  0  0  0  0  0  0  0  0
   -4.8515   19.7953  -18.2965 N   0  0  0  0  0  0  0  0  0  0  0  0
   -3.0905   17.9680  -18.5912 H   0  0  0  0  0  0  0  0  0  0  0  0
   -1.6748   19.0292  -18.5411 H   0  0  0  0  0  0  0  0  0  0  0  0
   -5.2665   18.8805  -18.2739 H   0  0  0  0  0  0  0  0  0  0  0  0
   -2.7030   22.2372  -25.5148 C   0  0  0  0  0  0  0  0  0  0  0  0
   -3.8896   22.9417  -27.7439 C   0  0  0  0  0  0  0  0  0  0  0  0
   -3.0124   22.6151  -28.6207 O   0  0  0  0  0  0  0  0  0  0  0  0
   -3.6728   22.7311  -26.4125 N   0  0  0  0  0  0  0  0  0  0  0  0
   -4.5387   23.1670  -25.7950 H   0  0  0  0  0  0  0  0  0  0  0  0
   -5.1396   23.5697  -28.2923 C   0  0  0  0  0  0  0  0  0  0  0  0
   -6.8677   24.3848  -26.3240 C   0  0  0  0  0  0  0  0  0  0  0  0
   -8.1296   24.4806  -26.4438 O   0  0  0  0  0  0  0  0  0  0  0  0
   -6.0212   23.9883  -27.2792 N   0  0  0  0  0  0  0  0  0  0  0  0
   -7.0432   23.6660  -28.0919 H   0  0  0  0  0  0  0  0  0  0  0  0
   -6.4729   24.8048  -24.9107 C   0  0  0  0  0  0  0  0  0  0  0  0
   -3.8860   27.6599  -24.9741 C   0  0  0  0  0  0  0  0  0  0  0  0
   -4.5081   26.3176  -24.9631 C   0  0  0  0  0  0  0  0  0  0  0  0
   -3.7553   25.3190  -24.9978 O   0  0  0  0  0  0  0  0  0  0  0  0
   -5.9455   26.1341  -24.9107 N   0  0  0  0  0  0  0  0  0  0  0  0
   -6.5092   27.0155  -24.8720 H   0  0  0  0  0  0  0  0  0  0  0  0
   -7.8295   24.8650  -24.1937 C   0  0  0  0  0  0  0  0  0  0  0  0
   -8.0459   26.1766  -23.8229 O   0  0  0  0  0  0  0  0  0  0  0  0
   -8.5885   26.3413  -23.0344 H   0  0  0  0  0  0  0  0  0  0  0  0
   -5.0391   24.4789  -29.4519 C   0  0  0  0  0  0  0  0  0  0  0  0
   -5.7792   23.9872  -30.6888 C   0  0  0  0  0  0  0  0  0  0  0  0
   -5.5181   25.8853  -29.1309 C   0  0  0  0  0  0  0  0  0  0  0  0
   -1.2869   22.5796  -25.8955 C   0  0  0  0  0  0  0  0  0  0  0  0
   -0.4010   22.9295  -24.7503 C   0  0  0  0  0  0  0  0  0  0  0  0
   -0.7220   21.7231  -26.9611 C   0  0  0  0  0  0  0  0  0  0  0  0
 43 44  1  0  0  0
 44 45  2  0  0  0
 44 46  1  0  0  0
 46 42  1  0  0  0
 42 48  1  0  0  0
 48 49  1  0  0  0
 42 38  1  0  0  0
 38 39  2  0  0  0
 38 40  1  0  0  0
 40 37  1  0  0  0
 37 51  1  0  0  0
 51 52  1  0  0  0
 51 53  1  0  0  0
 37 33  1  0  0  0
 33 34  2  0  0  0
 33 35  1  0  0  0
 35 32  1  0  0  0
 32 54  1  0  0  0
 54 55  1  0  0  0
 54 56  1  0  0  0
 32  1  1  0  0  0
  1  2  2  0  0  0
  1  3  1  0  0  0
  3  5  1  0  0  0
  5 20  1  0  0  0
 20 21  1  0  0  0
 21 22  1  0  0  0
 22 23  1  0  0  0
 23 24  1  0  0  0
 24 26  1  0  0  0
 26 27  1  0  0  0
 26 28  2  0  0  0
  5  6  1  0  0  0
  6  7  2  0  0  0
  6  8  1  0  0  0
  8 10  1  0  0  0
 10 15  1  0  0  0
 15 16  1  0  0  0
 16 17  1  0  0  0
 16 18  2  0  0  0
 10 11  1  0  0  0
 11 12  1  0  0  0
 11 13  2  0  0  0
 46 47  1  0  0  0
 49 50  1  0  0  0
 40 41  1  0  0  0
 35 36  1  0  0  0
  3  4  1  0  0  0
 24 25  1  0  0  0
 27 29  1  0  0  0
 27 30  1  0  0  0
 28 31  1  0  0  0
  8  9  1  0  0  0
 17 19  1  0  0  0
 12 14  1  0  0  0
M  END
> <minimizedAffinity>
-6.62503

> <CNNscore>
0.0906293914

> <CNNaffinity>
6.2785248756

> <CNN_VS>
0.5690189004

> <CNNaffinity_variance>
0.5917340517

$$$$
[H]N=C(N([H])[H])N([H])C([H])([H])C([H])([H])C([H])([H])C([H])([H])[C@@]([H])(C(=O)N([H])[C@]([H])(C(=O)O[H])C([H])([H])C(=O)O[H])N([H])C(=O)[C@@]([H])(N([H])C(=O)[C@@]([H])(N([H])C(=O)[C@@]([H])(N([H])C(=O)C([H])([H])[H])C([H])([H])O[H])C([H])(C([H])([H])[H])C([H])([H])[H])C([H])(C([H])([H])[H])C([H])([H])[H]


 56 55  0  0  0  0  0  0  0  0999 V2000
   -2.6912   23.3263  -22.4180 C   0  0  0  0  0  0  0  0  0  0  0  0
   -1.6484   24.0846  -22.2698 O   0  0  0  0  0  0  0  0  0  0  0  0
   -2.9111   22.4344  -21.3906 N   0  0  0  0  0  0  0  0  0  0  0  0
   -3.6663   21.6982  -21.5582 H   0  0  0  0  0  0  0  0  0  0  0  0
   -2.2142   22.3350  -20.1350 C   0  0  0  0  0  0  0  0  0  0  0  0
   -1.0902   21.3754  -20.0800 C   0  0  0  0  0  0  0  0  0  0  0  0
   -1.1502   20.4007  -19.3076 O   0  0  0  0  0  0  0  0  0  0  0  0
    0.0350   21.5544  -20.8991 N   0  0  0  0  0  0  0  0  0  0  0  0
    0.0916   22.3916  -21.5461 H   0  0  0  0  0  0  0  0  0  0  0  0
    1.1870   20.6532  -20.9123 C   0  0  0  0  0  0  0  0  0  0  0  0
    1.9676   20.9571  -19.6847 C   0  0  0  0  0  0  0  0  0  0  0  0
    1.9383   20.1734  -18.5492 O   0  0  0  0  0  0  0  0  0  0  0  0
    2.7162   21.9762  -19.6306 O   0  0  0  0  0  0  0  0  0  0  0  0
    2.8110   19.9930  -18.0418 H   0  0  0  0  0  0  0  0  0  0  0  0
    2.0256   21.0521  -22.1373 C   0  0  0  0  0  0  0  0  0  0  0  0
    3.2640   20.3114  -22.2705 C   0  0  0  0  0  0  0  0  0  0  0  0
    4.4559   20.6715  -21.6994 O   0  0  0  0  0  0  0  0  0  0  0  0
    3.2918   19.2424  -22.9659 O   0  0  0  0  0  0  0  0  0  0  0  0
    5.2721   20.7917  -22.3426 H   0  0  0  0  0  0  0  0  0  0  0  0
   -3.2900   21.8623  -19.1757 C   0  0  0  0  0  0  0  0  0  0  0  0
   -4.4799   21.1568  -19.6685 C   0  0  0  0  0  0  0  0  0  0  0  0
   -5.4438   21.1983  -18.4331 C   0  0  0  0  0  0  0  0  0  0  0  0
   -4.9312   22.0482  -17.3160 C   0  0  0  0  0  0  0  0  0  0  0  0
   -5.9343   23.1098  -17.1285 N   0  0  0  0  0  0  0  0  0  0  0  0
   -6.8948   22.8079  -16.9047 H   0  0  0  0  0  0  0  0  0  0  0  0
   -5.6319   24.4720  -17.2276 C   0  0  0  0  0  0  0  0  0  0  0  0
   -4.9155   25.1631  -16.2373 N   0  0  0  0  0  0  0  0  0  0  0  0
   -6.0316   25.1181  -18.2871 N   0  0  0  0  0  0  0  0  0  0  0  0
   -4.7966   26.2212  -16.3415 H   0  0  0  0  0  0  0  0  0  0  0  0
   -4.4897   24.7413  -15.4203 H   0  0  0  0  0  0  0  0  0  0  0  0
   -5.8722   26.0946  -18.4618 H   0  0  0  0  0  0  0  0  0  0  0  0
   -3.4913   23.5088  -23.6047 C   0  0  0  0  0  0  0  0  0  0  0  0
   -2.2035   22.2797  -25.5293 C   0  0  0  0  0  0  0  0  0  0  0  0
   -1.4750   21.4551  -24.8704 O   0  0  0  0  0  0  0  0  0  0  0  0
   -3.0609   23.1314  -24.8941 N   0  0  0  0  0  0  0  0  0  0  0  0
   -3.5542   23.8387  -25.6541 H   0  0  0  0  0  0  0  0  0  0  0  0
   -2.0293   22.2368  -27.0211 C   0  0  0  0  0  0  0  0  0  0  0  0
   -4.1631   23.3128  -28.3678 C   0  0  0  0  0  0  0  0  0  0  0  0
   -4.6289   22.8877  -29.4716 O   0  0  0  0  0  0  0  0  0  0  0  0
   -3.1241   22.7927  -27.7074 N   0  0  0  0  0  0  0  0  0  0  0  0
   -3.0578   21.7598  -28.5663 H   0  0  0  0  0  0  0  0  0  0  0  0
   -4.9797   24.5225  -27.9208 C   0  0  0  0  0  0  0  0  0  0  0  0
   -4.1653   27.0582  -25.1362 C   0  0  0  0  0  0  0  0  0  0  0  0
   -4.8937   26.1743  -26.0726 C   0  0  0  0  0  0  0  0  0  0  0  0
   -6.1424   26.1442  -26.0037 O   0  0  0  0  0  0  0  0  0  0  0  0
   -4.2070   25.3577  -27.0546 N   0  0  0  0  0  0  0  0  0  0  0  0
   -3.1636   25.4448  -27.0598 H   0  0  0  0  0  0  0  0  0  0  0  0
   -5.1675   25.2967  -29.2335 C   0  0  0  0  0  0  0  0  0  0  0  0
   -6.5138   25.2808  -29.5367 O   0  0  0  0  0  0  0  0  0  0  0  0
   -6.7683   25.3255  -30.4728 H   0  0  0  0  0  0  0  0  0  0  0  0
   -0.7052   22.5419  -27.6000 C   0  0  0  0  0  0  0  0  0  0  0  0
   -0.7574   23.4671  -28.8087 C   0  0  0  0  0  0  0  0  0  0  0  0
    0.2523   23.1356  -26.5796 C   0  0  0  0  0  0  0  0  0  0  0  0
   -4.9842   23.4504  -23.4170 C   0  0  0  0  0  0  0  0  0  0  0  0
   -5.5704   24.6255  -22.7140 C   0  0  0  0  0  0  0  0  0  0  0  0
   -5.7206   22.9121  -24.5816 C   0  0  0  0  0  0  0  0  0  0  0  0
 43 44  1  0  0  0
 44 45  2  0  0  0
 44 46  1  0  0  0
 46 42  1  0  0  0
 42 48  1  0  0  0
 48 49  1  0  0  0
 42 38  1  0  0  0
 38 39  2  0  0  0
 38 40  1  0  0  0
 40 37  1  0  0  0
 37 51  1  0  0  0
 51 52  1  0  0  0
 51 53  1  0  0  0
 37 33  1  0  0  0
 33 34  2  0  0  0
 33 35  1  0  0  0
 35 32  1  0  0  0
 32 54  1  0  0  0
 54 55  1  0  0  0
 54 56  1  0  0  0
 32  1  1  0  0  0
  1  2  2  0  0  0
  1  3  1  0  0  0
  3  5  1  0  0  0
  5 20  1  0  0  0
 20 21  1  0  0  0
 21 22  1  0  0  0
 22 23  1  0  0  0
 23 24  1  0  0  0
 24 26  1  0  0  0
 26 27  1  0  0  0
 26 28  2  0  0  0
  5  6  1  0  0  0
  6  7  2  0  0  0
  6  8  1  0  0  0
  8 10  1  0  0  0
 10 15  1  0  0  0
 15 16  1  0  0  0
 16 17  1  0  0  0
 16 18  2  0  0  0
 10 11  1  0  0  0
 11 12  1  0  0  0
 11 13  2  0  0  0
 46 47  1  0  0  0
 49 50  1  0  0  0
 40 41  1  0  0  0
 35 36  1  0  0  0
  3  4  1  0  0  0
 24 25  1  0  0  0
 27 29  1  0  0  0
 27 30  1  0  0  0
 28 31  1  0  0  0
  8  9  1  0  0  0
 17 19  1  0  0  0
 12 14  1  0  0  0
M  END
> <minimizedAffinity>
-6.85444

> <CNNscore>
0.0902552456

> <CNNaffinity>
6.0249304771

> <CNN_VS>
0.5437815785

> <CNNaffinity_variance>
0.5110499859

$$$$
[H]N=C(N([H])[H])N([H])C([H])([H])C([H])([H])C([H])([H])C([H])([H])[C@@]([H])(C(=O)N([H])[C@]([H])(C(=O)O[H])C([H])([H])C(=O)O[H])N([H])C(=O)[C@@]([H])(N([H])C(=O)[C@@]([H])(N([H])C(=O)[C@@]([H])(N([H])C(=O)C([H])([H])[H])C([H])([H])O[H])C([H])(C([H])([H])[H])C([H])([H])[H])C([H])(C([H])([H])[H])C([H])([H])[H]


 56 55  0  0  0  0  0  0  0  0999 V2000
   -3.3672   22.4489  -21.3029 C   0  0  0  0  0  0  0  0  0  0  0  0
   -3.3935   23.7458  -21.2585 O   0  0  0  0  0  0  0  0  0  0  0  0
   -3.7116   21.9027  -22.5205 N   0  0  0  0  0  0  0  0  0  0  0  0
   -3.8478   20.8437  -22.5411 H   0  0  0  0  0  0  0  0  0  0  0  0
   -3.9631   22.5858  -23.7623 C   0  0  0  0  0  0  0  0  0  0  0  0
   -5.3423   23.0745  -23.9773 C   0  0  0  0  0  0  0  0  0  0  0  0
   -6.0168   22.6191  -24.9196 O   0  0  0  0  0  0  0  0  0  0  0  0
   -5.8938   24.0393  -23.1205 N   0  0  0  0  0  0  0  0  0  0  0  0
   -5.3146   24.4366  -22.3272 H   0  0  0  0  0  0  0  0  0  0  0  0
   -7.2484   24.5737  -23.2572 C   0  0  0  0  0  0  0  0  0  0  0  0
   -7.2136   25.5060  -24.4140 C   0  0  0  0  0  0  0  0  0  0  0  0
   -7.7479   25.2067  -25.6507 O   0  0  0  0  0  0  0  0  0  0  0  0
   -6.6792   26.6484  -24.3075 O   0  0  0  0  0  0  0  0  0  0  0  0
   -8.2631   25.9305  -26.1629 H   0  0  0  0  0  0  0  0  0  0  0  0
   -7.5161   25.3871  -21.9806 C   0  0  0  0  0  0  0  0  0  0  0  0
   -6.5848   25.1174  -20.9036 C   0  0  0  0  0  0  0  0  0  0  0  0
   -5.4695   25.8638  -20.6290 O   0  0  0  0  0  0  0  0  0  0  0  0
   -6.7775   24.1187  -20.1338 O   0  0  0  0  0  0  0  0  0  0  0  0
   -4.5538   25.3583  -20.6119 H   0  0  0  0  0  0  0  0  0  0  0  0
   -3.6650   21.5285  -24.8083 C   0  0  0  0  0  0  0  0  0  0  0  0
   -2.5408   21.6879  -25.7396 C   0  0  0  0  0  0  0  0  0  0  0  0
   -2.8851   23.0304  -26.4718 C   0  0  0  0  0  0  0  0  0  0  0  0
   -3.1874   22.8472  -27.9237 C   0  0  0  0  0  0  0  0  0  0  0  0
   -3.8905   24.0712  -28.3433 N   0  0  0  0  0  0  0  0  0  0  0  0
   -3.5183   24.5606  -29.1714 H   0  0  0  0  0  0  0  0  0  0  0  0
   -5.0196   24.5674  -27.6834 C   0  0  0  0  0  0  0  0  0  0  0  0
   -5.0101   25.7773  -26.9709 N   0  0  0  0  0  0  0  0  0  0  0  0
   -6.1226   23.8746  -27.7400 N   0  0  0  0  0  0  0  0  0  0  0  0
   -5.8863   26.0497  -26.4207 H   0  0  0  0  0  0  0  0  0  0  0  0
   -4.2354   26.4293  -26.9338 H   0  0  0  0  0  0  0  0  0  0  0  0
   -6.9898   24.1338  -27.3039 H   0  0  0  0  0  0  0  0  0  0  0  0
   -2.9753   21.7437  -20.1068 C   0  0  0  0  0  0  0  0  0  0  0  0
   -0.5996   22.5512  -19.3472 C   0  0  0  0  0  0  0  0  0  0  0  0
   -0.6846   23.8181  -19.5283 O   0  0  0  0  0  0  0  0  0  0  0  0
   -1.6522   21.7249  -19.6175 N   0  0  0  0  0  0  0  0  0  0  0  0
   -1.3446   20.6275  -19.4682 H   0  0  0  0  0  0  0  0  0  0  0  0
    0.7269   22.0656  -18.8353 C   0  0  0  0  0  0  0  0  0  0  0  0
    2.4215   21.2972  -20.8509 C   0  0  0  0  0  0  0  0  0  0  0  0
    3.6516   21.6059  -20.9381 O   0  0  0  0  0  0  0  0  0  0  0  0
    1.5915   21.6685  -19.8715 N   0  0  0  0  0  0  0  0  0  0  0  0
    2.6074   22.2102  -19.1761 H   0  0  0  0  0  0  0  0  0  0  0  0
    2.0421   20.4375  -22.0537 C   0  0  0  0  0  0  0  0  0  0  0  0
    0.4776   22.5957  -24.8361 C   0  0  0  0  0  0  0  0  0  0  0  0
    0.6540   21.7537  -23.6325 C   0  0  0  0  0  0  0  0  0  0  0  0
   -0.3581   21.4845  -22.9482 O   0  0  0  0  0  0  0  0  0  0  0  0
    1.9498   21.2387  -23.2346 N   0  0  0  0  0  0  0  0  0  0  0  0
    2.7470   21.4964  -23.8625 H   0  0  0  0  0  0  0  0  0  0  0  0
    3.2773   19.5406  -22.2206 C   0  0  0  0  0  0  0  0  0  0  0  0
    4.0933   20.1285  -23.1657 O   0  0  0  0  0  0  0  0  0  0  0  0
    4.6616   19.5483  -23.6981 H   0  0  0  0  0  0  0  0  0  0  0  0
    1.3740   22.7838  -17.7187 C   0  0  0  0  0  0  0  0  0  0  0  0
    1.8385   21.8768  -16.5869 C   0  0  0  0  0  0  0  0  0  0  0  0
    2.5535   23.6267  -18.1758 C   0  0  0  0  0  0  0  0  0  0  0  0
   -4.0253   21.6150  -19.0351 C   0  0  0  0  0  0  0  0  0  0  0  0
   -4.4472   20.2172  -18.7405 C   0  0  0  0  0  0  0  0  0  0  0  0
   -3.8349   22.5289  -17.8876 C   0  0  0  0  0  0  0  0  0  0  0  0
 43 44  1  0  0  0
 44 45  2  0  0  0
 44 46  1  0  0  0
 46 42  1  0  0  0
 42 48  1  0  0  0
 48 49  1  0  0  0
 42 38  1  0  0  0
 38 39  2  0  0  0
 38 40  1  0  0  0
 40 37  1  0  0  0
 37 51  1  0  0  0
 51 52  1  0  0  0
 51 53  1  0  0  0
 37 33  1  0  0  0
 33 34  2  0  0  0
 33 35  1  0  0  0
 35 32  1  0  0  0
 32 54  1  0  0  0
 54 55  1  0  0  0
 54 56  1  0  0  0
 32  1  1  0  0  0
  1  2  2  0  0  0
  1  3  1  0  0  0
  3  5  1  0  0  0
  5 20  1  0  0  0
 20 21  1  0  0  0
 21 22  1  0  0  0
 22 23  1  0  0  0
 23 24  1  0  0  0
 24 26  1  0  0  0
 26 27  1  0  0  0
 26 28  2  0  0  0
  5  6  1  0  0  0
  6  7  2  0  0  0
  6  8  1  0  0  0
  8 10  1  0  0  0
 10 15  1  0  0  0
 15 16  1  0  0  0
 16 17  1  0  0  0
 16 18  2  0  0  0
 10 11  1  0  0  0
 11 12  1  0  0  0
 11 13  2  0  0  0
 46 47  1  0  0  0
 49 50  1  0  0  0
 40 41  1  0  0  0
 35 36  1  0  0  0
  3  4  1  0  0  0
 24 25  1  0  0  0
 27 29  1  0  0  0
 27 30  1  0  0  0
 28 31  1  0  0  0
  8  9  1  0  0  0
 17 19  1  0  0  0
 12 14  1  0  0  0
M  END
> <minimizedAffinity>
-7.08830

> <CNNscore>
0.0847929642

> <CNNaffinity>
5.9089822769

> <CNN_VS>
0.5010401011

> <CNNaffinity_variance>
0.9529082179

$$$$
[H]N=C(N([H])[H])N([H])C([H])([H])C([H])([H])C([H])([H])C([H])([H])[C@@]([H])(C(=O)N([H])[C@]([H])(C(=O)O[H])C([H])([H])C(=O)O[H])N([H])C(=O)[C@@]([H])(N([H])C(=O)[C@@]([H])(N([H])C(=O)[C@@]([H])(N([H])C(=O)C([H])([H])[H])C([H])([H])O[H])C([H])(C([H])([H])[H])C([H])([H])[H])C([H])(C([H])([H])[H])C([H])([H])[H]


 56 55  0  0  0  0  0  0  0  0999 V2000
   -4.0823   21.4664  -22.6992 C   0  0  0  0  0  0  0  0  0  0  0  0
   -5.1050   21.4157  -23.4968 O   0  0  0  0  0  0  0  0  0  0  0  0
   -4.3904   21.4208  -21.3566 N   0  0  0  0  0  0  0  0  0  0  0  0
   -3.5866   21.6157  -20.6811 H   0  0  0  0  0  0  0  0  0  0  0  0
   -5.6742   21.1943  -20.7462 C   0  0  0  0  0  0  0  0  0  0  0  0
   -6.8093   21.9685  -21.2934 C   0  0  0  0  0  0  0  0  0  0  0  0
   -7.8666   21.3830  -21.5921 O   0  0  0  0  0  0  0  0  0  0  0  0
   -6.7016   23.3568  -21.4675 N   0  0  0  0  0  0  0  0  0  0  0  0
   -5.7968   23.8525  -21.2261 H   0  0  0  0  0  0  0  0  0  0  0  0
   -7.7741   24.1988  -21.9966 C   0  0  0  0  0  0  0  0  0  0  0  0
   -7.2467   24.8100  -23.2445 C   0  0  0  0  0  0  0  0  0  0  0  0
   -6.4262   24.1439  -24.1318 O   0  0  0  0  0  0  0  0  0  0  0  0
   -7.5405   26.0013  -23.5549 O   0  0  0  0  0  0  0  0  0  0  0  0
   -6.5771   24.2613  -25.1394 H   0  0  0  0  0  0  0  0  0  0  0  0
   -7.9919   25.3126  -20.9598 C   0  0  0  0  0  0  0  0  0  0  0  0
   -6.9271   25.4255  -19.9834 C   0  0  0  0  0  0  0  0  0  0  0  0
   -5.6979   25.9786  -20.2273 O   0  0  0  0  0  0  0  0  0  0  0  0
   -7.1037   24.9860  -18.7990 O   0  0  0  0  0  0  0  0  0  0  0  0
   -4.8624   25.3785  -20.0372 H   0  0  0  0  0  0  0  0  0  0  0  0
   -5.4564   21.6226  -19.3074 C   0  0  0  0  0  0  0  0  0  0  0  0
   -6.4429   21.2989  -18.2689 C   0  0  0  0  0  0  0  0  0  0  0  0
   -6.4874   19.7325  -18.3095 C   0  0  0  0  0  0  0  0  0  0  0  0
   -5.2765   19.0944  -17.7098 C   0  0  0  0  0  0  0  0  0  0  0  0
   -5.5798   17.6555  -17.6322 N   0  0  0  0  0  0  0  0  0  0  0  0
   -6.0113   17.3176  -16.7584 H   0  0  0  0  0  0  0  0  0  0  0  0
   -5.3219   16.7634  -18.6783 C   0  0  0  0  0  0  0  0  0  0  0  0
   -6.3375   16.0437  -19.3281 N   0  0  0  0  0  0  0  0  0  0  0  0
   -4.0864   16.6019  -19.0623 N   0  0  0  0  0  0  0  0  0  0  0  0
   -6.0558   15.3165  -20.0605 H   0  0  0  0  0  0  0  0  0  0  0  0
   -7.3312   16.1563  -19.1656 H   0  0  0  0  0  0  0  0  0  0  0  0
   -3.7867   15.9884  -19.7993 H   0  0  0  0  0  0  0  0  0  0  0  0
   -2.7702   21.5472  -23.2937 C   0  0  0  0  0  0  0  0  0  0  0  0
   -2.8533   22.7234  -25.6352 C   0  0  0  0  0  0  0  0  0  0  0  0
   -3.5465   23.7709  -25.3763 O   0  0  0  0  0  0  0  0  0  0  0  0
   -2.5554   21.8129  -24.6625 N   0  0  0  0  0  0  0  0  0  0  0  0
   -2.0018   20.9135  -25.1160 H   0  0  0  0  0  0  0  0  0  0  0  0
   -2.4174   22.5820  -27.0662 C   0  0  0  0  0  0  0  0  0  0  0  0
   -4.4327   23.1304  -28.8446 C   0  0  0  0  0  0  0  0  0  0  0  0
   -4.7613   22.4031  -29.8341 O   0  0  0  0  0  0  0  0  0  0  0  0
   -3.4521   22.8682  -27.9752 N   0  0  0  0  0  0  0  0  0  0  0  0
   -3.2557   21.6535  -28.5182 H   0  0  0  0  0  0  0  0  0  0  0  0
   -5.3368   24.3598  -28.8141 C   0  0  0  0  0  0  0  0  0  0  0  0
   -5.1885   26.9506  -25.9657 C   0  0  0  0  0  0  0  0  0  0  0  0
   -5.6668   25.9244  -26.9180 C   0  0  0  0  0  0  0  0  0  0  0  0
   -6.8574   25.5502  -26.8322 O   0  0  0  0  0  0  0  0  0  0  0  0
   -4.8041   25.3533  -27.9341 N   0  0  0  0  0  0  0  0  0  0  0  0
   -3.8252   25.7240  -27.9515 H   0  0  0  0  0  0  0  0  0  0  0  0
   -5.1952   24.9086  -30.2413 C   0  0  0  0  0  0  0  0  0  0  0  0
   -6.4074   24.7315  -30.8769 O   0  0  0  0  0  0  0  0  0  0  0  0
   -6.4008   24.6126  -31.8408 H   0  0  0  0  0  0  0  0  0  0  0  0
   -1.0809   23.0697  -27.4628 C   0  0  0  0  0  0  0  0  0  0  0  0
    0.0619   22.1594  -27.0329 C   0  0  0  0  0  0  0  0  0  0  0  0
   -0.9700   23.3082  -28.9600 C   0  0  0  0  0  0  0  0  0  0  0  0
   -1.6607   22.0279  -22.3962 C   0  0  0  0  0  0  0  0  0  0  0  0
   -0.3536   21.3433  -22.5997 C   0  0  0  0  0  0  0  0  0  0  0  0
   -1.6413   23.4923  -22.1880 C   0  0  0  0  0  0  0  0  0  0  0  0
 43 44  1  0  0  0
 44 45  2  0  0  0
 44 46  1  0  0  0
 46 42  1  0  0  0
 42 48  1  0  0  0
 48 49  1  0  0  0
 42 38  1  0  0  0
 38 39  2  0  0  0
 38 40  1  0  0  0
 40 37  1  0  0  0
 37 51  1  0  0  0
 51 52  1  0  0  0
 51 53  1  0  0  0
 37 33  1  0  0  0
 33 34  2  0  0  0
 33 35  1  0  0  0
 35 32  1  0  0  0
 32 54  1  0  0  0
 54 55  1  0  0  0
 54 56  1  0  0  0
 32  1  1  0  0  0
  1  2  2  0  0  0
  1  3  1  0  0  0
  3  5  1  0  0  0
  5 20  1  0  0  0
 20 21  1  0  0  0
 21 22  1  0  0  0
 22 23  1  0  0  0
 23 24  1  0  0  0
 24 26  1  0  0  0
 26 27  1  0  0  0
 26 28  2  0  0  0
  5  6  1  0  0  0
  6  7  2  0  0  0
  6  8  1  0  0  0
  8 10  1  0  0  0
 10 15  1  0  0  0
 15 16  1  0  0  0
 16 17  1  0  0  0
 16 18  2  0  0  0
 10 11  1  0  0  0
 11 12  1  0  0  0
 11 13  2  0  0  0
 46 47  1  0  0  0
 49 50  1  0  0  0
 40 41  1  0  0  0
 35 36  1  0  0  0
  3  4  1  0  0  0
 24 25  1  0  0  0
 27 29  1  0  0  0
 27 30  1  0  0  0
 28 31  1  0  0  0
  8  9  1  0  0  0
 17 19  1  0  0  0
 12 14  1  0  0  0
M  END
> <minimizedAffinity>
-7.20996

> <CNNscore>
0.0814566240

> <CNNaffinity>
5.7754292488

> <CNN_VS>
0.4704469740

> <CNNaffinity_variance>
0.8172823787

$$$$
[H]c1nc2c([H])c(OC([H])([H])C([H])([H])C([H])([H])N3C([H])([H])C([H])([H])C([H])([H])C3([H])[H])c(OC([H])([H])[H])c([H])c2c(Oc2c([H])c([H])c(N([H])C(=O)N([H])N3C(=O)C([H])([H])SC3([H])c3c(F)c([H])c([H])c([H])c3F)c([H])c2F)c1[H]


 49 54  0  0  0  0  0  0  0  0999 V2000
   -1.8652   22.3378  -26.8188 C   0  0  0  0  0  0  0  0  0  0  0  0
   -2.0390   21.8964  -25.5054 C   0  0  0  0  0  0  0  0  0  0  0  0
   -0.9971   21.6508  -24.6394 C   0  0  0  0  0  0  0  0  0  0  0  0
    0.2973   21.8431  -25.0673 C   0  0  0  0  0  0  0  0  0  0  0  0
    0.4643   22.2810  -26.3721 C   0  0  0  0  0  0  0  0  0  0  0  0
   -0.5722   22.5286  -27.2455 C   0  0  0  0  0  0  0  0  0  0  0  0
   -0.3039   22.9419  -28.5342 F   0  0  0  0  0  0  0  0  0  0  0  0
    1.3951   21.5801  -24.2191 N   0  0  0  0  0  0  0  0  0  0  0  0
    1.2832   21.2442  -22.8507 C   0  0  0  0  0  0  0  0  0  0  0  0
    0.1449   21.1522  -22.3056 O   0  0  0  0  0  0  0  0  0  0  0  0
    2.4867   21.0148  -22.1175 N   0  0  0  0  0  0  0  0  0  0  0  0
    2.3418   21.6450  -24.6587 H   0  0  0  0  0  0  0  0  0  0  0  0
    3.3883   21.1329  -22.6869 H   0  0  0  0  0  0  0  0  0  0  0  0
    2.5688   20.6623  -20.7675 N   0  0  0  0  0  0  0  0  0  0  0  0
    2.8793   19.3732  -20.2071 C   0  0  0  0  0  0  0  0  0  0  0  0
    1.4370   19.2520  -19.0569 S   0  0  0  0  0  0  0  0  0  0  0  0
    1.2935   21.0431  -18.7279 C   0  0  0  0  0  0  0  0  0  0  0  0
    2.2826   21.5823  -19.7110 C   0  0  0  0  0  0  0  0  0  0  0  0
    2.7735   22.7188  -19.5771 O   0  0  0  0  0  0  0  0  0  0  0  0
    2.9163   18.1899  -21.0191 C   0  0  0  0  0  0  0  0  0  0  0  0
    1.9193   17.2999  -21.3089 C   0  0  0  0  0  0  0  0  0  0  0  0
    0.6797   17.5369  -20.8940 F   0  0  0  0  0  0  0  0  0  0  0  0
    2.1002   16.1551  -22.0815 C   0  0  0  0  0  0  0  0  0  0  0  0
    3.3235   15.8649  -22.6020 C   0  0  0  0  0  0  0  0  0  0  0  0
    4.3659   16.7224  -22.3479 C   0  0  0  0  0  0  0  0  0  0  0  0
    4.1652   17.8451  -21.5824 C   0  0  0  0  0  0  0  0  0  0  0  0
    5.2415   18.6536  -21.3736 F   0  0  0  0  0  0  0  0  0  0  0  0
   -2.9544   22.5560  -27.6043 O   0  0  0  0  0  0  0  0  0  0  0  0
   -6.2154   23.3531  -25.2360 C   0  0  0  0  0  0  0  0  0  0  0  0
   -5.1351   23.0959  -26.0378 C   0  0  0  0  0  0  0  0  0  0  0  0
   -4.8115   23.9056  -27.0809 C   0  0  0  0  0  0  0  0  0  0  0  0
   -3.6924   23.6330  -27.8741 C   0  0  0  0  0  0  0  0  0  0  0  0
   -3.4459   24.5150  -28.8804 C   0  0  0  0  0  0  0  0  0  0  0  0
   -4.2554   25.6261  -29.1151 C   0  0  0  0  0  0  0  0  0  0  0  0
   -5.3333   25.8519  -28.3190 N   0  0  0  0  0  0  0  0  0  0  0  0
   -5.6055   25.0032  -27.3164 C   0  0  0  0  0  0  0  0  0  0  0  0
   -6.7102   25.2896  -26.5194 C   0  0  0  0  0  0  0  0  0  0  0  0
   -7.0417   24.4785  -25.4642 C   0  0  0  0  0  0  0  0  0  0  0  0
   -5.8845   21.2655  -24.1006 C   0  0  0  0  0  0  0  0  0  0  0  0
   -6.5256   22.5130  -24.1775 O   0  0  0  0  0  0  0  0  0  0  0  0
   -8.0762   24.6445  -24.6155 O   0  0  0  0  0  0  0  0  0  0  0  0
   -8.2359   25.1797  -23.3726 C   0  0  0  0  0  0  0  0  0  0  0  0
   -6.9961   25.7084  -22.7012 C   0  0  0  0  0  0  0  0  0  0  0  0
   -6.5727   24.6875  -21.6579 C   0  0  0  0  0  0  0  0  0  0  0  0
   -5.1702   24.6766  -21.3890 N   0  0  0  0  0  0  0  0  0  0  0  0
   -4.3866   25.1668  -22.5080 C   0  0  0  0  0  0  0  0  0  0  0  0
   -3.4139   24.1191  -22.9161 C   0  0  0  0  0  0  0  0  0  0  0  0
   -3.5910   22.9877  -21.9637 C   0  0  0  0  0  0  0  0  0  0  0  0
   -4.6178   23.4399  -20.9472 C   0  0  0  0  0  0  0  0  0  0  0  0
 39 40  1  0  0  0
 40 29  1  0  0  0
 29 30  2  0  0  0
 30 31  1  0  0  0
 31 32  2  0  0  0
 32 28  1  0  0  0
 28  1  1  0  0  0
  1  2  2  0  0  0
  2  3  1  0  0  0
  3  4  2  0  0  0
  4  8  1  0  0  0
  8  9  1  0  0  0
  9 10  2  0  0  0
  9 11  1  0  0  0
 11 14  1  0  0  0
 14 15  1  0  0  0
 15 16  1  0  0  0
 16 17  1  0  0  0
 17 18  1  0  0  0
 18 19  2  0  0  0
 15 20  1  0  0  0
 20 21  2  0  0  0
 21 22  1  0  0  0
 21 23  1  0  0  0
 23 24  2  0  0  0
 24 25  1  0  0  0
 25 26  2  0  0  0
 26 27  1  0  0  0
  4  5  1  0  0  0
  5  6  2  0  0  0
  6  7  1  0  0  0
 32 33  1  0  0  0
 33 34  2  0  0  0
 34 35  1  0  0  0
 35 36  2  0  0  0
 36 37  1  0  0  0
 37 38  2  0  0  0
 38 41  1  0  0  0
 41 42  1  0  0  0
 42 43  1  0  0  0
 43 44  1  0  0  0
 44 45  1  0  0  0
 45 46  1  0  0  0
 46 47  1  0  0  0
 47 48  1  0  0  0
 48 49  1  0  0  0
 38 29  1  0  0  0
 49 45  1  0  0  0
 36 31  1  0  0  0
  6  1  1  0  0  0
 18 14  1  0  0  0
 26 20  1  0  0  0
  8 12  1  0  0  0
 11 13  1  0  0  0
M  END
> <minimizedAffinity>
-9.76292

> <CNNscore>
0.2227150649

> <CNNaffinity>
7.3152036667

> <CNN_VS>
1.6292060614

> <CNNaffinity_variance>
0.8350494504

$$$$
[H]c1nc2c([H])c(OC([H])([H])C([H])([H])C([H])([H])N3C([H])([H])C([H])([H])C([H])([H])C3([H])[H])c(OC([H])([H])[H])c([H])c2c(Oc2c([H])c([H])c(N([H])C(=O)N([H])N3C(=O)C([H])([H])SC3([H])c3c(F)c([H])c([H])c([H])c3F)c([H])c2F)c1[H]


 49 54  0  0  0  0  0  0  0  0999 V2000
   -1.9125   22.6756  -27.0562 C   0  0  0  0  0  0  0  0  0  0  0  0
   -2.0562   22.2452  -25.7355 C   0  0  0  0  0  0  0  0  0  0  0  0
   -0.9991   22.0734  -24.8702 C   0  0  0  0  0  0  0  0  0  0  0  0
    0.2807   22.3331  -25.3064 C   0  0  0  0  0  0  0  0  0  0  0  0
    0.4179   22.7597  -26.6184 C   0  0  0  0  0  0  0  0  0  0  0  0
   -0.6340   22.9337  -27.4911 C   0  0  0  0  0  0  0  0  0  0  0  0
   -0.3941   23.3418  -28.7871 F   0  0  0  0  0  0  0  0  0  0  0  0
    1.3945   22.1467  -24.4588 N   0  0  0  0  0  0  0  0  0  0  0  0
    1.4623   21.1776  -23.4322 C   0  0  0  0  0  0  0  0  0  0  0  0
    0.4890   20.3958  -23.2253 O   0  0  0  0  0  0  0  0  0  0  0  0
    2.6545   21.1147  -22.6490 N   0  0  0  0  0  0  0  0  0  0  0  0
    2.2093   22.7813  -24.6239 H   0  0  0  0  0  0  0  0  0  0  0  0
    3.4035   21.8360  -22.9134 H   0  0  0  0  0  0  0  0  0  0  0  0
    2.9035   20.2175  -21.6067 N   0  0  0  0  0  0  0  0  0  0  0  0
    2.2896   20.1812  -20.3051 C   0  0  0  0  0  0  0  0  0  0  0  0
    3.8424   20.1302  -19.3030 S   0  0  0  0  0  0  0  0  0  0  0  0
    4.8382   19.2079  -20.5255 C   0  0  0  0  0  0  0  0  0  0  0  0
    3.9001   19.1955  -21.6897 C   0  0  0  0  0  0  0  0  0  0  0  0
    4.0194   18.3624  -22.6074 O   0  0  0  0  0  0  0  0  0  0  0  0
    1.4741   21.2623  -19.8284 C   0  0  0  0  0  0  0  0  0  0  0  0
    1.8457   22.4766  -19.3211 C   0  0  0  0  0  0  0  0  0  0  0  0
    3.1270   22.8277  -19.3164 F   0  0  0  0  0  0  0  0  0  0  0  0
    0.9462   23.4285  -18.8466 C   0  0  0  0  0  0  0  0  0  0  0  0
   -0.3916   23.1807  -18.8713 C   0  0  0  0  0  0  0  0  0  0  0  0
   -0.8279   21.9784  -19.3717 C   0  0  0  0  0  0  0  0  0  0  0  0
    0.0768   21.0537  -19.8334 C   0  0  0  0  0  0  0  0  0  0  0  0
   -0.4252   19.8844  -20.3197 F   0  0  0  0  0  0  0  0  0  0  0  0
   -3.0149   22.8186  -27.8404 O   0  0  0  0  0  0  0  0  0  0  0  0
   -6.1594   23.3685  -25.2542 C   0  0  0  0  0  0  0  0  0  0  0  0
   -5.1195   23.1930  -26.1282 C   0  0  0  0  0  0  0  0  0  0  0  0
   -4.9392   24.0135  -27.1971 C   0  0  0  0  0  0  0  0  0  0  0  0
   -3.8588   23.8260  -28.0652 C   0  0  0  0  0  0  0  0  0  0  0  0
   -3.7587   24.7125  -29.0924 C   0  0  0  0  0  0  0  0  0  0  0  0
   -4.6741   25.7482  -29.2774 C   0  0  0  0  0  0  0  0  0  0  0  0
   -5.7094   25.8927  -28.4090 N   0  0  0  0  0  0  0  0  0  0  0  0
   -5.8381   25.0371  -27.3838 C   0  0  0  0  0  0  0  0  0  0  0  0
   -6.9051   25.2396  -26.5131 C   0  0  0  0  0  0  0  0  0  0  0  0
   -7.0923   24.4172  -25.4316 C   0  0  0  0  0  0  0  0  0  0  0  0
   -5.7039   21.2584  -24.2068 C   0  0  0  0  0  0  0  0  0  0  0  0
   -6.3227   22.5190  -24.1706 O   0  0  0  0  0  0  0  0  0  0  0  0
   -8.0757   24.5063  -24.5134 O   0  0  0  0  0  0  0  0  0  0  0  0
   -8.2719   25.2162  -23.3670 C   0  0  0  0  0  0  0  0  0  0  0  0
   -7.0378   25.7091  -22.6589 C   0  0  0  0  0  0  0  0  0  0  0  0
   -6.6211   24.6340  -21.6687 C   0  0  0  0  0  0  0  0  0  0  0  0
   -5.2292   24.6444  -21.3490 N   0  0  0  0  0  0  0  0  0  0  0  0
   -4.4120   25.1355  -22.4431 C   0  0  0  0  0  0  0  0  0  0  0  0
   -3.4114   24.0976  -22.8062 C   0  0  0  0  0  0  0  0  0  0  0  0
   -3.6081   22.9721  -21.8507 C   0  0  0  0  0  0  0  0  0  0  0  0
   -4.6771   23.4191  -20.8762 C   0  0  0  0  0  0  0  0  0  0  0  0
 39 40  1  0  0  0
 40 29  1  0  0  0
 29 30  2  0  0  0
 30 31  1  0  0  0
 31 32  2  0  0  0
 32 28  1  0  0  0
 28  1  1  0  0  0
  1  2  2  0  0  0
  2  3  1  0  0  0
  3  4  2  0  0  0
  4  8  1  0  0  0
  8  9  1  0  0  0
  9 10  2  0  0  0
  9 11  1  0  0  0
 11 14  1  0  0  0
 14 15  1  0  0  0
 15 16  1  0  0  0
 16 17  1  0  0  0
 17 18  1  0  0  0
 18 19  2  0  0  0
 15 20  1  0  0  0
 20 21  2  0  0  0
 21 22  1  0  0  0
 21 23  1  0  0  0
 23 24  2  0  0  0
 24 25  1  0  0  0
 25 26  2  0  0  0
 26 27  1  0  0  0
  4  5  1  0  0  0
  5  6  2  0  0  0
  6  7  1  0  0  0
 32 33  1  0  0  0
 33 34  2  0  0  0
 34 35  1  0  0  0
 35 36  2  0  0  0
 36 37  1  0  0  0
 37 38  2  0  0  0
 38 41  1  0  0  0
 41 42  1  0  0  0
 42 43  1  0  0  0
 43 44  1  0  0  0
 44 45  1  0  0  0
 45 46  1  0  0  0
 46 47  1  0  0  0
 47 48  1  0  0  0
 48 49  1  0  0  0
 38 29  1  0  0  0
 49 45  1  0  0  0
 36 31  1  0  0  0
  6  1  1  0  0  0
 18 14  1  0  0  0
 26 20  1  0  0  0
  8 12  1  0  0  0
 11 13  1  0  0  0
M  END
> <minimizedAffinity>
-9.50141

> <CNNscore>
0.1936828792

> <CNNaffinity>
7.7471666336

> <CNN_VS>
1.5004935265

> <CNNaffinity_variance>
0.3752668500

$$$$
[H]c1nc2c([H])c(OC([H])([H])C([H])([H])C([H])([H])N3C([H])([H])C([H])([H])C([H])([H])C3([H])[H])c(OC([H])([H])[H])c([H])c2c(Oc2c([H])c([H])c(N([H])C(=O)N([H])N3C(=O)C([H])([H])SC3([H])c3c(F)c([H])c([H])c([H])c3F)c([H])c2F)c1[H]


 49 54  0  0  0  0  0  0  0  0999 V2000
   -5.0339   23.3639  -24.1500 C   0  0  0  0  0  0  0  0  0  0  0  0
   -6.1337   23.1629  -24.9868 C   0  0  0  0  0  0  0  0  0  0  0  0
   -7.2833   23.9185  -24.9297 C   0  0  0  0  0  0  0  0  0  0  0  0
   -7.3795   24.9343  -24.0054 C   0  0  0  0  0  0  0  0  0  0  0  0
   -6.2852   25.1293  -23.1769 C   0  0  0  0  0  0  0  0  0  0  0  0
   -5.1314   24.3779  -23.2266 C   0  0  0  0  0  0  0  0  0  0  0  0
   -4.1029   24.6348  -22.3436 F   0  0  0  0  0  0  0  0  0  0  0  0
   -8.5498   25.7170  -23.8976 N   0  0  0  0  0  0  0  0  0  0  0  0
   -9.5877   25.4762  -22.9688 C   0  0  0  0  0  0  0  0  0  0  0  0
   -9.5051   24.5125  -22.1529 O   0  0  0  0  0  0  0  0  0  0  0  0
  -10.7166   26.3503  -22.9855 N   0  0  0  0  0  0  0  0  0  0  0  0
   -8.6275   26.5217  -24.5610 H   0  0  0  0  0  0  0  0  0  0  0  0
  -10.6751   27.1225  -23.7291 H   0  0  0  0  0  0  0  0  0  0  0  0
  -11.8246   26.2735  -22.1370 N   0  0  0  0  0  0  0  0  0  0  0  0
  -12.2631   27.2404  -21.1649 C   0  0  0  0  0  0  0  0  0  0  0  0
  -12.4142   26.0899  -19.7256 S   0  0  0  0  0  0  0  0  0  0  0  0
  -12.8769   24.6143  -20.6978 C   0  0  0  0  0  0  0  0  0  0  0  0
  -12.6809   25.1294  -22.0877 C   0  0  0  0  0  0  0  0  0  0  0  0
  -13.2280   24.5821  -23.0632 O   0  0  0  0  0  0  0  0  0  0  0  0
  -11.4344   28.3474  -20.7793 C   0  0  0  0  0  0  0  0  0  0  0  0
  -10.1584   28.3515  -20.2878 C   0  0  0  0  0  0  0  0  0  0  0  0
   -9.4762   27.2143  -20.2085 F   0  0  0  0  0  0  0  0  0  0  0  0
   -9.4767   29.5046  -19.9058 C   0  0  0  0  0  0  0  0  0  0  0  0
  -10.0747   30.7223  -20.0122 C   0  0  0  0  0  0  0  0  0  0  0  0
  -11.3566   30.7840  -20.5015 C   0  0  0  0  0  0  0  0  0  0  0  0
  -12.0106   29.6341  -20.8712 C   0  0  0  0  0  0  0  0  0  0  0  0
  -13.2780   29.7689  -21.3520 F   0  0  0  0  0  0  0  0  0  0  0  0
   -3.9376   22.5687  -24.2780 O   0  0  0  0  0  0  0  0  0  0  0  0
   -0.1293   21.8007  -22.9417 C   0  0  0  0  0  0  0  0  0  0  0  0
   -1.3927   22.0640  -23.4006 C   0  0  0  0  0  0  0  0  0  0  0  0
   -1.6467   22.2544  -24.7225 C   0  0  0  0  0  0  0  0  0  0  0  0
   -2.9483   22.5033  -25.1695 C   0  0  0  0  0  0  0  0  0  0  0  0
   -3.0974   22.6609  -26.5126 C   0  0  0  0  0  0  0  0  0  0  0  0
   -2.0228   22.5821  -27.3980 C   0  0  0  0  0  0  0  0  0  0  0  0
   -0.7746   22.3387  -26.9192 N   0  0  0  0  0  0  0  0  0  0  0  0
   -0.5911   22.1768  -25.6002 C   0  0  0  0  0  0  0  0  0  0  0  0
    0.7037   21.9118  -25.1633 C   0  0  0  0  0  0  0  0  0  0  0  0
    0.9673   21.7167  -23.8315 C   0  0  0  0  0  0  0  0  0  0  0  0
   -0.2170   20.3660  -21.0205 C   0  0  0  0  0  0  0  0  0  0  0  0
    0.1053   21.6096  -21.5885 O   0  0  0  0  0  0  0  0  0  0  0  0
    2.1679   21.4484  -23.2796 O   0  0  0  0  0  0  0  0  0  0  0  0
    2.9564   20.3435  -23.1603 C   0  0  0  0  0  0  0  0  0  0  0  0
    3.4726   20.0286  -21.7812 C   0  0  0  0  0  0  0  0  0  0  0  0
    4.6008   19.0221  -21.9363 C   0  0  0  0  0  0  0  0  0  0  0  0
    4.2910   17.7189  -21.4410 N   0  0  0  0  0  0  0  0  0  0  0  0
    4.3189   16.7081  -22.4821 C   0  0  0  0  0  0  0  0  0  0  0  0
    2.9970   16.0302  -22.5368 C   0  0  0  0  0  0  0  0  0  0  0  0
    2.1746   16.6248  -21.4465 C   0  0  0  0  0  0  0  0  0  0  0  0
    3.0765   17.5905  -20.7074 C   0  0  0  0  0  0  0  0  0  0  0  0
 39 40  1  0  0  0
 40 29  1  0  0  0
 29 30  2  0  0  0
 30 31  1  0  0  0
 31 32  2  0  0  0
 32 28  1  0  0  0
 28  1  1  0  0  0
  1  2  2  0  0  0
  2  3  1  0  0  0
  3  4  2  0  0  0
  4  8  1  0  0  0
  8  9  1  0  0  0
  9 10  2  0  0  0
  9 11  1  0  0  0
 11 14  1  0  0  0
 14 15  1  0  0  0
 15 16  1  0  0  0
 16 17  1  0  0  0
 17 18  1  0  0  0
 18 19  2  0  0  0
 15 20  1  0  0  0
 20 21  2  0  0  0
 21 22  1  0  0  0
 21 23  1  0  0  0
 23 24  2  0  0  0
 24 25  1  0  0  0
 25 26  2  0  0  0
 26 27  1  0  0  0
  4  5  1  0  0  0
  5  6  2  0  0  0
  6  7  1  0  0  0
 32 33  1  0  0  0
 33 34  2  0  0  0
 34 35  1  0  0  0
 35 36  2  0  0  0
 36 37  1  0  0  0
 37 38  2  0  0  0
 38 41  1  0  0  0
 41 42  1  0  0  0
 42 43  1  0  0  0
 43 44  1  0  0  0
 44 45  1  0  0  0
 45 46  1  0  0  0
 46 47  1  0  0  0
 47 48  1  0  0  0
 48 49  1  0  0  0
 38 29  1  0  0  0
 49 45  1  0  0  0
 36 31  1  0  0  0
  6  1  1  0  0  0
 18 14  1  0  0  0
 26 20  1  0  0  0
  8 12  1  0  0  0
 11 13  1  0  0  0
M  END
> <minimizedAffinity>
-9.09404

> <CNNscore>
0.1598397791

> <CNNaffinity>
6.7698440552

> <CNN_VS>
1.0820903778

> <CNNaffinity_variance>
0.0826708823

$$$$
[H]c1nc2c([H])c(OC([H])([H])C([H])([H])C([H])([H])N3C([H])([H])C([H])([H])C([H])([H])C3([H])[H])c(OC([H])([H])[H])c([H])c2c(Oc2c([H])c([H])c(N([H])C(=O)N([H])N3C(=O)C([H])([H])SC3([H])c3c(F)c([H])c([H])c([H])c3F)c([H])c2F)c1[H]


 49 54  0  0  0  0  0  0  0  0999 V2000
    0.9655   21.4276  -19.1021 C   0  0  0  0  0  0  0  0  0  0  0  0
   -0.4021   21.7093  -19.1161 C   0  0  0  0  0  0  0  0  0  0  0  0
   -1.1890   21.6124  -20.2418 C   0  0  0  0  0  0  0  0  0  0  0  0
   -0.6205   21.2183  -21.4322 C   0  0  0  0  0  0  0  0  0  0  0  0
    0.7375   20.9404  -21.4129 C   0  0  0  0  0  0  0  0  0  0  0  0
    1.5325   21.0353  -20.2916 C   0  0  0  0  0  0  0  0  0  0  0  0
    2.8814   20.7580  -20.3774 F   0  0  0  0  0  0  0  0  0  0  0  0
   -1.3868   21.1293  -22.6149 N   0  0  0  0  0  0  0  0  0  0  0  0
   -1.5170   22.1711  -23.5612 C   0  0  0  0  0  0  0  0  0  0  0  0
   -0.9197   23.2728  -23.3860 O   0  0  0  0  0  0  0  0  0  0  0  0
   -2.3360   21.9358  -24.7069 N   0  0  0  0  0  0  0  0  0  0  0  0
   -1.8797   20.2212  -22.7762 H   0  0  0  0  0  0  0  0  0  0  0  0
   -2.7973   20.9677  -24.7374 H   0  0  0  0  0  0  0  0  0  0  0  0
   -2.5690   22.8400  -25.7469 N   0  0  0  0  0  0  0  0  0  0  0  0
   -3.4966   23.9407  -25.7711 C   0  0  0  0  0  0  0  0  0  0  0  0
   -4.3307   23.5232  -27.3674 S   0  0  0  0  0  0  0  0  0  0  0  0
   -2.8714   22.7648  -28.1623 C   0  0  0  0  0  0  0  0  0  0  0  0
   -1.9138   22.7439  -27.0142 C   0  0  0  0  0  0  0  0  0  0  0  0
   -0.6858   22.6503  -27.1981 O   0  0  0  0  0  0  0  0  0  0  0  0
   -4.5018   24.0987  -24.7585 C   0  0  0  0  0  0  0  0  0  0  0  0
   -4.6898   25.1198  -23.8686 C   0  0  0  0  0  0  0  0  0  0  0  0
   -3.9321   26.2087  -23.9411 F   0  0  0  0  0  0  0  0  0  0  0  0
   -5.6875   25.1294  -22.8966 C   0  0  0  0  0  0  0  0  0  0  0  0
   -6.5513   24.0835  -22.7896 C   0  0  0  0  0  0  0  0  0  0  0  0
   -6.4149   23.0275  -23.6572 C   0  0  0  0  0  0  0  0  0  0  0  0
   -5.4232   23.0384  -24.6075 C   0  0  0  0  0  0  0  0  0  0  0  0
   -5.3479   21.9608  -25.4375 F   0  0  0  0  0  0  0  0  0  0  0  0
    1.6652   21.5497  -17.9417 O   0  0  0  0  0  0  0  0  0  0  0  0
    3.8600   20.6649  -14.5834 C   0  0  0  0  0  0  0  0  0  0  0  0
    3.1299   20.9759  -15.6998 C   0  0  0  0  0  0  0  0  0  0  0  0
    3.2508   22.1800  -16.3191 C   0  0  0  0  0  0  0  0  0  0  0  0
    2.5085   22.4678  -17.4690 C   0  0  0  0  0  0  0  0  0  0  0  0
    2.7170   23.6934  -18.0219 C   0  0  0  0  0  0  0  0  0  0  0  0
    3.6138   24.6143  -17.4811 C   0  0  0  0  0  0  0  0  0  0  0  0
    4.3142   24.2921  -16.3620 N   0  0  0  0  0  0  0  0  0  0  0  0
    4.1345   23.0916  -15.7909 C   0  0  0  0  0  0  0  0  0  0  0  0
    4.8892   22.8043  -14.6572 C   0  0  0  0  0  0  0  0  0  0  0  0
    4.7739   21.5910  -14.0281 C   0  0  0  0  0  0  0  0  0  0  0  0
    4.3904   18.3257  -14.5209 C   0  0  0  0  0  0  0  0  0  0  0  0
    3.7199   19.4298  -13.9690 O   0  0  0  0  0  0  0  0  0  0  0  0
    5.4466   21.1856  -12.9321 O   0  0  0  0  0  0  0  0  0  0  0  0
    6.0226   21.8034  -11.8629 C   0  0  0  0  0  0  0  0  0  0  0  0
    5.1694   22.7936  -11.1153 C   0  0  0  0  0  0  0  0  0  0  0  0
    3.9097   22.0670  -10.6736 C   0  0  0  0  0  0  0  0  0  0  0  0
    2.7057   22.8037  -10.8907 N   0  0  0  0  0  0  0  0  0  0  0  0
    1.7646   22.0927  -11.7362 C   0  0  0  0  0  0  0  0  0  0  0  0
    1.4414   22.9343  -12.9184 C   0  0  0  0  0  0  0  0  0  0  0  0
    2.1764   24.2166  -12.7346 C   0  0  0  0  0  0  0  0  0  0  0  0
    2.8542   24.1322  -11.3834 C   0  0  0  0  0  0  0  0  0  0  0  0
 39 40  1  0  0  0
 40 29  1  0  0  0
 29 30  2  0  0  0
 30 31  1  0  0  0
 31 32  2  0  0  0
 32 28  1  0  0  0
 28  1  1  0  0  0
  1  2  2  0  0  0
  2  3  1  0  0  0
  3  4  2  0  0  0
  4  8  1  0  0  0
  8  9  1  0  0  0
  9 10  2  0  0  0
  9 11  1  0  0  0
 11 14  1  0  0  0
 14 15  1  0  0  0
 15 16  1  0  0  0
 16 17  1  0  0  0
 17 18  1  0  0  0
 18 19  2  0  0  0
 15 20  1  0  0  0
 20 21  2  0  0  0
 21 22  1  0  0  0
 21 23  1  0  0  0
 23 24  2  0  0  0
 24 25  1  0  0  0
 25 26  2  0  0  0
 26 27  1  0  0  0
  4  5  1  0  0  0
  5  6  2  0  0  0
  6  7  1  0  0  0
 32 33  1  0  0  0
 33 34  2  0  0  0
 34 35  1  0  0  0
 35 36  2  0  0  0
 36 37  1  0  0  0
 37 38  2  0  0  0
 38 41  1  0  0  0
 41 42  1  0  0  0
 42 43  1  0  0  0
 43 44  1  0  0  0
 44 45  1  0  0  0
 45 46  1  0  0  0
 46 47  1  0  0  0
 47 48  1  0  0  0
 48 49  1  0  0  0
 38 29  1  0  0  0
 49 45  1  0  0  0
 36 31  1  0  0  0
  6  1  1  0  0  0
 18 14  1  0  0  0
 26 20  1  0  0  0
  8 12  1  0  0  0
 11 13  1  0  0  0
M  END
> <minimizedAffinity>
-7.48508

> <CNNscore>
0.1460018009

> <CNNaffinity>
6.6705322266

> <CNN_VS>
0.9739097357

> <CNNaffinity_variance>
0.0533712506

$$$$
[H]c1nc2c([H])c(OC([H])([H])C([H])([H])C([H])([H])N3C([H])([H])C([H])([H])C([H])([H])C3([H])[H])c(OC([H])([H])[H])c([H])c2c(Oc2c([H])c([H])c(N([H])C(=O)N([H])N3C(=O)C([H])([H])SC3([H])c3c(F)c([H])c([H])c([H])c3F)c([H])c2F)c1[H]


 49 54  0  0  0  0  0  0  0  0999 V2000
    0.6453   21.1381  -19.2246 C   0  0  0  0  0  0  0  0  0  0  0  0
   -0.6114   21.7413  -19.3073 C   0  0  0  0  0  0  0  0  0  0  0  0
   -1.3918   21.7250  -20.4416 C   0  0  0  0  0  0  0  0  0  0  0  0
   -0.9308   21.0855  -21.5703 C   0  0  0  0  0  0  0  0  0  0  0  0
    0.3175   20.4887  -21.4830 C   0  0  0  0  0  0  0  0  0  0  0  0
    1.1052   20.5006  -20.3526 C   0  0  0  0  0  0  0  0  0  0  0  0
    2.3453   19.8960  -20.3702 F   0  0  0  0  0  0  0  0  0  0  0  0
   -1.6889   21.0660  -22.7613 N   0  0  0  0  0  0  0  0  0  0  0  0
   -1.7037   22.1094  -23.7146 C   0  0  0  0  0  0  0  0  0  0  0  0
   -1.0010   23.1470  -23.5382 O   0  0  0  0  0  0  0  0  0  0  0  0
   -2.5294   21.9500  -24.8685 N   0  0  0  0  0  0  0  0  0  0  0  0
   -2.2685   20.2107  -22.9236 H   0  0  0  0  0  0  0  0  0  0  0  0
   -3.0849   21.0326  -24.8993 H   0  0  0  0  0  0  0  0  0  0  0  0
   -2.6591   22.8662  -25.9159 N   0  0  0  0  0  0  0  0  0  0  0  0
   -3.5821   23.9660  -26.0200 C   0  0  0  0  0  0  0  0  0  0  0  0
   -4.2512   23.5667  -27.6966 S   0  0  0  0  0  0  0  0  0  0  0  0
   -2.7179   22.8194  -28.3502 C   0  0  0  0  0  0  0  0  0  0  0  0
   -1.8800   22.7859  -27.1123 C   0  0  0  0  0  0  0  0  0  0  0  0
   -0.6396   22.6958  -27.1733 O   0  0  0  0  0  0  0  0  0  0  0  0
   -4.6840   24.1109  -25.1114 C   0  0  0  0  0  0  0  0  0  0  0  0
   -5.6274   23.1964  -24.7323 C   0  0  0  0  0  0  0  0  0  0  0  0
   -5.5332   21.9378  -25.1471 F   0  0  0  0  0  0  0  0  0  0  0  0
   -6.6823   23.4811  -23.8683 C   0  0  0  0  0  0  0  0  0  0  0  0
   -6.8218   24.7288  -23.3435 C   0  0  0  0  0  0  0  0  0  0  0  0
   -5.9036   25.6915  -23.6850 C   0  0  0  0  0  0  0  0  0  0  0  0
   -4.8718   25.3892  -24.5398 C   0  0  0  0  0  0  0  0  0  0  0  0
   -3.9955   26.3903  -24.8324 F   0  0  0  0  0  0  0  0  0  0  0  0
    1.3471   21.2034  -18.0610 O   0  0  0  0  0  0  0  0  0  0  0  0
    1.1009   22.4600  -14.1572 C   0  0  0  0  0  0  0  0  0  0  0  0
    1.1917   22.0545  -15.4624 C   0  0  0  0  0  0  0  0  0  0  0  0
    2.1991   22.4759  -16.2723 C   0  0  0  0  0  0  0  0  0  0  0  0
    2.2815   22.0332  -17.5963 C   0  0  0  0  0  0  0  0  0  0  0  0
    3.3378   22.4996  -18.3161 C   0  0  0  0  0  0  0  0  0  0  0  0
    4.2854   23.3681  -17.7752 C   0  0  0  0  0  0  0  0  0  0  0  0
    4.1655   23.7727  -16.4835 N   0  0  0  0  0  0  0  0  0  0  0  0
    3.1369   23.3315  -15.7439 C   0  0  0  0  0  0  0  0  0  0  0  0
    3.0701   23.7615  -14.4217 C   0  0  0  0  0  0  0  0  0  0  0  0
    2.0580   23.3391  -13.5982 C   0  0  0  0  0  0  0  0  0  0  0  0
   -0.6066   20.8352  -13.7078 C   0  0  0  0  0  0  0  0  0  0  0  0
    0.0644   22.0164  -13.3501 O   0  0  0  0  0  0  0  0  0  0  0  0
    1.8809   23.6733  -12.3040 O   0  0  0  0  0  0  0  0  0  0  0  0
    2.1425   24.7712  -11.5404 C   0  0  0  0  0  0  0  0  0  0  0  0
    1.6816   24.7221  -10.1077 C   0  0  0  0  0  0  0  0  0  0  0  0
    2.7172   25.4551   -9.2710 C   0  0  0  0  0  0  0  0  0  0  0  0
    3.6928   24.6012   -8.6721 N   0  0  0  0  0  0  0  0  0  0  0  0
    5.0213   24.8071   -9.2188 C   0  0  0  0  0  0  0  0  0  0  0  0
    5.5272   23.5200   -9.7644 C   0  0  0  0  0  0  0  0  0  0  0  0
    4.4794   22.5012   -9.4770 C   0  0  0  0  0  0  0  0  0  0  0  0
    3.4043   23.2060   -8.6772 C   0  0  0  0  0  0  0  0  0  0  0  0
 39 40  1  0  0  0
 40 29  1  0  0  0
 29 30  2  0  0  0
 30 31  1  0  0  0
 31 32  2  0  0  0
 32 28  1  0  0  0
 28  1  1  0  0  0
  1  2  2  0  0  0
  2  3  1  0  0  0
  3  4  2  0  0  0
  4  8  1  0  0  0
  8  9  1  0  0  0
  9 10  2  0  0  0
  9 11  1  0  0  0
 11 14  1  0  0  0
 14 15  1  0  0  0
 15 16  1  0  0  0
 16 17  1  0  0  0
 17 18  1  0  0  0
 18 19  2  0  0  0
 15 20  1  0  0  0
 20 21  2  0  0  0
 21 22  1  0  0  0
 21 23  1  0  0  0
 23 24  2  0  0  0
 24 25  1  0  0  0
 25 26  2  0  0  0
 26 27  1  0  0  0
  4  5  1  0  0  0
  5  6  2  0  0  0
  6  7  1  0  0  0
 32 33  1  0  0  0
 33 34  2  0  0  0
 34 35  1  0  0  0
 35 36  2  0  0  0
 36 37  1  0  0  0
 37 38  2  0  0  0
 38 41  1  0  0  0
 41 42  1  0  0  0
 42 43  1  0  0  0
 43 44  1  0  0  0
 44 45  1  0  0  0
 45 46  1  0  0  0
 46 47  1  0  0  0
 47 48  1  0  0  0
 48 49  1  0  0  0
 38 29  1  0  0  0
 49 45  1  0  0  0
 36 31  1  0  0  0
  6  1  1  0  0  0
 18 14  1  0  0  0
 26 20  1  0  0  0
  8 12  1  0  0  0
 11 13  1  0  0  0
M  END
> <minimizedAffinity>
-7.88374

> <CNNscore>
0.1407190710

> <CNNaffinity>
6.4227919579

> <CNN_VS>
0.9038093090

> <CNNaffinity_variance>
0.0615913346

$$$$
[H]c1nc2c([H])c(OC([H])([H])C([H])([H])C([H])([H])N3C([H])([H])C([H])([H])C([H])([H])C3([H])[H])c(OC([H])([H])[H])c([H])c2c(Oc2c([H])c([H])c(N([H])C(=O)N([H])N3C(=O)C([H])([H])SC3([H])c3c(F)c([H])c([H])c([H])c3F)c([H])c2F)c1[H]


 49 54  0  0  0  0  0  0  0  0999 V2000
   -6.4295   24.3042  -19.0020 C   0  0  0  0  0  0  0  0  0  0  0  0
   -6.7915   25.3906  -19.8012 C   0  0  0  0  0  0  0  0  0  0  0  0
   -6.3252   25.5836  -21.0822 C   0  0  0  0  0  0  0  0  0  0  0  0
   -5.4525   24.6697  -21.6289 C   0  0  0  0  0  0  0  0  0  0  0  0
   -5.0960   23.5934  -20.8312 C   0  0  0  0  0  0  0  0  0  0  0  0
   -5.5572   23.3927  -19.5484 C   0  0  0  0  0  0  0  0  0  0  0  0
   -5.1268   22.3000  -18.8242 F   0  0  0  0  0  0  0  0  0  0  0  0
   -4.9320   24.8428  -22.9300 N   0  0  0  0  0  0  0  0  0  0  0  0
   -5.1764   23.9646  -24.0102 C   0  0  0  0  0  0  0  0  0  0  0  0
   -5.9110   22.9463  -23.8531 O   0  0  0  0  0  0  0  0  0  0  0  0
   -4.5720   24.2667  -25.2681 N   0  0  0  0  0  0  0  0  0  0  0  0
   -4.3292   25.6849  -23.0759 H   0  0  0  0  0  0  0  0  0  0  0  0
   -3.9633   25.1502  -25.2727 H   0  0  0  0  0  0  0  0  0  0  0  0
   -4.7117   23.5235  -26.4435 N   0  0  0  0  0  0  0  0  0  0  0  0
   -3.7789   22.5876  -27.0146 C   0  0  0  0  0  0  0  0  0  0  0  0
   -3.7374   23.2940  -28.7226 S   0  0  0  0  0  0  0  0  0  0  0  0
   -5.4613   23.8980  -28.7303 C   0  0  0  0  0  0  0  0  0  0  0  0
   -5.8448   23.6503  -27.3065 C   0  0  0  0  0  0  0  0  0  0  0  0
   -7.0390   23.5726  -26.9626 O   0  0  0  0  0  0  0  0  0  0  0  0
   -2.4310   22.4806  -26.5320 C   0  0  0  0  0  0  0  0  0  0  0  0
   -1.2604   22.8704  -27.1217 C   0  0  0  0  0  0  0  0  0  0  0  0
   -1.2882   23.5367  -28.2707 F   0  0  0  0  0  0  0  0  0  0  0  0
   -0.0021   22.6655  -26.5606 C   0  0  0  0  0  0  0  0  0  0  0  0
    0.1190   22.0471  -25.3546 C   0  0  0  0  0  0  0  0  0  0  0  0
   -1.0217   21.6338  -24.7108 C   0  0  0  0  0  0  0  0  0  0  0  0
   -2.2524   21.8450  -25.2830 C   0  0  0  0  0  0  0  0  0  0  0  0
   -3.3416   21.4133  -24.5880 F   0  0  0  0  0  0  0  0  0  0  0  0
   -6.9409   24.1935  -17.7462 O   0  0  0  0  0  0  0  0  0  0  0  0
   -8.6804   20.7286  -16.3870 C   0  0  0  0  0  0  0  0  0  0  0  0
   -8.0957   21.8873  -16.8248 C   0  0  0  0  0  0  0  0  0  0  0  0
   -7.0838   22.4802  -16.1372 C   0  0  0  0  0  0  0  0  0  0  0  0
   -6.4896   23.6530  -16.6140 C   0  0  0  0  0  0  0  0  0  0  0  0
   -5.4735   24.1551  -15.8612 C   0  0  0  0  0  0  0  0  0  0  0  0
   -5.0444   23.5448  -14.6830 C   0  0  0  0  0  0  0  0  0  0  0  0
   -5.6512   22.4059  -14.2570 N   0  0  0  0  0  0  0  0  0  0  0  0
   -6.6558   21.8823  -14.9753 C   0  0  0  0  0  0  0  0  0  0  0  0
   -7.2314   20.7053  -14.5051 C   0  0  0  0  0  0  0  0  0  0  0  0
   -8.2512   20.1003  -15.1943 C   0  0  0  0  0  0  0  0  0  0  0  0
  -10.9109   20.8551  -17.2623 C   0  0  0  0  0  0  0  0  0  0  0  0
   -9.7109   20.1419  -17.1056 O   0  0  0  0  0  0  0  0  0  0  0  0
   -8.8884   18.9619  -14.8538 O   0  0  0  0  0  0  0  0  0  0  0  0
   -8.6622   17.6307  -15.0374 C   0  0  0  0  0  0  0  0  0  0  0  0
   -8.7794   16.7522  -13.8201 C   0  0  0  0  0  0  0  0  0  0  0  0
   -7.8757   17.3376  -12.7475 C   0  0  0  0  0  0  0  0  0  0  0  0
   -8.5757   17.8611  -11.6180 N   0  0  0  0  0  0  0  0  0  0  0  0
  -10.0016   17.5978  -11.6777 C   0  0  0  0  0  0  0  0  0  0  0  0
  -10.7373   18.8879  -11.6109 C   0  0  0  0  0  0  0  0  0  0  0  0
   -9.7070   19.9510  -11.4474 C   0  0  0  0  0  0  0  0  0  0  0  0
   -8.3744   19.2418  -11.3303 C   0  0  0  0  0  0  0  0  0  0  0  0
 39 40  1  0  0  0
 40 29  1  0  0  0
 29 30  2  0  0  0
 30 31  1  0  0  0
 31 32  2  0  0  0
 32 28  1  0  0  0
 28  1  1  0  0  0
  1  2  2  0  0  0
  2  3  1  0  0  0
  3  4  2  0  0  0
  4  8  1  0  0  0
  8  9  1  0  0  0
  9 10  2  0  0  0
  9 11  1  0  0  0
 11 14  1  0  0  0
 14 15  1  0  0  0
 15 16  1  0  0  0
 16 17  1  0  0  0
 17 18  1  0  0  0
 18 19  2  0  0  0
 15 20  1  0  0  0
 20 21  2  0  0  0
 21 22  1  0  0  0
 21 23  1  0  0  0
 23 24  2  0  0  0
 24 25  1  0  0  0
 25 26  2  0  0  0
 26 27  1  0  0  0
  4  5  1  0  0  0
  5  6  2  0  0  0
  6  7  1  0  0  0
 32 33  1  0  0  0
 33 34  2  0  0  0
 34 35  1  0  0  0
 35 36  2  0  0  0
 36 37  1  0  0  0
 37 38  2  0  0  0
 38 41  1  0  0  0
 41 42  1  0  0  0
 42 43  1  0  0  0
 43 44  1  0  0  0
 44 45  1  0  0  0
 45 46  1  0  0  0
 46 47  1  0  0  0
 47 48  1  0  0  0
 48 49  1  0  0  0
 38 29  1  0  0  0
 49 45  1  0  0  0
 36 31  1  0  0  0
  6  1  1  0  0  0
 18 14  1  0  0  0
 26 20  1  0  0  0
  8 12  1  0  0  0
 11 13  1  0  0  0
M  END
> <minimizedAffinity>
-7.99227

> <CNNscore>
0.1387275010

> <CNNaffinity>
6.6860847473

> <CNN_VS>
0.9275438190

> <CNNaffinity_variance>
0.2942250371

$$$$
[H]c1nc2c([H])c(OC([H])([H])C([H])([H])C([H])([H])N3C([H])([H])C([H])([H])C([H])([H])C3([H])[H])c(OC([H])([H])[H])c([H])c2c(Oc2c([H])c([H])c(N([H])C(=O)N([H])N3C(=O)C([H])([H])SC3([H])c3c(F)c([H])c([H])c([H])c3F)c([H])c2F)c1[H]


 49 54  0  0  0  0  0  0  0  0999 V2000
    1.0372   21.3085  -19.3326 C   0  0  0  0  0  0  0  0  0  0  0  0
    1.5584   20.7833  -20.5169 C   0  0  0  0  0  0  0  0  0  0  0  0
    0.8481   20.7050  -21.6938 C   0  0  0  0  0  0  0  0  0  0  0  0
   -0.4498   21.1628  -21.7319 C   0  0  0  0  0  0  0  0  0  0  0  0
   -0.9625   21.6828  -20.5535 C   0  0  0  0  0  0  0  0  0  0  0  0
   -0.2593   21.7645  -19.3714 C   0  0  0  0  0  0  0  0  0  0  0  0
   -0.8646   22.2792  -18.2435 F   0  0  0  0  0  0  0  0  0  0  0  0
   -1.2209   21.0789  -22.9118 N   0  0  0  0  0  0  0  0  0  0  0  0
   -1.4375   22.1558  -23.8013 C   0  0  0  0  0  0  0  0  0  0  0  0
   -0.9201   23.2879  -23.5732 O   0  0  0  0  0  0  0  0  0  0  0  0
   -2.2502   21.9205  -24.9515 N   0  0  0  0  0  0  0  0  0  0  0  0
   -1.6481   20.1466  -23.1166 H   0  0  0  0  0  0  0  0  0  0  0  0
   -2.6399   20.9240  -25.0291 H   0  0  0  0  0  0  0  0  0  0  0  0
   -2.5603   22.8576  -25.9409 N   0  0  0  0  0  0  0  0  0  0  0  0
   -3.5845   23.8688  -25.9119 C   0  0  0  0  0  0  0  0  0  0  0  0
   -4.3699   23.4690  -27.5371 S   0  0  0  0  0  0  0  0  0  0  0  0
   -2.8439   22.8932  -28.3596 C   0  0  0  0  0  0  0  0  0  0  0  0
   -1.8935   22.8941  -27.2054 C   0  0  0  0  0  0  0  0  0  0  0  0
   -0.6613   22.9234  -27.3824 O   0  0  0  0  0  0  0  0  0  0  0  0
   -4.6044   23.8766  -24.9017 C   0  0  0  0  0  0  0  0  0  0  0  0
   -5.4710   22.8861  -24.5301 C   0  0  0  0  0  0  0  0  0  0  0  0
   -5.3629   21.6762  -25.0680 F   0  0  0  0  0  0  0  0  0  0  0  0
   -6.4539   23.0393  -23.5550 C   0  0  0  0  0  0  0  0  0  0  0  0
   -6.5965   24.2262  -22.9051 C   0  0  0  0  0  0  0  0  0  0  0  0
   -5.7537   25.2601  -23.2327 C   0  0  0  0  0  0  0  0  0  0  0  0
   -4.7922   25.0873  -24.1982 C   0  0  0  0  0  0  0  0  0  0  0  0
   -3.9881   26.1529  -24.4702 F   0  0  0  0  0  0  0  0  0  0  0  0
    1.8129   21.3472  -18.2157 O   0  0  0  0  0  0  0  0  0  0  0  0
    2.6512   20.8696  -14.2222 C   0  0  0  0  0  0  0  0  0  0  0  0
    2.3725   21.0452  -15.5518 C   0  0  0  0  0  0  0  0  0  0  0  0
    2.7343   22.1761  -16.2136 C   0  0  0  0  0  0  0  0  0  0  0  0
    2.4555   22.3247  -17.5760 C   0  0  0  0  0  0  0  0  0  0  0  0
    2.8761   23.4856  -18.1475 C   0  0  0  0  0  0  0  0  0  0  0  0
    3.5446   24.4742  -17.4260 C   0  0  0  0  0  0  0  0  0  0  0  0
    3.7942   24.2875  -16.1033 N   0  0  0  0  0  0  0  0  0  0  0  0
    3.3947   23.1539  -15.5075 C   0  0  0  0  0  0  0  0  0  0  0  0
    3.6908   23.0042  -14.1556 C   0  0  0  0  0  0  0  0  0  0  0  0
    3.3306   21.8653  -13.4817 C   0  0  0  0  0  0  0  0  0  0  0  0
    2.9252   18.5079  -13.8990 C   0  0  0  0  0  0  0  0  0  0  0  0
    2.2725   19.7070  -13.5684 O   0  0  0  0  0  0  0  0  0  0  0  0
    3.5606   21.5928  -12.1813 O   0  0  0  0  0  0  0  0  0  0  0  0
    3.7332   22.3328  -11.0502 C   0  0  0  0  0  0  0  0  0  0  0  0
    3.0386   21.8396   -9.8086 C   0  0  0  0  0  0  0  0  0  0  0  0
    2.7085   23.0553   -8.9583 C   0  0  0  0  0  0  0  0  0  0  0  0
    2.0723   24.1132   -9.6764 N   0  0  0  0  0  0  0  0  0  0  0  0
    2.6023   25.4184   -9.3274 C   0  0  0  0  0  0  0  0  0  0  0  0
    1.4926   26.2789   -8.8393 C   0  0  0  0  0  0  0  0  0  0  0  0
    0.2488   25.4684   -8.9592 C   0  0  0  0  0  0  0  0  0  0  0  0
    0.6500   24.1611   -9.6088 C   0  0  0  0  0  0  0  0  0  0  0  0
 39 40  1  0  0  0
 40 29  1  0  0  0
 29 30  2  0  0  0
 30 31  1  0  0  0
 31 32  2  0  0  0
 32 28  1  0  0  0
 28  1  1  0  0  0
  1  2  2  0  0  0
  2  3  1  0  0  0
  3  4  2  0  0  0
  4  8  1  0  0  0
  8  9  1  0  0  0
  9 10  2  0  0  0
  9 11  1  0  0  0
 11 14  1  0  0  0
 14 15  1  0  0  0
 15 16  1  0  0  0
 16 17  1  0  0  0
 17 18  1  0  0  0
 18 19  2  0  0  0
 15 20  1  0  0  0
 20 21  2  0  0  0
 21 22  1  0  0  0
 21 23  1  0  0  0
 23 24  2  0  0  0
 24 25  1  0  0  0
 25 26  2  0  0  0
 26 27  1  0  0  0
  4  5  1  0  0  0
  5  6  2  0  0  0
  6  7  1  0  0  0
 32 33  1  0  0  0
 33 34  2  0  0  0
 34 35  1  0  0  0
 35 36  2  0  0  0
 36 37  1  0  0  0
 37 38  2  0  0  0
 38 41  1  0  0  0
 41 42  1  0  0  0
 42 43  1  0  0  0
 43 44  1  0  0  0
 44 45  1  0  0  0
 45 46  1  0  0  0
 46 47  1  0  0  0
 47 48  1  0  0  0
 48 49  1  0  0  0
 38 29  1  0  0  0
 49 45  1  0  0  0
 36 31  1  0  0  0
  6  1  1  0  0  0
 18 14  1  0  0  0
 26 20  1  0  0  0
  8 12  1  0  0  0
 11 13  1  0  0  0
M  END
> <minimizedAffinity>
-7.56998

> <CNNscore>
0.1386763155

> <CNNaffinity>
6.5033936501

> <CNN_VS>
0.9018666744

> <CNNaffinity_variance>
0.0709449053

$$$$
[H]c1nc2c([H])c(OC([H])([H])C([H])([H])C([H])([H])N3C([H])([H])C([H])([H])C([H])([H])C3([H])[H])c(OC([H])([H])[H])c([H])c2c(Oc2c([H])c([H])c(N([H])C(=O)N([H])N3C(=O)C([H])([H])SC3([H])c3c(F)c([H])c([H])c([H])c3F)c([H])c2F)c1[H]


 49 54  0  0  0  0  0  0  0  0999 V2000
   -0.2087   20.8770  -19.2528 C   0  0  0  0  0  0  0  0  0  0  0  0
    0.2786   19.8624  -18.4263 C   0  0  0  0  0  0  0  0  0  0  0  0
    0.5550   20.0356  -17.0886 C   0  0  0  0  0  0  0  0  0  0  0  0
    0.3485   21.2674  -16.5095 C   0  0  0  0  0  0  0  0  0  0  0  0
   -0.1349   22.2713  -17.3345 C   0  0  0  0  0  0  0  0  0  0  0  0
   -0.4136   22.1071  -18.6738 C   0  0  0  0  0  0  0  0  0  0  0  0
   -0.8717   23.1744  -19.4185 F   0  0  0  0  0  0  0  0  0  0  0  0
    0.6418   21.4938  -15.1470 N   0  0  0  0  0  0  0  0  0  0  0  0
    1.7543   22.2316  -14.6825 C   0  0  0  0  0  0  0  0  0  0  0  0
    2.5655   22.7508  -15.5034 O   0  0  0  0  0  0  0  0  0  0  0  0
    1.9250   22.3677  -13.2714 N   0  0  0  0  0  0  0  0  0  0  0  0
   -0.0250   21.0768  -14.4576 H   0  0  0  0  0  0  0  0  0  0  0  0
    1.1784   21.8744  -12.6796 H   0  0  0  0  0  0  0  0  0  0  0  0
    2.9529   23.0686  -12.6345 N   0  0  0  0  0  0  0  0  0  0  0  0
    4.3553   22.7456  -12.6010 C   0  0  0  0  0  0  0  0  0  0  0  0
    4.5870   22.8489  -10.7697 S   0  0  0  0  0  0  0  0  0  0  0  0
    3.3320   24.1448  -10.4829 C   0  0  0  0  0  0  0  0  0  0  0  0
    2.7158   24.2351  -11.8422 C   0  0  0  0  0  0  0  0  0  0  0  0
    2.0736   25.2417  -12.1955 O   0  0  0  0  0  0  0  0  0  0  0  0
    4.8445   21.4735  -13.0519 C   0  0  0  0  0  0  0  0  0  0  0  0
    4.5440   20.2161  -12.6062 C   0  0  0  0  0  0  0  0  0  0  0  0
    3.6024   20.0484  -11.6841 F   0  0  0  0  0  0  0  0  0  0  0  0
    5.1294   19.0546  -13.1047 C   0  0  0  0  0  0  0  0  0  0  0  0
    6.0589   19.1256  -14.0959 C   0  0  0  0  0  0  0  0  0  0  0  0
    6.4019   20.3614  -14.5875 C   0  0  0  0  0  0  0  0  0  0  0  0
    5.8128   21.4939  -14.0805 C   0  0  0  0  0  0  0  0  0  0  0  0
    6.1967   22.6857  -14.6170 F   0  0  0  0  0  0  0  0  0  0  0  0
   -0.4549   20.6151  -20.5649 O   0  0  0  0  0  0  0  0  0  0  0  0
   -2.6730   21.6940  -23.8505 C   0  0  0  0  0  0  0  0  0  0  0  0
   -1.9212   21.3295  -22.7650 C   0  0  0  0  0  0  0  0  0  0  0  0
   -0.5644   21.2691  -22.8243 C   0  0  0  0  0  0  0  0  0  0  0  0
    0.1830   20.9126  -21.6973 C   0  0  0  0  0  0  0  0  0  0  0  0
    1.5341   20.9004  -21.8574 C   0  0  0  0  0  0  0  0  0  0  0  0
    2.1458   21.2213  -23.0689 C   0  0  0  0  0  0  0  0  0  0  0  0
    1.3799   21.5619  -24.1385 N   0  0  0  0  0  0  0  0  0  0  0  0
    0.0443   21.5855  -24.0160 C   0  0  0  0  0  0  0  0  0  0  0  0
   -0.6933   21.9584  -25.1361 C   0  0  0  0  0  0  0  0  0  0  0  0
   -2.0623   22.0234  -25.0833 C   0  0  0  0  0  0  0  0  0  0  0  0
   -4.6377   22.6538  -22.8627 C   0  0  0  0  0  0  0  0  0  0  0  0
   -4.0559   21.7489  -23.7658 O   0  0  0  0  0  0  0  0  0  0  0  0
   -2.8907   22.3735  -26.0879 O   0  0  0  0  0  0  0  0  0  0  0  0
   -3.3272   23.5491  -26.6212 C   0  0  0  0  0  0  0  0  0  0  0  0
   -4.7505   23.5804  -27.1115 C   0  0  0  0  0  0  0  0  0  0  0  0
   -4.7113   23.4984  -28.6286 C   0  0  0  0  0  0  0  0  0  0  0  0
   -5.6819   24.3176  -29.2816 N   0  0  0  0  0  0  0  0  0  0  0  0
   -5.7780   24.0388  -30.7026 C   0  0  0  0  0  0  0  0  0  0  0  0
   -5.5156   25.2896  -31.4621 C   0  0  0  0  0  0  0  0  0  0  0  0
   -5.3132   26.3619  -30.4483 C   0  0  0  0  0  0  0  0  0  0  0  0
   -5.5537   25.7243  -29.0963 C   0  0  0  0  0  0  0  0  0  0  0  0
 39 40  1  0  0  0
 40 29  1  0  0  0
 29 30  2  0  0  0
 30 31  1  0  0  0
 31 32  2  0  0  0
 32 28  1  0  0  0
 28  1  1  0  0  0
  1  2  2  0  0  0
  2  3  1  0  0  0
  3  4  2  0  0  0
  4  8  1  0  0  0
  8  9  1  0  0  0
  9 10  2  0  0  0
  9 11  1  0  0  0
 11 14  1  0  0  0
 14 15  1  0  0  0
 15 16  1  0  0  0
 16 17  1  0  0  0
 17 18  1  0  0  0
 18 19  2  0  0  0
 15 20  1  0  0  0
 20 21  2  0  0  0
 21 22  1  0  0  0
 21 23  1  0  0  0
 23 24  2  0  0  0
 24 25  1  0  0  0
 25 26  2  0  0  0
 26 27  1  0  0  0
  4  5  1  0  0  0
  5  6  2  0  0  0
  6  7  1  0  0  0
 32 33  1  0  0  0
 33 34  2  0  0  0
 34 35  1  0  0  0
 35 36  2  0  0  0
 36 37  1  0  0  0
 37 38  2  0  0  0
 38 41  1  0  0  0
 41 42  1  0  0  0
 42 43  1  0  0  0
 43 44  1  0  0  0
 44 45  1  0  0  0
 45 46  1  0  0  0
 46 47  1  0  0  0
 47 48  1  0  0  0
 48 49  1  0  0  0
 38 29  1  0  0  0
 49 45  1  0  0  0
 36 31  1  0  0  0
  6  1  1  0  0  0
 18 14  1  0  0  0
 26 20  1  0  0  0
  8 12  1  0  0  0
 11 13  1  0  0  0
M  END
> <minimizedAffinity>
-7.48896

> <CNNscore>
0.1184030548

> <CNNaffinity>
6.5737671852

> <CNN_VS>
0.7783541083

> <CNNaffinity_variance>
0.3407190740

$$$$
[H]c1nc2c([H])c(OC([H])([H])C([H])([H])C([H])([H])N3C([H])([H])C([H])([H])C([H])([H])C3([H])[H])c(OC([H])([H])[H])c([H])c2c(Oc2c([H])c([H])c(N([H])C(=O)N([H])N3C(=O)C([H])([H])SC3([H])c3c(F)c([H])c([H])c([H])c3F)c([H])c2F)c1[H]


 49 54  0  0  0  0  0  0  0  0999 V2000
   -2.0642   22.2096  -25.5283 C   0  0  0  0  0  0  0  0  0  0  0  0
   -1.8334   21.9760  -24.1711 C   0  0  0  0  0  0  0  0  0  0  0  0
   -0.5774   21.8386  -23.6238 C   0  0  0  0  0  0  0  0  0  0  0  0
    0.5288   21.9323  -24.4381 C   0  0  0  0  0  0  0  0  0  0  0  0
    0.2941   22.1637  -25.7847 C   0  0  0  0  0  0  0  0  0  0  0  0
   -0.9589   22.3018  -26.3408 C   0  0  0  0  0  0  0  0  0  0  0  0
   -1.0915   22.5089  -27.6985 F   0  0  0  0  0  0  0  0  0  0  0  0
    1.8332   21.7735  -23.9214 N   0  0  0  0  0  0  0  0  0  0  0  0
    2.1854   20.8443  -22.9163 C   0  0  0  0  0  0  0  0  0  0  0  0
    1.3107   20.0754  -22.4211 O   0  0  0  0  0  0  0  0  0  0  0  0
    3.5468   20.8061  -22.4876 N   0  0  0  0  0  0  0  0  0  0  0  0
    2.5678   22.3975  -24.3274 H   0  0  0  0  0  0  0  0  0  0  0  0
    4.1904   21.5132  -22.9743 H   0  0  0  0  0  0  0  0  0  0  0  0
    4.0771   19.9485  -21.5198 N   0  0  0  0  0  0  0  0  0  0  0  0
    3.8186   19.9451  -20.1036 C   0  0  0  0  0  0  0  0  0  0  0  0
    5.5772   19.9541  -19.5333 S   0  0  0  0  0  0  0  0  0  0  0  0
    6.2491   19.0087  -20.9445 C   0  0  0  0  0  0  0  0  0  0  0  0
    5.0445   18.9415  -21.8277 C   0  0  0  0  0  0  0  0  0  0  0  0
    4.9454   18.0805  -22.7217 O   0  0  0  0  0  0  0  0  0  0  0  0
    3.1257   21.0274  -19.4636 C   0  0  0  0  0  0  0  0  0  0  0  0
    3.5689   22.2826  -19.1509 C   0  0  0  0  0  0  0  0  0  0  0  0
    4.7767   22.6744  -19.5418 F   0  0  0  0  0  0  0  0  0  0  0  0
    2.8015   23.2332  -18.4816 C   0  0  0  0  0  0  0  0  0  0  0  0
    1.5289   22.9414  -18.0984 C   0  0  0  0  0  0  0  0  0  0  0  0
    1.0253   21.6964  -18.3861 C   0  0  0  0  0  0  0  0  0  0  0  0
    1.8000   20.7739  -19.0460 C   0  0  0  0  0  0  0  0  0  0  0  0
    1.2361   19.5607  -19.3026 F   0  0  0  0  0  0  0  0  0  0  0  0
   -3.3409   22.3331  -25.9816 O   0  0  0  0  0  0  0  0  0  0  0  0
   -6.5740   23.3635  -23.6655 C   0  0  0  0  0  0  0  0  0  0  0  0
   -5.5031   23.0272  -24.4507 C   0  0  0  0  0  0  0  0  0  0  0  0
   -5.1977   23.7236  -25.5775 C   0  0  0  0  0  0  0  0  0  0  0  0
   -4.0880   23.3731  -26.3531 C   0  0  0  0  0  0  0  0  0  0  0  0
   -3.8594   24.1451  -27.4499 C   0  0  0  0  0  0  0  0  0  0  0  0
   -4.6776   25.2222  -27.7892 C   0  0  0  0  0  0  0  0  0  0  0  0
   -5.7459   25.5268  -27.0063 N   0  0  0  0  0  0  0  0  0  0  0  0
   -6.0004   24.7875  -25.9163 C   0  0  0  0  0  0  0  0  0  0  0  0
   -7.0957   25.1522  -25.1387 C   0  0  0  0  0  0  0  0  0  0  0  0
   -7.4090   24.4556  -23.9995 C   0  0  0  0  0  0  0  0  0  0  0  0
   -5.8068   22.2554  -21.6804 C   0  0  0  0  0  0  0  0  0  0  0  0
   -6.8657   22.6384  -22.5202 O   0  0  0  0  0  0  0  0  0  0  0  0
   -8.4328   24.7063  -23.1587 O   0  0  0  0  0  0  0  0  0  0  0  0
   -8.6521   25.5676  -22.1258 C   0  0  0  0  0  0  0  0  0  0  0  0
  -10.0616   26.0681  -21.9522 C   0  0  0  0  0  0  0  0  0  0  0  0
  -10.0443   27.0990  -20.8355 C   0  0  0  0  0  0  0  0  0  0  0  0
  -10.2974   28.4350  -21.2721 N   0  0  0  0  0  0  0  0  0  0  0  0
  -10.2506   29.3932  -20.1831 C   0  0  0  0  0  0  0  0  0  0  0  0
  -11.5476   30.1167  -20.1163 C   0  0  0  0  0  0  0  0  0  0  0  0
  -12.3721   29.6061  -21.2467 C   0  0  0  0  0  0  0  0  0  0  0  0
  -11.4935   28.6437  -22.0174 C   0  0  0  0  0  0  0  0  0  0  0  0
 39 40  1  0  0  0
 40 29  1  0  0  0
 29 30  2  0  0  0
 30 31  1  0  0  0
 31 32  2  0  0  0
 32 28  1  0  0  0
 28  1  1  0  0  0
  1  2  2  0  0  0
  2  3  1  0  0  0
  3  4  2  0  0  0
  4  8  1  0  0  0
  8  9  1  0  0  0
  9 10  2  0  0  0
  9 11  1  0  0  0
 11 14  1  0  0  0
 14 15  1  0  0  0
 15 16  1  0  0  0
 16 17  1  0  0  0
 17 18  1  0  0  0
 18 19  2  0  0  0
 15 20  1  0  0  0
 20 21  2  0  0  0
 21 22  1  0  0  0
 21 23  1  0  0  0
 23 24  2  0  0  0
 24 25  1  0  0  0
 25 26  2  0  0  0
 26 27  1  0  0  0
  4  5  1  0  0  0
  5  6  2  0  0  0
  6  7  1  0  0  0
 32 33  1  0  0  0
 33 34  2  0  0  0
 34 35  1  0  0  0
 35 36  2  0  0  0
 36 37  1  0  0  0
 37 38  2  0  0  0
 38 41  1  0  0  0
 41 42  1  0  0  0
 42 43  1  0  0  0
 43 44  1  0  0  0
 44 45  1  0  0  0
 45 46  1  0  0  0
 46 47  1  0  0  0
 47 48  1  0  0  0
 48 49  1  0  0  0
 38 29  1  0  0  0
 49 45  1  0  0  0
 36 31  1  0  0  0
  6  1  1  0  0  0
 18 14  1  0  0  0
 26 20  1  0  0  0
  8 12  1  0  0  0
 11 13  1  0  0  0
M  END
> <minimizedAffinity>
-9.65467

> <CNNscore>
0.1155133098

> <CNNaffinity>
6.9259705544

> <CNN_VS>
0.8000417948

> <CNNaffinity_variance>
0.1967074573

$$$$
[H]c1c([H])c([H])c2c(c1[H])c1c3c(c4c5c([H])c([H])c([H])c([H])c5n5c4c1n2[C@@]1(C([H])([H])[H])O[C@]5([H])C([H])([H])[C@@]([H])(OC([H])([H])[H])[C@@]1([H])OC([H])([H])[H])C(=O)N([H])C3([H])[H]


 36 43  0  0  0  0  0  0  0  0999 V2000
   -5.1846   23.4982  -22.3982 C   0  0  0  0  0  0  0  0  0  0  0  0
   -4.7094   23.1085  -21.0050 C   0  0  0  0  0  0  0  0  0  0  0  0
   -3.2472   22.7459  -21.1724 C   0  0  0  0  0  0  0  0  0  0  0  0
   -3.1845   21.5822  -22.0973 C   0  0  0  0  0  0  0  0  0  0  0  0
   -4.3335   21.2434  -22.7231 O   0  0  0  0  0  0  0  0  0  0  0  0
   -5.1313   22.2437  -23.2536 C   0  0  0  0  0  0  0  0  0  0  0  0
   -6.5368   21.6810  -23.1471 C   0  0  0  0  0  0  0  0  0  0  0  0
   -4.6585   22.5650  -24.5635 N   0  0  0  0  0  0  0  0  0  0  0  0
   -5.4283   23.0104  -25.6054 C   0  0  0  0  0  0  0  0  0  0  0  0
   -6.7698   23.2930  -25.7257 C   0  0  0  0  0  0  0  0  0  0  0  0
   -7.2740   23.7529  -26.9409 C   0  0  0  0  0  0  0  0  0  0  0  0
   -6.4519   23.9331  -28.0330 C   0  0  0  0  0  0  0  0  0  0  0  0
   -5.1122   23.6430  -27.8822 C   0  0  0  0  0  0  0  0  0  0  0  0
   -4.5781   23.1843  -26.6894 C   0  0  0  0  0  0  0  0  0  0  0  0
   -3.3148   22.8456  -26.2826 C   0  0  0  0  0  0  0  0  0  0  0  0
   -2.0821   22.8416  -26.9292 C   0  0  0  0  0  0  0  0  0  0  0  0
   -1.8004   23.2167  -28.3242 C   0  0  0  0  0  0  0  0  0  0  0  0
   -0.3849   23.0192  -28.4835 N   0  0  0  0  0  0  0  0  0  0  0  0
    0.1847   22.5664  -27.2386 C   0  0  0  0  0  0  0  0  0  0  0  0
    1.4081   22.3367  -27.1257 O   0  0  0  0  0  0  0  0  0  0  0  0
   -0.9167   22.4701  -26.2964 C   0  0  0  0  0  0  0  0  0  0  0  0
   -0.9574   22.0823  -24.9607 C   0  0  0  0  0  0  0  0  0  0  0  0
   -0.0573   21.6719  -24.0177 C   0  0  0  0  0  0  0  0  0  0  0  0
    1.2930   21.4791  -24.0673 C   0  0  0  0  0  0  0  0  0  0  0  0
    1.9422   21.0435  -22.9010 C   0  0  0  0  0  0  0  0  0  0  0  0
    1.2137   20.8260  -21.7583 C   0  0  0  0  0  0  0  0  0  0  0  0
   -0.1489   21.0181  -21.6999 C   0  0  0  0  0  0  0  0  0  0  0  0
   -0.7910   21.4532  -22.8684 C   0  0  0  0  0  0  0  0  0  0  0  0
   -2.0784   21.7082  -23.0674 N   0  0  0  0  0  0  0  0  0  0  0  0
   -2.1887   22.0929  -24.3408 C   0  0  0  0  0  0  0  0  0  0  0  0
   -3.3677   22.4625  -24.9636 C   0  0  0  0  0  0  0  0  0  0  0  0
    0.2073   23.1645  -29.3490 H   0  0  0  0  0  0  0  0  0  0  0  0
   -5.2168   25.6427  -23.2459 C   0  0  0  0  0  0  0  0  0  0  0  0
   -4.4508   24.5439  -22.9189 O   0  0  0  0  0  0  0  0  0  0  0  0
   -4.9279   24.0815  -20.0682 O   0  0  0  0  0  0  0  0  0  0  0  0
   -6.2890   24.2542  -19.8850 C   0  0  0  0  0  0  0  0  0  0  0  0
 33 34  1  0  0  0
 34  1  1  0  0  0
  1  2  1  0  0  0
  2  3  1  0  0  0
  3  4  1  0  0  0
  4  5  1  0  0  0
  5  6  1  0  0  0
  6  7  1  0  0  0
  6  8  1  0  0  0
  8  9  1  0  0  0
  9 10  2  0  0  0
 10 11  1  0  0  0
 11 12  2  0  0  0
 12 13  1  0  0  0
 13 14  2  0  0  0
 14 15  1  0  0  0
 15 16  2  0  0  0
 16 17  1  0  0  0
 17 18  1  0  0  0
 18 19  1  0  0  0
 19 20  2  0  0  0
 19 21  1  0  0  0
 21 22  2  0  0  0
 22 23  1  0  0  0
 23 24  2  0  0  0
 24 25  1  0  0  0
 25 26  2  0  0  0
 26 27  1  0  0  0
 27 28  2  0  0  0
 28 29  1  0  0  0
 29 30  1  0  0  0
 30 31  2  0  0  0
  2 35  1  0  0  0
 35 36  1  0  0  0
  6  1  1  0  0  0
 31  8  1  0  0  0
 29  4  1  0  0  0
 14  9  1  0  0  0
 31 15  1  0  0  0
 21 16  1  0  0  0
 30 22  1  0  0  0
 28 23  1  0  0  0
 18 32  1  0  0  0
M  END
> <minimizedAffinity>
-10.49654

> <CNNscore>
0.7168003321

> <CNNaffinity>
6.9554924965

> <CNN_VS>
4.9856991768

> <CNNaffinity_variance>
0.0625093728

$$$$
[H]c1c([H])c([H])c2c(c1[H])c1c3c(c4c5c([H])c([H])c([H])c([H])c5n5c4c1n2[C@@]1(C([H])([H])[H])O[C@]5([H])C([H])([H])[C@@]([H])(OC([H])([H])[H])[C@@]1([H])OC([H])([H])[H])C(=O)N([H])C3([H])[H]


 36 43  0  0  0  0  0  0  0  0999 V2000
   -6.1550   25.2997  -24.6462 C   0  0  0  0  0  0  0  0  0  0  0  0
   -6.6842   25.1493  -23.2262 C   0  0  0  0  0  0  0  0  0  0  0  0
   -5.5913   24.4187  -22.4717 C   0  0  0  0  0  0  0  0  0  0  0  0
   -5.4231   23.0888  -23.1171 C   0  0  0  0  0  0  0  0  0  0  0  0
   -6.0740   22.8960  -24.2856 O   0  0  0  0  0  0  0  0  0  0  0  0
   -6.0624   23.9029  -25.2367 C   0  0  0  0  0  0  0  0  0  0  0  0
   -7.3863   23.7342  -25.9594 C   0  0  0  0  0  0  0  0  0  0  0  0
   -4.8744   23.7821  -26.0220 N   0  0  0  0  0  0  0  0  0  0  0  0
   -4.7453   24.1386  -27.3384 C   0  0  0  0  0  0  0  0  0  0  0  0
   -5.6146   24.6969  -28.2477 C   0  0  0  0  0  0  0  0  0  0  0  0
   -5.1820   24.9625  -29.5457 C   0  0  0  0  0  0  0  0  0  0  0  0
   -3.8924   24.6770  -29.9413 C   0  0  0  0  0  0  0  0  0  0  0  0
   -3.0438   24.1193  -29.0082 C   0  0  0  0  0  0  0  0  0  0  0  0
   -3.4408   23.8424  -27.7104 C   0  0  0  0  0  0  0  0  0  0  0  0
   -2.8075   23.3179  -26.6150 C   0  0  0  0  0  0  0  0  0  0  0  0
   -1.5084   22.8664  -26.3995 C   0  0  0  0  0  0  0  0  0  0  0  0
   -0.4025   22.8217  -27.3696 C   0  0  0  0  0  0  0  0  0  0  0  0
    0.7051   22.2598  -26.6447 N   0  0  0  0  0  0  0  0  0  0  0  0
    0.3087   21.9922  -25.2844 C   0  0  0  0  0  0  0  0  0  0  0  0
    1.1090   21.5104  -24.4540 O   0  0  0  0  0  0  0  0  0  0  0  0
   -1.0850   22.3881  -25.1795 C   0  0  0  0  0  0  0  0  0  0  0  0
   -1.9777   22.3491  -24.1129 C   0  0  0  0  0  0  0  0  0  0  0  0
   -1.9409   21.9709  -22.8001 C   0  0  0  0  0  0  0  0  0  0  0  0
   -0.9419   21.4550  -22.0263 C   0  0  0  0  0  0  0  0  0  0  0  0
   -1.2284   21.1659  -20.6825 C   0  0  0  0  0  0  0  0  0  0  0  0
   -2.4864   21.4060  -20.1888 C   0  0  0  0  0  0  0  0  0  0  0  0
   -3.4998   21.9264  -20.9628 C   0  0  0  0  0  0  0  0  0  0  0  0
   -3.2068   22.2126  -22.3041 C   0  0  0  0  0  0  0  0  0  0  0  0
   -4.0005   22.7133  -23.2430 N   0  0  0  0  0  0  0  0  0  0  0  0
   -3.2588   22.8001  -24.3493 C   0  0  0  0  0  0  0  0  0  0  0  0
   -3.6988   23.2823  -25.5693 C   0  0  0  0  0  0  0  0  0  0  0  0
    1.6824   22.0500  -26.9937 H   0  0  0  0  0  0  0  0  0  0  0  0
   -5.0410   27.2013  -25.3255 C   0  0  0  0  0  0  0  0  0  0  0  0
   -4.9586   25.9857  -24.6799 O   0  0  0  0  0  0  0  0  0  0  0  0
   -7.0419   26.3397  -22.6544 O   0  0  0  0  0  0  0  0  0  0  0  0
   -7.7209   26.1028  -21.4717 C   0  0  0  0  0  0  0  0  0  0  0  0
 33 34  1  0  0  0
 34  1  1  0  0  0
  1  2  1  0  0  0
  2  3  1  0  0  0
  3  4  1  0  0  0
  4  5  1  0  0  0
  5  6  1  0  0  0
  6  7  1  0  0  0
  6  8  1  0  0  0
  8  9  1  0  0  0
  9 10  2  0  0  0
 10 11  1  0  0  0
 11 12  2  0  0  0
 12 13  1  0  0  0
 13 14  2  0  0  0
 14 15  1  0  0  0
 15 16  2  0  0  0
 16 17  1  0  0  0
 17 18  1  0  0  0
 18 19  1  0  0  0
 19 20  2  0  0  0
 19 21  1  0  0  0
 21 22  2  0  0  0
 22 23  1  0  0  0
 23 24  2  0  0  0
 24 25  1  0  0  0
 25 26  2  0  0  0
 26 27  1  0  0  0
 27 28  2  0  0  0
 28 29  1  0  0  0
 29 30  1  0  0  0
 30 31  2  0  0  0
  2 35  1  0  0  0
 35 36  1  0  0  0
  6  1  1  0  0  0
 31  8  1  0  0  0
 29  4  1  0  0  0
 14  9  1  0  0  0
 31 15  1  0  0  0
 21 16  1  0  0  0
 30 22  1  0  0  0
 28 23  1  0  0  0
 18 32  1  0  0  0
M  END
> <minimizedAffinity>
-11.27423

> <CNNscore>
0.6056230068

> <CNNaffinity>
7.0699815750

> <CNN_VS>
4.2817435265

> <CNNaffinity_variance>
0.2271478623

$$$$
[H]c1c([H])c([H])c2c(c1[H])c1c3c(c4c5c([H])c([H])c([H])c([H])c5n5c4c1n2[C@@]1(C([H])([H])[H])O[C@]5([H])C([H])([H])[C@@]([H])(OC([H])([H])[H])[C@@]1([H])OC([H])([H])[H])C(=O)N([H])C3([H])[H]


 36 43  0  0  0  0  0  0  0  0999 V2000
   -5.3805   22.3804  -22.3216 C   0  0  0  0  0  0  0  0  0  0  0  0
   -6.7007   23.0722  -22.6337 C   0  0  0  0  0  0  0  0  0  0  0  0
   -6.5736   23.5382  -24.0704 C   0  0  0  0  0  0  0  0  0  0  0  0
   -5.4445   24.5055  -24.1221 C   0  0  0  0  0  0  0  0  0  0  0  0
   -4.6809   24.6051  -23.0115 O   0  0  0  0  0  0  0  0  0  0  0  0
   -4.3007   23.4489  -22.3502 C   0  0  0  0  0  0  0  0  0  0  0  0
   -4.1898   23.8809  -20.8995 C   0  0  0  0  0  0  0  0  0  0  0  0
   -3.1186   22.9327  -22.9658 N   0  0  0  0  0  0  0  0  0  0  0  0
   -2.1311   22.2243  -22.3338 C   0  0  0  0  0  0  0  0  0  0  0  0
   -1.9700   21.7938  -21.0365 C   0  0  0  0  0  0  0  0  0  0  0  0
   -0.8356   21.0643  -20.6851 C   0  0  0  0  0  0  0  0  0  0  0  0
    0.1356   20.7617  -21.6158 C   0  0  0  0  0  0  0  0  0  0  0  0
   -0.0537   21.2052  -22.9079 C   0  0  0  0  0  0  0  0  0  0  0  0
   -1.1687   21.9321  -23.2910 C   0  0  0  0  0  0  0  0  0  0  0  0
   -1.5930   22.4641  -24.4797 C   0  0  0  0  0  0  0  0  0  0  0  0
   -1.0513   22.4662  -25.7621 C   0  0  0  0  0  0  0  0  0  0  0  0
    0.2176   21.8626  -26.2001 C   0  0  0  0  0  0  0  0  0  0  0  0
    0.3075   22.1642  -27.6033 N   0  0  0  0  0  0  0  0  0  0  0  0
   -0.8622   22.8987  -28.0175 C   0  0  0  0  0  0  0  0  0  0  0  0
   -1.0177   23.2645  -29.2025 O   0  0  0  0  0  0  0  0  0  0  0  0
   -1.6828   23.0636  -26.8302 C   0  0  0  0  0  0  0  0  0  0  0  0
   -2.9089   23.6919  -26.6357 C   0  0  0  0  0  0  0  0  0  0  0  0
   -3.8163   24.3602  -27.4089 C   0  0  0  0  0  0  0  0  0  0  0  0
   -3.8296   24.6716  -28.7378 C   0  0  0  0  0  0  0  0  0  0  0  0
   -4.9318   25.3823  -29.2395 C   0  0  0  0  0  0  0  0  0  0  0  0
   -5.9520   25.7402  -28.3940 C   0  0  0  0  0  0  0  0  0  0  0  0
   -5.9462   25.4298  -27.0521 C   0  0  0  0  0  0  0  0  0  0  0  0
   -4.8423   24.7200  -26.5576 C   0  0  0  0  0  0  0  0  0  0  0  0
   -4.6029   24.3068  -25.3191 N   0  0  0  0  0  0  0  0  0  0  0  0
   -3.4258   23.6785  -25.3578 C   0  0  0  0  0  0  0  0  0  0  0  0
   -2.8028   23.0836  -24.2750 C   0  0  0  0  0  0  0  0  0  0  0  0
    1.0811   21.9161  -28.2823 H   0  0  0  0  0  0  0  0  0  0  0  0
   -6.2158   20.9981  -23.9677 C   0  0  0  0  0  0  0  0  0  0  0  0
   -5.1323   21.3320  -23.1832 O   0  0  0  0  0  0  0  0  0  0  0  0
   -7.7923   22.2781  -22.4106 O   0  0  0  0  0  0  0  0  0  0  0  0
   -8.1366   22.3255  -21.0708 C   0  0  0  0  0  0  0  0  0  0  0  0
 33 34  1  0  0  0
 34  1  1  0  0  0
  1  2  1  0  0  0
  2  3  1  0  0  0
  3  4  1  0  0  0
  4  5  1  0  0  0
  5  6  1  0  0  0
  6  7  1  0  0  0
  6  8  1  0  0  0
  8  9  1  0  0  0
  9 10  2  0  0  0
 10 11  1  0  0  0
 11 12  2  0  0  0
 12 13  1  0  0  0
 13 14  2  0  0  0
 14 15  1  0  0  0
 15 16  2  0  0  0
 16 17  1  0  0  0
 17 18  1  0  0  0
 18 19  1  0  0  0
 19 20  2  0  0  0
 19 21  1  0  0  0
 21 22  2  0  0  0
 22 23  1  0  0  0
 23 24  2  0  0  0
 24 25  1  0  0  0
 25 26  2  0  0  0
 26 27  1  0  0  0
 27 28  2  0  0  0
 28 29  1  0  0  0
 29 30  1  0  0  0
 30 31  2  0  0  0
  2 35  1  0  0  0
 35 36  1  0  0  0
  6  1  1  0  0  0
 31  8  1  0  0  0
 29  4  1  0  0  0
 14  9  1  0  0  0
 31 15  1  0  0  0
 21 16  1  0  0  0
 30 22  1  0  0  0
 28 23  1  0  0  0
 18 32  1  0  0  0
M  END
> <minimizedAffinity>
-10.30703

> <CNNscore>
0.5136597753

> <CNNaffinity>
6.8587226868

> <CNN_VS>
3.5230500698

> <CNNaffinity_variance>
0.2364495248

$$$$
[H]c1c([H])c([H])c2c(c1[H])c1c3c(c4c5c([H])c([H])c([H])c([H])c5n5c4c1n2[C@@]1(C([H])([H])[H])O[C@]5([H])C([H])([H])[C@@]([H])(OC([H])([H])[H])[C@@]1([H])OC([H])([H])[H])C(=O)N([H])C3([H])[H]


 36 43  0  0  0  0  0  0  0  0999 V2000
   -1.2973   18.1145  -17.5501 C   0  0  0  0  0  0  0  0  0  0  0  0
   -0.8487   17.6254  -18.9207 C   0  0  0  0  0  0  0  0  0  0  0  0
    0.4333   18.3803  -19.2104 C   0  0  0  0  0  0  0  0  0  0  0  0
    0.0932   19.8281  -19.2507 C   0  0  0  0  0  0  0  0  0  0  0  0
   -1.1484   20.1702  -18.8409 O   0  0  0  0  0  0  0  0  0  0  0  0
   -1.6670   19.5805  -17.6999 C   0  0  0  0  0  0  0  0  0  0  0  0
   -3.1622   19.5453  -17.9576 C   0  0  0  0  0  0  0  0  0  0  0  0
   -1.2225   20.3158  -16.5578 N   0  0  0  0  0  0  0  0  0  0  0  0
   -1.9103   20.4612  -15.3820 C   0  0  0  0  0  0  0  0  0  0  0  0
   -3.1214   19.9805  -14.9392 C   0  0  0  0  0  0  0  0  0  0  0  0
   -3.5644   20.2970  -13.6561 C   0  0  0  0  0  0  0  0  0  0  0  0
   -2.8096   21.0862  -12.8144 C   0  0  0  0  0  0  0  0  0  0  0  0
   -1.6000   21.5522  -13.2851 C   0  0  0  0  0  0  0  0  0  0  0  0
   -1.1299   21.2571  -14.5541 C   0  0  0  0  0  0  0  0  0  0  0  0
    0.0121   21.5733  -15.2411 C   0  0  0  0  0  0  0  0  0  0  0  0
    1.1406   22.3174  -14.9085 C   0  0  0  0  0  0  0  0  0  0  0  0
    1.4113   23.0181  -13.6428 C   0  0  0  0  0  0  0  0  0  0  0  0
    2.6963   23.6366  -13.8280 N   0  0  0  0  0  0  0  0  0  0  0  0
    3.2059   23.3133  -15.1375 C   0  0  0  0  0  0  0  0  0  0  0  0
    4.3187   23.7293  -15.5261 O   0  0  0  0  0  0  0  0  0  0  0  0
    2.1968   22.4861  -15.7760 C   0  0  0  0  0  0  0  0  0  0  0  0
    2.1484   21.8963  -17.0353 C   0  0  0  0  0  0  0  0  0  0  0  0
    2.9632   21.8237  -18.1301 C   0  0  0  0  0  0  0  0  0  0  0  0
    4.1955   22.3512  -18.3876 C   0  0  0  0  0  0  0  0  0  0  0  0
    4.7802   22.0870  -19.6366 C   0  0  0  0  0  0  0  0  0  0  0  0
    4.1081   21.3169  -20.5526 C   0  0  0  0  0  0  0  0  0  0  0  0
    2.8646   20.7809  -20.3006 C   0  0  0  0  0  0  0  0  0  0  0  0
    2.2864   21.0489  -19.0512 C   0  0  0  0  0  0  0  0  0  0  0  0
    1.1132   20.6530  -18.5727 N   0  0  0  0  0  0  0  0  0  0  0  0
    1.0211   21.1652  -17.3435 C   0  0  0  0  0  0  0  0  0  0  0  0
   -0.0479   20.9877  -16.4831 C   0  0  0  0  0  0  0  0  0  0  0  0
    3.2384   24.2446  -13.1517 H   0  0  0  0  0  0  0  0  0  0  0  0
   -0.7108   16.9489  -15.6486 C   0  0  0  0  0  0  0  0  0  0  0  0
   -0.3381   17.8906  -16.5842 O   0  0  0  0  0  0  0  0  0  0  0  0
   -0.7108   16.2660  -18.9904 O   0  0  0  0  0  0  0  0  0  0  0  0
   -1.9508   15.6813  -19.1813 C   0  0  0  0  0  0  0  0  0  0  0  0
 33 34  1  0  0  0
 34  1  1  0  0  0
  1  2  1  0  0  0
  2  3  1  0  0  0
  3  4  1  0  0  0
  4  5  1  0  0  0
  5  6  1  0  0  0
  6  7  1  0  0  0
  6  8  1  0  0  0
  8  9  1  0  0  0
  9 10  2  0  0  0
 10 11  1  0  0  0
 11 12  2  0  0  0
 12 13  1  0  0  0
 13 14  2  0  0  0
 14 15  1  0  0  0
 15 16  2  0  0  0
 16 17  1  0  0  0
 17 18  1  0  0  0
 18 19  1  0  0  0
 19 20  2  0  0  0
 19 21  1  0  0  0
 21 22  2  0  0  0
 22 23  1  0  0  0
 23 24  2  0  0  0
 24 25  1  0  0  0
 25 26  2  0  0  0
 26 27  1  0  0  0
 27 28  2  0  0  0
 28 29  1  0  0  0
 29 30  1  0  0  0
 30 31  2  0  0  0
  2 35  1  0  0  0
 35 36  1  0  0  0
  6  1  1  0  0  0
 31  8  1  0  0  0
 29  4  1  0  0  0
 14  9  1  0  0  0
 31 15  1  0  0  0
 21 16  1  0  0  0
 30 22  1  0  0  0
 28 23  1  0  0  0
 18 32  1  0  0  0
M  END
> <minimizedAffinity>
-5.02461

> <CNNscore>
0.4846253991

> <CNNaffinity>
5.3909320831

> <CNN_VS>
2.6125826836

> <CNNaffinity_variance>
0.3163023889

$$$$
[H]c1c([H])c([H])c2c(c1[H])c1c3c(c4c5c([H])c([H])c([H])c([H])c5n5c4c1n2[C@@]1(C([H])([H])[H])O[C@]5([H])C([H])([H])[C@@]([H])(OC([H])([H])[H])[C@@]1([H])OC([H])([H])[H])C(=O)N([H])C3([H])[H]


 36 43  0  0  0  0  0  0  0  0999 V2000
   -7.4225   23.7341  -12.6627 C   0  0  0  0  0  0  0  0  0  0  0  0
   -6.3368   24.7396  -13.0219 C   0  0  0  0  0  0  0  0  0  0  0  0
   -5.8539   24.3262  -14.3979 C   0  0  0  0  0  0  0  0  0  0  0  0
   -5.2861   22.9568  -14.2731 C   0  0  0  0  0  0  0  0  0  0  0  0
   -5.4924   22.3203  -13.0988 O   0  0  0  0  0  0  0  0  0  0  0  0
   -6.7447   22.3829  -12.5103 C   0  0  0  0  0  0  0  0  0  0  0  0
   -6.4511   22.2984  -11.0236 C   0  0  0  0  0  0  0  0  0  0  0  0
   -7.5687   21.3571  -13.0684 N   0  0  0  0  0  0  0  0  0  0  0  0
   -8.5843   20.7051  -12.4204 C   0  0  0  0  0  0  0  0  0  0  0  0
   -9.1157   20.8204  -11.1561 C   0  0  0  0  0  0  0  0  0  0  0  0
  -10.1814   20.0063  -10.7763 C   0  0  0  0  0  0  0  0  0  0  0  0
  -10.7193   19.0819  -11.6464 C   0  0  0  0  0  0  0  0  0  0  0  0
  -10.1671   18.9899  -12.9067 C   0  0  0  0  0  0  0  0  0  0  0  0
   -9.1081   19.7830  -13.3166 C   0  0  0  0  0  0  0  0  0  0  0  0
   -8.4043   19.8973  -14.4861 C   0  0  0  0  0  0  0  0  0  0  0  0
   -8.4994   19.2494  -15.7145 C   0  0  0  0  0  0  0  0  0  0  0  0
   -9.4433   18.1867  -16.0967 C   0  0  0  0  0  0  0  0  0  0  0  0
   -9.1066   17.8622  -17.4566 N   0  0  0  0  0  0  0  0  0  0  0  0
   -8.0216   18.7014  -17.9010 C   0  0  0  0  0  0  0  0  0  0  0  0
   -7.5595   18.6125  -19.0590 O   0  0  0  0  0  0  0  0  0  0  0  0
   -7.6758   19.5525  -16.7757 C   0  0  0  0  0  0  0  0  0  0  0  0
   -6.7080   20.5415  -16.6297 C   0  0  0  0  0  0  0  0  0  0  0  0
   -5.7475   21.1151  -17.4148 C   0  0  0  0  0  0  0  0  0  0  0  0
   -5.3734   20.8930  -18.7085 C   0  0  0  0  0  0  0  0  0  0  0  0
   -4.3272   21.6665  -19.2365 C   0  0  0  0  0  0  0  0  0  0  0  0
   -3.7168   22.6116  -18.4503 C   0  0  0  0  0  0  0  0  0  0  0  0
   -4.0883   22.8418  -17.1441 C   0  0  0  0  0  0  0  0  0  0  0  0
   -5.1338   22.0656  -16.6231 C   0  0  0  0  0  0  0  0  0  0  0  0
   -5.6700   22.0952  -15.4092 N   0  0  0  0  0  0  0  0  0  0  0  0
   -6.6311   21.1690  -15.4046 C   0  0  0  0  0  0  0  0  0  0  0  0
   -7.4507   20.8747  -14.3293 C   0  0  0  0  0  0  0  0  0  0  0  0
   -9.5452   17.1345  -18.0882 H   0  0  0  0  0  0  0  0  0  0  0  0
   -9.6354   24.2203  -13.0932 C   0  0  0  0  0  0  0  0  0  0  0  0
   -8.4459   23.7288  -13.5878 O   0  0  0  0  0  0  0  0  0  0  0  0
   -6.7617   26.0386  -12.9587 O   0  0  0  0  0  0  0  0  0  0  0  0
   -6.9644   26.3985  -11.6376 C   0  0  0  0  0  0  0  0  0  0  0  0
 33 34  1  0  0  0
 34  1  1  0  0  0
  1  2  1  0  0  0
  2  3  1  0  0  0
  3  4  1  0  0  0
  4  5  1  0  0  0
  5  6  1  0  0  0
  6  7  1  0  0  0
  6  8  1  0  0  0
  8  9  1  0  0  0
  9 10  2  0  0  0
 10 11  1  0  0  0
 11 12  2  0  0  0
 12 13  1  0  0  0
 13 14  2  0  0  0
 14 15  1  0  0  0
 15 16  2  0  0  0
 16 17  1  0  0  0
 17 18  1  0  0  0
 18 19  1  0  0  0
 19 20  2  0  0  0
 19 21  1  0  0  0
 21 22  2  0  0  0
 22 23  1  0  0  0
 23 24  2  0  0  0
 24 25  1  0  0  0
 25 26  2  0  0  0
 26 27  1  0  0  0
 27 28  2  0  0  0
 28 29  1  0  0  0
 29 30  1  0  0  0
 30 31  2  0  0  0
  2 35  1  0  0  0
 35 36  1  0  0  0
  6  1  1  0  0  0
 31  8  1  0  0  0
 29  4  1  0  0  0
 14  9  1  0  0  0
 31 15  1  0  0  0
 21 16  1  0  0  0
 30 22  1  0  0  0
 28 23  1  0  0  0
 18 32  1  0  0  0
M  END
> <minimizedAffinity>
-5.04211

> <CNNscore>
0.3962475061

> <CNNaffinity>
5.1527371407

> <CNN_VS>
2.0417592525

> <CNNaffinity_variance>
0.1014163718

$$$$
[H]c1c([H])c([H])c2c(c1[H])c1c3c(c4c5c([H])c([H])c([H])c([H])c5n5c4c1n2[C@@]1(C([H])([H])[H])O[C@]5([H])C([H])([H])[C@@]([H])(OC([H])([H])[H])[C@@]1([H])OC([H])([H])[H])C(=O)N([H])C3([H])[H]


 36 43  0  0  0  0  0  0  0  0999 V2000
   -8.2645   18.8420  -15.8416 C   0  0  0  0  0  0  0  0  0  0  0  0
   -9.7850   18.8878  -15.7716 C   0  0  0  0  0  0  0  0  0  0  0  0
  -10.2030   19.8476  -16.8678 C   0  0  0  0  0  0  0  0  0  0  0  0
   -9.6182   21.1753  -16.5382 C   0  0  0  0  0  0  0  0  0  0  0  0
   -8.7248   21.2088  -15.5246 O   0  0  0  0  0  0  0  0  0  0  0  0
   -7.7592   20.2190  -15.4455 C   0  0  0  0  0  0  0  0  0  0  0  0
   -7.4972   20.0865  -13.9564 C   0  0  0  0  0  0  0  0  0  0  0  0
   -6.6511   20.5885  -16.2690 N   0  0  0  0  0  0  0  0  0  0  0  0
   -5.3413   20.2551  -16.0454 C   0  0  0  0  0  0  0  0  0  0  0  0
   -4.7170   19.5108  -15.0706 C   0  0  0  0  0  0  0  0  0  0  0  0
   -3.3353   19.3327  -15.1143 C   0  0  0  0  0  0  0  0  0  0  0  0
   -2.5749   19.8893  -16.1208 C   0  0  0  0  0  0  0  0  0  0  0  0
   -3.2283   20.6287  -17.0843 C   0  0  0  0  0  0  0  0  0  0  0  0
   -4.5993   20.8256  -17.0710 C   0  0  0  0  0  0  0  0  0  0  0  0
   -5.4716   21.4873  -17.8939 C   0  0  0  0  0  0  0  0  0  0  0  0
   -5.2976   22.2143  -19.0682 C   0  0  0  0  0  0  0  0  0  0  0  0
   -4.0353   22.4897  -19.7732 C   0  0  0  0  0  0  0  0  0  0  0  0
   -4.4106   23.2878  -20.9090 N   0  0  0  0  0  0  0  0  0  0  0  0
   -5.8401   23.4764  -20.9182 C   0  0  0  0  0  0  0  0  0  0  0  0
   -6.4066   24.1303  -21.8203 O   0  0  0  0  0  0  0  0  0  0  0  0
   -6.3508   22.7864  -19.7463 C   0  0  0  0  0  0  0  0  0  0  0  0
   -7.6430   22.6403  -19.2514 C   0  0  0  0  0  0  0  0  0  0  0  0
   -8.8990   23.0310  -19.6227 C   0  0  0  0  0  0  0  0  0  0  0  0
   -9.3517   23.7611  -20.6834 C   0  0  0  0  0  0  0  0  0  0  0  0
  -10.7327   23.9945  -20.7843 C   0  0  0  0  0  0  0  0  0  0  0  0
  -11.5790   23.4902  -19.8287 C   0  0  0  0  0  0  0  0  0  0  0  0
  -11.1302   22.7527  -18.7555 C   0  0  0  0  0  0  0  0  0  0  0  0
   -9.7498   22.5234  -18.6607 C   0  0  0  0  0  0  0  0  0  0  0  0
   -9.0774   21.8516  -17.7343 N   0  0  0  0  0  0  0  0  0  0  0  0
   -7.7917   21.9175  -18.0870 C   0  0  0  0  0  0  0  0  0  0  0  0
   -6.7434   21.3380  -17.3944 C   0  0  0  0  0  0  0  0  0  0  0  0
   -3.7873   23.7027  -21.6576 H   0  0  0  0  0  0  0  0  0  0  0  0
   -7.1919   17.2057  -17.0626 C   0  0  0  0  0  0  0  0  0  0  0  0
   -7.8182   18.4340  -17.0816 O   0  0  0  0  0  0  0  0  0  0  0  0
  -10.3676   17.6540  -15.8733 O   0  0  0  0  0  0  0  0  0  0  0  0
  -11.5727   17.6506  -15.1924 C   0  0  0  0  0  0  0  0  0  0  0  0
 33 34  1  0  0  0
 34  1  1  0  0  0
  1  2  1  0  0  0
  2  3  1  0  0  0
  3  4  1  0  0  0
  4  5  1  0  0  0
  5  6  1  0  0  0
  6  7  1  0  0  0
  6  8  1  0  0  0
  8  9  1  0  0  0
  9 10  2  0  0  0
 10 11  1  0  0  0
 11 12  2  0  0  0
 12 13  1  0  0  0
 13 14  2  0  0  0
 14 15  1  0  0  0
 15 16  2  0  0  0
 16 17  1  0  0  0
 17 18  1  0  0  0
 18 19  1  0  0  0
 19 20  2  0  0  0
 19 21  1  0  0  0
 21 22  2  0  0  0
 22 23  1  0  0  0
 23 24  2  0  0  0
 24 25  1  0  0  0
 25 26  2  0  0  0
 26 27  1  0  0  0
 27 28  2  0  0  0
 28 29  1  0  0  0
 29 30  1  0  0  0
 30 31  2  0  0  0
  2 35  1  0  0  0
 35 36  1  0  0  0
  6  1  1  0  0  0
 31  8  1  0  0  0
 29  4  1  0  0  0
 14  9  1  0  0  0
 31 15  1  0  0  0
 21 16  1  0  0  0
 30 22  1  0  0  0
 28 23  1  0  0  0
 18 32  1  0  0  0
M  END
> <minimizedAffinity>
-5.05630

> <CNNscore>
0.2960211039

> <CNNaffinity>
5.4903912544

> <CNN_VS>
1.6252716780

> <CNNaffinity_variance>
0.1511144638

$$$$
[H]c1c([H])c([H])c2c(c1[H])c1c3c(c4c5c([H])c([H])c([H])c([H])c5n5c4c1n2[C@@]1(C([H])([H])[H])O[C@]5([H])C([H])([H])[C@@]([H])(OC([H])([H])[H])[C@@]1([H])OC([H])([H])[H])C(=O)N([H])C3([H])[H]


 36 43  0  0  0  0  0  0  0  0999 V2000
   -5.6902   24.7481  -24.2813 C   0  0  0  0  0  0  0  0  0  0  0  0
   -6.4709   24.8063  -22.9751 C   0  0  0  0  0  0  0  0  0  0  0  0
   -5.5452   24.2100  -21.9335 C   0  0  0  0  0  0  0  0  0  0  0  0
   -5.2838   22.8003  -22.3310 C   0  0  0  0  0  0  0  0  0  0  0  0
   -5.7146   22.4268  -23.5564 O   0  0  0  0  0  0  0  0  0  0  0  0
   -5.5142   23.2796  -24.6292 C   0  0  0  0  0  0  0  0  0  0  0  0
   -6.6873   22.9890  -25.5473 C   0  0  0  0  0  0  0  0  0  0  0  0
   -4.2053   23.0561  -25.1581 N   0  0  0  0  0  0  0  0  0  0  0  0
   -3.8335   23.2126  -26.4672 C   0  0  0  0  0  0  0  0  0  0  0  0
   -4.5140   23.6178  -27.5927 C   0  0  0  0  0  0  0  0  0  0  0  0
   -3.8485   23.6907  -28.8152 C   0  0  0  0  0  0  0  0  0  0  0  0
   -2.5132   23.3640  -28.9221 C   0  0  0  0  0  0  0  0  0  0  0  0
   -1.8574   22.9626  -27.7772 C   0  0  0  0  0  0  0  0  0  0  0  0
   -2.4880   22.8790  -26.5469 C   0  0  0  0  0  0  0  0  0  0  0  0
   -2.0728   22.5323  -25.2885 C   0  0  0  0  0  0  0  0  0  0  0  0
   -0.8420   22.1333  -24.7750 C   0  0  0  0  0  0  0  0  0  0  0  0
    0.4210   21.9564  -25.5098 C   0  0  0  0  0  0  0  0  0  0  0  0
    1.3692   21.5226  -24.5195 N   0  0  0  0  0  0  0  0  0  0  0  0
    0.7280   21.4576  -23.2297 C   0  0  0  0  0  0  0  0  0  0  0  0
    1.3563   21.1151  -22.2048 O   0  0  0  0  0  0  0  0  0  0  0  0
   -0.6550   21.8484  -23.4407 C   0  0  0  0  0  0  0  0  0  0  0  0
   -1.7272   21.9596  -22.5609 C   0  0  0  0  0  0  0  0  0  0  0  0
   -1.9357   21.7832  -21.2217 C   0  0  0  0  0  0  0  0  0  0  0  0
   -1.1023   21.4009  -20.2107 C   0  0  0  0  0  0  0  0  0  0  0  0
   -1.6329   21.3135  -18.9136 C   0  0  0  0  0  0  0  0  0  0  0  0
   -2.9556   21.6102  -18.6987 C   0  0  0  0  0  0  0  0  0  0  0  0
   -3.8030   21.9968  -19.7133 C   0  0  0  0  0  0  0  0  0  0  0  0
   -3.2666   22.0819  -21.0064 C   0  0  0  0  0  0  0  0  0  0  0  0
   -3.8683   22.4267  -22.1382 N   0  0  0  0  0  0  0  0  0  0  0  0
   -2.9366   22.3551  -23.0914 C   0  0  0  0  0  0  0  0  0  0  0  0
   -3.1398   22.6437  -24.4293 C   0  0  0  0  0  0  0  0  0  0  0  0
    2.3902   21.2741  -24.6493 H   0  0  0  0  0  0  0  0  0  0  0  0
   -4.4538   26.5582  -24.9975 C   0  0  0  0  0  0  0  0  0  0  0  0
   -4.4968   25.4351  -24.1988 O   0  0  0  0  0  0  0  0  0  0  0  0
   -6.9074   26.0648  -22.6627 O   0  0  0  0  0  0  0  0  0  0  0  0
   -7.7932   26.0002  -21.6010 C   0  0  0  0  0  0  0  0  0  0  0  0
 33 34  1  0  0  0
 34  1  1  0  0  0
  1  2  1  0  0  0
  2  3  1  0  0  0
  3  4  1  0  0  0
  4  5  1  0  0  0
  5  6  1  0  0  0
  6  7  1  0  0  0
  6  8  1  0  0  0
  8  9  1  0  0  0
  9 10  2  0  0  0
 10 11  1  0  0  0
 11 12  2  0  0  0
 12 13  1  0  0  0
 13 14  2  0  0  0
 14 15  1  0  0  0
 15 16  2  0  0  0
 16 17  1  0  0  0
 17 18  1  0  0  0
 18 19  1  0  0  0
 19 20  2  0  0  0
 19 21  1  0  0  0
 21 22  2  0  0  0
 22 23  1  0  0  0
 23 24  2  0  0  0
 24 25  1  0  0  0
 25 26  2  0  0  0
 26 27  1  0  0  0
 27 28  2  0  0  0
 28 29  1  0  0  0
 29 30  1  0  0  0
 30 31  2  0  0  0
  2 35  1  0  0  0
 35 36  1  0  0  0
  6  1  1  0  0  0
 31  8  1  0  0  0
 29  4  1  0  0  0
 14  9  1  0  0  0
 31 15  1  0  0  0
 21 16  1  0  0  0
 30 22  1  0  0  0
 28 23  1  0  0  0
 18 32  1  0  0  0
M  END
> <minimizedAffinity>
-10.78496

> <CNNscore>
0.2638414800

> <CNNaffinity>
6.4254097939

> <CNN_VS>
1.6952896118

> <CNNaffinity_variance>
0.3252501786

$$$$
[H]c1c([H])c([H])c2c(c1[H])c1c3c(c4c5c([H])c([H])c([H])c([H])c5n5c4c1n2[C@@]1(C([H])([H])[H])O[C@]5([H])C([H])([H])[C@@]([H])(OC([H])([H])[H])[C@@]1([H])OC([H])([H])[H])C(=O)N([H])C3([H])[H]


 36 43  0  0  0  0  0  0  0  0999 V2000
    1.9126   18.6539  -19.5820 C   0  0  0  0  0  0  0  0  0  0  0  0
    3.1295   18.9444  -20.4501 C   0  0  0  0  0  0  0  0  0  0  0  0
    3.8911   20.0288  -19.7143 C   0  0  0  0  0  0  0  0  0  0  0  0
    3.0006   21.2181  -19.6369 C   0  0  0  0  0  0  0  0  0  0  0  0
    1.7160   21.0386  -20.0164 O   0  0  0  0  0  0  0  0  0  0  0  0
    1.0443   19.9005  -19.6016 C   0  0  0  0  0  0  0  0  0  0  0  0
    0.0604   19.6305  -20.7253 C   0  0  0  0  0  0  0  0  0  0  0  0
    0.4971   20.1354  -18.3024 N   0  0  0  0  0  0  0  0  0  0  0  0
   -0.6506   19.5775  -17.8044 C   0  0  0  0  0  0  0  0  0  0  0  0
   -1.5565   18.6792  -18.3205 C   0  0  0  0  0  0  0  0  0  0  0  0
   -2.6491   18.2796  -17.5530 C   0  0  0  0  0  0  0  0  0  0  0  0
   -2.8432   18.7677  -16.2782 C   0  0  0  0  0  0  0  0  0  0  0  0
   -1.9185   19.6653  -15.7873 C   0  0  0  0  0  0  0  0  0  0  0  0
   -0.8218   20.0836  -16.5228 C   0  0  0  0  0  0  0  0  0  0  0  0
    0.2237   20.9316  -16.2700 C   0  0  0  0  0  0  0  0  0  0  0  0
    0.5757   21.6946  -15.1602 C   0  0  0  0  0  0  0  0  0  0  0  0
   -0.1460   21.8039  -13.8821 C   0  0  0  0  0  0  0  0  0  0  0  0
    0.6292   22.7247  -13.0953 N   0  0  0  0  0  0  0  0  0  0  0  0
    1.7878   23.1459  -13.8433 C   0  0  0  0  0  0  0  0  0  0  0  0
    2.6228   23.9411  -13.3608 O   0  0  0  0  0  0  0  0  0  0  0  0
    1.7101   22.4747  -15.1292 C   0  0  0  0  0  0  0  0  0  0  0  0
    2.5456   22.5112  -16.2413 C   0  0  0  0  0  0  0  0  0  0  0  0
    3.7170   23.1263  -16.5839 C   0  0  0  0  0  0  0  0  0  0  0  0
    4.5284   23.9880  -15.9041 C   0  0  0  0  0  0  0  0  0  0  0  0
    5.6876   24.4512  -16.5471 C   0  0  0  0  0  0  0  0  0  0  0  0
    5.9708   24.0321  -17.8230 C   0  0  0  0  0  0  0  0  0  0  0  0
    5.1574   23.1628  -18.5157 C   0  0  0  0  0  0  0  0  0  0  0  0
    4.0012   22.7042  -17.8676 C   0  0  0  0  0  0  0  0  0  0  0  0
    3.0685   21.8724  -18.3148 N   0  0  0  0  0  0  0  0  0  0  0  0
    2.1770   21.7488  -17.3291 C   0  0  0  0  0  0  0  0  0  0  0  0
    1.0403   20.9613  -17.3752 C   0  0  0  0  0  0  0  0  0  0  0  0
    0.4368   23.0791  -12.1163 H   0  0  0  0  0  0  0  0  0  0  0  0
    1.9733   16.9400  -18.0401 C   0  0  0  0  0  0  0  0  0  0  0  0
    2.2703   18.2593  -18.3094 O   0  0  0  0  0  0  0  0  0  0  0  0
    3.8810   17.8323  -20.7159 O   0  0  0  0  0  0  0  0  0  0  0  0
    5.2143   18.0984  -20.4562 C   0  0  0  0  0  0  0  0  0  0  0  0
 33 34  1  0  0  0
 34  1  1  0  0  0
  1  2  1  0  0  0
  2  3  1  0  0  0
  3  4  1  0  0  0
  4  5  1  0  0  0
  5  6  1  0  0  0
  6  7  1  0  0  0
  6  8  1  0  0  0
  8  9  1  0  0  0
  9 10  2  0  0  0
 10 11  1  0  0  0
 11 12  2  0  0  0
 12 13  1  0  0  0
 13 14  2  0  0  0
 14 15  1  0  0  0
 15 16  2  0  0  0
 16 17  1  0  0  0
 17 18  1  0  0  0
 18 19  1  0  0  0
 19 20  2  0  0  0
 19 21  1  0  0  0
 21 22  2  0  0  0
 22 23  1  0  0  0
 23 24  2  0  0  0
 24 25  1  0  0  0
 25 26  2  0  0  0
 26 27  1  0  0  0
 27 28  2  0  0  0
 28 29  1  0  0  0
 29 30  1  0  0  0
 30 31  2  0  0  0
  2 35  1  0  0  0
 35 36  1  0  0  0
  6  1  1  0  0  0
 31  8  1  0  0  0
 29  4  1  0  0  0
 14  9  1  0  0  0
 31 15  1  0  0  0
 21 16  1  0  0  0
 30 22  1  0  0  0
 28 23  1  0  0  0
 18 32  1  0  0  0
M  END
> <minimizedAffinity>
-6.04984

> <CNNscore>
0.2443906069

> <CNNaffinity>
5.1876773834

> <CNN_VS>
1.2678196430

> <CNNaffinity_variance>
0.2147079259

$$$$
[H]c1c([H])c([H])c2c(c1[H])c1c3c(c4c5c([H])c([H])c([H])c([H])c5n5c4c1n2[C@@]1(C([H])([H])[H])O[C@]5([H])C([H])([H])[C@@]([H])(OC([H])([H])[H])[C@@]1([H])OC([H])([H])[H])C(=O)N([H])C3([H])[H]


 36 43  0  0  0  0  0  0  0  0999 V2000
   -0.3552   20.8859  -18.4165 C   0  0  0  0  0  0  0  0  0  0  0  0
   -0.5694   21.0358  -19.9166 C   0  0  0  0  0  0  0  0  0  0  0  0
   -1.7984   21.9120  -20.0555 C   0  0  0  0  0  0  0  0  0  0  0  0
   -2.9336   21.1820  -19.4295 C   0  0  0  0  0  0  0  0  0  0  0  0
   -2.6247   20.0691  -18.7277 O   0  0  0  0  0  0  0  0  0  0  0  0
   -1.5325   20.0919  -17.8761 C   0  0  0  0  0  0  0  0  0  0  0  0
   -1.0316   18.6593  -17.8906 C   0  0  0  0  0  0  0  0  0  0  0  0
   -1.9424   20.6233  -16.6142 N   0  0  0  0  0  0  0  0  0  0  0  0
   -1.4090   20.2947  -15.3960 C   0  0  0  0  0  0  0  0  0  0  0  0
   -0.3907   19.4507  -15.0156 C   0  0  0  0  0  0  0  0  0  0  0  0
   -0.0597   19.3290  -13.6672 C   0  0  0  0  0  0  0  0  0  0  0  0
   -0.7346   20.0418  -12.6990 C   0  0  0  0  0  0  0  0  0  0  0  0
   -1.7493   20.8804  -13.1102 C   0  0  0  0  0  0  0  0  0  0  0  0
   -2.1040   21.0250  -14.4412 C   0  0  0  0  0  0  0  0  0  0  0  0
   -3.0382   21.7811  -15.0983 C   0  0  0  0  0  0  0  0  0  0  0  0
   -3.9878   22.7006  -14.6619 C   0  0  0  0  0  0  0  0  0  0  0  0
   -4.2608   23.1186  -13.2773 C   0  0  0  0  0  0  0  0  0  0  0  0
   -5.3375   24.0662  -13.3807 N   0  0  0  0  0  0  0  0  0  0  0  0
   -5.6966   24.2430  -14.7659 C   0  0  0  0  0  0  0  0  0  0  0  0
   -6.6039   25.0310  -15.1097 O   0  0  0  0  0  0  0  0  0  0  0  0
   -4.8244   23.3673  -15.5292 C   0  0  0  0  0  0  0  0  0  0  0  0
   -4.7280   23.1233  -16.8956 C   0  0  0  0  0  0  0  0  0  0  0  0
   -5.3440   23.5711  -18.0305 C   0  0  0  0  0  0  0  0  0  0  0  0
   -6.3473   24.4751  -18.2286 C   0  0  0  0  0  0  0  0  0  0  0  0
   -6.7646   24.7216  -19.5465 C   0  0  0  0  0  0  0  0  0  0  0  0
   -6.1624   24.0576  -20.5858 C   0  0  0  0  0  0  0  0  0  0  0  0
   -5.1495   23.1440  -20.3943 C   0  0  0  0  0  0  0  0  0  0  0  0
   -4.7376   22.9025  -19.0756 C   0  0  0  0  0  0  0  0  0  0  0  0
   -3.7944   22.0798  -18.6336 N   0  0  0  0  0  0  0  0  0  0  0  0
   -3.7816   22.2083  -17.3051 C   0  0  0  0  0  0  0  0  0  0  0  0
   -2.9352   21.5304  -16.4458 C   0  0  0  0  0  0  0  0  0  0  0  0
   -5.8334   24.5873  -12.6038 H   0  0  0  0  0  0  0  0  0  0  0  0
    1.0732   22.2921  -17.2760 C   0  0  0  0  0  0  0  0  0  0  0  0
   -0.1905   22.1067  -17.7953 O   0  0  0  0  0  0  0  0  0  0  0  0
    0.5275   21.5241  -20.5725 O   0  0  0  0  0  0  0  0  0  0  0  0
    1.5170   20.5569  -20.6091 C   0  0  0  0  0  0  0  0  0  0  0  0
 33 34  1  0  0  0
 34  1  1  0  0  0
  1  2  1  0  0  0
  2  3  1  0  0  0
  3  4  1  0  0  0
  4  5  1  0  0  0
  5  6  1  0  0  0
  6  7  1  0  0  0
  6  8  1  0  0  0
  8  9  1  0  0  0
  9 10  2  0  0  0
 10 11  1  0  0  0
 11 12  2  0  0  0
 12 13  1  0  0  0
 13 14  2  0  0  0
 14 15  1  0  0  0
 15 16  2  0  0  0
 16 17  1  0  0  0
 17 18  1  0  0  0
 18 19  1  0  0  0
 19 20  2  0  0  0
 19 21  1  0  0  0
 21 22  2  0  0  0
 22 23  1  0  0  0
 23 24  2  0  0  0
 24 25  1  0  0  0
 25 26  2  0  0  0
 26 27  1  0  0  0
 27 28  2  0  0  0
 28 29  1  0  0  0
 29 30  1  0  0  0
 30 31  2  0  0  0
  2 35  1  0  0  0
 35 36  1  0  0  0
  6  1  1  0  0  0
 31  8  1  0  0  0
 29  4  1  0  0  0
 14  9  1  0  0  0
 31 15  1  0  0  0
 21 16  1  0  0  0
 30 22  1  0  0  0
 28 23  1  0  0  0
 18 32  1  0  0  0
M  END
> <minimizedAffinity>
-5.71756

> <CNNscore>
0.2317979038

> <CNNaffinity>
5.2827286720

> <CNN_VS>
1.2245254517

> <CNNaffinity_variance>
0.0570933633

$$$$
[H]c1c(OC([H])([H])[H])c([H])c2c3c(n(C([H])([H])[H])c2c1[H])C([H])([H])C([H])([H])C([H])([H])C3([H])N([H])C(=O)C(F)(F)F


 24 26  0  0  0  0  0  0  0  0999 V2000
   -0.1168   22.4263  -26.2345 C   0  0  0  0  0  0  0  0  0  0  0  0
    0.4076   21.8067  -25.1168 C   0  0  0  0  0  0  0  0  0  0  0  0
   -0.3660   21.7081  -23.9732 C   0  0  0  0  0  0  0  0  0  0  0  0
   -1.6529   22.2169  -23.9259 C   0  0  0  0  0  0  0  0  0  0  0  0
   -2.5851   22.2482  -22.9617 N   0  0  0  0  0  0  0  0  0  0  0  0
   -2.3818   21.6855  -21.6391 C   0  0  0  0  0  0  0  0  0  0  0  0
   -3.6868   22.8708  -23.4374 C   0  0  0  0  0  0  0  0  0  0  0  0
   -4.9666   23.1269  -22.7013 C   0  0  0  0  0  0  0  0  0  0  0  0
   -5.5109   24.4215  -23.3191 C   0  0  0  0  0  0  0  0  0  0  0  0
   -5.7789   24.0868  -24.7722 C   0  0  0  0  0  0  0  0  0  0  0  0
   -4.4812   23.9675  -25.5663 C   0  0  0  0  0  0  0  0  0  0  0  0
   -3.4880   23.2615  -24.7386 C   0  0  0  0  0  0  0  0  0  0  0  0
   -2.1899   22.8395  -25.0379 C   0  0  0  0  0  0  0  0  0  0  0  0
   -1.4029   22.9223  -26.1529 C   0  0  0  0  0  0  0  0  0  0  0  0
   -4.7880   23.3239  -26.7974 N   0  0  0  0  0  0  0  0  0  0  0  0
   -4.6278   23.8491  -28.0872 C   0  0  0  0  0  0  0  0  0  0  0  0
   -4.1678   25.0057  -28.1990 O   0  0  0  0  0  0  0  0  0  0  0  0
   -5.1818   22.3372  -26.7379 H   0  0  0  0  0  0  0  0  0  0  0  0
   -4.9510   23.1678  -29.3467 C   0  0  0  0  0  0  0  0  0  0  0  0
   -5.0688   24.1294  -30.3439 F   0  0  0  0  0  0  0  0  0  0  0  0
   -4.0753   22.1758  -29.6926 F   0  0  0  0  0  0  0  0  0  0  0  0
   -6.1917   22.5799  -29.2366 F   0  0  0  0  0  0  0  0  0  0  0  0
    0.0600   23.0890  -28.5554 C   0  0  0  0  0  0  0  0  0  0  0  0
    0.6316   22.5445  -27.4036 O   0  0  0  0  0  0  0  0  0  0  0  0
 23 24  1  0  0  0
 24  1  1  0  0  0
  1  2  2  0  0  0
  2  3  1  0  0  0
  3  4  2  0  0  0
  4  5  1  0  0  0
  5  6  1  0  0  0
  5  7  1  0  0  0
  7  8  1  0  0  0
  8  9  1  0  0  0
  9 10  1  0  0  0
 10 11  1  0  0  0
 11 15  1  0  0  0
 15 16  1  0  0  0
 16 17  2  0  0  0
 16 19  1  0  0  0
 19 20  1  0  0  0
 19 21  1  0  0  0
 19 22  1  0  0  0
 11 12  1  0  0  0
 12 13  1  0  0  0
 13 14  2  0  0  0
 14  1  1  0  0  0
 13  4  1  0  0  0
 12  7  2  0  0  0
 15 18  1  0  0  0
M  END
> <minimizedAffinity>
-7.77287

> <CNNscore>
0.7993376851

> <CNNaffinity>
6.5291299820

> <CNN_VS>
5.2189798355

> <CNNaffinity_variance>
0.3349390924

$$$$
[H]c1c(OC([H])([H])[H])c([H])c2c3c(n(C([H])([H])[H])c2c1[H])C([H])([H])C([H])([H])C([H])([H])C3([H])N([H])C(=O)C(F)(F)F


 24 26  0  0  0  0  0  0  0  0999 V2000
   -1.3243   20.1155  -17.2342 C   0  0  0  0  0  0  0  0  0  0  0  0
   -2.4885   20.5368  -16.6216 C   0  0  0  0  0  0  0  0  0  0  0  0
   -3.6100   19.7272  -16.6721 C   0  0  0  0  0  0  0  0  0  0  0  0
   -3.5898   18.5052  -17.3230 C   0  0  0  0  0  0  0  0  0  0  0  0
   -4.5206   17.5574  -17.5104 N   0  0  0  0  0  0  0  0  0  0  0  0
   -5.8760   17.6610  -17.0011 C   0  0  0  0  0  0  0  0  0  0  0  0
   -3.9785   16.5462  -18.2252 C   0  0  0  0  0  0  0  0  0  0  0  0
   -4.6589   15.2846  -18.6620 C   0  0  0  0  0  0  0  0  0  0  0  0
   -3.9587   14.9066  -19.9738 C   0  0  0  0  0  0  0  0  0  0  0  0
   -2.5166   14.6408  -19.5927 C   0  0  0  0  0  0  0  0  0  0  0  0
   -1.7719   15.9371  -19.2865 C   0  0  0  0  0  0  0  0  0  0  0  0
   -2.6661   16.8221  -18.5201 C   0  0  0  0  0  0  0  0  0  0  0  0
   -2.4307   18.0716  -17.9404 C   0  0  0  0  0  0  0  0  0  0  0  0
   -1.3389   18.8920  -17.8743 C   0  0  0  0  0  0  0  0  0  0  0  0
   -0.5660   15.5921  -18.6153 N   0  0  0  0  0  0  0  0  0  0  0  0
   -0.4443   14.9686  -17.3656 C   0  0  0  0  0  0  0  0  0  0  0  0
   -1.4913   14.6716  -16.7514 O   0  0  0  0  0  0  0  0  0  0  0  0
    0.3446   15.8314  -19.1111 H   0  0  0  0  0  0  0  0  0  0  0  0
    0.8113   14.6207  -16.6892 C   0  0  0  0  0  0  0  0  0  0  0  0
    1.5649   13.8306  -17.5499 F   0  0  0  0  0  0  0  0  0  0  0  0
    1.5201   15.6953  -16.2275 F   0  0  0  0  0  0  0  0  0  0  0  0
    0.5313   13.8317  -15.5955 F   0  0  0  0  0  0  0  0  0  0  0  0
    0.3432   21.3491  -15.9874 C   0  0  0  0  0  0  0  0  0  0  0  0
   -0.1754   20.9029  -17.2046 O   0  0  0  0  0  0  0  0  0  0  0  0
 23 24  1  0  0  0
 24  1  1  0  0  0
  1  2  2  0  0  0
  2  3  1  0  0  0
  3  4  2  0  0  0
  4  5  1  0  0  0
  5  6  1  0  0  0
  5  7  1  0  0  0
  7  8  1  0  0  0
  8  9  1  0  0  0
  9 10  1  0  0  0
 10 11  1  0  0  0
 11 15  1  0  0  0
 15 16  1  0  0  0
 16 17  2  0  0  0
 16 19  1  0  0  0
 19 20  1  0  0  0
 19 21  1  0  0  0
 19 22  1  0  0  0
 11 12  1  0  0  0
 12 13  1  0  0  0
 13 14  2  0  0  0
 14  1  1  0  0  0
 13  4  1  0  0  0
 12  7  2  0  0  0
 15 18  1  0  0  0
M  END
> <minimizedAffinity>
-2.40333

> <CNNscore>
0.6976497769

> <CNNaffinity>
4.4915342331

> <CNN_VS>
3.1335177422

> <CNNaffinity_variance>
0.2399083823

$$$$
[H]c1c(OC([H])([H])[H])c([H])c2c3c(n(C([H])([H])[H])c2c1[H])C([H])([H])C([H])([H])C([H])([H])C3([H])N([H])C(=O)C(F)(F)F


 24 26  0  0  0  0  0  0  0  0999 V2000
   -1.2514   22.6452  -26.0898 C   0  0  0  0  0  0  0  0  0  0  0  0
   -1.1672   21.8573  -24.9583 C   0  0  0  0  0  0  0  0  0  0  0  0
   -2.2663   21.7541  -24.1232 C   0  0  0  0  0  0  0  0  0  0  0  0
   -3.4471   22.4231  -24.3977 C   0  0  0  0  0  0  0  0  0  0  0  0
   -4.6271   22.4862  -23.7625 N   0  0  0  0  0  0  0  0  0  0  0  0
   -4.9047   21.7777  -22.5264 C   0  0  0  0  0  0  0  0  0  0  0  0
   -5.4577   23.2928  -24.4605 C   0  0  0  0  0  0  0  0  0  0  0  0
   -6.8725   23.6459  -24.1155 C   0  0  0  0  0  0  0  0  0  0  0  0
   -7.0667   25.0545  -24.6916 C   0  0  0  0  0  0  0  0  0  0  0  0
   -6.8965   24.8988  -26.1890 C   0  0  0  0  0  0  0  0  0  0  0  0
   -5.4333   24.6839  -26.5654 C   0  0  0  0  0  0  0  0  0  0  0  0
   -4.8236   23.7759  -25.5784 C   0  0  0  0  0  0  0  0  0  0  0  0
   -3.5447   23.2151  -25.5272 C   0  0  0  0  0  0  0  0  0  0  0  0
   -2.4435   23.2983  -26.3333 C   0  0  0  0  0  0  0  0  0  0  0  0
   -5.3994   24.2075  -27.9054 N   0  0  0  0  0  0  0  0  0  0  0  0
   -5.4440   24.9772  -29.0762 C   0  0  0  0  0  0  0  0  0  0  0  0
   -5.5219   26.2192  -28.9616 O   0  0  0  0  0  0  0  0  0  0  0  0
   -5.3333   23.1539  -28.0385 H   0  0  0  0  0  0  0  0  0  0  0  0
   -5.4079   24.4656  -30.4517 C   0  0  0  0  0  0  0  0  0  0  0  0
   -4.4629   25.1962  -31.1631 F   0  0  0  0  0  0  0  0  0  0  0  0
   -5.1920   23.1185  -30.5473 F   0  0  0  0  0  0  0  0  0  0  0  0
   -6.6187   24.7165  -31.0586 F   0  0  0  0  0  0  0  0  0  0  0  0
   -0.3716   23.0242  -28.3122 C   0  0  0  0  0  0  0  0  0  0  0  0
   -0.1663   22.7737  -26.9539 O   0  0  0  0  0  0  0  0  0  0  0  0
 23 24  1  0  0  0
 24  1  1  0  0  0
  1  2  2  0  0  0
  2  3  1  0  0  0
  3  4  2  0  0  0
  4  5  1  0  0  0
  5  6  1  0  0  0
  5  7  1  0  0  0
  7  8  1  0  0  0
  8  9  1  0  0  0
  9 10  1  0  0  0
 10 11  1  0  0  0
 11 15  1  0  0  0
 15 16  1  0  0  0
 16 17  2  0  0  0
 16 19  1  0  0  0
 19 20  1  0  0  0
 19 21  1  0  0  0
 19 22  1  0  0  0
 11 12  1  0  0  0
 12 13  1  0  0  0
 13 14  2  0  0  0
 14  1  1  0  0  0
 13  4  1  0  0  0
 12  7  2  0  0  0
 15 18  1  0  0  0
M  END
> <minimizedAffinity>
-7.94281

> <CNNscore>
0.6832230091

> <CNNaffinity>
6.5236868858

> <CNN_VS>
4.4571328163

> <CNNaffinity_variance>
0.4141415060

$$$$
[H]c1c(OC([H])([H])[H])c([H])c2c3c(n(C([H])([H])[H])c2c1[H])C([H])([H])C([H])([H])C([H])([H])C3([H])N([H])C(=O)C(F)(F)F


 24 26  0  0  0  0  0  0  0  0999 V2000
   -6.4289   22.7665  -13.8717 C   0  0  0  0  0  0  0  0  0  0  0  0
   -5.0914   23.0968  -13.7708 C   0  0  0  0  0  0  0  0  0  0  0  0
   -4.1820   22.5028  -14.6287 C   0  0  0  0  0  0  0  0  0  0  0  0
   -4.5841   21.5855  -15.5848 C   0  0  0  0  0  0  0  0  0  0  0  0
   -3.9153   20.8854  -16.5136 N   0  0  0  0  0  0  0  0  0  0  0  0
   -2.4789   20.9795  -16.7002 C   0  0  0  0  0  0  0  0  0  0  0  0
   -4.7924   20.1200  -17.2010 C   0  0  0  0  0  0  0  0  0  0  0  0
   -4.4810   19.1813  -18.3267 C   0  0  0  0  0  0  0  0  0  0  0  0
   -5.5477   18.0843  -18.2164 C   0  0  0  0  0  0  0  0  0  0  0  0
   -6.8687   18.7891  -18.4479 C   0  0  0  0  0  0  0  0  0  0  0  0
   -7.2684   19.6362  -17.2431 C   0  0  0  0  0  0  0  0  0  0  0  0
   -6.0659   20.3111  -16.7246 C   0  0  0  0  0  0  0  0  0  0  0  0
   -5.9201   21.2460  -15.6964 C   0  0  0  0  0  0  0  0  0  0  0  0
   -6.7953   21.8485  -14.8359 C   0  0  0  0  0  0  0  0  0  0  0  0
   -8.3050   20.5162  -17.6610 N   0  0  0  0  0  0  0  0  0  0  0  0
   -9.5825   20.6431  -17.0978 C   0  0  0  0  0  0  0  0  0  0  0  0
   -9.8703   19.9176  -16.1218 O   0  0  0  0  0  0  0  0  0  0  0  0
   -8.0927   21.1483  -18.4902 H   0  0  0  0  0  0  0  0  0  0  0  0
  -10.6396   21.5586  -17.5445 C   0  0  0  0  0  0  0  0  0  0  0  0
  -11.5721   20.8257  -18.2700 F   0  0  0  0  0  0  0  0  0  0  0  0
  -11.2239   22.2792  -16.5397 F   0  0  0  0  0  0  0  0  0  0  0  0
  -10.1037   22.4711  -18.4261 F   0  0  0  0  0  0  0  0  0  0  0  0
   -8.6988   22.9041  -13.0437 C   0  0  0  0  0  0  0  0  0  0  0  0
   -7.3736   23.3435  -13.0257 O   0  0  0  0  0  0  0  0  0  0  0  0
 23 24  1  0  0  0
 24  1  1  0  0  0
  1  2  2  0  0  0
  2  3  1  0  0  0
  3  4  2  0  0  0
  4  5  1  0  0  0
  5  6  1  0  0  0
  5  7  1  0  0  0
  7  8  1  0  0  0
  8  9  1  0  0  0
  9 10  1  0  0  0
 10 11  1  0  0  0
 11 15  1  0  0  0
 15 16  1  0  0  0
 16 17  2  0  0  0
 16 19  1  0  0  0
 19 20  1  0  0  0
 19 21  1  0  0  0
 19 22  1  0  0  0
 11 12  1  0  0  0
 12 13  1  0  0  0
 13 14  2  0  0  0
 14  1  1  0  0  0
 13  4  1  0  0  0
 12  7  2  0  0  0
 15 18  1  0  0  0
M  END
> <minimizedAffinity>
-2.90090

> <CNNscore>
0.6590878963

> <CNNaffinity>
4.7281332016

> <CNN_VS>
3.1162552834

> <CNNaffinity_variance>
0.5818094611

$$$$
[H]c1c(OC([H])([H])[H])c([H])c2c3c(n(C([H])([H])[H])c2c1[H])C([H])([H])C([H])([H])C([H])([H])C3([H])N([H])C(=O)C(F)(F)F


 24 26  0  0  0  0  0  0  0  0999 V2000
   -1.4708   14.9600  -16.3833 C   0  0  0  0  0  0  0  0  0  0  0  0
   -1.7644   13.6414  -16.6718 C   0  0  0  0  0  0  0  0  0  0  0  0
   -2.9384   13.3411  -17.3408 C   0  0  0  0  0  0  0  0  0  0  0  0
   -3.8238   14.3334  -17.7265 C   0  0  0  0  0  0  0  0  0  0  0  0
   -5.0004   14.3044  -18.3704 N   0  0  0  0  0  0  0  0  0  0  0  0
   -5.6259   13.0781  -18.8307 C   0  0  0  0  0  0  0  0  0  0  0  0
   -5.4611   15.5688  -18.4983 C   0  0  0  0  0  0  0  0  0  0  0  0
   -6.7382   16.0016  -19.1519 C   0  0  0  0  0  0  0  0  0  0  0  0
   -7.1420   17.2748  -18.3971 C   0  0  0  0  0  0  0  0  0  0  0  0
   -6.0305   18.2677  -18.6688 C   0  0  0  0  0  0  0  0  0  0  0  0
   -4.7656   17.9169  -17.8904 C   0  0  0  0  0  0  0  0  0  0  0  0
   -4.5797   16.4560  -17.9315 C   0  0  0  0  0  0  0  0  0  0  0  0
   -3.5418   15.6575  -17.4438 C   0  0  0  0  0  0  0  0  0  0  0  0
   -2.3754   15.9240  -16.7822 C   0  0  0  0  0  0  0  0  0  0  0  0
   -3.6935   18.6641  -18.4525 N   0  0  0  0  0  0  0  0  0  0  0  0
   -2.8210   19.5280  -17.7759 C   0  0  0  0  0  0  0  0  0  0  0  0
   -2.9777   19.6776  -16.5451 O   0  0  0  0  0  0  0  0  0  0  0  0
   -3.5325   18.5595  -19.4991 H   0  0  0  0  0  0  0  0  0  0  0  0
   -1.7194   20.2911  -18.3751 C   0  0  0  0  0  0  0  0  0  0  0  0
   -1.0227   19.4484  -19.2339 F   0  0  0  0  0  0  0  0  0  0  0  0
   -2.1053   21.4479  -18.9941 F   0  0  0  0  0  0  0  0  0  0  0  0
   -0.8284   20.6489  -17.3875 F   0  0  0  0  0  0  0  0  0  0  0  0
   -0.3072   16.3092  -14.7455 C   0  0  0  0  0  0  0  0  0  0  0  0
   -0.2989   15.3010  -15.7115 O   0  0  0  0  0  0  0  0  0  0  0  0
 23 24  1  0  0  0
 24  1  1  0  0  0
  1  2  2  0  0  0
  2  3  1  0  0  0
  3  4  2  0  0  0
  4  5  1  0  0  0
  5  6  1  0  0  0
  5  7  1  0  0  0
  7  8  1  0  0  0
  8  9  1  0  0  0
  9 10  1  0  0  0
 10 11  1  0  0  0
 11 15  1  0  0  0
 15 16  1  0  0  0
 16 17  2  0  0  0
 16 19  1  0  0  0
 19 20  1  0  0  0
 19 21  1  0  0  0
 19 22  1  0  0  0
 11 12  1  0  0  0
 12 13  1  0  0  0
 13 14  2  0  0  0
 14  1  1  0  0  0
 13  4  1  0  0  0
 12  7  2  0  0  0
 15 18  1  0  0  0
M  END
> <minimizedAffinity>
-2.42743

> <CNNscore>
0.6232998967

> <CNNaffinity>
4.4097714424

> <CNN_VS>
2.7486100197

> <CNNaffinity_variance>
0.2347306311

$$$$
[H]c1c(OC([H])([H])[H])c([H])c2c3c(n(C([H])([H])[H])c2c1[H])C([H])([H])C([H])([H])C([H])([H])C3([H])N([H])C(=O)C(F)(F)F


 24 26  0  0  0  0  0  0  0  0999 V2000
   -4.5236   24.1519  -27.8017 C   0  0  0  0  0  0  0  0  0  0  0  0
   -3.6526   23.9335  -28.8515 C   0  0  0  0  0  0  0  0  0  0  0  0
   -2.4196   23.3579  -28.5981 C   0  0  0  0  0  0  0  0  0  0  0  0
   -2.0411   22.9966  -27.3161 C   0  0  0  0  0  0  0  0  0  0  0  0
   -0.9283   22.4359  -26.8189 N   0  0  0  0  0  0  0  0  0  0  0  0
    0.2111   22.0654  -27.6383 C   0  0  0  0  0  0  0  0  0  0  0  0
   -1.0698   22.2926  -25.4821 C   0  0  0  0  0  0  0  0  0  0  0  0
   -0.0720   21.7118  -24.5267 C   0  0  0  0  0  0  0  0  0  0  0  0
   -0.3367   22.4442  -23.2049 C   0  0  0  0  0  0  0  0  0  0  0  0
   -1.7491   22.0605  -22.8134 C   0  0  0  0  0  0  0  0  0  0  0  0
   -2.7820   22.7634  -23.6896 C   0  0  0  0  0  0  0  0  0  0  0  0
   -2.2949   22.7644  -25.0799 C   0  0  0  0  0  0  0  0  0  0  0  0
   -2.9036   23.2097  -26.2563 C   0  0  0  0  0  0  0  0  0  0  0  0
   -4.1143   23.7798  -26.5365 C   0  0  0  0  0  0  0  0  0  0  0  0
   -4.0274   22.1020  -23.5012 N   0  0  0  0  0  0  0  0  0  0  0  0
   -5.2405   22.6833  -23.1066 C   0  0  0  0  0  0  0  0  0  0  0  0
   -5.2607   23.9139  -22.8899 O   0  0  0  0  0  0  0  0  0  0  0  0
   -4.0450   21.0528  -23.6775 H   0  0  0  0  0  0  0  0  0  0  0  0
   -6.5164   21.9823  -22.9175 C   0  0  0  0  0  0  0  0  0  0  0  0
   -7.5325   22.9305  -22.8803 F   0  0  0  0  0  0  0  0  0  0  0  0
   -6.7638   21.0021  -23.8386 F   0  0  0  0  0  0  0  0  0  0  0  0
   -6.5183   21.3739  -21.6817 F   0  0  0  0  0  0  0  0  0  0  0  0
   -6.3417   25.5625  -27.0524 C   0  0  0  0  0  0  0  0  0  0  0  0
   -5.7730   24.7290  -28.0176 O   0  0  0  0  0  0  0  0  0  0  0  0
 23 24  1  0  0  0
 24  1  1  0  0  0
  1  2  2  0  0  0
  2  3  1  0  0  0
  3  4  2  0  0  0
  4  5  1  0  0  0
  5  6  1  0  0  0
  5  7  1  0  0  0
  7  8  1  0  0  0
  8  9  1  0  0  0
  9 10  1  0  0  0
 10 11  1  0  0  0
 11 15  1  0  0  0
 15 16  1  0  0  0
 16 17  2  0  0  0
 16 19  1  0  0  0
 19 20  1  0  0  0
 19 21  1  0  0  0
 19 22  1  0  0  0
 11 12  1  0  0  0
 12 13  1  0  0  0
 13 14  2  0  0  0
 14  1  1  0  0  0
 13  4  1  0  0  0
 12  7  2  0  0  0
 15 18  1  0  0  0
M  END
> <minimizedAffinity>
-7.69996

> <CNNscore>
0.5838103890

> <CNNaffinity>
6.2342581749

> <CNN_VS>
3.6396245956

> <CNNaffinity_variance>
0.1053916663

$$$$
[H]c1c(OC([H])([H])[H])c([H])c2c3c(n(C([H])([H])[H])c2c1[H])C([H])([H])C([H])([H])C([H])([H])C3([H])N([H])C(=O)C(F)(F)F


 24 26  0  0  0  0  0  0  0  0999 V2000
   -1.3493   22.7038  -26.9316 C   0  0  0  0  0  0  0  0  0  0  0  0
   -0.0398   22.3285  -27.1607 C   0  0  0  0  0  0  0  0  0  0  0  0
    0.7451   21.9281  -26.0932 C   0  0  0  0  0  0  0  0  0  0  0  0
    0.2461   21.8959  -24.8020 C   0  0  0  0  0  0  0  0  0  0  0  0
    0.7894   21.5548  -23.6238 N   0  0  0  0  0  0  0  0  0  0  0  0
    2.1622   21.1055  -23.4803 C   0  0  0  0  0  0  0  0  0  0  0  0
   -0.1400   21.7034  -22.6534 C   0  0  0  0  0  0  0  0  0  0  0  0
    0.0341   21.4360  -21.1892 C   0  0  0  0  0  0  0  0  0  0  0  0
   -0.9213   22.4216  -20.5040 C   0  0  0  0  0  0  0  0  0  0  0  0
   -2.3068   22.0200  -20.9674 C   0  0  0  0  0  0  0  0  0  0  0  0
   -2.5478   22.4209  -22.4200 C   0  0  0  0  0  0  0  0  0  0  0  0
   -1.3218   22.1506  -23.1908 C   0  0  0  0  0  0  0  0  0  0  0  0
   -1.0632   22.2690  -24.5589 C   0  0  0  0  0  0  0  0  0  0  0  0
   -1.8147   22.6599  -25.6322 C   0  0  0  0  0  0  0  0  0  0  0  0
   -3.6978   21.7180  -22.8751 N   0  0  0  0  0  0  0  0  0  0  0  0
   -4.8642   22.2718  -23.4212 C   0  0  0  0  0  0  0  0  0  0  0  0
   -4.9293   23.5148  -23.5329 O   0  0  0  0  0  0  0  0  0  0  0  0
   -3.6752   20.6573  -22.7941 H   0  0  0  0  0  0  0  0  0  0  0  0
   -6.0417   21.5281  -23.8853 C   0  0  0  0  0  0  0  0  0  0  0  0
   -5.6125   20.3082  -24.3959 F   0  0  0  0  0  0  0  0  0  0  0  0
   -7.0193   21.3729  -22.9416 F   0  0  0  0  0  0  0  0  0  0  0  0
   -6.6142   22.2023  -24.9412 F   0  0  0  0  0  0  0  0  0  0  0  0
   -3.5563   23.1496  -27.8191 C   0  0  0  0  0  0  0  0  0  0  0  0
   -2.1698   23.1126  -27.9806 O   0  0  0  0  0  0  0  0  0  0  0  0
 23 24  1  0  0  0
 24  1  1  0  0  0
  1  2  2  0  0  0
  2  3  1  0  0  0
  3  4  2  0  0  0
  4  5  1  0  0  0
  5  6  1  0  0  0
  5  7  1  0  0  0
  7  8  1  0  0  0
  8  9  1  0  0  0
  9 10  1  0  0  0
 10 11  1  0  0  0
 11 15  1  0  0  0
 15 16  1  0  0  0
 16 17  2  0  0  0
 16 19  1  0  0  0
 19 20  1  0  0  0
 19 21  1  0  0  0
 19 22  1  0  0  0
 11 12  1  0  0  0
 12 13  1  0  0  0
 13 14  2  0  0  0
 14  1  1  0  0  0
 13  4  1  0  0  0
 12  7  2  0  0  0
 15 18  1  0  0  0
M  END
> <minimizedAffinity>
-7.46261

> <CNNscore>
0.5657128692

> <CNNaffinity>
5.8700256348

> <CNN_VS>
3.3207490444

> <CNNaffinity_variance>
0.0788293332

$$$$
[H]c1c(OC([H])([H])[H])c([H])c2c3c(n(C([H])([H])[H])c2c1[H])C([H])([H])C([H])([H])C([H])([H])C3([H])N([H])C(=O)C(F)(F)F


 24 26  0  0  0  0  0  0  0  0999 V2000
   -4.6206   22.7274  -15.1469 C   0  0  0  0  0  0  0  0  0  0  0  0
   -4.0218   22.8219  -16.3882 C   0  0  0  0  0  0  0  0  0  0  0  0
   -4.7841   22.6119  -17.5242 C   0  0  0  0  0  0  0  0  0  0  0  0
   -6.1329   22.3094  -17.4429 C   0  0  0  0  0  0  0  0  0  0  0  0
   -7.0696   22.0667  -18.3722 N   0  0  0  0  0  0  0  0  0  0  0  0
   -6.7988   22.0809  -19.7982 C   0  0  0  0  0  0  0  0  0  0  0  0
   -8.2465   21.8209  -17.7542 C   0  0  0  0  0  0  0  0  0  0  0  0
   -9.5580   21.5025  -18.4055 C   0  0  0  0  0  0  0  0  0  0  0  0
  -10.2822   20.6087  -17.3906 C   0  0  0  0  0  0  0  0  0  0  0  0
  -10.4821   21.4782  -16.1661 C   0  0  0  0  0  0  0  0  0  0  0  0
   -9.1727   21.6886  -15.4109 C   0  0  0  0  0  0  0  0  0  0  0  0
   -8.0943   21.9003  -16.3919 C   0  0  0  0  0  0  0  0  0  0  0  0
   -6.7447   22.2118  -16.2065 C   0  0  0  0  0  0  0  0  0  0  0  0
   -5.9670   22.4242  -15.1022 C   0  0  0  0  0  0  0  0  0  0  0  0
   -9.3672   22.7686  -14.5056 N   0  0  0  0  0  0  0  0  0  0  0  0
   -9.0183   22.8055  -13.1483 C   0  0  0  0  0  0  0  0  0  0  0  0
   -8.4761   21.7947  -12.6522 O   0  0  0  0  0  0  0  0  0  0  0  0
   -9.8268   23.6453  -14.8960 H   0  0  0  0  0  0  0  0  0  0  0  0
   -9.2279   23.9313  -12.2298 C   0  0  0  0  0  0  0  0  0  0  0  0
  -10.2340   24.7368  -12.7512 F   0  0  0  0  0  0  0  0  0  0  0  0
   -9.4830   23.5650  -10.9371 F   0  0  0  0  0  0  0  0  0  0  0  0
   -8.0921   24.7102  -12.2038 F   0  0  0  0  0  0  0  0  0  0  0  0
   -4.5306   23.2797  -12.7924 C   0  0  0  0  0  0  0  0  0  0  0  0
   -3.8858   22.9321  -13.9812 O   0  0  0  0  0  0  0  0  0  0  0  0
 23 24  1  0  0  0
 24  1  1  0  0  0
  1  2  2  0  0  0
  2  3  1  0  0  0
  3  4  2  0  0  0
  4  5  1  0  0  0
  5  6  1  0  0  0
  5  7  1  0  0  0
  7  8  1  0  0  0
  8  9  1  0  0  0
  9 10  1  0  0  0
 10 11  1  0  0  0
 11 15  1  0  0  0
 15 16  1  0  0  0
 16 17  2  0  0  0
 16 19  1  0  0  0
 19 20  1  0  0  0
 19 21  1  0  0  0
 19 22  1  0  0  0
 11 12  1  0  0  0
 12 13  1  0  0  0
 13 14  2  0  0  0
 14  1  1  0  0  0
 13  4  1  0  0  0
 12  7  2  0  0  0
 15 18  1  0  0  0
M  END
> <minimizedAffinity>
-3.34948

> <CNNscore>
0.5521654487

> <CNNaffinity>
4.5691785812

> <CNN_VS>
2.5229425430

> <CNNaffinity_variance>
0.5860561132

$$$$
[H]c1c(OC([H])([H])[H])c([H])c2c3c(n(C([H])([H])[H])c2c1[H])C([H])([H])C([H])([H])C([H])([H])C3([H])N([H])C(=O)C(F)(F)F


 24 26  0  0  0  0  0  0  0  0999 V2000
   -4.8559   21.5888  -23.9840 C   0  0  0  0  0  0  0  0  0  0  0  0
   -4.0841   21.3973  -22.8544 C   0  0  0  0  0  0  0  0  0  0  0  0
   -2.7099   21.5371  -22.9431 C   0  0  0  0  0  0  0  0  0  0  0  0
   -2.0930   21.8644  -24.1388 C   0  0  0  0  0  0  0  0  0  0  0  0
   -0.8093   22.0539  -24.4794 N   0  0  0  0  0  0  0  0  0  0  0  0
    0.2900   21.9342  -23.5390 C   0  0  0  0  0  0  0  0  0  0  0  0
   -0.7457   22.3605  -25.7945 C   0  0  0  0  0  0  0  0  0  0  0  0
    0.4878   22.6507  -26.5943 C   0  0  0  0  0  0  0  0  0  0  0  0
    0.1436   22.1793  -28.0131 C   0  0  0  0  0  0  0  0  0  0  0  0
   -1.0086   23.0579  -28.4557 C   0  0  0  0  0  0  0  0  0  0  0  0
   -2.3068   22.6729  -27.7520 C   0  0  0  0  0  0  0  0  0  0  0  0
   -2.0053   22.3761  -26.3409 C   0  0  0  0  0  0  0  0  0  0  0  0
   -2.8539   22.0588  -25.2770 C   0  0  0  0  0  0  0  0  0  0  0  0
   -4.2085   21.9141  -25.1595 C   0  0  0  0  0  0  0  0  0  0  0  0
   -3.2330   23.7350  -27.9467 N   0  0  0  0  0  0  0  0  0  0  0  0
   -4.3622   23.7285  -28.7774 C   0  0  0  0  0  0  0  0  0  0  0  0
   -4.6072   22.6912  -29.4297 O   0  0  0  0  0  0  0  0  0  0  0  0
   -3.0534   24.6335  -27.4057 H   0  0  0  0  0  0  0  0  0  0  0  0
   -5.3067   24.8367  -28.9647 C   0  0  0  0  0  0  0  0  0  0  0  0
   -6.1327   24.5275  -30.0394 F   0  0  0  0  0  0  0  0  0  0  0  0
   -6.0223   25.1636  -27.8460 F   0  0  0  0  0  0  0  0  0  0  0  0
   -4.6099   25.9663  -29.3331 F   0  0  0  0  0  0  0  0  0  0  0  0
   -6.9321   21.7080  -22.7463 C   0  0  0  0  0  0  0  0  0  0  0  0
   -6.2418   21.4568  -23.9338 O   0  0  0  0  0  0  0  0  0  0  0  0
 23 24  1  0  0  0
 24  1  1  0  0  0
  1  2  2  0  0  0
  2  3  1  0  0  0
  3  4  2  0  0  0
  4  5  1  0  0  0
  5  6  1  0  0  0
  5  7  1  0  0  0
  7  8  1  0  0  0
  8  9  1  0  0  0
  9 10  1  0  0  0
 10 11  1  0  0  0
 11 15  1  0  0  0
 15 16  1  0  0  0
 16 17  2  0  0  0
 16 19  1  0  0  0
 19 20  1  0  0  0
 19 21  1  0  0  0
 19 22  1  0  0  0
 11 12  1  0  0  0
 12 13  1  0  0  0
 13 14  2  0  0  0
 14  1  1  0  0  0
 13  4  1  0  0  0
 12  7  2  0  0  0
 15 18  1  0  0  0
M  END
> <minimizedAffinity>
-8.23724

> <CNNscore>
0.4966562390

> <CNNaffinity>
6.1231279373

> <CNN_VS>
3.0410897732

> <CNNaffinity_variance>
0.0946914703

$$$$
[H]c1c([H])c([H])c(C([H])([H])OC(=O)N([H])[C@]([H])(C(=O)N([H])[C@]([H])(C(=O)c2nc3c([H])c([H])c([H])c([H])c3s2)C([H])([H])C([H])([H])C([H])([H])N=C(N([H])[H])N([H])[H])C([H])([H])c2c([H])c([H])c([H])c([H])c2[H])c([H])c1[H]


 47 50  0  0  0  0  0  0  0  0999 V2000
   -4.6479   24.2127  -23.1874 N   0  0  0  0  0  0  0  0  0  0  0  0
   -4.3049   22.8390  -23.1031 C   0  0  0  0  0  0  0  0  0  0  0  0
   -5.1904   21.9759  -22.8681 O   0  0  0  0  0  0  0  0  0  0  0  0
   -3.9472   24.9388  -23.3717 H   0  0  0  0  0  0  0  0  0  0  0  0
   -6.0504   24.6250  -23.0005 C   0  0  0  0  0  0  0  0  0  0  0  0
   -6.3961   25.5090  -24.1127 C   0  0  0  0  0  0  0  0  0  0  0  0
   -6.9369   26.6200  -23.9239 O   0  0  0  0  0  0  0  0  0  0  0  0
   -6.1044   25.0970  -25.4831 C   0  0  0  0  0  0  0  0  0  0  0  0
   -5.4438   25.7268  -26.4308 N   0  0  0  0  0  0  0  0  0  0  0  0
   -5.2867   25.1888  -27.6057 C   0  0  0  0  0  0  0  0  0  0  0  0
   -4.6035   25.7615  -28.6941 C   0  0  0  0  0  0  0  0  0  0  0  0
   -4.5018   25.1083  -29.8750 C   0  0  0  0  0  0  0  0  0  0  0  0
   -5.0449   23.8671  -30.0943 C   0  0  0  0  0  0  0  0  0  0  0  0
   -5.7175   23.2873  -29.0449 C   0  0  0  0  0  0  0  0  0  0  0  0
   -5.8327   23.9511  -27.8119 C   0  0  0  0  0  0  0  0  0  0  0  0
   -6.5451   23.6314  -26.2935 S   0  0  0  0  0  0  0  0  0  0  0  0
   -6.1683   25.2985  -21.6446 C   0  0  0  0  0  0  0  0  0  0  0  0
   -6.9393   24.4180  -20.7091 C   0  0  0  0  0  0  0  0  0  0  0  0
   -8.3678   24.2707  -21.2163 C   0  0  0  0  0  0  0  0  0  0  0  0
  -10.4097   27.3458  -21.0827 N   0  0  0  0  0  0  0  0  0  0  0  0
   -9.7317   26.1967  -21.5934 C   0  0  0  0  0  0  0  0  0  0  0  0
   -9.7631   25.8644  -22.9735 N   0  0  0  0  0  0  0  0  0  0  0  0
   -9.0830   25.4526  -20.7869 N   0  0  0  0  0  0  0  0  0  0  0  0
   -9.9891   27.9450  -20.3543 H   0  0  0  0  0  0  0  0  0  0  0  0
  -11.3577   27.5994  -21.4468 H   0  0  0  0  0  0  0  0  0  0  0  0
  -10.4019   25.1168  -23.2902 H   0  0  0  0  0  0  0  0  0  0  0  0
   -9.1637   26.3549  -23.6500 H   0  0  0  0  0  0  0  0  0  0  0  0
   -2.8515   22.4900  -23.3063 C   0  0  0  0  0  0  0  0  0  0  0  0
   -2.3849   21.9339  -22.0571 N   0  0  0  0  0  0  0  0  0  0  0  0
   -1.7323   22.6267  -21.0284 C   0  0  0  0  0  0  0  0  0  0  0  0
   -1.4999   23.8521  -21.1221 O   0  0  0  0  0  0  0  0  0  0  0  0
   -2.5414   20.8868  -21.8710 H   0  0  0  0  0  0  0  0  0  0  0  0
   -1.3281   21.9724  -19.8820 O   0  0  0  0  0  0  0  0  0  0  0  0
   -0.6390   20.7403  -19.9977 C   0  0  0  0  0  0  0  0  0  0  0  0
    0.8210   20.9872  -20.1654 C   0  0  0  0  0  0  0  0  0  0  0  0
    1.5241   21.7241  -19.2170 C   0  0  0  0  0  0  0  0  0  0  0  0
    2.8651   21.9489  -19.3743 C   0  0  0  0  0  0  0  0  0  0  0  0
    3.5140   21.4410  -20.4772 C   0  0  0  0  0  0  0  0  0  0  0  0
    2.8270   20.7211  -21.4033 C   0  0  0  0  0  0  0  0  0  0  0  0
    1.4715   20.4847  -21.2597 C   0  0  0  0  0  0  0  0  0  0  0  0
   -2.7438   21.6253  -24.4857 C   0  0  0  0  0  0  0  0  0  0  0  0
   -1.9595   22.0892  -25.6260 C   0  0  0  0  0  0  0  0  0  0  0  0
   -2.5853   22.4700  -26.8017 C   0  0  0  0  0  0  0  0  0  0  0  0
   -1.8043   22.8876  -27.8467 C   0  0  0  0  0  0  0  0  0  0  0  0
   -0.4113   22.9307  -27.7363 C   0  0  0  0  0  0  0  0  0  0  0  0
    0.2148   22.5534  -26.5712 C   0  0  0  0  0  0  0  0  0  0  0  0
   -0.5886   22.1293  -25.5120 C   0  0  0  0  0  0  0  0  0  0  0  0
 20 21  1  0  0  0
 21 22  1  0  0  0
 21 23  2  0  0  0
 23 19  1  0  0  0
 19 18  1  0  0  0
 18 17  1  0  0  0
 17  5  1  0  0  0
  5  1  1  0  0  0
  1  2  1  0  0  0
  2  3  2  0  0  0
  2 28  1  0  0  0
 28 41  1  0  0  0
 41 42  1  0  0  0
 42 43  2  0  0  0
 43 44  1  0  0  0
 44 45  2  0  0  0
 45 46  1  0  0  0
 46 47  2  0  0  0
 28 29  1  0  0  0
 29 30  1  0  0  0
 30 31  2  0  0  0
 30 33  1  0  0  0
 33 34  1  0  0  0
 34 35  1  0  0  0
 35 36  2  0  0  0
 36 37  1  0  0  0
 37 38  2  0  0  0
 38 39  1  0  0  0
 39 40  2  0  0  0
  5  6  1  0  0  0
  6  7  2  0  0  0
  6  8  1  0  0  0
  8  9  2  0  0  0
  9 10  1  0  0  0
 10 11  2  0  0  0
 11 12  1  0  0  0
 12 13  2  0  0  0
 13 14  1  0  0  0
 14 15  2  0  0  0
 15 16  1  0  0  0
 47 42  1  0  0  0
 40 35  1  0  0  0
 16  8  1  0  0  0
 15 10  1  0  0  0
 20 24  1  0  0  0
 20 25  1  0  0  0
 22 26  1  0  0  0
 22 27  1  0  0  0
  1  4  1  0  0  0
 29 32  1  0  0  0
M  END
> <minimizedAffinity>
-8.62654

> <CNNscore>
0.3426292241

> <CNNaffinity>
7.1324234009

> <CNN_VS>
2.4437766075

> <CNNaffinity_variance>
0.4366241097

$$$$
[H]c1c([H])c([H])c(C([H])([H])OC(=O)N([H])[C@]([H])(C(=O)N([H])[C@]([H])(C(=O)c2nc3c([H])c([H])c([H])c([H])c3s2)C([H])([H])C([H])([H])C([H])([H])N=C(N([H])[H])N([H])[H])C([H])([H])c2c([H])c([H])c([H])c([H])c2[H])c([H])c1[H]


 47 50  0  0  0  0  0  0  0  0999 V2000
   -4.6122   24.2398  -23.1703 N   0  0  0  0  0  0  0  0  0  0  0  0
   -4.2530   22.8934  -23.4355 C   0  0  0  0  0  0  0  0  0  0  0  0
   -5.1186   21.9814  -23.3780 O   0  0  0  0  0  0  0  0  0  0  0  0
   -3.9275   25.0028  -23.2038 H   0  0  0  0  0  0  0  0  0  0  0  0
   -6.0080   24.5664  -22.8286 C   0  0  0  0  0  0  0  0  0  0  0  0
   -6.5082   25.4728  -23.8612 C   0  0  0  0  0  0  0  0  0  0  0  0
   -7.3175   26.3874  -23.5951 O   0  0  0  0  0  0  0  0  0  0  0  0
   -6.0562   25.3184  -25.2413 C   0  0  0  0  0  0  0  0  0  0  0  0
   -6.2292   24.3185  -26.0787 N   0  0  0  0  0  0  0  0  0  0  0  0
   -5.7435   24.3666  -27.2855 C   0  0  0  0  0  0  0  0  0  0  0  0
   -5.8623   23.3652  -28.2665 C   0  0  0  0  0  0  0  0  0  0  0  0
   -5.3145   23.5234  -29.4940 C   0  0  0  0  0  0  0  0  0  0  0  0
   -4.6181   24.6464  -29.8650 C   0  0  0  0  0  0  0  0  0  0  0  0
   -4.4889   25.6388  -28.9226 C   0  0  0  0  0  0  0  0  0  0  0  0
   -5.0513   25.4914  -27.6435 C   0  0  0  0  0  0  0  0  0  0  0  0
   -5.1402   26.4203  -26.2137 S   0  0  0  0  0  0  0  0  0  0  0  0
   -6.0235   25.1788  -21.4391 C   0  0  0  0  0  0  0  0  0  0  0  0
   -6.0024   24.0918  -20.4082 C   0  0  0  0  0  0  0  0  0  0  0  0
   -6.8815   24.4948  -19.2315 C   0  0  0  0  0  0  0  0  0  0  0  0
   -4.8898   25.0377  -16.1685 N   0  0  0  0  0  0  0  0  0  0  0  0
   -5.7784   24.4370  -17.1122 C   0  0  0  0  0  0  0  0  0  0  0  0
   -6.4214   23.1990  -16.8476 N   0  0  0  0  0  0  0  0  0  0  0  0
   -5.9975   25.0299  -18.2192 N   0  0  0  0  0  0  0  0  0  0  0  0
   -4.8870   26.0562  -15.9979 H   0  0  0  0  0  0  0  0  0  0  0  0
   -4.2189   24.4429  -15.6287 H   0  0  0  0  0  0  0  0  0  0  0  0
   -6.0432   22.3403  -17.2797 H   0  0  0  0  0  0  0  0  0  0  0  0
   -7.2483   23.1515  -16.2380 H   0  0  0  0  0  0  0  0  0  0  0  0
   -2.8077   22.6331  -23.7800 C   0  0  0  0  0  0  0  0  0  0  0  0
   -2.2024   22.0580  -22.6009 N   0  0  0  0  0  0  0  0  0  0  0  0
   -1.8023   22.7476  -21.4484 C   0  0  0  0  0  0  0  0  0  0  0  0
   -1.9570   23.9849  -21.3506 O   0  0  0  0  0  0  0  0  0  0  0  0
   -2.0310   20.9970  -22.5775 H   0  0  0  0  0  0  0  0  0  0  0  0
   -1.2254   22.0770  -20.3886 O   0  0  0  0  0  0  0  0  0  0  0  0
   -0.6575   22.8232  -19.3271 C   0  0  0  0  0  0  0  0  0  0  0  0
    0.8087   22.5678  -19.2526 C   0  0  0  0  0  0  0  0  0  0  0  0
    1.6216   23.3606  -18.4478 C   0  0  0  0  0  0  0  0  0  0  0  0
    2.9680   23.1231  -18.3818 C   0  0  0  0  0  0  0  0  0  0  0  0
    3.5130   22.0945  -19.1169 C   0  0  0  0  0  0  0  0  0  0  0  0
    2.7187   21.3202  -19.9028 C   0  0  0  0  0  0  0  0  0  0  0  0
    1.3562   21.5467  -19.9811 C   0  0  0  0  0  0  0  0  0  0  0  0
   -2.7618   21.8200  -24.9994 C   0  0  0  0  0  0  0  0  0  0  0  0
   -1.8558   22.2166  -26.0730 C   0  0  0  0  0  0  0  0  0  0  0  0
   -0.4836   22.1443  -25.8979 C   0  0  0  0  0  0  0  0  0  0  0  0
    0.3241   22.5384  -26.9316 C   0  0  0  0  0  0  0  0  0  0  0  0
   -0.2158   23.0023  -28.1349 C   0  0  0  0  0  0  0  0  0  0  0  0
   -1.5776   23.0761  -28.3135 C   0  0  0  0  0  0  0  0  0  0  0  0
   -2.3927   22.6728  -27.2552 C   0  0  0  0  0  0  0  0  0  0  0  0
 20 21  1  0  0  0
 21 22  1  0  0  0
 21 23  2  0  0  0
 23 19  1  0  0  0
 19 18  1  0  0  0
 18 17  1  0  0  0
 17  5  1  0  0  0
  5  1  1  0  0  0
  1  2  1  0  0  0
  2  3  2  0  0  0
  2 28  1  0  0  0
 28 41  1  0  0  0
 41 42  1  0  0  0
 42 43  2  0  0  0
 43 44  1  0  0  0
 44 45  2  0  0  0
 45 46  1  0  0  0
 46 47  2  0  0  0
 28 29  1  0  0  0
 29 30  1  0  0  0
 30 31  2  0  0  0
 30 33  1  0  0  0
 33 34  1  0  0  0
 34 35  1  0  0  0
 35 36  2  0  0  0
 36 37  1  0  0  0
 37 38  2  0  0  0
 38 39  1  0  0  0
 39 40  2  0  0  0
  5  6  1  0  0  0
  6  7  2  0  0  0
  6  8  1  0  0  0
  8  9  2  0  0  0
  9 10  1  0  0  0
 10 11  2  0  0  0
 11 12  1  0  0  0
 12 13  2  0  0  0
 13 14  1  0  0  0
 14 15  2  0  0  0
 15 16  1  0  0  0
 47 42  1  0  0  0
 40 35  1  0  0  0
 16  8  1  0  0  0
 15 10  1  0  0  0
 20 24  1  0  0  0
 20 25  1  0  0  0
 22 26  1  0  0  0
 22 27  1  0  0  0
  1  4  1  0  0  0
 29 32  1  0  0  0
M  END
> <minimizedAffinity>
-9.09260

> <CNNscore>
0.3151247799

> <CNNaffinity>
7.1187391281

> <CNN_VS>
2.2432911396

> <CNNaffinity_variance>
0.1820130050

$$$$
[H]c1c([H])c([H])c(C([H])([H])OC(=O)N([H])[C@]([H])(C(=O)N([H])[C@]([H])(C(=O)c2nc3c([H])c([H])c([H])c([H])c3s2)C([H])([H])C([H])([H])C([H])([H])N=C(N([H])[H])N([H])[H])C([H])([H])c2c([H])c([H])c([H])c([H])c2[H])c([H])c1[H]


 47 50  0  0  0  0  0  0  0  0999 V2000
   -4.4601   23.4713  -23.8975 N   0  0  0  0  0  0  0  0  0  0  0  0
   -3.7159   23.3665  -22.6945 C   0  0  0  0  0  0  0  0  0  0  0  0
   -2.6868   24.0699  -22.5203 O   0  0  0  0  0  0  0  0  0  0  0  0
   -5.2991   22.9069  -24.0698 H   0  0  0  0  0  0  0  0  0  0  0  0
   -4.0224   24.4120  -24.9439 C   0  0  0  0  0  0  0  0  0  0  0  0
   -5.1098   25.3670  -25.1532 C   0  0  0  0  0  0  0  0  0  0  0  0
   -5.0980   26.1758  -26.1060 O   0  0  0  0  0  0  0  0  0  0  0  0
   -6.2454   25.3841  -24.2351 C   0  0  0  0  0  0  0  0  0  0  0  0
   -6.3129   25.7867  -22.9844 N   0  0  0  0  0  0  0  0  0  0  0  0
   -7.4315   25.7223  -22.3218 C   0  0  0  0  0  0  0  0  0  0  0  0
   -7.6272   26.1203  -20.9866 C   0  0  0  0  0  0  0  0  0  0  0  0
   -8.8399   26.0078  -20.3963 C   0  0  0  0  0  0  0  0  0  0  0  0
   -9.9439   25.5084  -21.0408 C   0  0  0  0  0  0  0  0  0  0  0  0
   -9.7769   25.1128  -22.3467 C   0  0  0  0  0  0  0  0  0  0  0  0
   -8.5251   25.2227  -22.9752 C   0  0  0  0  0  0  0  0  0  0  0  0
   -7.8759   24.8723  -24.5151 S   0  0  0  0  0  0  0  0  0  0  0  0
   -3.6848   23.6106  -26.1888 C   0  0  0  0  0  0  0  0  0  0  0  0
   -3.3715   22.1956  -25.8085 C   0  0  0  0  0  0  0  0  0  0  0  0
   -1.8759   21.9513  -25.9604 C   0  0  0  0  0  0  0  0  0  0  0  0
   -0.0128   23.3102  -28.8459 N   0  0  0  0  0  0  0  0  0  0  0  0
   -0.2961   22.7877  -27.5468 C   0  0  0  0  0  0  0  0  0  0  0  0
    0.7265   22.5974  -26.5803 N   0  0  0  0  0  0  0  0  0  0  0  0
   -1.4986   22.4855  -27.2507 N   0  0  0  0  0  0  0  0  0  0  0  0
   -0.6413   23.9874  -29.3074 H   0  0  0  0  0  0  0  0  0  0  0  0
    0.8502   23.0081  -29.3551 H   0  0  0  0  0  0  0  0  0  0  0  0
    1.0973   21.6449  -26.4301 H   0  0  0  0  0  0  0  0  0  0  0  0
    1.0953   23.3888  -26.0368 H   0  0  0  0  0  0  0  0  0  0  0  0
   -4.2230   22.3848  -21.6675 C   0  0  0  0  0  0  0  0  0  0  0  0
   -3.0697   21.6547  -21.1939 N   0  0  0  0  0  0  0  0  0  0  0  0
   -2.2906   21.9643  -20.0709 C   0  0  0  0  0  0  0  0  0  0  0  0
   -2.5597   22.9512  -19.3512 O   0  0  0  0  0  0  0  0  0  0  0  0
   -2.7558   20.7820  -21.7375 H   0  0  0  0  0  0  0  0  0  0  0  0
   -1.2030   21.1857  -19.7294 O   0  0  0  0  0  0  0  0  0  0  0  0
   -0.5389   21.4284  -18.5021 C   0  0  0  0  0  0  0  0  0  0  0  0
    0.8924   21.7577  -18.7541 C   0  0  0  0  0  0  0  0  0  0  0  0
    1.5370   22.7267  -17.9909 C   0  0  0  0  0  0  0  0  0  0  0  0
    2.8518   23.0265  -18.2251 C   0  0  0  0  0  0  0  0  0  0  0  0
    3.5327   22.3630  -19.2208 C   0  0  0  0  0  0  0  0  0  0  0  0
    2.9029   21.4163  -19.9660 C   0  0  0  0  0  0  0  0  0  0  0  0
    1.5745   21.1013  -19.7425 C   0  0  0  0  0  0  0  0  0  0  0  0
   -4.9865   23.1246  -20.6576 C   0  0  0  0  0  0  0  0  0  0  0  0
   -6.3755   22.7481  -20.4138 C   0  0  0  0  0  0  0  0  0  0  0  0
   -6.9586   22.9732  -19.1776 C   0  0  0  0  0  0  0  0  0  0  0  0
   -8.2616   22.5920  -18.9956 C   0  0  0  0  0  0  0  0  0  0  0  0
   -8.9899   21.9910  -20.0266 C   0  0  0  0  0  0  0  0  0  0  0  0
   -8.4154   21.7651  -21.2557 C   0  0  0  0  0  0  0  0  0  0  0  0
   -7.0877   22.1565  -21.4320 C   0  0  0  0  0  0  0  0  0  0  0  0
 20 21  1  0  0  0
 21 22  1  0  0  0
 21 23  2  0  0  0
 23 19  1  0  0  0
 19 18  1  0  0  0
 18 17  1  0  0  0
 17  5  1  0  0  0
  5  1  1  0  0  0
  1  2  1  0  0  0
  2  3  2  0  0  0
  2 28  1  0  0  0
 28 41  1  0  0  0
 41 42  1  0  0  0
 42 43  2  0  0  0
 43 44  1  0  0  0
 44 45  2  0  0  0
 45 46  1  0  0  0
 46 47  2  0  0  0
 28 29  1  0  0  0
 29 30  1  0  0  0
 30 31  2  0  0  0
 30 33  1  0  0  0
 33 34  1  0  0  0
 34 35  1  0  0  0
 35 36  2  0  0  0
 36 37  1  0  0  0
 37 38  2  0  0  0
 38 39  1  0  0  0
 39 40  2  0  0  0
  5  6  1  0  0  0
  6  7  2  0  0  0
  6  8  1  0  0  0
  8  9  2  0  0  0
  9 10  1  0  0  0
 10 11  2  0  0  0
 11 12  1  0  0  0
 12 13  2  0  0  0
 13 14  1  0  0  0
 14 15  2  0  0  0
 15 16  1  0  0  0
 47 42  1  0  0  0
 40 35  1  0  0  0
 16  8  1  0  0  0
 15 10  1  0  0  0
 20 24  1  0  0  0
 20 25  1  0  0  0
 22 26  1  0  0  0
 22 27  1  0  0  0
  1  4  1  0  0  0
 29 32  1  0  0  0
M  END
> <minimizedAffinity>
-7.39187

> <CNNscore>
0.3057063222

> <CNNaffinity>
6.8704590797

> <CNN_VS>
2.1003427505

> <CNNaffinity_variance>
0.2833630443

$$$$
[H]c1c([H])c([H])c(C([H])([H])OC(=O)N([H])[C@]([H])(C(=O)N([H])[C@]([H])(C(=O)c2nc3c([H])c([H])c([H])c([H])c3s2)C([H])([H])C([H])([H])C([H])([H])N=C(N([H])[H])N([H])[H])C([H])([H])c2c([H])c([H])c([H])c([H])c2[H])c([H])c1[H]


 47 50  0  0  0  0  0  0  0  0999 V2000
   -4.4905   23.0900  -22.8785 N   0  0  0  0  0  0  0  0  0  0  0  0
   -5.8593   22.9648  -22.5281 C   0  0  0  0  0  0  0  0  0  0  0  0
   -6.2863   21.9043  -22.0016 O   0  0  0  0  0  0  0  0  0  0  0  0
   -4.1153   23.9395  -23.3142 H   0  0  0  0  0  0  0  0  0  0  0  0
   -3.5681   21.9702  -22.6199 C   0  0  0  0  0  0  0  0  0  0  0  0
   -2.4636   22.4927  -21.8168 C   0  0  0  0  0  0  0  0  0  0  0  0
   -2.5935   23.5147  -21.1090 O   0  0  0  0  0  0  0  0  0  0  0  0
   -1.1722   21.8109  -21.8304 C   0  0  0  0  0  0  0  0  0  0  0  0
   -0.1794   21.9019  -22.6889 N   0  0  0  0  0  0  0  0  0  0  0  0
    0.9075   21.2036  -22.5291 C   0  0  0  0  0  0  0  0  0  0  0  0
    2.0314   21.2156  -23.3754 C   0  0  0  0  0  0  0  0  0  0  0  0
    3.1118   20.4446  -23.1103 C   0  0  0  0  0  0  0  0  0  0  0  0
    3.1900   19.6126  -22.0216 C   0  0  0  0  0  0  0  0  0  0  0  0
    2.1033   19.5841  -21.1801 C   0  0  0  0  0  0  0  0  0  0  0  0
    0.9736   20.3779  -21.4399 C   0  0  0  0  0  0  0  0  0  0  0  0
   -0.5420   20.6561  -20.7043 S   0  0  0  0  0  0  0  0  0  0  0  0
   -3.1194   21.4088  -23.9576 C   0  0  0  0  0  0  0  0  0  0  0  0
   -3.6094   22.2910  -25.0651 C   0  0  0  0  0  0  0  0  0  0  0  0
   -2.7478   22.0741  -26.3021 C   0  0  0  0  0  0  0  0  0  0  0  0
    0.8302   22.9900  -26.2476 N   0  0  0  0  0  0  0  0  0  0  0  0
   -0.4954   22.7524  -26.7245 C   0  0  0  0  0  0  0  0  0  0  0  0
   -0.8480   22.9636  -28.0836 N   0  0  0  0  0  0  0  0  0  0  0  0
   -1.3821   22.3404  -25.9065 N   0  0  0  0  0  0  0  0  0  0  0  0
    1.2835   22.3589  -25.5674 H   0  0  0  0  0  0  0  0  0  0  0  0
    1.3679   23.8211  -26.5875 H   0  0  0  0  0  0  0  0  0  0  0  0
   -1.3550   23.8273  -28.3370 H   0  0  0  0  0  0  0  0  0  0  0  0
   -0.6060   22.2736  -28.8067 H   0  0  0  0  0  0  0  0  0  0  0  0
   -6.7446   24.1507  -22.8204 C   0  0  0  0  0  0  0  0  0  0  0  0
   -6.7578   24.3084  -24.2564 N   0  0  0  0  0  0  0  0  0  0  0  0
   -6.7928   25.5189  -24.9619 C   0  0  0  0  0  0  0  0  0  0  0  0
   -6.8090   26.6156  -24.3608 O   0  0  0  0  0  0  0  0  0  0  0  0
   -6.7384   23.4259  -24.8700 H   0  0  0  0  0  0  0  0  0  0  0  0
   -6.8105   25.5317  -26.3422 O   0  0  0  0  0  0  0  0  0  0  0  0
   -5.6108   25.8023  -27.0449 C   0  0  0  0  0  0  0  0  0  0  0  0
   -5.5666   25.0047  -28.3028 C   0  0  0  0  0  0  0  0  0  0  0  0
   -5.5888   25.6403  -29.5408 C   0  0  0  0  0  0  0  0  0  0  0  0
   -5.5480   24.9044  -30.6942 C   0  0  0  0  0  0  0  0  0  0  0  0
   -5.4847   23.5311  -30.6217 C   0  0  0  0  0  0  0  0  0  0  0  0
   -5.4628   22.9105  -29.4124 C   0  0  0  0  0  0  0  0  0  0  0  0
   -5.5035   23.6391  -28.2371 C   0  0  0  0  0  0  0  0  0  0  0  0
   -8.0433   23.9284  -22.1767 C   0  0  0  0  0  0  0  0  0  0  0  0
   -8.8655   25.0861  -21.8385 C   0  0  0  0  0  0  0  0  0  0  0  0
   -9.9981   25.3844  -22.5781 C   0  0  0  0  0  0  0  0  0  0  0  0
  -10.7301   26.4878  -22.2274 C   0  0  0  0  0  0  0  0  0  0  0  0
  -10.3497   27.2961  -21.1520 C   0  0  0  0  0  0  0  0  0  0  0  0
   -9.2259   27.0042  -20.4147 C   0  0  0  0  0  0  0  0  0  0  0  0
   -8.4862   25.8784  -20.7791 C   0  0  0  0  0  0  0  0  0  0  0  0
 20 21  1  0  0  0
 21 22  1  0  0  0
 21 23  2  0  0  0
 23 19  1  0  0  0
 19 18  1  0  0  0
 18 17  1  0  0  0
 17  5  1  0  0  0
  5  1  1  0  0  0
  1  2  1  0  0  0
  2  3  2  0  0  0
  2 28  1  0  0  0
 28 41  1  0  0  0
 41 42  1  0  0  0
 42 43  2  0  0  0
 43 44  1  0  0  0
 44 45  2  0  0  0
 45 46  1  0  0  0
 46 47  2  0  0  0
 28 29  1  0  0  0
 29 30  1  0  0  0
 30 31  2  0  0  0
 30 33  1  0  0  0
 33 34  1  0  0  0
 34 35  1  0  0  0
 35 36  2  0  0  0
 36 37  1  0  0  0
 37 38  2  0  0  0
 38 39  1  0  0  0
 39 40  2  0  0  0
  5  6  1  0  0  0
  6  7  2  0  0  0
  6  8  1  0  0  0
  8  9  2  0  0  0
  9 10  1  0  0  0
 10 11  2  0  0  0
 11 12  1  0  0  0
 12 13  2  0  0  0
 13 14  1  0  0  0
 14 15  2  0  0  0
 15 16  1  0  0  0
 47 42  1  0  0  0
 40 35  1  0  0  0
 16  8  1  0  0  0
 15 10  1  0  0  0
 20 24  1  0  0  0
 20 25  1  0  0  0
 22 26  1  0  0  0
 22 27  1  0  0  0
  1  4  1  0  0  0
 29 32  1  0  0  0
M  END
> <minimizedAffinity>
-8.66659

> <CNNscore>
0.2979928553

> <CNNaffinity>
7.2419424057

> <CNN_VS>
2.1580471992

> <CNNaffinity_variance>
0.3372978866

$$$$
[H]c1c([H])c([H])c(C([H])([H])OC(=O)N([H])[C@]([H])(C(=O)N([H])[C@]([H])(C(=O)c2nc3c([H])c([H])c([H])c([H])c3s2)C([H])([H])C([H])([H])C([H])([H])N=C(N([H])[H])N([H])[H])C([H])([H])c2c([H])c([H])c([H])c([H])c2[H])c([H])c1[H]


 47 50  0  0  0  0  0  0  0  0999 V2000
   -4.3556   24.2182  -23.4287 N   0  0  0  0  0  0  0  0  0  0  0  0
   -3.9265   22.8758  -23.5894 C   0  0  0  0  0  0  0  0  0  0  0  0
   -4.6944   21.9232  -23.2945 O   0  0  0  0  0  0  0  0  0  0  0  0
   -3.7499   25.0144  -23.6550 H   0  0  0  0  0  0  0  0  0  0  0  0
   -5.7096   24.4924  -22.9157 C   0  0  0  0  0  0  0  0  0  0  0  0
   -6.3849   25.3374  -23.8995 C   0  0  0  0  0  0  0  0  0  0  0  0
   -7.2690   26.1553  -23.5650 O   0  0  0  0  0  0  0  0  0  0  0  0
   -6.0244   25.2356  -25.3111 C   0  0  0  0  0  0  0  0  0  0  0  0
   -6.1765   24.2338  -26.1503 N   0  0  0  0  0  0  0  0  0  0  0  0
   -5.7862   24.3346  -27.3880 C   0  0  0  0  0  0  0  0  0  0  0  0
   -5.8948   23.3373  -28.3744 C   0  0  0  0  0  0  0  0  0  0  0  0
   -5.4533   23.5531  -29.6354 C   0  0  0  0  0  0  0  0  0  0  0  0
   -4.8797   24.7335  -30.0371 C   0  0  0  0  0  0  0  0  0  0  0  0
   -4.7628   25.7232  -29.0901 C   0  0  0  0  0  0  0  0  0  0  0  0
   -5.2160   25.5163  -27.7764 C   0  0  0  0  0  0  0  0  0  0  0  0
   -5.2750   26.4195  -26.3286 S   0  0  0  0  0  0  0  0  0  0  0  0
   -5.5747   25.1527  -21.5549 C   0  0  0  0  0  0  0  0  0  0  0  0
   -6.5203   24.5105  -20.5863 C   0  0  0  0  0  0  0  0  0  0  0  0
   -6.0582   23.0884  -20.2969 C   0  0  0  0  0  0  0  0  0  0  0  0
   -2.7027   22.4712  -18.8814 N   0  0  0  0  0  0  0  0  0  0  0  0
   -3.9173   22.2792  -19.6086 C   0  0  0  0  0  0  0  0  0  0  0  0
   -4.1636   21.0930  -20.3491 N   0  0  0  0  0  0  0  0  0  0  0  0
   -4.8006   23.1981  -19.5903 N   0  0  0  0  0  0  0  0  0  0  0  0
   -2.6931   22.9129  -17.9480 H   0  0  0  0  0  0  0  0  0  0  0  0
   -1.7916   22.1612  -19.2926 H   0  0  0  0  0  0  0  0  0  0  0  0
   -4.0366   21.1118  -21.3742 H   0  0  0  0  0  0  0  0  0  0  0  0
   -4.4627   20.2282  -19.8797 H   0  0  0  0  0  0  0  0  0  0  0  0
   -2.5296   22.6701  -24.1205 C   0  0  0  0  0  0  0  0  0  0  0  0
   -1.7775   22.0374  -23.0615 N   0  0  0  0  0  0  0  0  0  0  0  0
   -1.2856   22.6557  -21.9040 C   0  0  0  0  0  0  0  0  0  0  0  0
   -1.4812   23.8723  -21.6897 O   0  0  0  0  0  0  0  0  0  0  0  0
   -1.5598   20.9878  -23.1430 H   0  0  0  0  0  0  0  0  0  0  0  0
   -0.5705   21.9357  -20.9682 O   0  0  0  0  0  0  0  0  0  0  0  0
   -0.3251   20.5596  -21.1970 C   0  0  0  0  0  0  0  0  0  0  0  0
    1.1074   20.3495  -21.5498 C   0  0  0  0  0  0  0  0  0  0  0  0
    1.9115   19.5249  -20.7685 C   0  0  0  0  0  0  0  0  0  0  0  0
    3.2269   19.3343  -21.0957 C   0  0  0  0  0  0  0  0  0  0  0  0
    3.7493   19.9637  -22.2030 C   0  0  0  0  0  0  0  0  0  0  0  0
    2.9637   20.7690  -22.9660 C   0  0  0  0  0  0  0  0  0  0  0  0
    1.6324   20.9726  -22.6495 C   0  0  0  0  0  0  0  0  0  0  0  0
   -2.6192   21.9348  -25.3860 C   0  0  0  0  0  0  0  0  0  0  0  0
   -1.7910   22.3663  -26.5078 C   0  0  0  0  0  0  0  0  0  0  0  0
   -2.3740   22.8584  -27.6640 C   0  0  0  0  0  0  0  0  0  0  0  0
   -1.5539   23.2400  -28.6926 C   0  0  0  0  0  0  0  0  0  0  0  0
   -0.1637   23.1382  -28.5849 C   0  0  0  0  0  0  0  0  0  0  0  0
    0.4199   22.6499  -27.4392 C   0  0  0  0  0  0  0  0  0  0  0  0
   -0.4232   22.2635  -26.3966 C   0  0  0  0  0  0  0  0  0  0  0  0
 20 21  1  0  0  0
 21 22  1  0  0  0
 21 23  2  0  0  0
 23 19  1  0  0  0
 19 18  1  0  0  0
 18 17  1  0  0  0
 17  5  1  0  0  0
  5  1  1  0  0  0
  1  2  1  0  0  0
  2  3  2  0  0  0
  2 28  1  0  0  0
 28 41  1  0  0  0
 41 42  1  0  0  0
 42 43  2  0  0  0
 43 44  1  0  0  0
 44 45  2  0  0  0
 45 46  1  0  0  0
 46 47  2  0  0  0
 28 29  1  0  0  0
 29 30  1  0  0  0
 30 31  2  0  0  0
 30 33  1  0  0  0
 33 34  1  0  0  0
 34 35  1  0  0  0
 35 36  2  0  0  0
 36 37  1  0  0  0
 37 38  2  0  0  0
 38 39  1  0  0  0
 39 40  2  0  0  0
  5  6  1  0  0  0
  6  7  2  0  0  0
  6  8  1  0  0  0
  8  9  2  0  0  0
  9 10  1  0  0  0
 10 11  2  0  0  0
 11 12  1  0  0  0
 12 13  2  0  0  0
 13 14  1  0  0  0
 14 15  2  0  0  0
 15 16  1  0  0  0
 47 42  1  0  0  0
 40 35  1  0  0  0
 16  8  1  0  0  0
 15 10  1  0  0  0
 20 24  1  0  0  0
 20 25  1  0  0  0
 22 26  1  0  0  0
 22 27  1  0  0  0
  1  4  1  0  0  0
 29 32  1  0  0  0
M  END
> <minimizedAffinity>
-8.81544

> <CNNscore>
0.2216019481

> <CNNaffinity>
6.8884267807

> <CNN_VS>
1.5264887810

> <CNNaffinity_variance>
0.5193827152

$$$$
[H]c1c([H])c([H])c(C([H])([H])OC(=O)N([H])[C@]([H])(C(=O)N([H])[C@]([H])(C(=O)c2nc3c([H])c([H])c([H])c([H])c3s2)C([H])([H])C([H])([H])C([H])([H])N=C(N([H])[H])N([H])[H])C([H])([H])c2c([H])c([H])c([H])c([H])c2[H])c([H])c1[H]


 47 50  0  0  0  0  0  0  0  0999 V2000
   -4.4457   24.2303  -23.2591 N   0  0  0  0  0  0  0  0  0  0  0  0
   -4.0390   22.8930  -23.5006 C   0  0  0  0  0  0  0  0  0  0  0  0
   -4.8597   21.9468  -23.3769 O   0  0  0  0  0  0  0  0  0  0  0  0
   -3.7978   25.0207  -23.3462 H   0  0  0  0  0  0  0  0  0  0  0  0
   -5.8383   24.5070  -22.8642 C   0  0  0  0  0  0  0  0  0  0  0  0
   -6.4010   25.4162  -23.8615 C   0  0  0  0  0  0  0  0  0  0  0  0
   -7.2160   26.3105  -23.5478 O   0  0  0  0  0  0  0  0  0  0  0  0
   -6.0066   25.2892  -25.2619 C   0  0  0  0  0  0  0  0  0  0  0  0
   -6.1890   24.2938  -26.1026 N   0  0  0  0  0  0  0  0  0  0  0  0
   -5.7588   24.3683  -27.3289 C   0  0  0  0  0  0  0  0  0  0  0  0
   -5.8934   23.3743  -28.3155 C   0  0  0  0  0  0  0  0  0  0  0  0
   -5.4052   23.5608  -29.5640 C   0  0  0  0  0  0  0  0  0  0  0  0
   -4.7571   24.7067  -29.9521 C   0  0  0  0  0  0  0  0  0  0  0  0
   -4.6136   25.6924  -29.0046 C   0  0  0  0  0  0  0  0  0  0  0  0
   -5.1144   25.5157  -27.7038 C   0  0  0  0  0  0  0  0  0  0  0  0
   -5.1653   26.4266  -26.2605 S   0  0  0  0  0  0  0  0  0  0  0  0
   -5.8247   25.0928  -21.4633 C   0  0  0  0  0  0  0  0  0  0  0  0
   -6.1827   24.0310  -20.4687 C   0  0  0  0  0  0  0  0  0  0  0  0
   -6.9976   24.6500  -19.3406 C   0  0  0  0  0  0  0  0  0  0  0  0
   -4.8712   25.0478  -16.3466 N   0  0  0  0  0  0  0  0  0  0  0  0
   -5.8261   24.5086  -17.2623 C   0  0  0  0  0  0  0  0  0  0  0  0
   -6.5311   23.3081  -16.9835 N   0  0  0  0  0  0  0  0  0  0  0  0
   -6.0486   25.1233  -18.3566 N   0  0  0  0  0  0  0  0  0  0  0  0
   -4.8025   26.0628  -16.1692 H   0  0  0  0  0  0  0  0  0  0  0  0
   -4.2179   24.4098  -15.8352 H   0  0  0  0  0  0  0  0  0  0  0  0
   -6.2195   22.4326  -17.4348 H   0  0  0  0  0  0  0  0  0  0  0  0
   -7.3375   23.3036  -16.3453 H   0  0  0  0  0  0  0  0  0  0  0  0
   -2.6001   22.6846  -23.9025 C   0  0  0  0  0  0  0  0  0  0  0  0
   -1.9187   22.1726  -22.7359 N   0  0  0  0  0  0  0  0  0  0  0  0
   -1.5270   22.9084  -21.6093 C   0  0  0  0  0  0  0  0  0  0  0  0
   -1.7605   24.1344  -21.5263 O   0  0  0  0  0  0  0  0  0  0  0  0
   -1.6762   21.1259  -22.7012 H   0  0  0  0  0  0  0  0  0  0  0  0
   -0.8715   22.2971  -20.5594 O   0  0  0  0  0  0  0  0  0  0  0  0
   -0.8960   22.9077  -19.2816 C   0  0  0  0  0  0  0  0  0  0  0  0
   -1.5736   22.0120  -18.3022 C   0  0  0  0  0  0  0  0  0  0  0  0
   -1.0842   20.7312  -18.0634 C   0  0  0  0  0  0  0  0  0  0  0  0
   -1.7092   19.9113  -17.1630 C   0  0  0  0  0  0  0  0  0  0  0  0
   -2.8254   20.3621  -16.4949 C   0  0  0  0  0  0  0  0  0  0  0  0
   -3.3031   21.6133  -16.7282 C   0  0  0  0  0  0  0  0  0  0  0  0
   -2.6836   22.4547  -17.6349 C   0  0  0  0  0  0  0  0  0  0  0  0
   -2.5718   21.8370  -25.0987 C   0  0  0  0  0  0  0  0  0  0  0  0
   -1.7988   22.2810  -26.2546 C   0  0  0  0  0  0  0  0  0  0  0  0
   -2.4383   22.6860  -27.4147 C   0  0  0  0  0  0  0  0  0  0  0  0
   -1.6680   23.0834  -28.4755 C   0  0  0  0  0  0  0  0  0  0  0  0
   -0.2722   23.0827  -28.3959 C   0  0  0  0  0  0  0  0  0  0  0  0
    0.3674   22.6813  -27.2463 C   0  0  0  0  0  0  0  0  0  0  0  0
   -0.4252   22.2780  -26.1709 C   0  0  0  0  0  0  0  0  0  0  0  0
 20 21  1  0  0  0
 21 22  1  0  0  0
 21 23  2  0  0  0
 23 19  1  0  0  0
 19 18  1  0  0  0
 18 17  1  0  0  0
 17  5  1  0  0  0
  5  1  1  0  0  0
  1  2  1  0  0  0
  2  3  2  0  0  0
  2 28  1  0  0  0
 28 41  1  0  0  0
 41 42  1  0  0  0
 42 43  2  0  0  0
 43 44  1  0  0  0
 44 45  2  0  0  0
 45 46  1  0  0  0
 46 47  2  0  0  0
 28 29  1  0  0  0
 29 30  1  0  0  0
 30 31  2  0  0  0
 30 33  1  0  0  0
 33 34  1  0  0  0
 34 35  1  0  0  0
 35 36  2  0  0  0
 36 37  1  0  0  0
 37 38  2  0  0  0
 38 39  1  0  0  0
 39 40  2  0  0  0
  5  6  1  0  0  0
  6  7  2  0  0  0
  6  8  1  0  0  0
  8  9  2  0  0  0
  9 10  1  0  0  0
 10 11  2  0  0  0
 11 12  1  0  0  0
 12 13  2  0  0  0
 13 14  1  0  0  0
 14 15  2  0  0  0
 15 16  1  0  0  0
 47 42  1  0  0  0
 40 35  1  0  0  0
 16  8  1  0  0  0
 15 10  1  0  0  0
 20 24  1  0  0  0
 20 25  1  0  0  0
 22 26  1  0  0  0
 22 27  1  0  0  0
  1  4  1  0  0  0
 29 32  1  0  0  0
M  END
> <minimizedAffinity>
-8.73302

> <CNNscore>
0.2172092050

> <CNNaffinity>
6.8319520950

> <CNN_VS>
1.4839628935

> <CNNaffinity_variance>
0.2661436200

$$$$
[H]c1c([H])c([H])c(C([H])([H])OC(=O)N([H])[C@]([H])(C(=O)N([H])[C@]([H])(C(=O)c2nc3c([H])c([H])c([H])c([H])c3s2)C([H])([H])C([H])([H])C([H])([H])N=C(N([H])[H])N([H])[H])C([H])([H])c2c([H])c([H])c([H])c([H])c2[H])c([H])c1[H]


 47 50  0  0  0  0  0  0  0  0999 V2000
   -3.6618   23.1960  -21.9932 N   0  0  0  0  0  0  0  0  0  0  0  0
   -5.0533   22.9771  -22.1601 C   0  0  0  0  0  0  0  0  0  0  0  0
   -5.5843   21.9150  -21.7429 O   0  0  0  0  0  0  0  0  0  0  0  0
   -3.2006   24.0488  -22.3280 H   0  0  0  0  0  0  0  0  0  0  0  0
   -2.8395   22.1719  -21.3248 C   0  0  0  0  0  0  0  0  0  0  0  0
   -2.0735   22.8448  -20.2766 C   0  0  0  0  0  0  0  0  0  0  0  0
   -1.1655   23.6596  -20.5483 O   0  0  0  0  0  0  0  0  0  0  0  0
   -2.3692   22.5693  -18.8732 C   0  0  0  0  0  0  0  0  0  0  0  0
   -3.3158   23.0554  -18.0995 N   0  0  0  0  0  0  0  0  0  0  0  0
   -3.4193   22.6827  -16.8566 C   0  0  0  0  0  0  0  0  0  0  0  0
   -4.3844   23.1296  -15.9356 C   0  0  0  0  0  0  0  0  0  0  0  0
   -4.3973   22.6716  -14.6621 C   0  0  0  0  0  0  0  0  0  0  0  0
   -3.4909   21.7583  -14.1847 C   0  0  0  0  0  0  0  0  0  0  0  0
   -2.5380   21.3069  -15.0668 C   0  0  0  0  0  0  0  0  0  0  0  0
   -2.5099   21.7716  -16.3925 C   0  0  0  0  0  0  0  0  0  0  0  0
   -1.5527   21.5026  -17.7805 S   0  0  0  0  0  0  0  0  0  0  0  0
   -1.9623   21.5116  -22.3738 C   0  0  0  0  0  0  0  0  0  0  0  0
   -1.9710   22.3314  -23.6279 C   0  0  0  0  0  0  0  0  0  0  0  0
   -0.9299   21.7848  -24.5958 C   0  0  0  0  0  0  0  0  0  0  0  0
   -0.9056   22.9967  -28.0850 N   0  0  0  0  0  0  0  0  0  0  0  0
   -0.4471   22.5421  -26.8105 C   0  0  0  0  0  0  0  0  0  0  0  0
    0.9362   22.4064  -26.5207 N   0  0  0  0  0  0  0  0  0  0  0  0
   -1.3042   22.2518  -25.9128 N   0  0  0  0  0  0  0  0  0  0  0  0
   -1.7032   23.6465  -28.1746 H   0  0  0  0  0  0  0  0  0  0  0  0
   -0.4307   22.6712  -28.9590 H   0  0  0  0  0  0  0  0  0  0  0  0
    1.3595   21.4644  -26.5478 H   0  0  0  0  0  0  0  0  0  0  0  0
    1.5113   23.2264  -26.2876 H   0  0  0  0  0  0  0  0  0  0  0  0
   -5.8326   24.0682  -22.8513 C   0  0  0  0  0  0  0  0  0  0  0  0
   -5.1329   24.3547  -24.0824 N   0  0  0  0  0  0  0  0  0  0  0  0
   -5.1559   23.5845  -25.2531 C   0  0  0  0  0  0  0  0  0  0  0  0
   -5.8311   22.5338  -25.3209 O   0  0  0  0  0  0  0  0  0  0  0  0
   -4.5273   25.2414  -24.1343 H   0  0  0  0  0  0  0  0  0  0  0  0
   -4.4318   23.9670  -26.3644 O   0  0  0  0  0  0  0  0  0  0  0  0
   -4.4107   23.1195  -27.4991 C   0  0  0  0  0  0  0  0  0  0  0  0
   -4.6489   23.9174  -28.7350 C   0  0  0  0  0  0  0  0  0  0  0  0
   -5.5349   23.4625  -29.7071 C   0  0  0  0  0  0  0  0  0  0  0  0
   -5.7512   24.1980  -30.8410 C   0  0  0  0  0  0  0  0  0  0  0  0
   -5.0864   25.3912  -31.0136 C   0  0  0  0  0  0  0  0  0  0  0  0
   -4.2211   25.8354  -30.0638 C   0  0  0  0  0  0  0  0  0  0  0  0
   -3.9909   25.1044  -28.9121 C   0  0  0  0  0  0  0  0  0  0  0  0
   -7.2264   23.6311  -22.9798 C   0  0  0  0  0  0  0  0  0  0  0  0
   -8.2565   24.3429  -22.2295 C   0  0  0  0  0  0  0  0  0  0  0  0
   -9.0157   25.3284  -22.8388 C   0  0  0  0  0  0  0  0  0  0  0  0
   -9.9624   25.9748  -22.0889 C   0  0  0  0  0  0  0  0  0  0  0  0
  -10.1624   25.6530  -20.7432 C   0  0  0  0  0  0  0  0  0  0  0  0
   -9.4110   24.6754  -20.1337 C   0  0  0  0  0  0  0  0  0  0  0  0
   -8.4489   24.0224  -20.9051 C   0  0  0  0  0  0  0  0  0  0  0  0
 20 21  1  0  0  0
 21 22  1  0  0  0
 21 23  2  0  0  0
 23 19  1  0  0  0
 19 18  1  0  0  0
 18 17  1  0  0  0
 17  5  1  0  0  0
  5  1  1  0  0  0
  1  2  1  0  0  0
  2  3  2  0  0  0
  2 28  1  0  0  0
 28 41  1  0  0  0
 41 42  1  0  0  0
 42 43  2  0  0  0
 43 44  1  0  0  0
 44 45  2  0  0  0
 45 46  1  0  0  0
 46 47  2  0  0  0
 28 29  1  0  0  0
 29 30  1  0  0  0
 30 31  2  0  0  0
 30 33  1  0  0  0
 33 34  1  0  0  0
 34 35  1  0  0  0
 35 36  2  0  0  0
 36 37  1  0  0  0
 37 38  2  0  0  0
 38 39  1  0  0  0
 39 40  2  0  0  0
  5  6  1  0  0  0
  6  7  2  0  0  0
  6  8  1  0  0  0
  8  9  2  0  0  0
  9 10  1  0  0  0
 10 11  2  0  0  0
 11 12  1  0  0  0
 12 13  2  0  0  0
 13 14  1  0  0  0
 14 15  2  0  0  0
 15 16  1  0  0  0
 47 42  1  0  0  0
 40 35  1  0  0  0
 16  8  1  0  0  0
 15 10  1  0  0  0
 20 24  1  0  0  0
 20 25  1  0  0  0
 22 26  1  0  0  0
 22 27  1  0  0  0
  1  4  1  0  0  0
 29 32  1  0  0  0
M  END
> <minimizedAffinity>
-8.36921

> <CNNscore>
0.1975023150

> <CNNaffinity>
6.9051160812

> <CNN_VS>
1.3637764454

> <CNNaffinity_variance>
0.1239274144

$$$$
[H]c1c([H])c([H])c(C([H])([H])OC(=O)N([H])[C@]([H])(C(=O)N([H])[C@]([H])(C(=O)c2nc3c([H])c([H])c([H])c([H])c3s2)C([H])([H])C([H])([H])C([H])([H])N=C(N([H])[H])N([H])[H])C([H])([H])c2c([H])c([H])c([H])c([H])c2[H])c([H])c1[H]


 47 50  0  0  0  0  0  0  0  0999 V2000
   -4.7563   23.5485  -23.5731 N   0  0  0  0  0  0  0  0  0  0  0  0
   -3.9943   22.3537  -23.6359 C   0  0  0  0  0  0  0  0  0  0  0  0
   -4.5206   21.2480  -23.3451 O   0  0  0  0  0  0  0  0  0  0  0  0
   -4.3528   24.4642  -23.7984 H   0  0  0  0  0  0  0  0  0  0  0  0
   -6.1717   23.4880  -23.1672 C   0  0  0  0  0  0  0  0  0  0  0  0
   -6.9293   24.3144  -24.1058 C   0  0  0  0  0  0  0  0  0  0  0  0
   -7.9921   24.8808  -23.7709 O   0  0  0  0  0  0  0  0  0  0  0  0
   -6.4413   24.4934  -25.4706 C   0  0  0  0  0  0  0  0  0  0  0  0
   -6.3702   23.6301  -26.4609 N   0  0  0  0  0  0  0  0  0  0  0  0
   -5.8979   23.9829  -27.6215 C   0  0  0  0  0  0  0  0  0  0  0  0
   -5.7724   23.1539  -28.7513 C   0  0  0  0  0  0  0  0  0  0  0  0
   -5.2651   23.6299  -29.9122 C   0  0  0  0  0  0  0  0  0  0  0  0
   -4.8446   24.9268  -30.0707 C   0  0  0  0  0  0  0  0  0  0  0  0
   -4.9576   25.7559  -28.9799 C   0  0  0  0  0  0  0  0  0  0  0  0
   -5.4821   25.2785  -27.7670 C   0  0  0  0  0  0  0  0  0  0  0  0
   -5.7970   25.9177  -26.2154 S   0  0  0  0  0  0  0  0  0  0  0  0
   -6.2725   23.9713  -21.7312 C   0  0  0  0  0  0  0  0  0  0  0  0
   -6.4370   22.7980  -20.8140 C   0  0  0  0  0  0  0  0  0  0  0  0
   -7.6442   21.9795  -21.2528 C   0  0  0  0  0  0  0  0  0  0  0  0
  -10.6574   22.9549  -19.3519 N   0  0  0  0  0  0  0  0  0  0  0  0
   -9.5172   22.2119  -19.7865 C   0  0  0  0  0  0  0  0  0  0  0  0
   -9.1495   20.9845  -19.1748 N   0  0  0  0  0  0  0  0  0  0  0  0
   -8.8139   22.6651  -20.7483 N   0  0  0  0  0  0  0  0  0  0  0  0
  -11.2874   23.4239  -20.0225 H   0  0  0  0  0  0  0  0  0  0  0  0
  -10.8724   23.0345  -18.3308 H   0  0  0  0  0  0  0  0  0  0  0  0
   -8.3749   20.9824  -18.4912 H   0  0  0  0  0  0  0  0  0  0  0  0
   -9.6412   20.1106  -19.4036 H   0  0  0  0  0  0  0  0  0  0  0  0
   -2.5533   22.4908  -24.0604 C   0  0  0  0  0  0  0  0  0  0  0  0
   -1.7526   22.1936  -22.8950 N   0  0  0  0  0  0  0  0  0  0  0  0
   -1.5601   23.0233  -21.7821 C   0  0  0  0  0  0  0  0  0  0  0  0
   -2.1072   24.1459  -21.7120 O   0  0  0  0  0  0  0  0  0  0  0  0
   -1.2431   21.2481  -22.8498 H   0  0  0  0  0  0  0  0  0  0  0  0
   -0.7591   22.6218  -20.7319 O   0  0  0  0  0  0  0  0  0  0  0  0
   -1.0874   23.0340  -19.4172 C   0  0  0  0  0  0  0  0  0  0  0  0
    0.0633   22.7859  -18.5035 C   0  0  0  0  0  0  0  0  0  0  0  0
    1.2845   23.4169  -18.7217 C   0  0  0  0  0  0  0  0  0  0  0  0
    2.3393   23.1867  -17.8804 C   0  0  0  0  0  0  0  0  0  0  0  0
    2.1843   22.3268  -16.8165 C   0  0  0  0  0  0  0  0  0  0  0  0
    0.9914   21.7107  -16.6035 C   0  0  0  0  0  0  0  0  0  0  0  0
   -0.0848   21.9321  -17.4441 C   0  0  0  0  0  0  0  0  0  0  0  0
   -2.3344   21.6419  -25.2358 C   0  0  0  0  0  0  0  0  0  0  0  0
   -1.6455   22.2084  -26.3913 C   0  0  0  0  0  0  0  0  0  0  0  0
   -0.2624   22.2800  -26.4200 C   0  0  0  0  0  0  0  0  0  0  0  0
    0.3362   22.8302  -27.5224 C   0  0  0  0  0  0  0  0  0  0  0  0
   -0.4231   23.3089  -28.5943 C   0  0  0  0  0  0  0  0  0  0  0  0
   -1.7966   23.2403  -28.5704 C   0  0  0  0  0  0  0  0  0  0  0  0
   -2.3978   22.6784  -27.4435 C   0  0  0  0  0  0  0  0  0  0  0  0
 20 21  1  0  0  0
 21 22  1  0  0  0
 21 23  2  0  0  0
 23 19  1  0  0  0
 19 18  1  0  0  0
 18 17  1  0  0  0
 17  5  1  0  0  0
  5  1  1  0  0  0
  1  2  1  0  0  0
  2  3  2  0  0  0
  2 28  1  0  0  0
 28 41  1  0  0  0
 41 42  1  0  0  0
 42 43  2  0  0  0
 43 44  1  0  0  0
 44 45  2  0  0  0
 45 46  1  0  0  0
 46 47  2  0  0  0
 28 29  1  0  0  0
 29 30  1  0  0  0
 30 31  2  0  0  0
 30 33  1  0  0  0
 33 34  1  0  0  0
 34 35  1  0  0  0
 35 36  2  0  0  0
 36 37  1  0  0  0
 37 38  2  0  0  0
 38 39  1  0  0  0
 39 40  2  0  0  0
  5  6  1  0  0  0
  6  7  2  0  0  0
  6  8  1  0  0  0
  8  9  2  0  0  0
  9 10  1  0  0  0
 10 11  2  0  0  0
 11 12  1  0  0  0
 12 13  2  0  0  0
 13 14  1  0  0  0
 14 15  2  0  0  0
 15 16  1  0  0  0
 47 42  1  0  0  0
 40 35  1  0  0  0
 16  8  1  0  0  0
 15 10  1  0  0  0
 20 24  1  0  0  0
 20 25  1  0  0  0
 22 26  1  0  0  0
 22 27  1  0  0  0
  1  4  1  0  0  0
 29 32  1  0  0  0
M  END
> <minimizedAffinity>
-8.71844

> <CNNscore>
0.1939732879

> <CNNaffinity>
6.5820159912

> <CNN_VS>
1.2767353058

> <CNNaffinity_variance>
0.4395515323

$$$$
[H]c1c([H])c([H])c(C([H])([H])OC(=O)N([H])[C@]([H])(C(=O)N([H])[C@]([H])(C(=O)c2nc3c([H])c([H])c([H])c([H])c3s2)C([H])([H])C([H])([H])C([H])([H])N=C(N([H])[H])N([H])[H])C([H])([H])c2c([H])c([H])c([H])c([H])c2[H])c([H])c1[H]


 47 50  0  0  0  0  0  0  0  0999 V2000
   -3.2137   22.4230  -21.6663 N   0  0  0  0  0  0  0  0  0  0  0  0
   -3.7813   23.6483  -22.1007 C   0  0  0  0  0  0  0  0  0  0  0  0
   -3.0855   24.6967  -22.1287 O   0  0  0  0  0  0  0  0  0  0  0  0
   -3.7576   21.5543  -21.6273 H   0  0  0  0  0  0  0  0  0  0  0  0
   -1.8008   22.3835  -21.2492 C   0  0  0  0  0  0  0  0  0  0  0  0
   -1.1069   21.4635  -22.1494 C   0  0  0  0  0  0  0  0  0  0  0  0
   -0.6323   20.3811  -21.7427 O   0  0  0  0  0  0  0  0  0  0  0  0
   -0.9609   21.8045  -23.5619 C   0  0  0  0  0  0  0  0  0  0  0  0
   -1.8813   22.0290  -24.4749 N   0  0  0  0  0  0  0  0  0  0  0  0
   -1.5498   22.3234  -25.6988 C   0  0  0  0  0  0  0  0  0  0  0  0
   -2.4388   22.5831  -26.7579 C   0  0  0  0  0  0  0  0  0  0  0  0
   -1.9800   22.8806  -27.9960 C   0  0  0  0  0  0  0  0  0  0  0  0
   -0.6443   22.9494  -28.3040 C   0  0  0  0  0  0  0  0  0  0  0  0
    0.2436   22.6993  -27.2847 C   0  0  0  0  0  0  0  0  0  0  0  0
   -0.2151   22.3891  -25.9934 C   0  0  0  0  0  0  0  0  0  0  0  0
    0.4897   22.0210  -24.4825 S   0  0  0  0  0  0  0  0  0  0  0  0
   -1.7492   21.9478  -19.7955 C   0  0  0  0  0  0  0  0  0  0  0  0
   -0.9090   22.9082  -19.0102 C   0  0  0  0  0  0  0  0  0  0  0  0
    0.5324   22.4169  -18.9881 C   0  0  0  0  0  0  0  0  0  0  0  0
    3.0892   24.9417  -18.1325 N   0  0  0  0  0  0  0  0  0  0  0  0
    2.3103   23.7445  -18.1002 C   0  0  0  0  0  0  0  0  0  0  0  0
    2.5573   22.7196  -17.1490 N   0  0  0  0  0  0  0  0  0  0  0  0
    1.3704   23.5954  -18.9482 N   0  0  0  0  0  0  0  0  0  0  0  0
    2.6592   25.8643  -18.3068 H   0  0  0  0  0  0  0  0  0  0  0  0
    4.1232   24.8981  -17.9772 H   0  0  0  0  0  0  0  0  0  0  0  0
    3.0805   21.8803  -17.4475 H   0  0  0  0  0  0  0  0  0  0  0  0
    2.2244   22.8053  -16.1798 H   0  0  0  0  0  0  0  0  0  0  0  0
   -5.2317   23.6140  -22.5139 C   0  0  0  0  0  0  0  0  0  0  0  0
   -5.9997   23.4507  -21.3011 N   0  0  0  0  0  0  0  0  0  0  0  0
   -6.2372   24.4295  -20.3266 C   0  0  0  0  0  0  0  0  0  0  0  0
   -5.7786   25.5867  -20.4493 O   0  0  0  0  0  0  0  0  0  0  0  0
   -6.4459   22.4934  -21.1011 H   0  0  0  0  0  0  0  0  0  0  0  0
   -6.9855   24.1406  -19.2031 O   0  0  0  0  0  0  0  0  0  0  0  0
   -6.9073   22.8447  -18.6368 C   0  0  0  0  0  0  0  0  0  0  0  0
   -5.9038   22.8301  -17.5353 C   0  0  0  0  0  0  0  0  0  0  0  0
   -4.7875   22.0024  -17.6105 C   0  0  0  0  0  0  0  0  0  0  0  0
   -3.8678   21.9916  -16.5969 C   0  0  0  0  0  0  0  0  0  0  0  0
   -4.0542   22.8052  -15.5021 C   0  0  0  0  0  0  0  0  0  0  0  0
   -5.1446   23.6138  -15.4289 C   0  0  0  0  0  0  0  0  0  0  0  0
   -6.0837   23.6369  -16.4444 C   0  0  0  0  0  0  0  0  0  0  0  0
   -5.5148   24.8134  -23.3087 C   0  0  0  0  0  0  0  0  0  0  0  0
   -5.5023   24.7089  -24.7646 C   0  0  0  0  0  0  0  0  0  0  0  0
   -6.2540   23.7384  -25.4064 C   0  0  0  0  0  0  0  0  0  0  0  0
   -6.1999   23.6745  -26.7737 C   0  0  0  0  0  0  0  0  0  0  0  0
   -5.4086   24.5627  -27.5083 C   0  0  0  0  0  0  0  0  0  0  0  0
   -4.6603   25.5278  -26.8756 C   0  0  0  0  0  0  0  0  0  0  0  0
   -4.7214   25.5855  -25.4827 C   0  0  0  0  0  0  0  0  0  0  0  0
 20 21  1  0  0  0
 21 22  1  0  0  0
 21 23  2  0  0  0
 23 19  1  0  0  0
 19 18  1  0  0  0
 18 17  1  0  0  0
 17  5  1  0  0  0
  5  1  1  0  0  0
  1  2  1  0  0  0
  2  3  2  0  0  0
  2 28  1  0  0  0
 28 41  1  0  0  0
 41 42  1  0  0  0
 42 43  2  0  0  0
 43 44  1  0  0  0
 44 45  2  0  0  0
 45 46  1  0  0  0
 46 47  2  0  0  0
 28 29  1  0  0  0
 29 30  1  0  0  0
 30 31  2  0  0  0
 30 33  1  0  0  0
 33 34  1  0  0  0
 34 35  1  0  0  0
 35 36  2  0  0  0
 36 37  1  0  0  0
 37 38  2  0  0  0
 38 39  1  0  0  0
 39 40  2  0  0  0
  5  6  1  0  0  0
  6  7  2  0  0  0
  6  8  1  0  0  0
  8  9  2  0  0  0
  9 10  1  0  0  0
 10 11  2  0  0  0
 11 12  1  0  0  0
 12 13  2  0  0  0
 13 14  1  0  0  0
 14 15  2  0  0  0
 15 16  1  0  0  0
 47 42  1  0  0  0
 40 35  1  0  0  0
 16  8  1  0  0  0
 15 10  1  0  0  0
 20 24  1  0  0  0
 20 25  1  0  0  0
 22 26  1  0  0  0
 22 27  1  0  0  0
  1  4  1  0  0  0
 29 32  1  0  0  0
M  END
> <minimizedAffinity>
-7.82008

> <CNNscore>
0.1854171902

> <CNNaffinity>
6.4312162399

> <CNN_VS>
1.1924580336

> <CNNaffinity_variance>
0.5713144541

$$$$
[H]N=C(N([H])[H])N([H])C([H])([H])C([H])([H])C([H])([H])[C@@]([H])(C(=O)N([H])[C@]([H])(C(=O)N([H])[H])C([H])([H])c1c([H])c([H])c([H])c([H])c1[H])N([H])C(=O)[C@@]([H])(N([H])C(=O)[C@]([H])(N([H])[H])[C@]([H])(O[H])C([H])([H])[H])C([H])([H])c1c([H])c([H])c([H])c([H])c1[H]


 53 54  0  0  0  0  0  0  0  0999 V2000
   -5.1568   24.1032  -24.1194 C   0  0  0  0  0  0  0  0  0  0  0  0
   -4.9957   23.9894  -25.5905 C   0  0  0  0  0  0  0  0  0  0  0  0
   -5.6063   23.0832  -26.1964 O   0  0  0  0  0  0  0  0  0  0  0  0
   -4.1794   24.8840  -26.2892 N   0  0  0  0  0  0  0  0  0  0  0  0
   -3.6502   25.6246  -25.8113 H   0  0  0  0  0  0  0  0  0  0  0  0
   -4.0894   24.7428  -27.7532 C   0  0  0  0  0  0  0  0  0  0  0  0
   -5.3384   25.1661  -28.3870 C   0  0  0  0  0  0  0  0  0  0  0  0
   -5.9197   24.5239  -29.5009 N   0  0  0  0  0  0  0  0  0  0  0  0
   -5.9562   26.1768  -27.9227 O   0  0  0  0  0  0  0  0  0  0  0  0
   -6.9459   24.3159  -29.4616 H   0  0  0  0  0  0  0  0  0  0  0  0
   -5.3562   24.2533  -30.3556 H   0  0  0  0  0  0  0  0  0  0  0  0
   -3.6283   23.3573  -28.0598 C   0  0  0  0  0  0  0  0  0  0  0  0
   -2.2227   23.0488  -27.8105 C   0  0  0  0  0  0  0  0  0  0  0  0
   -1.8544   22.3795  -26.6319 C   0  0  0  0  0  0  0  0  0  0  0  0
   -0.5461   22.0258  -26.3708 C   0  0  0  0  0  0  0  0  0  0  0  0
    0.4472   22.3290  -27.2797 C   0  0  0  0  0  0  0  0  0  0  0  0
    0.0937   22.9836  -28.4331 C   0  0  0  0  0  0  0  0  0  0  0  0
   -1.2098   23.3357  -28.6935 C   0  0  0  0  0  0  0  0  0  0  0  0
   -3.3620   22.7524  -23.0396 C   0  0  0  0  0  0  0  0  0  0  0  0
   -4.2209   21.7700  -23.2925 O   0  0  0  0  0  0  0  0  0  0  0  0
   -3.8378   23.9787  -23.4667 N   0  0  0  0  0  0  0  0  0  0  0  0
   -3.3225   24.8643  -23.3626 H   0  0  0  0  0  0  0  0  0  0  0  0
   -2.1686   22.2891  -22.3977 C   0  0  0  0  0  0  0  0  0  0  0  0
   -2.0715   22.6967  -19.8775 C   0  0  0  0  0  0  0  0  0  0  0  0
   -1.3139   23.7036  -20.0830 O   0  0  0  0  0  0  0  0  0  0  0  0
   -2.5168   21.9675  -20.9701 N   0  0  0  0  0  0  0  0  0  0  0  0
   -3.1333   21.1331  -20.8794 H   0  0  0  0  0  0  0  0  0  0  0  0
   -2.4181   22.3890  -18.4707 C   0  0  0  0  0  0  0  0  0  0  0  0
   -2.0631   21.0271  -18.1379 N   0  0  0  0  0  0  0  0  0  0  0  0
   -1.0430   21.0202  -17.8327 H   0  0  0  0  0  0  0  0  0  0  0  0
   -2.2263   20.3826  -18.9178 H   0  0  0  0  0  0  0  0  0  0  0  0
   -4.0590   23.3524  -16.8740 C   0  0  0  0  0  0  0  0  0  0  0  0
   -3.8888   22.5684  -18.1617 C   0  0  0  0  0  0  0  0  0  0  0  0
   -4.3966   23.3863  -19.1941 O   0  0  0  0  0  0  0  0  0  0  0  0
   -5.3615   23.5506  -19.0523 H   0  0  0  0  0  0  0  0  0  0  0  0
   -1.3567   21.1741  -22.8519 C   0  0  0  0  0  0  0  0  0  0  0  0
    0.0512   21.0508  -22.5406 C   0  0  0  0  0  0  0  0  0  0  0  0
    0.5594   20.6562  -21.3468 C   0  0  0  0  0  0  0  0  0  0  0  0
    1.9050   20.5401  -21.0841 C   0  0  0  0  0  0  0  0  0  0  0  0
    2.8236   20.8247  -22.0383 C   0  0  0  0  0  0  0  0  0  0  0  0
    2.3663   21.2337  -23.2782 C   0  0  0  0  0  0  0  0  0  0  0  0
    1.0206   21.3457  -23.5282 C   0  0  0  0  0  0  0  0  0  0  0  0
   -5.9183   25.3021  -23.7605 C   0  0  0  0  0  0  0  0  0  0  0  0
   -6.6954   25.1831  -22.4669 C   0  0  0  0  0  0  0  0  0  0  0  0
   -8.0196   24.5309  -22.8367 C   0  0  0  0  0  0  0  0  0  0  0  0
   -8.9833   25.4758  -23.3475 N   0  0  0  0  0  0  0  0  0  0  0  0
   -9.0039   25.8093  -24.3340 H   0  0  0  0  0  0  0  0  0  0  0  0
   -9.9527   25.9795  -22.4596 C   0  0  0  0  0  0  0  0  0  0  0  0
  -10.3354   25.1999  -21.3345 N   0  0  0  0  0  0  0  0  0  0  0  0
  -10.5007   27.1236  -22.6382 N   0  0  0  0  0  0  0  0  0  0  0  0
  -10.4097   25.6806  -20.3932 H   0  0  0  0  0  0  0  0  0  0  0  0
  -10.5411   24.1837  -21.4170 H   0  0  0  0  0  0  0  0  0  0  0  0
  -11.2171   27.5658  -22.0376 H   0  0  0  0  0  0  0  0  0  0  0  0
 32 33  1  0  0  0
 33 34  1  0  0  0
 33 28  1  0  0  0
 28 29  1  0  0  0
 28 24  1  0  0  0
 24 25  2  0  0  0
 24 26  1  0  0  0
 26 23  1  0  0  0
 23 36  1  0  0  0
 36 37  1  0  0  0
 37 38  2  0  0  0
 38 39  1  0  0  0
 39 40  2  0  0  0
 40 41  1  0  0  0
 41 42  2  0  0  0
 23 19  1  0  0  0
 19 20  2  0  0  0
 19 21  1  0  0  0
 21  1  1  0  0  0
  1 43  1  0  0  0
 43 44  1  0  0  0
 44 45  1  0  0  0
 45 46  1  0  0  0
 46 48  1  0  0  0
 48 49  1  0  0  0
 48 50  2  0  0  0
  1  2  1  0  0  0
  2  3  2  0  0  0
  2  4  1  0  0  0
  4  6  1  0  0  0
  6 12  1  0  0  0
 12 13  1  0  0  0
 13 14  2  0  0  0
 14 15  1  0  0  0
 15 16  2  0  0  0
 16 17  1  0  0  0
 17 18  2  0  0  0
  6  7  1  0  0  0
  7  8  1  0  0  0
  7  9  2  0  0  0
 42 37  1  0  0  0
 18 13  1  0  0  0
 34 35  1  0  0  0
 29 30  1  0  0  0
 29 31  1  0  0  0
 26 27  1  0  0  0
 21 22  1  0  0  0
 46 47  1  0  0  0
 49 51  1  0  0  0
 49 52  1  0  0  0
 50 53  1  0  0  0
  4  5  1  0  0  0
  8 10  1  0  0  0
  8 11  1  0  0  0
M  END
> <minimizedAffinity>
-7.83381

> <CNNscore>
0.5065299869

> <CNNaffinity>
6.9711179733

> <CNN_VS>
3.5310802460

> <CNNaffinity_variance>
0.2223837823

$$$$
[H]N=C(N([H])[H])N([H])C([H])([H])C([H])([H])C([H])([H])[C@@]([H])(C(=O)N([H])[C@]([H])(C(=O)N([H])[H])C([H])([H])c1c([H])c([H])c([H])c([H])c1[H])N([H])C(=O)[C@@]([H])(N([H])C(=O)[C@]([H])(N([H])[H])[C@]([H])(O[H])C([H])([H])[H])C([H])([H])c1c([H])c([H])c([H])c([H])c1[H]


 53 54  0  0  0  0  0  0  0  0999 V2000
   -4.5269   23.8158  -22.6310 C   0  0  0  0  0  0  0  0  0  0  0  0
   -4.8816   24.7037  -23.7663 C   0  0  0  0  0  0  0  0  0  0  0  0
   -5.9251   25.3871  -23.6951 O   0  0  0  0  0  0  0  0  0  0  0  0
   -4.0599   24.7800  -24.8950 N   0  0  0  0  0  0  0  0  0  0  0  0
   -3.2076   24.2124  -24.9867 H   0  0  0  0  0  0  0  0  0  0  0  0
   -4.4459   25.7076  -25.9728 C   0  0  0  0  0  0  0  0  0  0  0  0
   -4.5088   27.0802  -25.4701 C   0  0  0  0  0  0  0  0  0  0  0  0
   -3.6712   27.5929  -24.4569 N   0  0  0  0  0  0  0  0  0  0  0  0
   -5.3676   27.8802  -25.9616 O   0  0  0  0  0  0  0  0  0  0  0  0
   -3.2227   28.5253  -24.6220 H   0  0  0  0  0  0  0  0  0  0  0  0
   -3.4891   27.0693  -23.5547 H   0  0  0  0  0  0  0  0  0  0  0  0
   -5.6844   25.1820  -26.6180 C   0  0  0  0  0  0  0  0  0  0  0  0
   -5.5882   24.7706  -28.0161 C   0  0  0  0  0  0  0  0  0  0  0  0
   -5.4557   23.4091  -28.3346 C   0  0  0  0  0  0  0  0  0  0  0  0
   -5.4057   22.9656  -29.6405 C   0  0  0  0  0  0  0  0  0  0  0  0
   -5.4858   23.8683  -30.6813 C   0  0  0  0  0  0  0  0  0  0  0  0
   -5.6148   25.2004  -30.3767 C   0  0  0  0  0  0  0  0  0  0  0  0
   -5.6648   25.6423  -29.0754 C   0  0  0  0  0  0  0  0  0  0  0  0
   -2.4763   22.3994  -22.6580 C   0  0  0  0  0  0  0  0  0  0  0  0
   -3.3817   21.4355  -22.7921 O   0  0  0  0  0  0  0  0  0  0  0  0
   -3.0604   23.6500  -22.5727 N   0  0  0  0  0  0  0  0  0  0  0  0
   -2.5310   24.5268  -22.4653 H   0  0  0  0  0  0  0  0  0  0  0  0
   -1.1352   21.8971  -22.6418 C   0  0  0  0  0  0  0  0  0  0  0  0
   -0.3982   20.6491  -20.5380 C   0  0  0  0  0  0  0  0  0  0  0  0
    0.2847   21.6695  -20.1880 O   0  0  0  0  0  0  0  0  0  0  0  0
   -1.1090   20.7028  -21.7278 N   0  0  0  0  0  0  0  0  0  0  0  0
   -1.6842   19.9087  -22.0788 H   0  0  0  0  0  0  0  0  0  0  0  0
   -0.3757   19.4786  -19.6307 C   0  0  0  0  0  0  0  0  0  0  0  0
   -0.1738   19.8922  -18.2597 N   0  0  0  0  0  0  0  0  0  0  0  0
   -1.1260   20.1283  -17.8456 H   0  0  0  0  0  0  0  0  0  0  0  0
    0.4747   20.6823  -18.1849 H   0  0  0  0  0  0  0  0  0  0  0  0
    0.0819   17.1908  -20.4834 C   0  0  0  0  0  0  0  0  0  0  0  0
    0.7054   18.4756  -19.9712 C   0  0  0  0  0  0  0  0  0  0  0  0
    1.4125   19.0340  -21.0579 O   0  0  0  0  0  0  0  0  0  0  0  0
    2.1382   18.4237  -21.3391 H   0  0  0  0  0  0  0  0  0  0  0  0
   -0.3814   21.4946  -23.8158 C   0  0  0  0  0  0  0  0  0  0  0  0
   -0.6993   21.9583  -25.1493 C   0  0  0  0  0  0  0  0  0  0  0  0
   -1.9314   21.9355  -25.7151 C   0  0  0  0  0  0  0  0  0  0  0  0
   -2.2038   22.3927  -26.9841 C   0  0  0  0  0  0  0  0  0  0  0  0
   -1.2198   22.9068  -27.7606 C   0  0  0  0  0  0  0  0  0  0  0  0
    0.0602   22.9562  -27.2385 C   0  0  0  0  0  0  0  0  0  0  0  0
    0.3195   22.4968  -25.9704 C   0  0  0  0  0  0  0  0  0  0  0  0
   -5.1519   24.2707  -21.3867 C   0  0  0  0  0  0  0  0  0  0  0  0
   -6.1644   23.3054  -20.8084 C   0  0  0  0  0  0  0  0  0  0  0  0
   -7.5120   24.0045  -20.9145 C   0  0  0  0  0  0  0  0  0  0  0  0
   -7.4036   25.4408  -20.8268 N   0  0  0  0  0  0  0  0  0  0  0  0
   -6.6071   25.9371  -20.3751 H   0  0  0  0  0  0  0  0  0  0  0  0
   -8.4368   26.2187  -21.3828 C   0  0  0  0  0  0  0  0  0  0  0  0
   -9.1810   27.0887  -20.5405 N   0  0  0  0  0  0  0  0  0  0  0  0
   -8.7254   26.1639  -22.6297 N   0  0  0  0  0  0  0  0  0  0  0  0
   -9.3693   28.0748  -20.8792 H   0  0  0  0  0  0  0  0  0  0  0  0
   -9.5388   26.7799  -19.6140 H   0  0  0  0  0  0  0  0  0  0  0  0
   -9.4649   26.6984  -23.1166 H   0  0  0  0  0  0  0  0  0  0  0  0
 32 33  1  0  0  0
 33 34  1  0  0  0
 33 28  1  0  0  0
 28 29  1  0  0  0
 28 24  1  0  0  0
 24 25  2  0  0  0
 24 26  1  0  0  0
 26 23  1  0  0  0
 23 36  1  0  0  0
 36 37  1  0  0  0
 37 38  2  0  0  0
 38 39  1  0  0  0
 39 40  2  0  0  0
 40 41  1  0  0  0
 41 42  2  0  0  0
 23 19  1  0  0  0
 19 20  2  0  0  0
 19 21  1  0  0  0
 21  1  1  0  0  0
  1 43  1  0  0  0
 43 44  1  0  0  0
 44 45  1  0  0  0
 45 46  1  0  0  0
 46 48  1  0  0  0
 48 49  1  0  0  0
 48 50  2  0  0  0
  1  2  1  0  0  0
  2  3  2  0  0  0
  2  4  1  0  0  0
  4  6  1  0  0  0
  6 12  1  0  0  0
 12 13  1  0  0  0
 13 14  2  0  0  0
 14 15  1  0  0  0
 15 16  2  0  0  0
 16 17  1  0  0  0
 17 18  2  0  0  0
  6  7  1  0  0  0
  7  8  1  0  0  0
  7  9  2  0  0  0
 42 37  1  0  0  0
 18 13  1  0  0  0
 34 35  1  0  0  0
 29 30  1  0  0  0
 29 31  1  0  0  0
 26 27  1  0  0  0
 21 22  1  0  0  0
 46 47  1  0  0  0
 49 51  1  0  0  0
 49 52  1  0  0  0
 50 53  1  0  0  0
  4  5  1  0  0  0
  8 10  1  0  0  0
  8 11  1  0  0  0
M  END
> <minimizedAffinity>
-8.38434

> <CNNscore>
0.2141024172

> <CNNaffinity>
6.2593450546

> <CNN_VS>
1.3401409388

> <CNNaffinity_variance>
0.5164273977

$$$$
[H]N=C(N([H])[H])N([H])C([H])([H])C([H])([H])C([H])([H])[C@@]([H])(C(=O)N([H])[C@]([H])(C(=O)N([H])[H])C([H])([H])c1c([H])c([H])c([H])c([H])c1[H])N([H])C(=O)[C@@]([H])(N([H])C(=O)[C@]([H])(N([H])[H])[C@]([H])(O[H])C([H])([H])[H])C([H])([H])c1c([H])c([H])c([H])c([H])c1[H]


 53 54  0  0  0  0  0  0  0  0999 V2000
   -5.7311   25.1122  -24.0451 C   0  0  0  0  0  0  0  0  0  0  0  0
   -6.9979   24.7776  -23.3477 C   0  0  0  0  0  0  0  0  0  0  0  0
   -7.3551   23.5819  -23.2852 O   0  0  0  0  0  0  0  0  0  0  0  0
   -7.7770   25.7815  -22.7645 N   0  0  0  0  0  0  0  0  0  0  0  0
   -7.5158   26.7743  -22.8204 H   0  0  0  0  0  0  0  0  0  0  0  0
   -9.0046   25.3824  -22.0540 C   0  0  0  0  0  0  0  0  0  0  0  0
  -10.1314   26.2194  -22.4670 C   0  0  0  0  0  0  0  0  0  0  0  0
  -11.0884   25.8410  -23.4324 N   0  0  0  0  0  0  0  0  0  0  0  0
  -10.2765   27.3670  -21.9370 O   0  0  0  0  0  0  0  0  0  0  0  0
  -12.0991   25.9912  -23.2005 H   0  0  0  0  0  0  0  0  0  0  0  0
  -10.8154   25.4182  -24.3641 H   0  0  0  0  0  0  0  0  0  0  0  0
   -8.7065   25.3485  -20.5924 C   0  0  0  0  0  0  0  0  0  0  0  0
   -8.5957   24.0358  -19.9619 C   0  0  0  0  0  0  0  0  0  0  0  0
   -7.5585   23.7867  -19.0481 C   0  0  0  0  0  0  0  0  0  0  0  0
   -7.4368   22.5784  -18.3924 C   0  0  0  0  0  0  0  0  0  0  0  0
   -8.3491   21.5695  -18.6259 C   0  0  0  0  0  0  0  0  0  0  0  0
   -9.3646   21.8065  -19.5183 C   0  0  0  0  0  0  0  0  0  0  0  0
   -9.4861   23.0104  -20.1714 C   0  0  0  0  0  0  0  0  0  0  0  0
   -3.5892   23.9846  -23.4515 C   0  0  0  0  0  0  0  0  0  0  0  0
   -3.3349   25.1778  -22.9238 O   0  0  0  0  0  0  0  0  0  0  0  0
   -4.8391   23.9352  -24.0413 N   0  0  0  0  0  0  0  0  0  0  0  0
   -5.2240   23.1005  -24.5058 H   0  0  0  0  0  0  0  0  0  0  0  0
   -2.5104   23.0605  -23.2694 C   0  0  0  0  0  0  0  0  0  0  0  0
   -2.1263   22.7234  -20.7664 C   0  0  0  0  0  0  0  0  0  0  0  0
   -1.3240   23.7166  -20.7692 O   0  0  0  0  0  0  0  0  0  0  0  0
   -2.7321   22.3564  -21.9589 N   0  0  0  0  0  0  0  0  0  0  0  0
   -3.3938   21.5558  -22.0336 H   0  0  0  0  0  0  0  0  0  0  0  0
   -2.3476   22.0386  -19.4718 C   0  0  0  0  0  0  0  0  0  0  0  0
   -2.2219   20.6053  -19.6182 N   0  0  0  0  0  0  0  0  0  0  0  0
   -1.1922   20.3549  -19.5144 H   0  0  0  0  0  0  0  0  0  0  0  0
   -2.6015   20.2722  -20.5100 H   0  0  0  0  0  0  0  0  0  0  0  0
   -3.5546   22.7525  -17.4215 C   0  0  0  0  0  0  0  0  0  0  0  0
   -3.7064   22.3207  -18.8679 C   0  0  0  0  0  0  0  0  0  0  0  0
   -4.2068   23.4411  -19.5658 O   0  0  0  0  0  0  0  0  0  0  0  0
   -5.0988   23.6868  -19.2167 H   0  0  0  0  0  0  0  0  0  0  0  0
   -2.1420   22.0139  -24.2062 C   0  0  0  0  0  0  0  0  0  0  0  0
   -1.5563   22.2899  -25.5004 C   0  0  0  0  0  0  0  0  0  0  0  0
   -2.2476   22.6057  -26.6235 C   0  0  0  0  0  0  0  0  0  0  0  0
   -1.6604   22.8718  -27.8391 C   0  0  0  0  0  0  0  0  0  0  0  0
   -0.3138   22.8301  -27.9811 C   0  0  0  0  0  0  0  0  0  0  0  0
    0.4467   22.5126  -26.8700 C   0  0  0  0  0  0  0  0  0  0  0  0
   -0.1512   22.2489  -25.6620 C   0  0  0  0  0  0  0  0  0  0  0  0
   -5.9899   25.6931  -25.3648 C   0  0  0  0  0  0  0  0  0  0  0  0
   -4.7772   26.3201  -26.0187 C   0  0  0  0  0  0  0  0  0  0  0  0
   -4.5859   25.5798  -27.3344 C   0  0  0  0  0  0  0  0  0  0  0  0
   -5.6780   25.7867  -28.2547 N   0  0  0  0  0  0  0  0  0  0  0  0
   -6.6373   26.0694  -27.9641 H   0  0  0  0  0  0  0  0  0  0  0  0
   -5.4337   25.5930  -29.6275 C   0  0  0  0  0  0  0  0  0  0  0  0
   -4.1353   25.8510  -30.1448 N   0  0  0  0  0  0  0  0  0  0  0  0
   -6.3515   25.1897  -30.4251 N   0  0  0  0  0  0  0  0  0  0  0  0
   -3.7091   25.1417  -30.8066 H   0  0  0  0  0  0  0  0  0  0  0  0
   -3.6054   26.7091  -29.8907 H   0  0  0  0  0  0  0  0  0  0  0  0
   -6.2571   25.0227  -31.4413 H   0  0  0  0  0  0  0  0  0  0  0  0
 32 33  1  0  0  0
 33 34  1  0  0  0
 33 28  1  0  0  0
 28 29  1  0  0  0
 28 24  1  0  0  0
 24 25  2  0  0  0
 24 26  1  0  0  0
 26 23  1  0  0  0
 23 36  1  0  0  0
 36 37  1  0  0  0
 37 38  2  0  0  0
 38 39  1  0  0  0
 39 40  2  0  0  0
 40 41  1  0  0  0
 41 42  2  0  0  0
 23 19  1  0  0  0
 19 20  2  0  0  0
 19 21  1  0  0  0
 21  1  1  0  0  0
  1 43  1  0  0  0
 43 44  1  0  0  0
 44 45  1  0  0  0
 45 46  1  0  0  0
 46 48  1  0  0  0
 48 49  1  0  0  0
 48 50  2  0  0  0
  1  2  1  0  0  0
  2  3  2  0  0  0
  2  4  1  0  0  0
  4  6  1  0  0  0
  6 12  1  0  0  0
 12 13  1  0  0  0
 13 14  2  0  0  0
 14 15  1  0  0  0
 15 16  2  0  0  0
 16 17  1  0  0  0
 17 18  2  0  0  0
  6  7  1  0  0  0
  7  8  1  0  0  0
  7  9  2  0  0  0
 42 37  1  0  0  0
 18 13  1  0  0  0
 34 35  1  0  0  0
 29 30  1  0  0  0
 29 31  1  0  0  0
 26 27  1  0  0  0
 21 22  1  0  0  0
 46 47  1  0  0  0
 49 51  1  0  0  0
 49 52  1  0  0  0
 50 53  1  0  0  0
  4  5  1  0  0  0
  8 10  1  0  0  0
  8 11  1  0  0  0
M  END
> <minimizedAffinity>
-8.11031

> <CNNscore>
0.1952347308

> <CNNaffinity>
6.3522324562

> <CNN_VS>
1.2401764393

> <CNNaffinity_variance>
0.6331409216

$$$$
[H]N=C(N([H])[H])N([H])C([H])([H])C([H])([H])C([H])([H])[C@@]([H])(C(=O)N([H])[C@]([H])(C(=O)N([H])[H])C([H])([H])c1c([H])c([H])c([H])c([H])c1[H])N([H])C(=O)[C@@]([H])(N([H])C(=O)[C@]([H])(N([H])[H])[C@]([H])(O[H])C([H])([H])[H])C([H])([H])c1c([H])c([H])c([H])c([H])c1[H]


 53 54  0  0  0  0  0  0  0  0999 V2000
   -3.4291   23.2556  -23.8734 C   0  0  0  0  0  0  0  0  0  0  0  0
   -3.0805   22.6497  -25.1828 C   0  0  0  0  0  0  0  0  0  0  0  0
   -3.3611   21.4493  -25.3864 O   0  0  0  0  0  0  0  0  0  0  0  0
   -2.4539   23.4094  -26.1753 N   0  0  0  0  0  0  0  0  0  0  0  0
   -2.1937   24.3925  -26.0247 H   0  0  0  0  0  0  0  0  0  0  0  0
   -2.1672   22.7617  -27.4674 C   0  0  0  0  0  0  0  0  0  0  0  0
   -0.7288   22.7672  -27.7358 C   0  0  0  0  0  0  0  0  0  0  0  0
   -0.1424   23.2963  -28.9050 N   0  0  0  0  0  0  0  0  0  0  0  0
    0.0630   22.2660  -26.8751 O   0  0  0  0  0  0  0  0  0  0  0  0
    0.6891   23.9237  -28.7911 H   0  0  0  0  0  0  0  0  0  0  0  0
   -0.5144   23.0796  -29.8724 H   0  0  0  0  0  0  0  0  0  0  0  0
   -3.0363   23.3888  -28.5055 C   0  0  0  0  0  0  0  0  0  0  0  0
   -4.2421   24.0725  -28.0455 C   0  0  0  0  0  0  0  0  0  0  0  0
   -5.3849   23.3249  -27.7169 C   0  0  0  0  0  0  0  0  0  0  0  0
   -6.5336   23.9194  -27.2355 C   0  0  0  0  0  0  0  0  0  0  0  0
   -6.5848   25.2879  -27.0642 C   0  0  0  0  0  0  0  0  0  0  0  0
   -5.4715   26.0241  -27.3841 C   0  0  0  0  0  0  0  0  0  0  0  0
   -4.3269   25.4317  -27.8635 C   0  0  0  0  0  0  0  0  0  0  0  0
   -2.3189   22.2147  -21.8995 C   0  0  0  0  0  0  0  0  0  0  0  0
   -3.4606   21.5349  -21.8630 O   0  0  0  0  0  0  0  0  0  0  0  0
   -2.2879   23.1184  -22.9459 N   0  0  0  0  0  0  0  0  0  0  0  0
   -1.4920   23.7406  -23.1460 H   0  0  0  0  0  0  0  0  0  0  0  0
   -1.4175   21.8342  -20.8538 C   0  0  0  0  0  0  0  0  0  0  0  0
   -2.2441   22.4812  -18.5246 C   0  0  0  0  0  0  0  0  0  0  0  0
   -1.5168   23.5295  -18.5723 O   0  0  0  0  0  0  0  0  0  0  0  0
   -2.2330   21.6161  -19.6088 N   0  0  0  0  0  0  0  0  0  0  0  0
   -2.7968   20.7411  -19.6393 H   0  0  0  0  0  0  0  0  0  0  0  0
   -3.0514   22.2752  -17.3000 C   0  0  0  0  0  0  0  0  0  0  0  0
   -3.1698   20.8674  -16.9908 N   0  0  0  0  0  0  0  0  0  0  0  0
   -2.3198   20.5865  -16.4141 H   0  0  0  0  0  0  0  0  0  0  0  0
   -3.2585   20.2916  -17.8340 H   0  0  0  0  0  0  0  0  0  0  0  0
   -4.6174   23.9966  -16.4313 C   0  0  0  0  0  0  0  0  0  0  0  0
   -4.4511   22.8419  -17.4012 C   0  0  0  0  0  0  0  0  0  0  0  0
   -4.5438   23.3955  -18.6965 O   0  0  0  0  0  0  0  0  0  0  0  0
   -5.4395   23.7922  -18.8319 H   0  0  0  0  0  0  0  0  0  0  0  0
   -0.5018   20.7087  -20.9109 C   0  0  0  0  0  0  0  0  0  0  0  0
    0.7528   20.7538  -21.6308 C   0  0  0  0  0  0  0  0  0  0  0  0
    1.9556   20.3694  -21.1365 C   0  0  0  0  0  0  0  0  0  0  0  0
    3.1311   20.4160  -21.8501 C   0  0  0  0  0  0  0  0  0  0  0  0
    3.1475   20.8648  -23.1282 C   0  0  0  0  0  0  0  0  0  0  0  0
    1.9503   21.2724  -23.6886 C   0  0  0  0  0  0  0  0  0  0  0  0
    0.7834   21.2210  -22.9661 C   0  0  0  0  0  0  0  0  0  0  0  0
   -3.9364   24.6198  -24.0387 C   0  0  0  0  0  0  0  0  0  0  0  0
   -4.9630   25.0327  -23.0057 C   0  0  0  0  0  0  0  0  0  0  0  0
   -6.3070   24.5683  -23.5477 C   0  0  0  0  0  0  0  0  0  0  0  0
   -7.0745   23.8276  -22.5757 N   0  0  0  0  0  0  0  0  0  0  0  0
   -7.9457   24.1833  -22.1296 H   0  0  0  0  0  0  0  0  0  0  0  0
   -6.6180   22.5482  -22.2060 C   0  0  0  0  0  0  0  0  0  0  0  0
   -6.2634   22.3021  -20.8519 N   0  0  0  0  0  0  0  0  0  0  0  0
   -6.5131   21.5977  -23.0585 N   0  0  0  0  0  0  0  0  0  0  0  0
   -6.6111   21.4107  -20.3965 H   0  0  0  0  0  0  0  0  0  0  0  0
   -5.6783   22.9691  -20.3093 H   0  0  0  0  0  0  0  0  0  0  0  0
   -6.1881   20.6338  -22.8718 H   0  0  0  0  0  0  0  0  0  0  0  0
 32 33  1  0  0  0
 33 34  1  0  0  0
 33 28  1  0  0  0
 28 29  1  0  0  0
 28 24  1  0  0  0
 24 25  2  0  0  0
 24 26  1  0  0  0
 26 23  1  0  0  0
 23 36  1  0  0  0
 36 37  1  0  0  0
 37 38  2  0  0  0
 38 39  1  0  0  0
 39 40  2  0  0  0
 40 41  1  0  0  0
 41 42  2  0  0  0
 23 19  1  0  0  0
 19 20  2  0  0  0
 19 21  1  0  0  0
 21  1  1  0  0  0
  1 43  1  0  0  0
 43 44  1  0  0  0
 44 45  1  0  0  0
 45 46  1  0  0  0
 46 48  1  0  0  0
 48 49  1  0  0  0
 48 50  2  0  0  0
  1  2  1  0  0  0
  2  3  2  0  0  0
  2  4  1  0  0  0
  4  6  1  0  0  0
  6 12  1  0  0  0
 12 13  1  0  0  0
 13 14  2  0  0  0
 14 15  1  0  0  0
 15 16  2  0  0  0
 16 17  1  0  0  0
 17 18  2  0  0  0
  6  7  1  0  0  0
  7  8  1  0  0  0
  7  9  2  0  0  0
 42 37  1  0  0  0
 18 13  1  0  0  0
 34 35  1  0  0  0
 29 30  1  0  0  0
 29 31  1  0  0  0
 26 27  1  0  0  0
 21 22  1  0  0  0
 46 47  1  0  0  0
 49 51  1  0  0  0
 49 52  1  0  0  0
 50 53  1  0  0  0
  4  5  1  0  0  0
  8 10  1  0  0  0
  8 11  1  0  0  0
M  END
> <minimizedAffinity>
-7.04387

> <CNNscore>
0.1888621598

> <CNNaffinity>
6.4997239113

> <CNN_VS>
1.2275519371

> <CNNaffinity_variance>
0.3282296360

$$$$
[H]N=C(N([H])[H])N([H])C([H])([H])C([H])([H])C([H])([H])[C@@]([H])(C(=O)N([H])[C@]([H])(C(=O)N([H])[H])C([H])([H])c1c([H])c([H])c([H])c([H])c1[H])N([H])C(=O)[C@@]([H])(N([H])C(=O)[C@]([H])(N([H])[H])[C@]([H])(O[H])C([H])([H])[H])C([H])([H])c1c([H])c([H])c([H])c([H])c1[H]


 53 54  0  0  0  0  0  0  0  0999 V2000
   -4.4267   23.3627  -24.8810 C   0  0  0  0  0  0  0  0  0  0  0  0
   -3.4312   22.7073  -25.7656 C   0  0  0  0  0  0  0  0  0  0  0  0
   -3.3554   21.4601  -25.7694 O   0  0  0  0  0  0  0  0  0  0  0  0
   -2.5953   23.4708  -26.5862 N   0  0  0  0  0  0  0  0  0  0  0  0
   -2.6236   24.4984  -26.5857 H   0  0  0  0  0  0  0  0  0  0  0  0
   -1.6535   22.7608  -27.4695 C   0  0  0  0  0  0  0  0  0  0  0  0
   -0.3144   22.7394  -26.8801 C   0  0  0  0  0  0  0  0  0  0  0  0
   -0.0039   22.1450  -25.6387 N   0  0  0  0  0  0  0  0  0  0  0  0
    0.6467   23.2876  -27.5082 O   0  0  0  0  0  0  0  0  0  0  0  0
    0.8392   21.5244  -25.5938 H   0  0  0  0  0  0  0  0  0  0  0  0
   -0.5896   22.3072  -24.7715 H   0  0  0  0  0  0  0  0  0  0  0  0
   -1.7652   23.3477  -28.8368 C   0  0  0  0  0  0  0  0  0  0  0  0
   -3.0801   23.8267  -29.2545 C   0  0  0  0  0  0  0  0  0  0  0  0
   -4.1668   22.9376  -29.2906 C   0  0  0  0  0  0  0  0  0  0  0  0
   -5.4378   23.3506  -29.6351 C   0  0  0  0  0  0  0  0  0  0  0  0
   -5.6722   24.6717  -29.9583 C   0  0  0  0  0  0  0  0  0  0  0  0
   -4.6142   25.5454  -29.9256 C   0  0  0  0  0  0  0  0  0  0  0  0
   -3.3478   25.1340  -29.5821 C   0  0  0  0  0  0  0  0  0  0  0  0
   -5.1714   22.4447  -22.6868 C   0  0  0  0  0  0  0  0  0  0  0  0
   -6.3224   22.3403  -23.3434 O   0  0  0  0  0  0  0  0  0  0  0  0
   -4.1704   22.9777  -23.4783 N   0  0  0  0  0  0  0  0  0  0  0  0
   -3.2059   23.1395  -23.1557 H   0  0  0  0  0  0  0  0  0  0  0  0
   -5.2628   21.9757  -21.3367 C   0  0  0  0  0  0  0  0  0  0  0  0
   -2.8719   22.6369  -20.7262 C   0  0  0  0  0  0  0  0  0  0  0  0
   -3.1457   23.8485  -21.0214 O   0  0  0  0  0  0  0  0  0  0  0  0
   -3.8661   21.6796  -20.8636 N   0  0  0  0  0  0  0  0  0  0  0  0
   -3.7149   20.6725  -20.6457 H   0  0  0  0  0  0  0  0  0  0  0  0
   -1.4975   22.3518  -20.2531 C   0  0  0  0  0  0  0  0  0  0  0  0
   -0.9135   23.5192  -19.6307 N   0  0  0  0  0  0  0  0  0  0  0  0
   -1.2077   23.5261  -18.6073 H   0  0  0  0  0  0  0  0  0  0  0  0
   -1.1832   24.3868  -20.1049 H   0  0  0  0  0  0  0  0  0  0  0  0
   -0.2919   20.4164  -21.2385 C   0  0  0  0  0  0  0  0  0  0  0  0
   -0.5633   21.9043  -21.3566 C   0  0  0  0  0  0  0  0  0  0  0  0
   -1.2826   22.0822  -22.5582 O   0  0  0  0  0  0  0  0  0  0  0  0
   -0.7292   21.8023  -23.3286 H   0  0  0  0  0  0  0  0  0  0  0  0
   -5.8897   22.6979  -20.2439 C   0  0  0  0  0  0  0  0  0  0  0  0
   -7.2380   22.4248  -19.7945 C   0  0  0  0  0  0  0  0  0  0  0  0
   -7.5686   21.6652  -18.7209 C   0  0  0  0  0  0  0  0  0  0  0  0
   -8.8617   21.4311  -18.3130 C   0  0  0  0  0  0  0  0  0  0  0  0
   -9.9077   21.9663  -18.9873 C   0  0  0  0  0  0  0  0  0  0  0  0
   -9.6341   22.7510  -20.0932 C   0  0  0  0  0  0  0  0  0  0  0  0
   -8.3391   22.9773  -20.4904 C   0  0  0  0  0  0  0  0  0  0  0  0
   -4.4884   24.8051  -25.1294 C   0  0  0  0  0  0  0  0  0  0  0  0
   -5.5927   25.2283  -26.0743 C   0  0  0  0  0  0  0  0  0  0  0  0
   -6.5334   26.0960  -25.2510 C   0  0  0  0  0  0  0  0  0  0  0  0
   -7.4977   25.3225  -24.5066 N   0  0  0  0  0  0  0  0  0  0  0  0
   -8.0066   24.5002  -24.8935 H   0  0  0  0  0  0  0  0  0  0  0  0
   -7.7693   25.7025  -23.1786 C   0  0  0  0  0  0  0  0  0  0  0  0
   -6.7085   25.7282  -22.2331 N   0  0  0  0  0  0  0  0  0  0  0  0
   -8.9489   26.0263  -22.7980 N   0  0  0  0  0  0  0  0  0  0  0  0
   -6.6292   26.5673  -21.5910 H   0  0  0  0  0  0  0  0  0  0  0  0
   -6.0209   24.9512  -22.1605 H   0  0  0  0  0  0  0  0  0  0  0  0
   -9.2333   26.3159  -21.8468 H   0  0  0  0  0  0  0  0  0  0  0  0
 32 33  1  0  0  0
 33 34  1  0  0  0
 33 28  1  0  0  0
 28 29  1  0  0  0
 28 24  1  0  0  0
 24 25  2  0  0  0
 24 26  1  0  0  0
 26 23  1  0  0  0
 23 36  1  0  0  0
 36 37  1  0  0  0
 37 38  2  0  0  0
 38 39  1  0  0  0
 39 40  2  0  0  0
 40 41  1  0  0  0
 41 42  2  0  0  0
 23 19  1  0  0  0
 19 20  2  0  0  0
 19 21  1  0  0  0
 21  1  1  0  0  0
  1 43  1  0  0  0
 43 44  1  0  0  0
 44 45  1  0  0  0
 45 46  1  0  0  0
 46 48  1  0  0  0
 48 49  1  0  0  0
 48 50  2  0  0  0
  1  2  1  0  0  0
  2  3  2  0  0  0
  2  4  1  0  0  0
  4  6  1  0  0  0
  6 12  1  0  0  0
 12 13  1  0  0  0
 13 14  2  0  0  0
 14 15  1  0  0  0
 15 16  2  0  0  0
 16 17  1  0  0  0
 17 18  2  0  0  0
  6  7  1  0  0  0
  7  8  1  0  0  0
  7  9  2  0  0  0
 42 37  1  0  0  0
 18 13  1  0  0  0
 34 35  1  0  0  0
 29 30  1  0  0  0
 29 31  1  0  0  0
 26 27  1  0  0  0
 21 22  1  0  0  0
 46 47  1  0  0  0
 49 51  1  0  0  0
 49 52  1  0  0  0
 50 53  1  0  0  0
  4  5  1  0  0  0
  8 10  1  0  0  0
  8 11  1  0  0  0
M  END
> <minimizedAffinity>
-7.69260

> <CNNscore>
0.1687001288

> <CNNaffinity>
6.3528056145

> <CNN_VS>
1.0717191696

> <CNNaffinity_variance>
0.3810366094

$$$$
[H]N=C(N([H])[H])N([H])C([H])([H])C([H])([H])C([H])([H])[C@@]([H])(C(=O)N([H])[C@]([H])(C(=O)N([H])[H])C([H])([H])c1c([H])c([H])c([H])c([H])c1[H])N([H])C(=O)[C@@]([H])(N([H])C(=O)[C@]([H])(N([H])[H])[C@]([H])(O[H])C([H])([H])[H])C([H])([H])c1c([H])c([H])c([H])c([H])c1[H]


 53 54  0  0  0  0  0  0  0  0999 V2000
   -1.4328   21.7906  -21.3285 C   0  0  0  0  0  0  0  0  0  0  0  0
   -1.8761   22.6231  -22.4745 C   0  0  0  0  0  0  0  0  0  0  0  0
   -1.2524   23.6741  -22.7342 O   0  0  0  0  0  0  0  0  0  0  0  0
   -2.9696   22.2363  -23.2554 N   0  0  0  0  0  0  0  0  0  0  0  0
   -3.5119   21.3875  -23.0495 H   0  0  0  0  0  0  0  0  0  0  0  0
   -3.3381   23.0851  -24.4021 C   0  0  0  0  0  0  0  0  0  0  0  0
   -4.6156   23.7544  -24.1552 C   0  0  0  0  0  0  0  0  0  0  0  0
   -5.7498   23.6292  -24.9851 N   0  0  0  0  0  0  0  0  0  0  0  0
   -4.7340   24.5040  -23.1340 O   0  0  0  0  0  0  0  0  0  0  0  0
   -6.6723   23.4446  -24.5237 H   0  0  0  0  0  0  0  0  0  0  0  0
   -5.6919   23.7152  -26.0390 H   0  0  0  0  0  0  0  0  0  0  0  0
   -3.2535   22.2570  -25.6404 C   0  0  0  0  0  0  0  0  0  0  0  0
   -2.1097   22.4827  -26.5201 C   0  0  0  0  0  0  0  0  0  0  0  0
   -2.3186   22.9372  -27.8326 C   0  0  0  0  0  0  0  0  0  0  0  0
   -1.2698   23.2080  -28.6878 C   0  0  0  0  0  0  0  0  0  0  0  0
    0.0318   23.0338  -28.2632 C   0  0  0  0  0  0  0  0  0  0  0  0
    0.2425   22.5893  -26.9819 C   0  0  0  0  0  0  0  0  0  0  0  0
   -0.8024   22.3197  -26.1297 C   0  0  0  0  0  0  0  0  0  0  0  0
   -2.7480   22.3492  -19.2864 C   0  0  0  0  0  0  0  0  0  0  0  0
   -1.8003   23.2737  -19.1677 O   0  0  0  0  0  0  0  0  0  0  0  0
   -2.5690   21.5660  -20.4121 N   0  0  0  0  0  0  0  0  0  0  0  0
   -3.1954   20.7945  -20.6823 H   0  0  0  0  0  0  0  0  0  0  0  0
   -3.7085   22.4056  -18.2257 C   0  0  0  0  0  0  0  0  0  0  0  0
   -5.7699   23.8845  -18.5257 C   0  0  0  0  0  0  0  0  0  0  0  0
   -5.2947   24.6986  -17.6646 O   0  0  0  0  0  0  0  0  0  0  0  0
   -5.0399   22.7469  -18.8367 N   0  0  0  0  0  0  0  0  0  0  0  0
   -5.3657   22.0371  -19.5256 H   0  0  0  0  0  0  0  0  0  0  0  0
   -7.0773   24.2292  -19.1305 C   0  0  0  0  0  0  0  0  0  0  0  0
   -7.8559   23.0384  -19.3895 N   0  0  0  0  0  0  0  0  0  0  0  0
   -8.3903   22.7972  -18.5005 H   0  0  0  0  0  0  0  0  0  0  0  0
   -7.2736   22.2550  -19.7019 H   0  0  0  0  0  0  0  0  0  0  0  0
   -7.9595   26.1251  -20.4713 C   0  0  0  0  0  0  0  0  0  0  0  0
   -6.9544   24.9893  -20.4335 C   0  0  0  0  0  0  0  0  0  0  0  0
   -5.6775   25.5904  -20.4033 O   0  0  0  0  0  0  0  0  0  0  0  0
   -5.5295   26.1127  -21.2300 H   0  0  0  0  0  0  0  0  0  0  0  0
   -3.9833   21.3283  -17.2916 C   0  0  0  0  0  0  0  0  0  0  0  0
   -3.1501   20.1498  -17.1861 C   0  0  0  0  0  0  0  0  0  0  0  0
   -2.0244   20.0490  -16.4367 C   0  0  0  0  0  0  0  0  0  0  0  0
   -1.2573   18.9100  -16.3500 C   0  0  0  0  0  0  0  0  0  0  0  0
   -1.5995   17.7914  -17.0333 C   0  0  0  0  0  0  0  0  0  0  0  0
   -2.7388   17.8324  -17.8168 C   0  0  0  0  0  0  0  0  0  0  0  0
   -3.4963   18.9753  -17.8952 C   0  0  0  0  0  0  0  0  0  0  0  0
   -0.7531   20.5765  -21.7867 C   0  0  0  0  0  0  0  0  0  0  0  0
    0.3507   20.0959  -20.8690 C   0  0  0  0  0  0  0  0  0  0  0  0
    1.5523   20.9811  -21.1662 C   0  0  0  0  0  0  0  0  0  0  0  0
    2.7893   20.2404  -21.2270 N   0  0  0  0  0  0  0  0  0  0  0  0
    3.3187   19.9232  -20.3881 H   0  0  0  0  0  0  0  0  0  0  0  0
    3.3139   19.9292  -22.4958 C   0  0  0  0  0  0  0  0  0  0  0  0
    3.4170   20.9544  -23.4749 N   0  0  0  0  0  0  0  0  0  0  0  0
    3.7017   18.7450  -22.7929 N   0  0  0  0  0  0  0  0  0  0  0  0
    4.3177   21.0311  -24.0276 H   0  0  0  0  0  0  0  0  0  0  0  0
    2.6376   21.6186  -23.6561 H   0  0  0  0  0  0  0  0  0  0  0  0
    4.0968   18.4328  -23.6962 H   0  0  0  0  0  0  0  0  0  0  0  0
 32 33  1  0  0  0
 33 34  1  0  0  0
 33 28  1  0  0  0
 28 29  1  0  0  0
 28 24  1  0  0  0
 24 25  2  0  0  0
 24 26  1  0  0  0
 26 23  1  0  0  0
 23 36  1  0  0  0
 36 37  1  0  0  0
 37 38  2  0  0  0
 38 39  1  0  0  0
 39 40  2  0  0  0
 40 41  1  0  0  0
 41 42  2  0  0  0
 23 19  1  0  0  0
 19 20  2  0  0  0
 19 21  1  0  0  0
 21  1  1  0  0  0
  1 43  1  0  0  0
 43 44  1  0  0  0
 44 45  1  0  0  0
 45 46  1  0  0  0
 46 48  1  0  0  0
 48 49  1  0  0  0
 48 50  2  0  0  0
  1  2  1  0  0  0
  2  3  2  0  0  0
  2  4  1  0  0  0
  4  6  1  0  0  0
  6 12  1  0  0  0
 12 13  1  0  0  0
 13 14  2  0  0  0
 14 15  1  0  0  0
 15 16  2  0  0  0
 16 17  1  0  0  0
 17 18  2  0  0  0
  6  7  1  0  0  0
  7  8  1  0  0  0
  7  9  2  0  0  0
 42 37  1  0  0  0
 18 13  1  0  0  0
 34 35  1  0  0  0
 29 30  1  0  0  0
 29 31  1  0  0  0
 26 27  1  0  0  0
 21 22  1  0  0  0
 46 47  1  0  0  0
 49 51  1  0  0  0
 49 52  1  0  0  0
 50 53  1  0  0  0
  4  5  1  0  0  0
  8 10  1  0  0  0
  8 11  1  0  0  0
M  END
> <minimizedAffinity>
-6.97568

> <CNNscore>
0.1624038070

> <CNNaffinity>
5.6199531555

> <CNN_VS>
0.9127017856

> <CNNaffinity_variance>
0.7298206091

$$$$
[H]N=C(N([H])[H])N([H])C([H])([H])C([H])([H])C([H])([H])[C@@]([H])(C(=O)N([H])[C@]([H])(C(=O)N([H])[H])C([H])([H])c1c([H])c([H])c([H])c([H])c1[H])N([H])C(=O)[C@@]([H])(N([H])C(=O)[C@]([H])(N([H])[H])[C@]([H])(O[H])C([H])([H])[H])C([H])([H])c1c([H])c([H])c([H])c([H])c1[H]


 53 54  0  0  0  0  0  0  0  0999 V2000
   -5.4990   23.4189  -24.2287 C   0  0  0  0  0  0  0  0  0  0  0  0
   -4.8623   22.8416  -23.0185 C   0  0  0  0  0  0  0  0  0  0  0  0
   -4.4560   21.6606  -23.0552 O   0  0  0  0  0  0  0  0  0  0  0  0
   -4.7135   23.6068  -21.8578 N   0  0  0  0  0  0  0  0  0  0  0  0
   -5.0582   24.5733  -21.7955 H   0  0  0  0  0  0  0  0  0  0  0  0
   -4.0399   22.9897  -20.7016 C   0  0  0  0  0  0  0  0  0  0  0  0
   -2.6449   22.6865  -21.0225 C   0  0  0  0  0  0  0  0  0  0  0  0
   -2.1345   21.3813  -21.1867 N   0  0  0  0  0  0  0  0  0  0  0  0
   -1.8205   23.6452  -21.1649 O   0  0  0  0  0  0  0  0  0  0  0  0
   -1.5287   21.1973  -22.0216 H   0  0  0  0  0  0  0  0  0  0  0  0
   -2.3449   20.6014  -20.5020 H   0  0  0  0  0  0  0  0  0  0  0  0
   -4.8747   21.8452  -20.2328 C   0  0  0  0  0  0  0  0  0  0  0  0
   -6.3093   22.0776  -20.0889 C   0  0  0  0  0  0  0  0  0  0  0  0
   -6.7714   23.0412  -19.1774 C   0  0  0  0  0  0  0  0  0  0  0  0
   -8.1137   23.3294  -19.0365 C   0  0  0  0  0  0  0  0  0  0  0  0
   -9.0485   22.6633  -19.8028 C   0  0  0  0  0  0  0  0  0  0  0  0
   -8.6034   21.7200  -20.6949 C   0  0  0  0  0  0  0  0  0  0  0  0
   -7.2659   21.4330  -20.8355 C   0  0  0  0  0  0  0  0  0  0  0  0
   -4.2057   23.2043  -26.3483 C   0  0  0  0  0  0  0  0  0  0  0  0
   -3.8379   24.4385  -26.0188 O   0  0  0  0  0  0  0  0  0  0  0  0
   -5.0743   22.6581  -25.4212 N   0  0  0  0  0  0  0  0  0  0  0  0
   -5.4745   21.7121  -25.4946 H   0  0  0  0  0  0  0  0  0  0  0  0
   -3.6062   22.7587  -27.5702 C   0  0  0  0  0  0  0  0  0  0  0  0
   -5.4193   23.7938  -29.0427 C   0  0  0  0  0  0  0  0  0  0  0  0
   -6.2970   23.1023  -28.4250 O   0  0  0  0  0  0  0  0  0  0  0  0
   -4.0897   23.6644  -28.6696 N   0  0  0  0  0  0  0  0  0  0  0  0
   -3.3195   24.1927  -29.1302 H   0  0  0  0  0  0  0  0  0  0  0  0
   -5.9013   24.6901  -30.1189 C   0  0  0  0  0  0  0  0  0  0  0  0
   -5.9934   23.9828  -31.3769 N   0  0  0  0  0  0  0  0  0  0  0  0
   -6.9463   23.5093  -31.4170 H   0  0  0  0  0  0  0  0  0  0  0  0
   -5.2326   23.3068  -31.4979 H   0  0  0  0  0  0  0  0  0  0  0  0
   -5.6956   26.8822  -31.2691 C   0  0  0  0  0  0  0  0  0  0  0  0
   -5.0158   25.8983  -30.3355 C   0  0  0  0  0  0  0  0  0  0  0  0
   -4.9310   26.5370  -29.0795 O   0  0  0  0  0  0  0  0  0  0  0  0
   -4.3659   27.3456  -29.1483 H   0  0  0  0  0  0  0  0  0  0  0  0
   -2.1788   22.6157  -27.7950 C   0  0  0  0  0  0  0  0  0  0  0  0
   -1.2390   22.3512  -26.7268 C   0  0  0  0  0  0  0  0  0  0  0  0
   -1.5663   21.9305  -25.4798 C   0  0  0  0  0  0  0  0  0  0  0  0
   -0.6475   21.6788  -24.4870 C   0  0  0  0  0  0  0  0  0  0  0  0
    0.6780   21.8447  -24.7124 C   0  0  0  0  0  0  0  0  0  0  0  0
    1.0747   22.2733  -25.9664 C   0  0  0  0  0  0  0  0  0  0  0  0
    0.1480   22.5213  -26.9492 C   0  0  0  0  0  0  0  0  0  0  0  0
   -6.9479   23.5472  -24.0554 C   0  0  0  0  0  0  0  0  0  0  0  0
   -7.3737   24.7419  -23.2290 C   0  0  0  0  0  0  0  0  0  0  0  0
   -7.2931   25.9416  -24.1617 C   0  0  0  0  0  0  0  0  0  0  0  0
   -6.1256   26.7557  -23.9237 N   0  0  0  0  0  0  0  0  0  0  0  0
   -5.9070   27.2054  -23.0101 H   0  0  0  0  0  0  0  0  0  0  0  0
   -5.2289   26.9565  -24.9902 C   0  0  0  0  0  0  0  0  0  0  0  0
   -5.6394   26.6348  -26.3123 N   0  0  0  0  0  0  0  0  0  0  0  0
   -4.0505   27.4220  -24.8014 N   0  0  0  0  0  0  0  0  0  0  0  0
   -5.4314   27.3294  -27.0850 H   0  0  0  0  0  0  0  0  0  0  0  0
   -6.1311   25.7449  -26.5316 H   0  0  0  0  0  0  0  0  0  0  0  0
   -3.3331   27.5990  -25.5249 H   0  0  0  0  0  0  0  0  0  0  0  0
 32 33  1  0  0  0
 33 34  1  0  0  0
 33 28  1  0  0  0
 28 29  1  0  0  0
 28 24  1  0  0  0
 24 25  2  0  0  0
 24 26  1  0  0  0
 26 23  1  0  0  0
 23 36  1  0  0  0
 36 37  1  0  0  0
 37 38  2  0  0  0
 38 39  1  0  0  0
 39 40  2  0  0  0
 40 41  1  0  0  0
 41 42  2  0  0  0
 23 19  1  0  0  0
 19 20  2  0  0  0
 19 21  1  0  0  0
 21  1  1  0  0  0
  1 43  1  0  0  0
 43 44  1  0  0  0
 44 45  1  0  0  0
 45 46  1  0  0  0
 46 48  1  0  0  0
 48 49  1  0  0  0
 48 50  2  0  0  0
  1  2  1  0  0  0
  2  3  2  0  0  0
  2  4  1  0  0  0
  4  6  1  0  0  0
  6 12  1  0  0  0
 12 13  1  0  0  0
 13 14  2  0  0  0
 14 15  1  0  0  0
 15 16  2  0  0  0
 16 17  1  0  0  0
 17 18  2  0  0  0
  6  7  1  0  0  0
  7  8  1  0  0  0
  7  9  2  0  0  0
 42 37  1  0  0  0
 18 13  1  0  0  0
 34 35  1  0  0  0
 29 30  1  0  0  0
 29 31  1  0  0  0
 26 27  1  0  0  0
 21 22  1  0  0  0
 46 47  1  0  0  0
 49 51  1  0  0  0
 49 52  1  0  0  0
 50 53  1  0  0  0
  4  5  1  0  0  0
  8 10  1  0  0  0
  8 11  1  0  0  0
M  END
> <minimizedAffinity>
-8.04126

> <CNNscore>
0.1477468461

> <CNNaffinity>
6.3704385757

> <CNN_VS>
0.9412122369

> <CNNaffinity_variance>
0.8139726520

$$$$
[H]N=C(N([H])[H])N([H])C([H])([H])C([H])([H])C([H])([H])[C@@]([H])(C(=O)N([H])[C@]([H])(C(=O)N([H])[H])C([H])([H])c1c([H])c([H])c([H])c([H])c1[H])N([H])C(=O)[C@@]([H])(N([H])C(=O)[C@]([H])(N([H])[H])[C@]([H])(O[H])C([H])([H])[H])C([H])([H])c1c([H])c([H])c([H])c([H])c1[H]


 53 54  0  0  0  0  0  0  0  0999 V2000
   -1.9886   22.3865  -20.7877 C   0  0  0  0  0  0  0  0  0  0  0  0
   -2.1955   23.1423  -22.0482 C   0  0  0  0  0  0  0  0  0  0  0  0
   -1.3818   24.0395  -22.3547 O   0  0  0  0  0  0  0  0  0  0  0  0
   -3.2790   22.8526  -22.8832 N   0  0  0  0  0  0  0  0  0  0  0  0
   -3.9738   22.1339  -22.6430 H   0  0  0  0  0  0  0  0  0  0  0  0
   -3.4096   23.6119  -24.1391 C   0  0  0  0  0  0  0  0  0  0  0  0
   -4.5948   24.4691  -24.0993 C   0  0  0  0  0  0  0  0  0  0  0  0
   -4.7580   25.5561  -23.2147 N   0  0  0  0  0  0  0  0  0  0  0  0
   -5.5533   24.2369  -24.9032 O   0  0  0  0  0  0  0  0  0  0  0  0
   -5.1030   26.4611  -23.6144 H   0  0  0  0  0  0  0  0  0  0  0  0
   -4.5445   25.4806  -22.1802 H   0  0  0  0  0  0  0  0  0  0  0  0
   -3.3273   22.6491  -25.2760 C   0  0  0  0  0  0  0  0  0  0  0  0
   -2.0822   22.6187  -26.0389 C   0  0  0  0  0  0  0  0  0  0  0  0
   -0.9000   22.1718  -25.4261 C   0  0  0  0  0  0  0  0  0  0  0  0
    0.2919   22.0820  -26.1161 C   0  0  0  0  0  0  0  0  0  0  0  0
    0.3484   22.4370  -27.4486 C   0  0  0  0  0  0  0  0  0  0  0  0
   -0.8034   22.8751  -28.0530 C   0  0  0  0  0  0  0  0  0  0  0  0
   -1.9910   22.9644  -27.3656 C   0  0  0  0  0  0  0  0  0  0  0  0
   -3.5408   22.5376  -18.8436 C   0  0  0  0  0  0  0  0  0  0  0  0
   -2.4906   23.1474  -18.3032 O   0  0  0  0  0  0  0  0  0  0  0  0
   -3.2932   22.1341  -20.1430 N   0  0  0  0  0  0  0  0  0  0  0  0
   -3.9792   21.6439  -20.7344 H   0  0  0  0  0  0  0  0  0  0  0  0
   -4.6547   22.4605  -17.9467 C   0  0  0  0  0  0  0  0  0  0  0  0
   -6.7956   23.6988  -18.5868 C   0  0  0  0  0  0  0  0  0  0  0  0
   -6.5505   24.5637  -17.6802 O   0  0  0  0  0  0  0  0  0  0  0  0
   -5.9060   22.6488  -18.7599 N   0  0  0  0  0  0  0  0  0  0  0  0
   -6.0423   21.9048  -19.4757 H   0  0  0  0  0  0  0  0  0  0  0  0
   -8.0246   23.8932  -19.3902 C   0  0  0  0  0  0  0  0  0  0  0  0
   -8.5704   22.6227  -19.8139 N   0  0  0  0  0  0  0  0  0  0  0  0
   -9.2001   22.2611  -19.0351 H   0  0  0  0  0  0  0  0  0  0  0  0
   -7.8380   21.9457  -20.0497 H   0  0  0  0  0  0  0  0  0  0  0  0
   -8.3669   26.1280  -20.4191 C   0  0  0  0  0  0  0  0  0  0  0  0
   -7.8053   24.7344  -20.6291 C   0  0  0  0  0  0  0  0  0  0  0  0
   -6.4063   24.8837  -20.7438 O   0  0  0  0  0  0  0  0  0  0  0  0
   -6.1883   25.4325  -21.5371 H   0  0  0  0  0  0  0  0  0  0  0  0
   -4.9388   21.3427  -17.0643 C   0  0  0  0  0  0  0  0  0  0  0  0
   -5.4910   20.0911  -17.5365 C   0  0  0  0  0  0  0  0  0  0  0  0
   -4.8155   19.1533  -18.2457 C   0  0  0  0  0  0  0  0  0  0  0  0
   -5.3667   17.9673  -18.6735 C   0  0  0  0  0  0  0  0  0  0  0  0
   -6.6584   17.6655  -18.3983 C   0  0  0  0  0  0  0  0  0  0  0  0
   -7.4004   18.5841  -17.6777 C   0  0  0  0  0  0  0  0  0  0  0  0
   -6.8389   19.7645  -17.2563 C   0  0  0  0  0  0  0  0  0  0  0  0
   -1.1645   21.1964  -21.0122 C   0  0  0  0  0  0  0  0  0  0  0  0
   -0.3346   20.7781  -19.8173 C   0  0  0  0  0  0  0  0  0  0  0  0
    0.7566   21.8300  -19.6813 C   0  0  0  0  0  0  0  0  0  0  0  0
    0.6835   22.5514  -18.4336 N   0  0  0  0  0  0  0  0  0  0  0  0
   -0.1975   22.6986  -17.8980 H   0  0  0  0  0  0  0  0  0  0  0  0
    1.8733   23.0910  -17.9091 C   0  0  0  0  0  0  0  0  0  0  0  0
    2.3695   22.6034  -16.6697 N   0  0  0  0  0  0  0  0  0  0  0  0
    2.5225   24.0113  -18.5195 N   0  0  0  0  0  0  0  0  0  0  0  0
    3.4032   22.3828  -16.5953 H   0  0  0  0  0  0  0  0  0  0  0  0
    1.7473   22.4623  -15.8484 H   0  0  0  0  0  0  0  0  0  0  0  0
    3.3998   24.4602  -18.2058 H   0  0  0  0  0  0  0  0  0  0  0  0
 32 33  1  0  0  0
 33 34  1  0  0  0
 33 28  1  0  0  0
 28 29  1  0  0  0
 28 24  1  0  0  0
 24 25  2  0  0  0
 24 26  1  0  0  0
 26 23  1  0  0  0
 23 36  1  0  0  0
 36 37  1  0  0  0
 37 38  2  0  0  0
 38 39  1  0  0  0
 39 40  2  0  0  0
 40 41  1  0  0  0
 41 42  2  0  0  0
 23 19  1  0  0  0
 19 20  2  0  0  0
 19 21  1  0  0  0
 21  1  1  0  0  0
  1 43  1  0  0  0
 43 44  1  0  0  0
 44 45  1  0  0  0
 45 46  1  0  0  0
 46 48  1  0  0  0
 48 49  1  0  0  0
 48 50  2  0  0  0
  1  2  1  0  0  0
  2  3  2  0  0  0
  2  4  1  0  0  0
  4  6  1  0  0  0
  6 12  1  0  0  0
 12 13  1  0  0  0
 13 14  2  0  0  0
 14 15  1  0  0  0
 15 16  2  0  0  0
 16 17  1  0  0  0
 17 18  2  0  0  0
  6  7  1  0  0  0
  7  8  1  0  0  0
  7  9  2  0  0  0
 42 37  1  0  0  0
 18 13  1  0  0  0
 34 35  1  0  0  0
 29 30  1  0  0  0
 29 31  1  0  0  0
 26 27  1  0  0  0
 21 22  1  0  0  0
 46 47  1  0  0  0
 49 51  1  0  0  0
 49 52  1  0  0  0
 50 53  1  0  0  0
  4  5  1  0  0  0
  8 10  1  0  0  0
  8 11  1  0  0  0
M  END
> <minimizedAffinity>
-6.57366

> <CNNscore>
0.1324387640

> <CNNaffinity>
5.5930929184

> <CNN_VS>
0.7407423258

> <CNNaffinity_variance>
0.5502936244

$$$$
[H]N=C(N([H])[H])N([H])C([H])([H])C([H])([H])C([H])([H])[C@@]([H])(C(=O)N([H])[C@]([H])(C(=O)N([H])[H])C([H])([H])c1c([H])c([H])c([H])c([H])c1[H])N([H])C(=O)[C@@]([H])(N([H])C(=O)[C@]([H])(N([H])[H])[C@]([H])(O[H])C([H])([H])[H])C([H])([H])c1c([H])c([H])c([H])c([H])c1[H]


 53 54  0  0  0  0  0  0  0  0999 V2000
   -5.7955   24.5224  -24.6066 C   0  0  0  0  0  0  0  0  0  0  0  0
   -5.0431   24.8048  -25.8545 C   0  0  0  0  0  0  0  0  0  0  0  0
   -4.2461   25.7668  -25.8744 O   0  0  0  0  0  0  0  0  0  0  0  0
   -5.2175   24.0051  -26.9881 N   0  0  0  0  0  0  0  0  0  0  0  0
   -5.8824   23.2212  -27.0038 H   0  0  0  0  0  0  0  0  0  0  0  0
   -4.4145   24.3131  -28.1846 C   0  0  0  0  0  0  0  0  0  0  0  0
   -5.2521   24.9119  -29.2242 C   0  0  0  0  0  0  0  0  0  0  0  0
   -5.6520   24.2456  -30.4019 N   0  0  0  0  0  0  0  0  0  0  0  0
   -5.6556   26.1099  -29.0796 O   0  0  0  0  0  0  0  0  0  0  0  0
   -6.6610   24.3079  -30.6774 H   0  0  0  0  0  0  0  0  0  0  0  0
   -4.9720   23.6965  -30.9999 H   0  0  0  0  0  0  0  0  0  0  0  0
   -3.6610   23.0838  -28.5687 C   0  0  0  0  0  0  0  0  0  0  0  0
   -2.3559   22.8766  -27.9466 C   0  0  0  0  0  0  0  0  0  0  0  0
   -1.1863   23.1789  -28.6631 C   0  0  0  0  0  0  0  0  0  0  0  0
    0.0685   23.0430  -28.1047 C   0  0  0  0  0  0  0  0  0  0  0  0
    0.2029   22.5978  -26.8053 C   0  0  0  0  0  0  0  0  0  0  0  0
   -0.9363   22.3001  -26.1000 C   0  0  0  0  0  0  0  0  0  0  0  0
   -2.1865   22.4358  -26.6563 C   0  0  0  0  0  0  0  0  0  0  0  0
   -4.3414   22.9494  -23.3326 C   0  0  0  0  0  0  0  0  0  0  0  0
   -4.8116   22.0940  -24.2348 O   0  0  0  0  0  0  0  0  0  0  0  0
   -4.8470   24.2237  -23.5146 N   0  0  0  0  0  0  0  0  0  0  0  0
   -4.6061   25.0292  -22.9198 H   0  0  0  0  0  0  0  0  0  0  0  0
   -3.4326   22.3349  -22.4120 C   0  0  0  0  0  0  0  0  0  0  0  0
   -4.5748   21.8168  -20.1864 C   0  0  0  0  0  0  0  0  0  0  0  0
   -4.1718   22.9404  -19.7333 O   0  0  0  0  0  0  0  0  0  0  0  0
   -4.2413   21.4676  -21.4866 N   0  0  0  0  0  0  0  0  0  0  0  0
   -4.5311   20.5671  -21.9220 H   0  0  0  0  0  0  0  0  0  0  0  0
   -5.3777   20.9701  -19.2740 C   0  0  0  0  0  0  0  0  0  0  0  0
   -6.2038   21.7829  -18.4090 N   0  0  0  0  0  0  0  0  0  0  0  0
   -7.1106   21.9935  -18.9260 H   0  0  0  0  0  0  0  0  0  0  0  0
   -5.7296   22.6431  -18.1167 H   0  0  0  0  0  0  0  0  0  0  0  0
   -5.0644   18.6499  -18.4440 C   0  0  0  0  0  0  0  0  0  0  0  0
   -4.5366   20.0713  -18.3933 C   0  0  0  0  0  0  0  0  0  0  0  0
   -3.2586   20.0415  -18.9920 O   0  0  0  0  0  0  0  0  0  0  0  0
   -2.6522   19.4629  -18.4669 H   0  0  0  0  0  0  0  0  0  0  0  0
   -2.2861   21.5262  -22.7867 C   0  0  0  0  0  0  0  0  0  0  0  0
   -1.0724   21.4738  -22.0002 C   0  0  0  0  0  0  0  0  0  0  0  0
   -0.9386   21.9345  -20.7319 C   0  0  0  0  0  0  0  0  0  0  0  0
    0.2282   21.8622  -20.0062 C   0  0  0  0  0  0  0  0  0  0  0  0
    1.3425   21.3075  -20.5409 C   0  0  0  0  0  0  0  0  0  0  0  0
    1.2688   20.8196  -21.8332 C   0  0  0  0  0  0  0  0  0  0  0  0
    0.0984   20.8977  -22.5474 C   0  0  0  0  0  0  0  0  0  0  0  0
   -6.7622   25.5847  -24.3185 C   0  0  0  0  0  0  0  0  0  0  0  0
   -8.0355   25.1056  -23.6547 C   0  0  0  0  0  0  0  0  0  0  0  0
   -8.0336   25.7191  -22.2620 C   0  0  0  0  0  0  0  0  0  0  0  0
   -7.6917   24.7664  -21.2335 N   0  0  0  0  0  0  0  0  0  0  0  0
   -8.2173   23.8842  -21.0603 H   0  0  0  0  0  0  0  0  0  0  0  0
   -6.5826   25.0465  -20.4128 C   0  0  0  0  0  0  0  0  0  0  0  0
   -6.6556   24.7549  -19.0237 N   0  0  0  0  0  0  0  0  0  0  0  0
   -5.5071   25.5581  -20.8847 N   0  0  0  0  0  0  0  0  0  0  0  0
   -5.8316   24.2675  -18.5696 H   0  0  0  0  0  0  0  0  0  0  0  0
   -7.4884   25.0076  -18.4543 H   0  0  0  0  0  0  0  0  0  0  0  0
   -4.6510   25.7938  -20.3546 H   0  0  0  0  0  0  0  0  0  0  0  0
 32 33  1  0  0  0
 33 34  1  0  0  0
 33 28  1  0  0  0
 28 29  1  0  0  0
 28 24  1  0  0  0
 24 25  2  0  0  0
 24 26  1  0  0  0
 26 23  1  0  0  0
 23 36  1  0  0  0
 36 37  1  0  0  0
 37 38  2  0  0  0
 38 39  1  0  0  0
 39 40  2  0  0  0
 40 41  1  0  0  0
 41 42  2  0  0  0
 23 19  1  0  0  0
 19 20  2  0  0  0
 19 21  1  0  0  0
 21  1  1  0  0  0
  1 43  1  0  0  0
 43 44  1  0  0  0
 44 45  1  0  0  0
 45 46  1  0  0  0
 46 48  1  0  0  0
 48 49  1  0  0  0
 48 50  2  0  0  0
  1  2  1  0  0  0
  2  3  2  0  0  0
  2  4  1  0  0  0
  4  6  1  0  0  0
  6 12  1  0  0  0
 12 13  1  0  0  0
 13 14  2  0  0  0
 14 15  1  0  0  0
 15 16  2  0  0  0
 16 17  1  0  0  0
 17 18  2  0  0  0
  6  7  1  0  0  0
  7  8  1  0  0  0
  7  9  2  0  0  0
 42 37  1  0  0  0
 18 13  1  0  0  0
 34 35  1  0  0  0
 29 30  1  0  0  0
 29 31  1  0  0  0
 26 27  1  0  0  0
 21 22  1  0  0  0
 46 47  1  0  0  0
 49 51  1  0  0  0
 49 52  1  0  0  0
 50 53  1  0  0  0
  4  5  1  0  0  0
  8 10  1  0  0  0
  8 11  1  0  0  0
M  END
> <minimizedAffinity>
-7.71280

> <CNNscore>
0.1316586584

> <CNNaffinity>
6.2957015038

> <CNN_VS>
0.8288835883

> <CNNaffinity_variance>
0.3965175748

$$$$
[H]OC([H])([H])C([H])([H])N1C([H])([H])C([H])([H])N(C2([H])C([H])([H])C([H])([H])N(c3c([H])c([H])c(N([H])c4nc([H])c(Cl)c(N([H])c5c([H])c([H])c([H])c([H])c5S(=O)(=O)C([H])(C([H])([H])[H])C([H])([H])[H])n4)c(OC([H])([H])[H])c3[H])C([H])([H])C2([H])[H])C([H])([H])C1([H])[H]


 47 51  0  0  0  0  0  0  0  0999 V2000
   -1.1641   21.6227  -20.7250 C   0  0  0  0  0  0  0  0  0  0  0  0
   -2.0350   21.4535  -19.6784 C   0  0  0  0  0  0  0  0  0  0  0  0
   -3.3957   21.5396  -19.8420 C   0  0  0  0  0  0  0  0  0  0  0  0
   -3.8288   21.8052  -21.1201 C   0  0  0  0  0  0  0  0  0  0  0  0
   -2.9769   21.9833  -22.2043 C   0  0  0  0  0  0  0  0  0  0  0  0
   -1.6290   21.8914  -22.0116 C   0  0  0  0  0  0  0  0  0  0  0  0
   -4.3550   21.4036  -18.8084 N   0  0  0  0  0  0  0  0  0  0  0  0
   -5.6860   21.8988  -19.0086 C   0  0  0  0  0  0  0  0  0  0  0  0
   -6.2669   22.5880  -17.8072 C   0  0  0  0  0  0  0  0  0  0  0  0
   -6.0030   21.7663  -16.5612 C   0  0  0  0  0  0  0  0  0  0  0  0
   -4.5597   21.4998  -16.3422 C   0  0  0  0  0  0  0  0  0  0  0  0
   -3.9857   20.7885  -17.5746 C   0  0  0  0  0  0  0  0  0  0  0  0
   -6.7348   22.3010  -15.4759 N   0  0  0  0  0  0  0  0  0  0  0  0
   -6.7458   21.5810  -14.2555 C   0  0  0  0  0  0  0  0  0  0  0  0
   -5.8877   22.2882  -13.1986 C   0  0  0  0  0  0  0  0  0  0  0  0
   -6.4923   23.5397  -12.8940 N   0  0  0  0  0  0  0  0  0  0  0  0
   -7.3825   24.0208  -13.9617 C   0  0  0  0  0  0  0  0  0  0  0  0
   -6.6580   23.7117  -15.2734 C   0  0  0  0  0  0  0  0  0  0  0  0
   -5.5631   24.5961  -12.6002 C   0  0  0  0  0  0  0  0  0  0  0  0
   -6.1184   25.9758  -12.6325 C   0  0  0  0  0  0  0  0  0  0  0  0
   -5.1988   26.9837  -12.7967 O   0  0  0  0  0  0  0  0  0  0  0  0
   -5.2147   27.2422  -13.7536 H   0  0  0  0  0  0  0  0  0  0  0  0
    0.7606   20.3289  -19.9957 C   0  0  0  0  0  0  0  0  0  0  0  0
    0.2090   21.5253  -20.5032 O   0  0  0  0  0  0  0  0  0  0  0  0
   -0.6833   22.0489  -23.0516 N   0  0  0  0  0  0  0  0  0  0  0  0
    0.3674   21.9710  -22.7282 H   0  0  0  0  0  0  0  0  0  0  0  0
   -0.8222   22.2794  -24.4106 C   0  0  0  0  0  0  0  0  0  0  0  0
    0.3572   22.5080  -25.1049 N   0  0  0  0  0  0  0  0  0  0  0  0
    0.3808   22.7548  -26.4108 C   0  0  0  0  0  0  0  0  0  0  0  0
   -0.7789   22.7942  -27.1417 C   0  0  0  0  0  0  0  0  0  0  0  0
   -0.6748   23.1215  -28.8554 Cl  0  0  0  0  0  0  0  0  0  0  0  0
   -1.9925   22.5669  -26.4786 C   0  0  0  0  0  0  0  0  0  0  0  0
   -1.9088   22.3272  -25.1628 N   0  0  0  0  0  0  0  0  0  0  0  0
   -3.1471   22.6798  -27.2696 N   0  0  0  0  0  0  0  0  0  0  0  0
   -3.6651   21.7493  -27.4260 H   0  0  0  0  0  0  0  0  0  0  0  0
   -3.7406   23.7850  -27.8872 C   0  0  0  0  0  0  0  0  0  0  0  0
   -3.4572   24.1805  -29.1888 C   0  0  0  0  0  0  0  0  0  0  0  0
   -4.0568   25.3090  -29.7054 C   0  0  0  0  0  0  0  0  0  0  0  0
   -4.9339   26.0746  -28.9847 C   0  0  0  0  0  0  0  0  0  0  0  0
   -5.1970   25.6481  -27.6734 C   0  0  0  0  0  0  0  0  0  0  0  0
   -4.6347   24.5402  -27.1076 C   0  0  0  0  0  0  0  0  0  0  0  0
   -5.0547   24.1273  -25.4932 S   0  0  0  0  0  0  0  0  0  0  0  0
   -5.3854   22.6578  -25.4593 O   0  0  0  0  0  0  0  0  0  0  0  0
   -4.0714   24.4703  -24.4382 O   0  0  0  0  0  0  0  0  0  0  0  0
   -6.5645   24.9869  -25.0293 C   0  0  0  0  0  0  0  0  0  0  0  0
   -7.1642   24.1353  -23.8942 C   0  0  0  0  0  0  0  0  0  0  0  0
   -6.3118   26.3327  -24.4406 C   0  0  0  0  0  0  0  0  0  0  0  0
 23 24  1  0  0  0
 24  1  1  0  0  0
  1  2  2  0  0  0
  2  3  1  0  0  0
  3  4  2  0  0  0
  4  5  1  0  0  0
  5  6  2  0  0  0
  6 25  1  0  0  0
 25 27  1  0  0  0
 27 28  2  0  0  0
 28 29  1  0  0  0
 29 30  2  0  0  0
 30 31  1  0  0  0
 30 32  1  0  0  0
 32 34  1  0  0  0
 34 36  1  0  0  0
 36 37  2  0  0  0
 37 38  1  0  0  0
 38 39  2  0  0  0
 39 40  1  0  0  0
 40 41  2  0  0  0
 41 42  1  0  0  0
 42 43  2  0  0  0
 42 44  2  0  0  0
 42 45  1  0  0  0
 45 46  1  0  0  0
 45 47  1  0  0  0
 32 33  2  0  0  0
  3  7  1  0  0  0
  7  8  1  0  0  0
  8  9  1  0  0  0
  9 10  1  0  0  0
 10 11  1  0  0  0
 11 12  1  0  0  0
 10 13  1  0  0  0
 13 14  1  0  0  0
 14 15  1  0  0  0
 15 16  1  0  0  0
 16 19  1  0  0  0
 19 20  1  0  0  0
 20 21  1  0  0  0
 16 17  1  0  0  0
 17 18  1  0  0  0
  6  1  1  0  0  0
 33 27  1  0  0  0
 12  7  1  0  0  0
 18 13  1  0  0  0
 41 36  1  0  0  0
 25 26  1  0  0  0
 34 35  1  0  0  0
 21 22  1  0  0  0
M  END
> <minimizedAffinity>
-8.09641

> <CNNscore>
0.2109079957

> <CNNaffinity>
7.1355910301

> <CNN_VS>
1.5049531460

> <CNNaffinity_variance>
0.3293063343

$$$$
[H]OC([H])([H])C([H])([H])N1C([H])([H])C([H])([H])N(C2([H])C([H])([H])C([H])([H])N(c3c([H])c([H])c(N([H])c4nc([H])c(Cl)c(N([H])c5c([H])c([H])c([H])c([H])c5S(=O)(=O)C([H])(C([H])([H])[H])C([H])([H])[H])n4)c(OC([H])([H])[H])c3[H])C([H])([H])C2([H])[H])C([H])([H])C1([H])[H]


 47 51  0  0  0  0  0  0  0  0999 V2000
   -1.8243   22.5379  -20.5122 C   0  0  0  0  0  0  0  0  0  0  0  0
   -2.7797   22.6084  -19.5300 C   0  0  0  0  0  0  0  0  0  0  0  0
   -4.0899   22.2693  -19.7625 C   0  0  0  0  0  0  0  0  0  0  0  0
   -4.3824   21.8545  -21.0409 C   0  0  0  0  0  0  0  0  0  0  0  0
   -3.4419   21.7711  -22.0614 C   0  0  0  0  0  0  0  0  0  0  0  0
   -2.1470   22.1142  -21.8006 C   0  0  0  0  0  0  0  0  0  0  0  0
   -5.1358   22.3409  -18.8098 N   0  0  0  0  0  0  0  0  0  0  0  0
   -4.8198   22.3442  -17.4108 C   0  0  0  0  0  0  0  0  0  0  0  0
   -5.7459   21.5079  -16.5749 C   0  0  0  0  0  0  0  0  0  0  0  0
   -7.1843   21.7754  -16.9709 C   0  0  0  0  0  0  0  0  0  0  0  0
   -7.4407   21.5271  -18.4113 C   0  0  0  0  0  0  0  0  0  0  0  0
   -6.4927   22.3953  -19.2491 C   0  0  0  0  0  0  0  0  0  0  0  0
   -8.0549   21.1594  -16.0425 N   0  0  0  0  0  0  0  0  0  0  0  0
   -9.2936   21.7892  -15.7655 C   0  0  0  0  0  0  0  0  0  0  0  0
  -10.4534   21.0126  -16.4021 C   0  0  0  0  0  0  0  0  0  0  0  0
  -10.5386   19.7388  -15.7738 N   0  0  0  0  0  0  0  0  0  0  0  0
   -9.2791   19.3309  -15.1327 C   0  0  0  0  0  0  0  0  0  0  0  0
   -8.1704   19.7382  -16.1053 C   0  0  0  0  0  0  0  0  0  0  0  0
  -10.9442   18.6694  -16.6443 C   0  0  0  0  0  0  0  0  0  0  0  0
  -12.4047   18.5660  -16.9075 C   0  0  0  0  0  0  0  0  0  0  0  0
  -12.8410   19.1416  -18.0766 O   0  0  0  0  0  0  0  0  0  0  0  0
  -12.9409   18.4139  -18.7423 H   0  0  0  0  0  0  0  0  0  0  0  0
    0.2559   22.1138  -19.3277 C   0  0  0  0  0  0  0  0  0  0  0  0
   -0.5081   22.8947  -20.2220 O   0  0  0  0  0  0  0  0  0  0  0  0
   -1.1178   22.0552  -22.7692 N   0  0  0  0  0  0  0  0  0  0  0  0
   -0.1285   21.7826  -22.3672 H   0  0  0  0  0  0  0  0  0  0  0  0
   -1.1124   22.2708  -24.1376 C   0  0  0  0  0  0  0  0  0  0  0  0
    0.1365   22.4635  -24.7106 N   0  0  0  0  0  0  0  0  0  0  0  0
    0.2986   22.6924  -26.0099 C   0  0  0  0  0  0  0  0  0  0  0  0
   -0.7795   22.7483  -26.8555 C   0  0  0  0  0  0  0  0  0  0  0  0
   -0.4940   23.0505  -28.5532 Cl  0  0  0  0  0  0  0  0  0  0  0  0
   -2.0593   22.5573  -26.3171 C   0  0  0  0  0  0  0  0  0  0  0  0
   -2.1155   22.3333  -24.9971 N   0  0  0  0  0  0  0  0  0  0  0  0
   -3.1245   22.6859  -27.2228 N   0  0  0  0  0  0  0  0  0  0  0  0
   -3.6360   21.7625  -27.4333 H   0  0  0  0  0  0  0  0  0  0  0  0
   -3.6363   23.7991  -27.8966 C   0  0  0  0  0  0  0  0  0  0  0  0
   -3.2793   24.1409  -29.1953 C   0  0  0  0  0  0  0  0  0  0  0  0
   -3.8003   25.2807  -29.7691 C   0  0  0  0  0  0  0  0  0  0  0  0
   -4.6682   26.1090  -29.1092 C   0  0  0  0  0  0  0  0  0  0  0  0
   -5.0070   25.7355  -27.7991 C   0  0  0  0  0  0  0  0  0  0  0  0
   -4.5242   24.6196  -27.1783 C   0  0  0  0  0  0  0  0  0  0  0  0
   -5.0317   24.2764  -25.5728 S   0  0  0  0  0  0  0  0  0  0  0  0
   -5.5177   22.8508  -25.5325 O   0  0  0  0  0  0  0  0  0  0  0  0
   -4.0480   24.5280  -24.4927 O   0  0  0  0  0  0  0  0  0  0  0  0
   -6.4540   25.2976  -25.1637 C   0  0  0  0  0  0  0  0  0  0  0  0
   -7.6637   24.5195  -25.7155 C   0  0  0  0  0  0  0  0  0  0  0  0
   -6.6817   25.4191  -23.6956 C   0  0  0  0  0  0  0  0  0  0  0  0
 23 24  1  0  0  0
 24  1  1  0  0  0
  1  2  2  0  0  0
  2  3  1  0  0  0
  3  4  2  0  0  0
  4  5  1  0  0  0
  5  6  2  0  0  0
  6 25  1  0  0  0
 25 27  1  0  0  0
 27 28  2  0  0  0
 28 29  1  0  0  0
 29 30  2  0  0  0
 30 31  1  0  0  0
 30 32  1  0  0  0
 32 34  1  0  0  0
 34 36  1  0  0  0
 36 37  2  0  0  0
 37 38  1  0  0  0
 38 39  2  0  0  0
 39 40  1  0  0  0
 40 41  2  0  0  0
 41 42  1  0  0  0
 42 43  2  0  0  0
 42 44  2  0  0  0
 42 45  1  0  0  0
 45 46  1  0  0  0
 45 47  1  0  0  0
 32 33  2  0  0  0
  3  7  1  0  0  0
  7  8  1  0  0  0
  8  9  1  0  0  0
  9 10  1  0  0  0
 10 11  1  0  0  0
 11 12  1  0  0  0
 10 13  1  0  0  0
 13 14  1  0  0  0
 14 15  1  0  0  0
 15 16  1  0  0  0
 16 19  1  0  0  0
 19 20  1  0  0  0
 20 21  1  0  0  0
 16 17  1  0  0  0
 17 18  1  0  0  0
  6  1  1  0  0  0
 33 27  1  0  0  0
 12  7  1  0  0  0
 18 13  1  0  0  0
 41 36  1  0  0  0
 25 26  1  0  0  0
 34 35  1  0  0  0
 21 22  1  0  0  0
M  END
> <minimizedAffinity>
-7.89953

> <CNNscore>
0.1870863885

> <CNNaffinity>
7.2704801559

> <CNN_VS>
1.3602079153

> <CNNaffinity_variance>
0.1074141264

$$$$
[H]OC([H])([H])C([H])([H])N1C([H])([H])C([H])([H])N(C2([H])C([H])([H])C([H])([H])N(c3c([H])c([H])c(N([H])c4nc([H])c(Cl)c(N([H])c5c([H])c([H])c([H])c([H])c5S(=O)(=O)C([H])(C([H])([H])[H])C([H])([H])[H])n4)c(OC([H])([H])[H])c3[H])C([H])([H])C2([H])[H])C([H])([H])C1([H])[H]


 47 51  0  0  0  0  0  0  0  0999 V2000
   -7.9142   23.7275  -19.8779 C   0  0  0  0  0  0  0  0  0  0  0  0
   -7.8855   22.9879  -18.7227 C   0  0  0  0  0  0  0  0  0  0  0  0
   -8.1156   21.6342  -18.7186 C   0  0  0  0  0  0  0  0  0  0  0  0
   -8.3755   21.0680  -19.9448 C   0  0  0  0  0  0  0  0  0  0  0  0
   -8.4136   21.7848  -21.1354 C   0  0  0  0  0  0  0  0  0  0  0  0
   -8.1804   23.1292  -21.1088 C   0  0  0  0  0  0  0  0  0  0  0  0
   -8.1292   20.8093  -17.5669 N   0  0  0  0  0  0  0  0  0  0  0  0
   -7.8233   19.4137  -17.6923 C   0  0  0  0  0  0  0  0  0  0  0  0
   -8.6998   18.5207  -16.8616 C   0  0  0  0  0  0  0  0  0  0  0  0
   -8.8374   19.0867  -15.4624 C   0  0  0  0  0  0  0  0  0  0  0  0
   -9.3715   20.4712  -15.4513 C   0  0  0  0  0  0  0  0  0  0  0  0
   -8.4598   21.3701  -16.2968 C   0  0  0  0  0  0  0  0  0  0  0  0
   -9.4746   18.1400  -14.6276 N   0  0  0  0  0  0  0  0  0  0  0  0
  -10.6032   18.5582  -13.8798 C   0  0  0  0  0  0  0  0  0  0  0  0
  -11.8925   17.9646  -14.4624 C   0  0  0  0  0  0  0  0  0  0  0  0
  -11.8474   16.5513  -14.3032 N   0  0  0  0  0  0  0  0  0  0  0  0
  -10.4790   16.0363  -14.1424 C   0  0  0  0  0  0  0  0  0  0  0  0
   -9.6241   16.8173  -15.1424 C   0  0  0  0  0  0  0  0  0  0  0  0
  -12.4633   15.8104  -15.3697 C   0  0  0  0  0  0  0  0  0  0  0  0
  -13.4209   14.7505  -14.9543 C   0  0  0  0  0  0  0  0  0  0  0  0
  -12.9488   13.4617  -15.0232 O   0  0  0  0  0  0  0  0  0  0  0  0
  -12.6756   13.2001  -14.1069 H   0  0  0  0  0  0  0  0  0  0  0  0
   -6.3803   25.5807  -19.5273 C   0  0  0  0  0  0  0  0  0  0  0  0
   -7.6738   25.0999  -19.8253 O   0  0  0  0  0  0  0  0  0  0  0  0
   -8.1893   23.9422  -22.2663 N   0  0  0  0  0  0  0  0  0  0  0  0
   -9.1901   24.1155  -22.6941 H   0  0  0  0  0  0  0  0  0  0  0  0
   -7.1762   24.5722  -22.9705 C   0  0  0  0  0  0  0  0  0  0  0  0
   -7.5104   25.7913  -23.5425 N   0  0  0  0  0  0  0  0  0  0  0  0
   -6.6464   26.5061  -24.2564 C   0  0  0  0  0  0  0  0  0  0  0  0
   -5.3650   26.0629  -24.4615 C   0  0  0  0  0  0  0  0  0  0  0  0
   -4.2803   27.0542  -25.4079 Cl  0  0  0  0  0  0  0  0  0  0  0  0
   -4.9861   24.8363  -23.8992 C   0  0  0  0  0  0  0  0  0  0  0  0
   -5.9297   24.1934  -23.1977 N   0  0  0  0  0  0  0  0  0  0  0  0
   -3.6815   24.4098  -24.1951 N   0  0  0  0  0  0  0  0  0  0  0  0
   -2.9493   24.6926  -23.4586 H   0  0  0  0  0  0  0  0  0  0  0  0
   -3.1682   23.6841  -25.2745 C   0  0  0  0  0  0  0  0  0  0  0  0
   -3.7289   23.7002  -26.5458 C   0  0  0  0  0  0  0  0  0  0  0  0
   -3.1829   22.9205  -27.5428 C   0  0  0  0  0  0  0  0  0  0  0  0
   -2.0950   22.1148  -27.3375 C   0  0  0  0  0  0  0  0  0  0  0  0
   -1.5541   22.1210  -26.0422 C   0  0  0  0  0  0  0  0  0  0  0  0
   -2.0502   22.8714  -25.0153 C   0  0  0  0  0  0  0  0  0  0  0  0
   -1.2821   22.7906  -23.4802 S   0  0  0  0  0  0  0  0  0  0  0  0
    0.1690   22.4518  -23.7027 O   0  0  0  0  0  0  0  0  0  0  0  0
   -1.4170   23.9773  -22.6020 O   0  0  0  0  0  0  0  0  0  0  0  0
   -1.9722   21.4240  -22.5370 C   0  0  0  0  0  0  0  0  0  0  0  0
   -0.7456   20.6780  -21.9782 C   0  0  0  0  0  0  0  0  0  0  0  0
   -2.7542   21.8713  -21.3495 C   0  0  0  0  0  0  0  0  0  0  0  0
 23 24  1  0  0  0
 24  1  1  0  0  0
  1  2  2  0  0  0
  2  3  1  0  0  0
  3  4  2  0  0  0
  4  5  1  0  0  0
  5  6  2  0  0  0
  6 25  1  0  0  0
 25 27  1  0  0  0
 27 28  2  0  0  0
 28 29  1  0  0  0
 29 30  2  0  0  0
 30 31  1  0  0  0
 30 32  1  0  0  0
 32 34  1  0  0  0
 34 36  1  0  0  0
 36 37  2  0  0  0
 37 38  1  0  0  0
 38 39  2  0  0  0
 39 40  1  0  0  0
 40 41  2  0  0  0
 41 42  1  0  0  0
 42 43  2  0  0  0
 42 44  2  0  0  0
 42 45  1  0  0  0
 45 46  1  0  0  0
 45 47  1  0  0  0
 32 33  2  0  0  0
  3  7  1  0  0  0
  7  8  1  0  0  0
  8  9  1  0  0  0
  9 10  1  0  0  0
 10 11  1  0  0  0
 11 12  1  0  0  0
 10 13  1  0  0  0
 13 14  1  0  0  0
 14 15  1  0  0  0
 15 16  1  0  0  0
 16 19  1  0  0  0
 19 20  1  0  0  0
 20 21  1  0  0  0
 16 17  1  0  0  0
 17 18  1  0  0  0
  6  1  1  0  0  0
 33 27  1  0  0  0
 12  7  1  0  0  0
 18 13  1  0  0  0
 41 36  1  0  0  0
 25 26  1  0  0  0
 34 35  1  0  0  0
 21 22  1  0  0  0
M  END
> <minimizedAffinity>
-7.41054

> <CNNscore>
0.1440739483

> <CNNaffinity>
6.5588684082

> <CNN_VS>
0.9449620843

> <CNNaffinity_variance>
0.1079082340

$$$$
[H]OC([H])([H])C([H])([H])N1C([H])([H])C([H])([H])N(C2([H])C([H])([H])C([H])([H])N(c3c([H])c([H])c(N([H])c4nc([H])c(Cl)c(N([H])c5c([H])c([H])c([H])c([H])c5S(=O)(=O)C([H])(C([H])([H])[H])C([H])([H])[H])n4)c(OC([H])([H])[H])c3[H])C([H])([H])C2([H])[H])C([H])([H])C1([H])[H]


 47 51  0  0  0  0  0  0  0  0999 V2000
   -8.5981   22.3051  -19.7669 C   0  0  0  0  0  0  0  0  0  0  0  0
   -8.6246   22.0842  -18.4130 C   0  0  0  0  0  0  0  0  0  0  0  0
   -7.5307   21.6119  -17.7305 C   0  0  0  0  0  0  0  0  0  0  0  0
   -6.4084   21.3756  -18.4897 C   0  0  0  0  0  0  0  0  0  0  0  0
   -6.3443   21.5867  -19.8623 C   0  0  0  0  0  0  0  0  0  0  0  0
   -7.4473   22.0573  -20.5139 C   0  0  0  0  0  0  0  0  0  0  0  0
   -7.4889   21.3344  -16.3419 N   0  0  0  0  0  0  0  0  0  0  0  0
   -7.6760   22.4006  -15.4011 C   0  0  0  0  0  0  0  0  0  0  0  0
   -6.7584   22.3340  -14.2140 C   0  0  0  0  0  0  0  0  0  0  0  0
   -6.7144   20.9190  -13.6726 C   0  0  0  0  0  0  0  0  0  0  0  0
   -6.2952   19.9253  -14.6918 C   0  0  0  0  0  0  0  0  0  0  0  0
   -7.2479   20.0015  -15.8921 C   0  0  0  0  0  0  0  0  0  0  0  0
   -6.0309   20.9051  -12.4349 N   0  0  0  0  0  0  0  0  0  0  0  0
   -5.0045   19.9464  -12.2469 C   0  0  0  0  0  0  0  0  0  0  0  0
   -3.6237   20.6143  -12.2771 C   0  0  0  0  0  0  0  0  0  0  0  0
   -3.5229   21.4870  -11.1578 N   0  0  0  0  0  0  0  0  0  0  0  0
   -4.8338   21.8970  -10.6313 C   0  0  0  0  0  0  0  0  0  0  0  0
   -5.7046   22.1698  -11.8594 C   0  0  0  0  0  0  0  0  0  0  0  0
   -2.7632   22.6829  -11.3994 C   0  0  0  0  0  0  0  0  0  0  0  0
   -2.7257   23.6642  -10.2820 C   0  0  0  0  0  0  0  0  0  0  0  0
   -2.7210   24.9876  -10.6521 O   0  0  0  0  0  0  0  0  0  0  0  0
   -3.6499   25.3213  -10.5593 H   0  0  0  0  0  0  0  0  0  0  0  0
  -10.6662   23.5815  -19.7054 C   0  0  0  0  0  0  0  0  0  0  0  0
   -9.7379   22.7852  -20.4106 O   0  0  0  0  0  0  0  0  0  0  0  0
   -7.4781   22.3111  -21.9051 N   0  0  0  0  0  0  0  0  0  0  0  0
   -7.9516   21.5158  -22.5033 H   0  0  0  0  0  0  0  0  0  0  0  0
   -7.0290   23.3766  -22.6682 C   0  0  0  0  0  0  0  0  0  0  0  0
   -7.8819   24.4690  -22.7355 N   0  0  0  0  0  0  0  0  0  0  0  0
   -7.5917   25.5594  -23.4381 C   0  0  0  0  0  0  0  0  0  0  0  0
   -6.4164   25.6546  -24.1382 C   0  0  0  0  0  0  0  0  0  0  0  0
   -6.0973   27.1182  -25.0387 Cl  0  0  0  0  0  0  0  0  0  0  0  0
   -5.5257   24.5733  -24.0953 C   0  0  0  0  0  0  0  0  0  0  0  0
   -5.9110   23.5218  -23.3593 N   0  0  0  0  0  0  0  0  0  0  0  0
   -4.3692   24.7077  -24.8800 N   0  0  0  0  0  0  0  0  0  0  0  0
   -4.0432   25.7251  -25.0113 H   0  0  0  0  0  0  0  0  0  0  0  0
   -3.5687   23.7552  -25.5182 C   0  0  0  0  0  0  0  0  0  0  0  0
   -2.6964   22.9099  -24.8434 C   0  0  0  0  0  0  0  0  0  0  0  0
   -1.9120   22.0283  -25.5557 C   0  0  0  0  0  0  0  0  0  0  0  0
   -1.9503   21.9438  -26.9218 C   0  0  0  0  0  0  0  0  0  0  0  0
   -2.8410   22.8123  -27.5723 C   0  0  0  0  0  0  0  0  0  0  0  0
   -3.6425   23.7056  -26.9216 C   0  0  0  0  0  0  0  0  0  0  0  0
   -4.6952   24.7028  -27.8437 S   0  0  0  0  0  0  0  0  0  0  0  0
   -6.1047   24.2147  -27.6307 O   0  0  0  0  0  0  0  0  0  0  0  0
   -4.6037   26.1643  -27.6132 O   0  0  0  0  0  0  0  0  0  0  0  0
   -4.3513   24.4782  -29.5943 C   0  0  0  0  0  0  0  0  0  0  0  0
   -5.5583   23.6847  -30.1297 C   0  0  0  0  0  0  0  0  0  0  0  0
   -4.3356   25.7602  -30.3546 C   0  0  0  0  0  0  0  0  0  0  0  0
 23 24  1  0  0  0
 24  1  1  0  0  0
  1  2  2  0  0  0
  2  3  1  0  0  0
  3  4  2  0  0  0
  4  5  1  0  0  0
  5  6  2  0  0  0
  6 25  1  0  0  0
 25 27  1  0  0  0
 27 28  2  0  0  0
 28 29  1  0  0  0
 29 30  2  0  0  0
 30 31  1  0  0  0
 30 32  1  0  0  0
 32 34  1  0  0  0
 34 36  1  0  0  0
 36 37  2  0  0  0
 37 38  1  0  0  0
 38 39  2  0  0  0
 39 40  1  0  0  0
 40 41  2  0  0  0
 41 42  1  0  0  0
 42 43  2  0  0  0
 42 44  2  0  0  0
 42 45  1  0  0  0
 45 46  1  0  0  0
 45 47  1  0  0  0
 32 33  2  0  0  0
  3  7  1  0  0  0
  7  8  1  0  0  0
  8  9  1  0  0  0
  9 10  1  0  0  0
 10 11  1  0  0  0
 11 12  1  0  0  0
 10 13  1  0  0  0
 13 14  1  0  0  0
 14 15  1  0  0  0
 15 16  1  0  0  0
 16 19  1  0  0  0
 19 20  1  0  0  0
 20 21  1  0  0  0
 16 17  1  0  0  0
 17 18  1  0  0  0
  6  1  1  0  0  0
 33 27  1  0  0  0
 12  7  1  0  0  0
 18 13  1  0  0  0
 41 36  1  0  0  0
 25 26  1  0  0  0
 34 35  1  0  0  0
 21 22  1  0  0  0
M  END
> <minimizedAffinity>
-7.39099

> <CNNscore>
0.1313504279

> <CNNaffinity>
6.4430494308

> <CNN_VS>
0.8462973237

> <CNNaffinity_variance>
0.1163894683

$$$$
[H]OC([H])([H])C([H])([H])N1C([H])([H])C([H])([H])N(C2([H])C([H])([H])C([H])([H])N(c3c([H])c([H])c(N([H])c4nc([H])c(Cl)c(N([H])c5c([H])c([H])c([H])c([H])c5S(=O)(=O)C([H])(C([H])([H])[H])C([H])([H])[H])n4)c(OC([H])([H])[H])c3[H])C([H])([H])C2([H])[H])C([H])([H])C1([H])[H]


 47 51  0  0  0  0  0  0  0  0999 V2000
   -6.1624   22.8944  -18.7035 C   0  0  0  0  0  0  0  0  0  0  0  0
   -6.8090   22.4691  -17.5706 C   0  0  0  0  0  0  0  0  0  0  0  0
   -7.2883   21.1886  -17.4427 C   0  0  0  0  0  0  0  0  0  0  0  0
   -7.0782   20.3610  -18.5209 C   0  0  0  0  0  0  0  0  0  0  0  0
   -6.4284   20.7564  -19.6847 C   0  0  0  0  0  0  0  0  0  0  0  0
   -5.9622   22.0352  -19.7831 C   0  0  0  0  0  0  0  0  0  0  0  0
   -7.9876   20.6844  -16.3186 N   0  0  0  0  0  0  0  0  0  0  0  0
   -7.8388   21.3279  -15.0455 C   0  0  0  0  0  0  0  0  0  0  0  0
   -7.7321   20.3747  -13.8897 C   0  0  0  0  0  0  0  0  0  0  0  0
   -8.7873   19.2935  -14.0113 C   0  0  0  0  0  0  0  0  0  0  0  0
   -8.7022   18.5473  -15.2912 C   0  0  0  0  0  0  0  0  0  0  0  0
   -8.8216   19.5348  -16.4594 C   0  0  0  0  0  0  0  0  0  0  0  0
   -8.8278   18.5332  -12.8198 N   0  0  0  0  0  0  0  0  0  0  0  0
   -8.8704   17.1210  -12.9271 C   0  0  0  0  0  0  0  0  0  0  0  0
   -7.5255   16.5036  -12.5224 C   0  0  0  0  0  0  0  0  0  0  0  0
   -7.3112   16.7622  -11.1397 N   0  0  0  0  0  0  0  0  0  0  0  0
   -8.0880   17.9089  -10.6443 C   0  0  0  0  0  0  0  0  0  0  0  0
   -8.0011   18.9712  -11.7420 C   0  0  0  0  0  0  0  0  0  0  0  0
   -5.9378   16.9853  -10.7797 C   0  0  0  0  0  0  0  0  0  0  0  0
   -5.3329   15.9741   -9.8717 C   0  0  0  0  0  0  0  0  0  0  0  0
   -5.9927   15.7708   -8.6835 O   0  0  0  0  0  0  0  0  0  0  0  0
   -6.5436   14.9536   -8.7901 H   0  0  0  0  0  0  0  0  0  0  0  0
   -6.5687   25.2455  -19.1697 C   0  0  0  0  0  0  0  0  0  0  0  0
   -5.6959   24.2061  -18.7810 O   0  0  0  0  0  0  0  0  0  0  0  0
   -5.2823   22.5287  -20.9211 N   0  0  0  0  0  0  0  0  0  0  0  0
   -4.1865   22.4176  -20.8813 H   0  0  0  0  0  0  0  0  0  0  0  0
   -5.7303   23.1256  -22.0882 C   0  0  0  0  0  0  0  0  0  0  0  0
   -7.1006   23.3262  -22.1728 N   0  0  0  0  0  0  0  0  0  0  0  0
   -7.6775   23.8774  -23.2359 C   0  0  0  0  0  0  0  0  0  0  0  0
   -6.9309   24.2795  -24.3136 C   0  0  0  0  0  0  0  0  0  0  0  0
   -7.7538   24.9993  -25.6774 Cl  0  0  0  0  0  0  0  0  0  0  0  0
   -5.5422   24.0962  -24.2680 C   0  0  0  0  0  0  0  0  0  0  0  0
   -5.0590   23.5322  -23.1525 N   0  0  0  0  0  0  0  0  0  0  0  0
   -4.8416   24.4728  -25.4250 N   0  0  0  0  0  0  0  0  0  0  0  0
   -5.1174   25.4392  -25.8105 H   0  0  0  0  0  0  0  0  0  0  0  0
   -3.8514   23.8155  -26.1617 C   0  0  0  0  0  0  0  0  0  0  0  0
   -2.8016   23.1142  -25.5811 C   0  0  0  0  0  0  0  0  0  0  0  0
   -1.8441   22.5309  -26.3828 C   0  0  0  0  0  0  0  0  0  0  0  0
   -1.8766   22.6111  -27.7493 C   0  0  0  0  0  0  0  0  0  0  0  0
   -2.9493   23.3276  -28.3032 C   0  0  0  0  0  0  0  0  0  0  0  0
   -3.9269   23.9259  -27.5615 C   0  0  0  0  0  0  0  0  0  0  0  0
   -5.1896   24.7637  -28.3719 S   0  0  0  0  0  0  0  0  0  0  0  0
   -6.4273   23.9062  -28.3175 O   0  0  0  0  0  0  0  0  0  0  0  0
   -5.4826   26.1410  -27.9089 O   0  0  0  0  0  0  0  0  0  0  0  0
   -4.7762   24.9288  -30.1141 C   0  0  0  0  0  0  0  0  0  0  0  0
   -5.6794   23.9048  -30.8274 C   0  0  0  0  0  0  0  0  0  0  0  0
   -5.1435   26.2593  -30.6769 C   0  0  0  0  0  0  0  0  0  0  0  0
 23 24  1  0  0  0
 24  1  1  0  0  0
  1  2  2  0  0  0
  2  3  1  0  0  0
  3  4  2  0  0  0
  4  5  1  0  0  0
  5  6  2  0  0  0
  6 25  1  0  0  0
 25 27  1  0  0  0
 27 28  2  0  0  0
 28 29  1  0  0  0
 29 30  2  0  0  0
 30 31  1  0  0  0
 30 32  1  0  0  0
 32 34  1  0  0  0
 34 36  1  0  0  0
 36 37  2  0  0  0
 37 38  1  0  0  0
 38 39  2  0  0  0
 39 40  1  0  0  0
 40 41  2  0  0  0
 41 42  1  0  0  0
 42 43  2  0  0  0
 42 44  2  0  0  0
 42 45  1  0  0  0
 45 46  1  0  0  0
 45 47  1  0  0  0
 32 33  2  0  0  0
  3  7  1  0  0  0
  7  8  1  0  0  0
  8  9  1  0  0  0
  9 10  1  0  0  0
 10 11  1  0  0  0
 11 12  1  0  0  0
 10 13  1  0  0  0
 13 14  1  0  0  0
 14 15  1  0  0  0
 15 16  1  0  0  0
 16 19  1  0  0  0
 19 20  1  0  0  0
 20 21  1  0  0  0
 16 17  1  0  0  0
 17 18  1  0  0  0
  6  1  1  0  0  0
 33 27  1  0  0  0
 12  7  1  0  0  0
 18 13  1  0  0  0
 41 36  1  0  0  0
 25 26  1  0  0  0
 34 35  1  0  0  0
 21 22  1  0  0  0
M  END
> <minimizedAffinity>
-6.91865

> <CNNscore>
0.1295747906

> <CNNaffinity>
6.3358774185

> <CNN_VS>
0.8209699988

> <CNNaffinity_variance>
0.2258484364

$$$$
[H]OC([H])([H])C([H])([H])N1C([H])([H])C([H])([H])N(C2([H])C([H])([H])C([H])([H])N(c3c([H])c([H])c(N([H])c4nc([H])c(Cl)c(N([H])c5c([H])c([H])c([H])c([H])c5S(=O)(=O)C([H])(C([H])([H])[H])C([H])([H])[H])n4)c(OC([H])([H])[H])c3[H])C([H])([H])C2([H])[H])C([H])([H])C1([H])[H]


 47 51  0  0  0  0  0  0  0  0999 V2000
   -7.9474   23.8279  -19.8972 C   0  0  0  0  0  0  0  0  0  0  0  0
   -7.9462   23.0082  -18.7971 C   0  0  0  0  0  0  0  0  0  0  0  0
   -8.2234   21.6663  -18.8882 C   0  0  0  0  0  0  0  0  0  0  0  0
   -8.5012   21.1976  -20.1511 C   0  0  0  0  0  0  0  0  0  0  0  0
   -8.5125   21.9975  -21.2882 C   0  0  0  0  0  0  0  0  0  0  0  0
   -8.2325   23.3276  -21.1669 C   0  0  0  0  0  0  0  0  0  0  0  0
   -8.2675   20.7632  -17.7976 N   0  0  0  0  0  0  0  0  0  0  0  0
   -7.4391   19.5926  -17.8142 C   0  0  0  0  0  0  0  0  0  0  0  0
   -8.1208   18.3563  -17.3020 C   0  0  0  0  0  0  0  0  0  0  0  0
   -8.8680   18.6701  -16.0211 C   0  0  0  0  0  0  0  0  0  0  0  0
   -9.8589   19.7624  -16.1855 C   0  0  0  0  0  0  0  0  0  0  0  0
   -9.1440   21.0185  -16.7005 C   0  0  0  0  0  0  0  0  0  0  0  0
   -9.3206   17.4687  -15.4287 N   0  0  0  0  0  0  0  0  0  0  0  0
   -8.6555   17.0018  -14.2680 C   0  0  0  0  0  0  0  0  0  0  0  0
   -9.5304   17.1984  -13.0231 C   0  0  0  0  0  0  0  0  0  0  0  0
  -10.6805   16.3699  -13.1478 N   0  0  0  0  0  0  0  0  0  0  0  0
  -10.9723   16.0009  -14.5415 C   0  0  0  0  0  0  0  0  0  0  0  0
  -10.7323   17.2691  -15.3629 C   0  0  0  0  0  0  0  0  0  0  0  0
  -11.8818   16.9281  -12.5900 C   0  0  0  0  0  0  0  0  0  0  0  0
  -12.9198   15.9474  -12.1734 C   0  0  0  0  0  0  0  0  0  0  0  0
  -13.9938   15.8212  -13.0213 O   0  0  0  0  0  0  0  0  0  0  0  0
  -13.8364   15.0147  -13.5759 H   0  0  0  0  0  0  0  0  0  0  0  0
   -6.3264   25.6069  -19.5538 C   0  0  0  0  0  0  0  0  0  0  0  0
   -7.6592   25.1840  -19.7481 O   0  0  0  0  0  0  0  0  0  0  0  0
   -8.2114   24.2201  -22.2642 N   0  0  0  0  0  0  0  0  0  0  0  0
   -9.2039   24.4488  -22.6851 H   0  0  0  0  0  0  0  0  0  0  0  0
   -7.1769   24.8718  -22.9156 C   0  0  0  0  0  0  0  0  0  0  0  0
   -7.5516   25.9346  -23.7251 N   0  0  0  0  0  0  0  0  0  0  0  0
   -6.6715   26.6473  -24.4210 C   0  0  0  0  0  0  0  0  0  0  0  0
   -5.3318   26.3592  -24.3678 C   0  0  0  0  0  0  0  0  0  0  0  0
   -4.2294   27.3386  -25.3062 Cl  0  0  0  0  0  0  0  0  0  0  0  0
   -4.9108   25.2938  -23.5603 C   0  0  0  0  0  0  0  0  0  0  0  0
   -5.8753   24.6387  -22.8997 N   0  0  0  0  0  0  0  0  0  0  0  0
   -3.5358   25.0118  -23.5953 N   0  0  0  0  0  0  0  0  0  0  0  0
   -2.9270   25.8344  -23.9287 H   0  0  0  0  0  0  0  0  0  0  0  0
   -2.8207   23.8541  -23.2734 C   0  0  0  0  0  0  0  0  0  0  0  0
   -2.2592   23.6217  -22.0237 C   0  0  0  0  0  0  0  0  0  0  0  0
   -1.5328   22.4709  -21.8049 C   0  0  0  0  0  0  0  0  0  0  0  0
   -1.3328   21.5280  -22.7773 C   0  0  0  0  0  0  0  0  0  0  0  0
   -1.9122   21.7942  -24.0280 C   0  0  0  0  0  0  0  0  0  0  0  0
   -2.6415   22.9147  -24.3043 C   0  0  0  0  0  0  0  0  0  0  0  0
   -3.3034   23.1083  -25.8784 S   0  0  0  0  0  0  0  0  0  0  0  0
   -4.6241   22.3843  -25.9206 O   0  0  0  0  0  0  0  0  0  0  0  0
   -3.4481   24.4969  -26.3764 O   0  0  0  0  0  0  0  0  0  0  0  0
   -2.2468   22.2840  -27.0773 C   0  0  0  0  0  0  0  0  0  0  0  0
   -2.7814   22.7421  -28.4475 C   0  0  0  0  0  0  0  0  0  0  0  0
   -0.8297   22.7422  -27.0178 C   0  0  0  0  0  0  0  0  0  0  0  0
 23 24  1  0  0  0
 24  1  1  0  0  0
  1  2  2  0  0  0
  2  3  1  0  0  0
  3  4  2  0  0  0
  4  5  1  0  0  0
  5  6  2  0  0  0
  6 25  1  0  0  0
 25 27  1  0  0  0
 27 28  2  0  0  0
 28 29  1  0  0  0
 29 30  2  0  0  0
 30 31  1  0  0  0
 30 32  1  0  0  0
 32 34  1  0  0  0
 34 36  1  0  0  0
 36 37  2  0  0  0
 37 38  1  0  0  0
 38 39  2  0  0  0
 39 40  1  0  0  0
 40 41  2  0  0  0
 41 42  1  0  0  0
 42 43  2  0  0  0
 42 44  2  0  0  0
 42 45  1  0  0  0
 45 46  1  0  0  0
 45 47  1  0  0  0
 32 33  2  0  0  0
  3  7  1  0  0  0
  7  8  1  0  0  0
  8  9  1  0  0  0
  9 10  1  0  0  0
 10 11  1  0  0  0
 11 12  1  0  0  0
 10 13  1  0  0  0
 13 14  1  0  0  0
 14 15  1  0  0  0
 15 16  1  0  0  0
 16 19  1  0  0  0
 19 20  1  0  0  0
 20 21  1  0  0  0
 16 17  1  0  0  0
 17 18  1  0  0  0
  6  1  1  0  0  0
 33 27  1  0  0  0
 12  7  1  0  0  0
 18 13  1  0  0  0
 41 36  1  0  0  0
 25 26  1  0  0  0
 34 35  1  0  0  0
 21 22  1  0  0  0
M  END
> <minimizedAffinity>
-7.48408

> <CNNscore>
0.1251247227

> <CNNaffinity>
6.3324942589

> <CNN_VS>
0.7923516035

> <CNNaffinity_variance>
0.1077685580

$$$$
[H]OC([H])([H])C([H])([H])N1C([H])([H])C([H])([H])N(C2([H])C([H])([H])C([H])([H])N(c3c([H])c([H])c(N([H])c4nc([H])c(Cl)c(N([H])c5c([H])c([H])c([H])c([H])c5S(=O)(=O)C([H])(C([H])([H])[H])C([H])([H])[H])n4)c(OC([H])([H])[H])c3[H])C([H])([H])C2([H])[H])C([H])([H])C1([H])[H]


 47 51  0  0  0  0  0  0  0  0999 V2000
   -2.0774   21.7864  -19.6849 C   0  0  0  0  0  0  0  0  0  0  0  0
   -2.8375   22.2266  -18.6309 C   0  0  0  0  0  0  0  0  0  0  0  0
   -4.1633   22.5536  -18.7754 C   0  0  0  0  0  0  0  0  0  0  0  0
   -4.6797   22.4110  -20.0422 C   0  0  0  0  0  0  0  0  0  0  0  0
   -3.9408   21.9689  -21.1337 C   0  0  0  0  0  0  0  0  0  0  0  0
   -2.6251   21.6507  -20.9597 C   0  0  0  0  0  0  0  0  0  0  0  0
   -5.0043   23.0390  -17.7439 N   0  0  0  0  0  0  0  0  0  0  0  0
   -4.4310   23.7561  -16.6420 C   0  0  0  0  0  0  0  0  0  0  0  0
   -5.0273   23.4038  -15.3093 C   0  0  0  0  0  0  0  0  0  0  0  0
   -6.5390   23.3658  -15.4125 C   0  0  0  0  0  0  0  0  0  0  0  0
   -7.0218   22.4191  -16.4483 C   0  0  0  0  0  0  0  0  0  0  0  0
   -6.4100   22.7991  -17.8031 C   0  0  0  0  0  0  0  0  0  0  0  0
   -7.1006   23.2530  -14.1197 N   0  0  0  0  0  0  0  0  0  0  0  0
   -6.5494   24.0404  -13.0786 C   0  0  0  0  0  0  0  0  0  0  0  0
   -7.5005   25.1825  -12.6981 C   0  0  0  0  0  0  0  0  0  0  0  0
   -8.6831   24.6161  -12.1457 N   0  0  0  0  0  0  0  0  0  0  0  0
   -8.8926   23.2180  -12.5522 C   0  0  0  0  0  0  0  0  0  0  0  0
   -8.5223   23.1598  -14.0355 C   0  0  0  0  0  0  0  0  0  0  0  0
   -9.8887   25.3375  -12.4490 C   0  0  0  0  0  0  0  0  0  0  0  0
  -10.5916   25.9436  -11.2864 C   0  0  0  0  0  0  0  0  0  0  0  0
  -10.9006   25.0811  -10.2621 O   0  0  0  0  0  0  0  0  0  0  0  0
  -10.2078   25.1966   -9.5625 H   0  0  0  0  0  0  0  0  0  0  0  0
   -0.0477   21.9804  -18.3608 C   0  0  0  0  0  0  0  0  0  0  0  0
   -0.7350   21.4683  -19.4827 O   0  0  0  0  0  0  0  0  0  0  0  0
   -1.7938   21.1852  -22.0053 N   0  0  0  0  0  0  0  0  0  0  0  0
   -1.2136   20.2813  -21.7584 H   0  0  0  0  0  0  0  0  0  0  0  0
   -1.5686   21.6460  -23.2922 C   0  0  0  0  0  0  0  0  0  0  0  0
   -0.2687   21.5132  -23.7590 N   0  0  0  0  0  0  0  0  0  0  0  0
    0.1005   21.9202  -24.9693 C   0  0  0  0  0  0  0  0  0  0  0  0
   -0.8024   22.4980  -25.8245 C   0  0  0  0  0  0  0  0  0  0  0  0
   -0.2497   23.0077  -27.4024 Cl  0  0  0  0  0  0  0  0  0  0  0  0
   -2.1270   22.6495  -25.3922 C   0  0  0  0  0  0  0  0  0  0  0  0
   -2.3974   22.2073  -24.1564 N   0  0  0  0  0  0  0  0  0  0  0  0
   -2.9878   23.3015  -26.2895 N   0  0  0  0  0  0  0  0  0  0  0  0
   -3.0690   22.8201  -27.2488 H   0  0  0  0  0  0  0  0  0  0  0  0
   -3.7562   24.4621  -26.1562 C   0  0  0  0  0  0  0  0  0  0  0  0
   -3.8984   25.1548  -24.9599 C   0  0  0  0  0  0  0  0  0  0  0  0
   -4.7104   26.2674  -24.9076 C   0  0  0  0  0  0  0  0  0  0  0  0
   -5.3977   26.7317  -25.9970 C   0  0  0  0  0  0  0  0  0  0  0  0
   -5.2329   26.0084  -27.1888 C   0  0  0  0  0  0  0  0  0  0  0  0
   -4.4431   24.9007  -27.3022 C   0  0  0  0  0  0  0  0  0  0  0  0
   -4.3243   24.1171  -28.8270 S   0  0  0  0  0  0  0  0  0  0  0  0
   -2.8996   24.2369  -29.3025 O   0  0  0  0  0  0  0  0  0  0  0  0
   -4.7848   22.7096  -28.8928 O   0  0  0  0  0  0  0  0  0  0  0  0
   -5.3258   24.9988  -30.0323 C   0  0  0  0  0  0  0  0  0  0  0  0
   -4.3246   25.8864  -30.7960 C   0  0  0  0  0  0  0  0  0  0  0  0
   -5.9357   24.0998  -31.0529 C   0  0  0  0  0  0  0  0  0  0  0  0
 23 24  1  0  0  0
 24  1  1  0  0  0
  1  2  2  0  0  0
  2  3  1  0  0  0
  3  4  2  0  0  0
  4  5  1  0  0  0
  5  6  2  0  0  0
  6 25  1  0  0  0
 25 27  1  0  0  0
 27 28  2  0  0  0
 28 29  1  0  0  0
 29 30  2  0  0  0
 30 31  1  0  0  0
 30 32  1  0  0  0
 32 34  1  0  0  0
 34 36  1  0  0  0
 36 37  2  0  0  0
 37 38  1  0  0  0
 38 39  2  0  0  0
 39 40  1  0  0  0
 40 41  2  0  0  0
 41 42  1  0  0  0
 42 43  2  0  0  0
 42 44  2  0  0  0
 42 45  1  0  0  0
 45 46  1  0  0  0
 45 47  1  0  0  0
 32 33  2  0  0  0
  3  7  1  0  0  0
  7  8  1  0  0  0
  8  9  1  0  0  0
  9 10  1  0  0  0
 10 11  1  0  0  0
 11 12  1  0  0  0
 10 13  1  0  0  0
 13 14  1  0  0  0
 14 15  1  0  0  0
 15 16  1  0  0  0
 16 19  1  0  0  0
 19 20  1  0  0  0
 20 21  1  0  0  0
 16 17  1  0  0  0
 17 18  1  0  0  0
  6  1  1  0  0  0
 33 27  1  0  0  0
 12  7  1  0  0  0
 18 13  1  0  0  0
 41 36  1  0  0  0
 25 26  1  0  0  0
 34 35  1  0  0  0
 21 22  1  0  0  0
M  END
> <minimizedAffinity>
-8.23337

> <CNNscore>
0.1224321425

> <CNNaffinity>
6.5361266136

> <CNN_VS>
0.8002319932

> <CNNaffinity_variance>
0.1820767671

$$$$
[H]OC([H])([H])C([H])([H])N1C([H])([H])C([H])([H])N(C2([H])C([H])([H])C([H])([H])N(c3c([H])c([H])c(N([H])c4nc([H])c(Cl)c(N([H])c5c([H])c([H])c([H])c([H])c5S(=O)(=O)C([H])(C([H])([H])[H])C([H])([H])[H])n4)c(OC([H])([H])[H])c3[H])C([H])([H])C2([H])[H])C([H])([H])C1([H])[H]


 47 51  0  0  0  0  0  0  0  0999 V2000
   -6.1969   22.9789  -20.4277 C   0  0  0  0  0  0  0  0  0  0  0  0
   -5.9470   21.9111  -19.6032 C   0  0  0  0  0  0  0  0  0  0  0  0
   -6.9077   20.9734  -19.3143 C   0  0  0  0  0  0  0  0  0  0  0  0
   -8.1341   21.1725  -19.9040 C   0  0  0  0  0  0  0  0  0  0  0  0
   -8.4244   22.2420  -20.7436 C   0  0  0  0  0  0  0  0  0  0  0  0
   -7.4494   23.1581  -21.0131 C   0  0  0  0  0  0  0  0  0  0  0  0
   -6.7341   19.8615  -18.4538 N   0  0  0  0  0  0  0  0  0  0  0  0
   -7.4953   18.6669  -18.6788 C   0  0  0  0  0  0  0  0  0  0  0  0
   -8.0094   18.0260  -17.4216 C   0  0  0  0  0  0  0  0  0  0  0  0
   -6.9090   17.9723  -16.3807 C   0  0  0  0  0  0  0  0  0  0  0  0
   -6.3430   19.3088  -16.0716 C   0  0  0  0  0  0  0  0  0  0  0  0
   -5.8154   19.9441  -17.3647 C   0  0  0  0  0  0  0  0  0  0  0  0
   -7.3269   17.1776  -15.2884 N   0  0  0  0  0  0  0  0  0  0  0  0
   -7.6588   17.8285  -14.0743 C   0  0  0  0  0  0  0  0  0  0  0  0
   -9.1757   17.8122  -13.8450 C   0  0  0  0  0  0  0  0  0  0  0  0
   -9.5876   16.4623  -13.6645 N   0  0  0  0  0  0  0  0  0  0  0  0
   -8.6404   15.4930  -14.2363 C   0  0  0  0  0  0  0  0  0  0  0  0
   -8.2011   16.0867  -15.5762 C   0  0  0  0  0  0  0  0  0  0  0  0
  -10.8878   16.1585  -14.1965 C   0  0  0  0  0  0  0  0  0  0  0  0
  -11.9493   15.8767  -13.1932 C   0  0  0  0  0  0  0  0  0  0  0  0
  -13.0673   16.6721  -13.2703 O   0  0  0  0  0  0  0  0  0  0  0  0
  -13.7615   16.1561  -13.7547 H   0  0  0  0  0  0  0  0  0  0  0  0
   -4.0440   23.5137  -21.4223 C   0  0  0  0  0  0  0  0  0  0  0  0
   -5.1850   23.9024  -20.6873 O   0  0  0  0  0  0  0  0  0  0  0  0
   -7.6450   24.2740  -21.8601 N   0  0  0  0  0  0  0  0  0  0  0  0
   -8.3990   24.9928  -21.5004 H   0  0  0  0  0  0  0  0  0  0  0  0
   -7.0646   24.6448  -23.0621 C   0  0  0  0  0  0  0  0  0  0  0  0
   -7.0271   26.0084  -23.3158 N   0  0  0  0  0  0  0  0  0  0  0  0
   -6.5113   26.5132  -24.4320 C   0  0  0  0  0  0  0  0  0  0  0  0
   -5.9838   25.6948  -25.3977 C   0  0  0  0  0  0  0  0  0  0  0  0
   -5.3194   26.4256  -26.8397 Cl  0  0  0  0  0  0  0  0  0  0  0  0
   -6.0004   24.3104  -25.1798 C   0  0  0  0  0  0  0  0  0  0  0  0
   -6.5421   23.9026  -24.0238 N   0  0  0  0  0  0  0  0  0  0  0  0
   -5.5009   23.5242  -26.2304 N   0  0  0  0  0  0  0  0  0  0  0  0
   -6.2612   23.1181  -26.8750 H   0  0  0  0  0  0  0  0  0  0  0  0
   -4.1936   23.1780  -26.5856 C   0  0  0  0  0  0  0  0  0  0  0  0
   -3.1942   22.9030  -25.6600 C   0  0  0  0  0  0  0  0  0  0  0  0
   -1.9201   22.6111  -26.0973 C   0  0  0  0  0  0  0  0  0  0  0  0
   -1.5842   22.5792  -27.4243 C   0  0  0  0  0  0  0  0  0  0  0  0
   -2.6164   22.8629  -28.3324 C   0  0  0  0  0  0  0  0  0  0  0  0
   -3.8962   23.1581  -27.9599 C   0  0  0  0  0  0  0  0  0  0  0  0
   -5.0645   23.4754  -29.1795 S   0  0  0  0  0  0  0  0  0  0  0  0
   -5.2491   22.2166  -29.9865 O   0  0  0  0  0  0  0  0  0  0  0  0
   -6.3723   24.0089  -28.7295 O   0  0  0  0  0  0  0  0  0  0  0  0
   -4.4193   24.7065  -30.3203 C   0  0  0  0  0  0  0  0  0  0  0  0
   -5.6563   25.5081  -30.7686 C   0  0  0  0  0  0  0  0  0  0  0  0
   -3.5111   25.6898  -29.6646 C   0  0  0  0  0  0  0  0  0  0  0  0
 23 24  1  0  0  0
 24  1  1  0  0  0
  1  2  2  0  0  0
  2  3  1  0  0  0
  3  4  2  0  0  0
  4  5  1  0  0  0
  5  6  2  0  0  0
  6 25  1  0  0  0
 25 27  1  0  0  0
 27 28  2  0  0  0
 28 29  1  0  0  0
 29 30  2  0  0  0
 30 31  1  0  0  0
 30 32  1  0  0  0
 32 34  1  0  0  0
 34 36  1  0  0  0
 36 37  2  0  0  0
 37 38  1  0  0  0
 38 39  2  0  0  0
 39 40  1  0  0  0
 40 41  2  0  0  0
 41 42  1  0  0  0
 42 43  2  0  0  0
 42 44  2  0  0  0
 42 45  1  0  0  0
 45 46  1  0  0  0
 45 47  1  0  0  0
 32 33  2  0  0  0
  3  7  1  0  0  0
  7  8  1  0  0  0
  8  9  1  0  0  0
  9 10  1  0  0  0
 10 11  1  0  0  0
 11 12  1  0  0  0
 10 13  1  0  0  0
 13 14  1  0  0  0
 14 15  1  0  0  0
 15 16  1  0  0  0
 16 19  1  0  0  0
 19 20  1  0  0  0
 20 21  1  0  0  0
 16 17  1  0  0  0
 17 18  1  0  0  0
  6  1  1  0  0  0
 33 27  1  0  0  0
 12  7  1  0  0  0
 18 13  1  0  0  0
 41 36  1  0  0  0
 25 26  1  0  0  0
 34 35  1  0  0  0
 21 22  1  0  0  0
M  END
> <minimizedAffinity>
-7.92722

> <CNNscore>
0.1194088459

> <CNNaffinity>
6.4180045128

> <CNN_VS>
0.7663665414

> <CNNaffinity_variance>
0.3953363299

$$$$
[H]OC([H])([H])C([H])([H])N1C([H])([H])C([H])([H])N(C2([H])C([H])([H])C([H])([H])N(c3c([H])c([H])c(N([H])c4nc([H])c(Cl)c(N([H])c5c([H])c([H])c([H])c([H])c5S(=O)(=O)C([H])(C([H])([H])[H])C([H])([H])[H])n4)c(OC([H])([H])[H])c3[H])C([H])([H])C2([H])[H])C([H])([H])C1([H])[H]


 47 51  0  0  0  0  0  0  0  0999 V2000
    0.0308   21.9705  -24.6794 C   0  0  0  0  0  0  0  0  0  0  0  0
   -1.2615   22.4289  -24.6318 C   0  0  0  0  0  0  0  0  0  0  0  0
   -1.9316   22.5966  -23.4450 C   0  0  0  0  0  0  0  0  0  0  0  0
   -1.2253   22.2768  -22.3090 C   0  0  0  0  0  0  0  0  0  0  0  0
    0.0840   21.8093  -22.3180 C   0  0  0  0  0  0  0  0  0  0  0  0
    0.7250   21.6531  -23.5127 C   0  0  0  0  0  0  0  0  0  0  0  0
   -3.2714   23.0386  -23.3165 N   0  0  0  0  0  0  0  0  0  0  0  0
   -3.7880   24.0091  -24.2375 C   0  0  0  0  0  0  0  0  0  0  0  0
   -4.6539   25.0562  -23.5975 C   0  0  0  0  0  0  0  0  0  0  0  0
   -5.6327   24.4046  -22.6412 C   0  0  0  0  0  0  0  0  0  0  0  0
   -4.9621   23.5944  -21.5943 C   0  0  0  0  0  0  0  0  0  0  0  0
   -4.0897   22.5256  -22.2656 C   0  0  0  0  0  0  0  0  0  0  0  0
   -6.5836   25.3588  -22.2116 N   0  0  0  0  0  0  0  0  0  0  0  0
   -7.6385   25.6981  -23.0948 C   0  0  0  0  0  0  0  0  0  0  0  0
   -8.9659   25.0985  -22.6129 C   0  0  0  0  0  0  0  0  0  0  0  0
   -9.3106   25.7090  -21.3747 N   0  0  0  0  0  0  0  0  0  0  0  0
   -8.1512   26.2895  -20.6799 C   0  0  0  0  0  0  0  0  0  0  0  0
   -7.0168   25.2778  -20.8541 C   0  0  0  0  0  0  0  0  0  0  0  0
   -9.9778   24.8391  -20.4453 C   0  0  0  0  0  0  0  0  0  0  0  0
  -11.4089   25.1474  -20.1813 C   0  0  0  0  0  0  0  0  0  0  0  0
  -11.6779   25.7304  -18.9663 O   0  0  0  0  0  0  0  0  0  0  0  0
  -11.7740   26.7045  -19.1234 H   0  0  0  0  0  0  0  0  0  0  0  0
    0.2769   22.6162  -27.0102 C   0  0  0  0  0  0  0  0  0  0  0  0
    0.6644   21.8181  -25.9120 O   0  0  0  0  0  0  0  0  0  0  0  0
    2.0576   21.1921  -23.6246 N   0  0  0  0  0  0  0  0  0  0  0  0
    2.4670   21.2248  -24.6474 H   0  0  0  0  0  0  0  0  0  0  0  0
    2.9577   20.7076  -22.6897 C   0  0  0  0  0  0  0  0  0  0  0  0
    3.4899   19.4551  -22.9609 N   0  0  0  0  0  0  0  0  0  0  0  0
    4.3569   18.8568  -22.1503 C   0  0  0  0  0  0  0  0  0  0  0  0
    4.7713   19.4615  -20.9914 C   0  0  0  0  0  0  0  0  0  0  0  0
    5.9153   18.6193  -19.9731 Cl  0  0  0  0  0  0  0  0  0  0  0  0
    4.2588   20.7285  -20.6808 C   0  0  0  0  0  0  0  0  0  0  0  0
    3.3917   21.2453  -21.5622 N   0  0  0  0  0  0  0  0  0  0  0  0
    4.6751   21.2676  -19.4530 N   0  0  0  0  0  0  0  0  0  0  0  0
    4.1741   20.8493  -18.5971 H   0  0  0  0  0  0  0  0  0  0  0  0
    5.6235   22.2487  -19.1478 C   0  0  0  0  0  0  0  0  0  0  0  0
    6.9534   22.1801  -19.5447 C   0  0  0  0  0  0  0  0  0  0  0  0
    7.8318   23.1716  -19.1634 C   0  0  0  0  0  0  0  0  0  0  0  0
    7.4510   24.2407  -18.3974 C   0  0  0  0  0  0  0  0  0  0  0  0
    6.1015   24.2788  -18.0126 C   0  0  0  0  0  0  0  0  0  0  0  0
    5.1855   23.3276  -18.3592 C   0  0  0  0  0  0  0  0  0  0  0  0
    3.5612   23.5050  -17.8272 S   0  0  0  0  0  0  0  0  0  0  0  0
    3.3549   24.9443  -17.4323 O   0  0  0  0  0  0  0  0  0  0  0  0
    2.4997   23.0578  -18.7602 O   0  0  0  0  0  0  0  0  0  0  0  0
    3.3128   22.5391  -16.3310 C   0  0  0  0  0  0  0  0  0  0  0  0
    3.6762   23.4995  -15.1826 C   0  0  0  0  0  0  0  0  0  0  0  0
    1.8880   22.1604  -16.1113 C   0  0  0  0  0  0  0  0  0  0  0  0
 23 24  1  0  0  0
 24  1  1  0  0  0
  1  2  2  0  0  0
  2  3  1  0  0  0
  3  4  2  0  0  0
  4  5  1  0  0  0
  5  6  2  0  0  0
  6 25  1  0  0  0
 25 27  1  0  0  0
 27 28  2  0  0  0
 28 29  1  0  0  0
 29 30  2  0  0  0
 30 31  1  0  0  0
 30 32  1  0  0  0
 32 34  1  0  0  0
 34 36  1  0  0  0
 36 37  2  0  0  0
 37 38  1  0  0  0
 38 39  2  0  0  0
 39 40  1  0  0  0
 40 41  2  0  0  0
 41 42  1  0  0  0
 42 43  2  0  0  0
 42 44  2  0  0  0
 42 45  1  0  0  0
 45 46  1  0  0  0
 45 47  1  0  0  0
 32 33  2  0  0  0
  3  7  1  0  0  0
  7  8  1  0  0  0
  8  9  1  0  0  0
  9 10  1  0  0  0
 10 11  1  0  0  0
 11 12  1  0  0  0
 10 13  1  0  0  0
 13 14  1  0  0  0
 14 15  1  0  0  0
 15 16  1  0  0  0
 16 19  1  0  0  0
 19 20  1  0  0  0
 20 21  1  0  0  0
 16 17  1  0  0  0
 17 18  1  0  0  0
  6  1  1  0  0  0
 33 27  1  0  0  0
 12  7  1  0  0  0
 18 13  1  0  0  0
 41 36  1  0  0  0
 25 26  1  0  0  0
 34 35  1  0  0  0
 21 22  1  0  0  0
M  END
> <minimizedAffinity>
-8.88135

> <CNNscore>
0.1082186401

> <CNNaffinity>
6.6614923477

> <CNN_VS>
0.7208976150

> <CNNaffinity_variance>
0.2838917375

$$$$
[H]c1nc([H])c(-c2c([H])c([H])c(OC([H])([H])[H])c(OC([H])([H])[H])c2[H])c(N([H])c2c([H])c([H])c3c(c2[H])c([H])c([H])n3[H])c1C#N


 30 33  0  0  0  0  0  0  0  0999 V2000
   -0.6926   22.6110  -25.6118 C   0  0  0  0  0  0  0  0  0  0  0  0
    0.4770   22.9458  -26.2880 C   0  0  0  0  0  0  0  0  0  0  0  0
    0.5092   23.1881  -27.6098 N   0  0  0  0  0  0  0  0  0  0  0  0
   -0.5971   23.1222  -28.3723 C   0  0  0  0  0  0  0  0  0  0  0  0
   -1.7809   22.7945  -27.7500 C   0  0  0  0  0  0  0  0  0  0  0  0
   -1.8370   22.5384  -26.3756 C   0  0  0  0  0  0  0  0  0  0  0  0
   -0.4680   21.7819  -21.4438 C   0  0  0  0  0  0  0  0  0  0  0  0
    0.3730   21.1539  -22.3482 C   0  0  0  0  0  0  0  0  0  0  0  0
    0.2649   21.4509  -23.6897 C   0  0  0  0  0  0  0  0  0  0  0  0
   -0.6604   22.3620  -24.1790 C   0  0  0  0  0  0  0  0  0  0  0  0
   -1.4773   22.9651  -23.2512 C   0  0  0  0  0  0  0  0  0  0  0  0
   -1.3996   22.6939  -21.8980 C   0  0  0  0  0  0  0  0  0  0  0  0
    0.1675   20.3604  -19.5384 C   0  0  0  0  0  0  0  0  0  0  0  0
   -0.3892   21.5098  -20.0921 O   0  0  0  0  0  0  0  0  0  0  0  0
   -2.2228   23.3013  -20.9621 O   0  0  0  0  0  0  0  0  0  0  0  0
   -3.5436   22.9733  -20.6788 C   0  0  0  0  0  0  0  0  0  0  0  0
   -2.9618   22.7238  -28.5630 C   0  0  0  0  0  0  0  0  0  0  0  0
   -3.9161   22.6852  -29.2297 N   0  0  0  0  0  0  0  0  0  0  0  0
   -3.0744   22.2062  -25.7953 N   0  0  0  0  0  0  0  0  0  0  0  0
   -3.2777   21.2106  -25.5327 H   0  0  0  0  0  0  0  0  0  0  0  0
   -4.0967   23.1471  -25.5244 C   0  0  0  0  0  0  0  0  0  0  0  0
   -5.3674   22.6857  -25.2543 C   0  0  0  0  0  0  0  0  0  0  0  0
   -6.3849   23.5845  -24.9861 C   0  0  0  0  0  0  0  0  0  0  0  0
   -6.1774   24.9499  -24.9772 C   0  0  0  0  0  0  0  0  0  0  0  0
   -6.9834   26.0082  -24.7495 N   0  0  0  0  0  0  0  0  0  0  0  0
   -6.2765   27.1410  -24.8630 C   0  0  0  0  0  0  0  0  0  0  0  0
   -4.9869   26.7758  -25.1718 C   0  0  0  0  0  0  0  0  0  0  0  0
   -4.9081   25.4046  -25.2471 C   0  0  0  0  0  0  0  0  0  0  0  0
   -3.8858   24.5063  -25.5165 C   0  0  0  0  0  0  0  0  0  0  0  0
   -7.9974   25.9274  -24.5220 H   0  0  0  0  0  0  0  0  0  0  0  0
 13 14  1  0  0  0
 14  7  1  0  0  0
  7  8  2  0  0  0
  8  9  1  0  0  0
  9 10  2  0  0  0
 10 11  1  0  0  0
 11 12  2  0  0  0
 12 15  1  0  0  0
 15 16  1  0  0  0
 10  1  1  0  0  0
  1  2  2  0  0  0
  2  3  1  0  0  0
  3  4  2  0  0  0
  4  5  1  0  0  0
  5 17  1  0  0  0
 17 18  3  0  0  0
  5  6  2  0  0  0
  6 19  1  0  0  0
 19 21  1  0  0  0
 21 22  2  0  0  0
 22 23  1  0  0  0
 23 24  2  0  0  0
 24 25  1  0  0  0
 25 26  1  0  0  0
 26 27  2  0  0  0
 27 28  1  0  0  0
 28 29  2  0  0  0
 12  7  1  0  0  0
  6  1  1  0  0  0
 29 21  1  0  0  0
 28 24  1  0  0  0
 19 20  1  0  0  0
 25 30  1  0  0  0
M  END
> <minimizedAffinity>
-7.91474

> <CNNscore>
0.8432872891

> <CNNaffinity>
7.1324896812

> <CNN_VS>
6.0147380829

> <CNNaffinity_variance>
0.0902679488

$$$$
[H]c1nc([H])c(-c2c([H])c([H])c(OC([H])([H])[H])c(OC([H])([H])[H])c2[H])c(N([H])c2c([H])c([H])c3c(c2[H])c([H])c([H])n3[H])c1C#N


 30 33  0  0  0  0  0  0  0  0999 V2000
   -2.0934   22.5735  -24.4069 C   0  0  0  0  0  0  0  0  0  0  0  0
   -1.0822   22.8925  -23.5054 C   0  0  0  0  0  0  0  0  0  0  0  0
    0.2060   23.0136  -23.8700 N   0  0  0  0  0  0  0  0  0  0  0  0
    0.6054   22.8327  -25.1418 C   0  0  0  0  0  0  0  0  0  0  0  0
   -0.3581   22.5152  -26.0729 C   0  0  0  0  0  0  0  0  0  0  0  0
   -1.7044   22.3842  -25.7151 C   0  0  0  0  0  0  0  0  0  0  0  0
   -6.1094   22.0729  -23.0911 C   0  0  0  0  0  0  0  0  0  0  0  0
   -5.3711   21.0029  -23.5701 C   0  0  0  0  0  0  0  0  0  0  0  0
   -4.0741   21.2102  -23.9876 C   0  0  0  0  0  0  0  0  0  0  0  0
   -3.4691   22.4585  -23.9485 C   0  0  0  0  0  0  0  0  0  0  0  0
   -4.2333   23.4958  -23.4668 C   0  0  0  0  0  0  0  0  0  0  0  0
   -5.5370   23.3282  -23.0389 C   0  0  0  0  0  0  0  0  0  0  0  0
   -7.7963   21.6437  -21.3519 C   0  0  0  0  0  0  0  0  0  0  0  0
   -7.4119   21.9038  -22.6641 O   0  0  0  0  0  0  0  0  0  0  0  0
   -6.3080   24.3732  -22.5533 O   0  0  0  0  0  0  0  0  0  0  0  0
   -6.7161   25.5017  -23.2551 C   0  0  0  0  0  0  0  0  0  0  0  0
    0.0674   22.3218  -27.4300 C   0  0  0  0  0  0  0  0  0  0  0  0
    0.4311   22.1596  -28.5246 N   0  0  0  0  0  0  0  0  0  0  0  0
   -2.6438   22.0562  -26.7091 N   0  0  0  0  0  0  0  0  0  0  0  0
   -2.7714   21.0551  -26.9973 H   0  0  0  0  0  0  0  0  0  0  0  0
   -3.4612   23.0067  -27.3665 C   0  0  0  0  0  0  0  0  0  0  0  0
   -4.7546   23.1870  -26.9246 C   0  0  0  0  0  0  0  0  0  0  0  0
   -5.5746   24.1100  -27.5496 C   0  0  0  0  0  0  0  0  0  0  0  0
   -5.1440   24.8728  -28.6176 C   0  0  0  0  0  0  0  0  0  0  0  0
   -5.7345   25.8174  -29.3794 N   0  0  0  0  0  0  0  0  0  0  0  0
   -4.8660   26.2556  -30.3010 C   0  0  0  0  0  0  0  0  0  0  0  0
   -3.6951   25.5605  -30.1065 C   0  0  0  0  0  0  0  0  0  0  0  0
   -3.8531   24.6890  -29.0541 C   0  0  0  0  0  0  0  0  0  0  0  0
   -3.0285   23.7644  -28.4298 C   0  0  0  0  0  0  0  0  0  0  0  0
   -6.7176   26.1378  -29.2485 H   0  0  0  0  0  0  0  0  0  0  0  0
 13 14  1  0  0  0
 14  7  1  0  0  0
  7  8  2  0  0  0
  8  9  1  0  0  0
  9 10  2  0  0  0
 10 11  1  0  0  0
 11 12  2  0  0  0
 12 15  1  0  0  0
 15 16  1  0  0  0
 10  1  1  0  0  0
  1  2  2  0  0  0
  2  3  1  0  0  0
  3  4  2  0  0  0
  4  5  1  0  0  0
  5 17  1  0  0  0
 17 18  3  0  0  0
  5  6  2  0  0  0
  6 19  1  0  0  0
 19 21  1  0  0  0
 21 22  2  0  0  0
 22 23  1  0  0  0
 23 24  2  0  0  0
 24 25  1  0  0  0
 25 26  1  0  0  0
 26 27  2  0  0  0
 27 28  1  0  0  0
 28 29  2  0  0  0
 12  7  1  0  0  0
  6  1  1  0  0  0
 29 21  1  0  0  0
 28 24  1  0  0  0
 19 20  1  0  0  0
 25 30  1  0  0  0
M  END
> <minimizedAffinity>
-7.63664

> <CNNscore>
0.7625647187

> <CNNaffinity>
7.2981352806

> <CNN_VS>
5.5653004646

> <CNNaffinity_variance>
0.2015500516

$$$$
[H]c1nc([H])c(-c2c([H])c([H])c(OC([H])([H])[H])c(OC([H])([H])[H])c2[H])c(N([H])c2c([H])c([H])c3c(c2[H])c([H])c([H])n3[H])c1C#N


 30 33  0  0  0  0  0  0  0  0999 V2000
   -1.7674   22.7996  -26.4863 C   0  0  0  0  0  0  0  0  0  0  0  0
   -0.4641   22.9717  -26.9433 C   0  0  0  0  0  0  0  0  0  0  0  0
    0.6124   22.6023  -26.2280 N   0  0  0  0  0  0  0  0  0  0  0  0
    0.4991   22.0372  -25.0125 C   0  0  0  0  0  0  0  0  0  0  0  0
   -0.7704   21.8451  -24.5152 C   0  0  0  0  0  0  0  0  0  0  0  0
   -1.9045   22.2220  -25.2428 C   0  0  0  0  0  0  0  0  0  0  0  0
   -5.0336   23.8898  -28.9869 C   0  0  0  0  0  0  0  0  0  0  0  0
   -4.2847   22.7516  -29.2378 C   0  0  0  0  0  0  0  0  0  0  0  0
   -3.2341   22.4367  -28.4031 C   0  0  0  0  0  0  0  0  0  0  0  0
   -2.8902   23.2196  -27.3101 C   0  0  0  0  0  0  0  0  0  0  0  0
   -3.6567   24.3410  -27.0933 C   0  0  0  0  0  0  0  0  0  0  0  0
   -4.7178   24.6903  -27.9073 C   0  0  0  0  0  0  0  0  0  0  0  0
   -5.9833   24.6456  -31.1275 C   0  0  0  0  0  0  0  0  0  0  0  0
   -6.0935   24.2376  -29.8013 O   0  0  0  0  0  0  0  0  0  0  0  0
   -5.4908   25.8205  -27.6895 O   0  0  0  0  0  0  0  0  0  0  0  0
   -5.6082   26.5314  -26.5006 C   0  0  0  0  0  0  0  0  0  0  0  0
   -0.8920   21.2422  -23.2182 C   0  0  0  0  0  0  0  0  0  0  0  0
   -1.0053   20.7663  -22.1611 N   0  0  0  0  0  0  0  0  0  0  0  0
   -3.1760   22.0030  -24.6829 N   0  0  0  0  0  0  0  0  0  0  0  0
   -3.5747   21.0326  -24.6556 H   0  0  0  0  0  0  0  0  0  0  0  0
   -3.9815   23.0272  -24.1297 C   0  0  0  0  0  0  0  0  0  0  0  0
   -3.3754   24.0201  -23.3898 C   0  0  0  0  0  0  0  0  0  0  0  0
   -4.1398   25.0332  -22.8381 C   0  0  0  0  0  0  0  0  0  0  0  0
   -5.5101   25.0929  -23.0004 C   0  0  0  0  0  0  0  0  0  0  0  0
   -6.4568   25.9556  -22.5751 N   0  0  0  0  0  0  0  0  0  0  0  0
   -7.6573   25.5545  -23.0154 C   0  0  0  0  0  0  0  0  0  0  0  0
   -7.4511   24.4032  -23.7392 C   0  0  0  0  0  0  0  0  0  0  0  0
   -6.1094   24.1002  -23.7394 C   0  0  0  0  0  0  0  0  0  0  0  0
   -5.3460   23.0831  -24.2938 C   0  0  0  0  0  0  0  0  0  0  0  0
   -6.2564   26.7974  -21.9941 H   0  0  0  0  0  0  0  0  0  0  0  0
 13 14  1  0  0  0
 14  7  1  0  0  0
  7  8  2  0  0  0
  8  9  1  0  0  0
  9 10  2  0  0  0
 10 11  1  0  0  0
 11 12  2  0  0  0
 12 15  1  0  0  0
 15 16  1  0  0  0
 10  1  1  0  0  0
  1  2  2  0  0  0
  2  3  1  0  0  0
  3  4  2  0  0  0
  4  5  1  0  0  0
  5 17  1  0  0  0
 17 18  3  0  0  0
  5  6  2  0  0  0
  6 19  1  0  0  0
 19 21  1  0  0  0
 21 22  2  0  0  0
 22 23  1  0  0  0
 23 24  2  0  0  0
 24 25  1  0  0  0
 25 26  1  0  0  0
 26 27  2  0  0  0
 27 28  1  0  0  0
 28 29  2  0  0  0
 12  7  1  0  0  0
  6  1  1  0  0  0
 29 21  1  0  0  0
 28 24  1  0  0  0
 19 20  1  0  0  0
 25 30  1  0  0  0
M  END
> <minimizedAffinity>
-8.40154

> <CNNscore>
0.7172723413

> <CNNaffinity>
7.2500963211

> <CNN_VS>
5.2002935410

> <CNNaffinity_variance>
0.1604498476

$$$$
[H]c1nc([H])c(-c2c([H])c([H])c(OC([H])([H])[H])c(OC([H])([H])[H])c2[H])c(N([H])c2c([H])c([H])c3c(c2[H])c([H])c([H])n3[H])c1C#N


 30 33  0  0  0  0  0  0  0  0999 V2000
   -4.5380   23.4425  -29.0325 C   0  0  0  0  0  0  0  0  0  0  0  0
   -4.9007   22.4889  -29.9792 C   0  0  0  0  0  0  0  0  0  0  0  0
   -5.5420   22.8019  -31.1184 N   0  0  0  0  0  0  0  0  0  0  0  0
   -5.8782   24.0690  -31.4204 C   0  0  0  0  0  0  0  0  0  0  0  0
   -5.5412   25.0504  -30.5152 C   0  0  0  0  0  0  0  0  0  0  0  0
   -4.8737   24.7467  -29.3236 C   0  0  0  0  0  0  0  0  0  0  0  0
   -2.3624   22.2950  -25.5597 C   0  0  0  0  0  0  0  0  0  0  0  0
   -1.7122   22.6715  -26.7237 C   0  0  0  0  0  0  0  0  0  0  0  0
   -2.4560   23.0342  -27.8259 C   0  0  0  0  0  0  0  0  0  0  0  0
   -3.8438   23.0384  -27.8198 C   0  0  0  0  0  0  0  0  0  0  0  0
   -4.4533   22.6589  -26.6465 C   0  0  0  0  0  0  0  0  0  0  0  0
   -3.7424   22.2886  -25.5204 C   0  0  0  0  0  0  0  0  0  0  0  0
   -0.2624   21.8851  -24.3445 C   0  0  0  0  0  0  0  0  0  0  0  0
   -1.6507   21.9251  -24.4354 O   0  0  0  0  0  0  0  0  0  0  0  0
   -4.3560   21.9059  -24.3375 O   0  0  0  0  0  0  0  0  0  0  0  0
   -5.5316   22.4228  -23.8052 C   0  0  0  0  0  0  0  0  0  0  0  0
   -5.8997   26.4025  -30.8367 C   0  0  0  0  0  0  0  0  0  0  0  0
   -6.1938   27.4942  -31.1169 N   0  0  0  0  0  0  0  0  0  0  0  0
   -4.5571   25.7907  -28.4360 N   0  0  0  0  0  0  0  0  0  0  0  0
   -3.9196   26.5647  -28.7459 H   0  0  0  0  0  0  0  0  0  0  0  0
   -5.0560   25.8812  -27.1144 C   0  0  0  0  0  0  0  0  0  0  0  0
   -4.2657   26.4628  -26.1460 C   0  0  0  0  0  0  0  0  0  0  0  0
   -4.7297   26.5639  -24.8462 C   0  0  0  0  0  0  0  0  0  0  0  0
   -5.9746   26.0980  -24.4708 C   0  0  0  0  0  0  0  0  0  0  0  0
   -6.6420   26.0795  -23.2980 N   0  0  0  0  0  0  0  0  0  0  0  0
   -7.8397   25.5047  -23.4743 C   0  0  0  0  0  0  0  0  0  0  0  0
   -7.9208   25.1536  -24.8017 C   0  0  0  0  0  0  0  0  0  0  0  0
   -6.7587   25.5190  -25.4406 C   0  0  0  0  0  0  0  0  0  0  0  0
   -6.2965   25.4160  -26.7447 C   0  0  0  0  0  0  0  0  0  0  0  0
   -6.2600   26.4610  -22.4064 H   0  0  0  0  0  0  0  0  0  0  0  0
 13 14  1  0  0  0
 14  7  1  0  0  0
  7  8  2  0  0  0
  8  9  1  0  0  0
  9 10  2  0  0  0
 10 11  1  0  0  0
 11 12  2  0  0  0
 12 15  1  0  0  0
 15 16  1  0  0  0
 10  1  1  0  0  0
  1  2  2  0  0  0
  2  3  1  0  0  0
  3  4  2  0  0  0
  4  5  1  0  0  0
  5 17  1  0  0  0
 17 18  3  0  0  0
  5  6  2  0  0  0
  6 19  1  0  0  0
 19 21  1  0  0  0
 21 22  2  0  0  0
 22 23  1  0  0  0
 23 24  2  0  0  0
 24 25  1  0  0  0
 25 26  1  0  0  0
 26 27  2  0  0  0
 27 28  1  0  0  0
 28 29  2  0  0  0
 12  7  1  0  0  0
  6  1  1  0  0  0
 29 21  1  0  0  0
 28 24  1  0  0  0
 19 20  1  0  0  0
 25 30  1  0  0  0
M  END
> <minimizedAffinity>
-8.54736

> <CNNscore>
0.5941641331

> <CNNaffinity>
6.8982954025

> <CNN_VS>
4.0987195969

> <CNNaffinity_variance>
0.1820430607

$$$$
[H]c1nc([H])c(-c2c([H])c([H])c(OC([H])([H])[H])c(OC([H])([H])[H])c2[H])c(N([H])c2c([H])c([H])c3c(c2[H])c([H])c([H])n3[H])c1C#N


 30 33  0  0  0  0  0  0  0  0999 V2000
   -0.8691   22.5642  -25.2565 C   0  0  0  0  0  0  0  0  0  0  0  0
    0.3635   22.8019  -25.8578 C   0  0  0  0  0  0  0  0  0  0  0  0
    0.5002   23.0119  -27.1784 N   0  0  0  0  0  0  0  0  0  0  0  0
   -0.5551   23.0058  -28.0127 C   0  0  0  0  0  0  0  0  0  0  0  0
   -1.7977   22.7749  -27.4663 C   0  0  0  0  0  0  0  0  0  0  0  0
   -1.9627   22.5541  -26.0946 C   0  0  0  0  0  0  0  0  0  0  0  0
   -1.1738   22.0753  -21.0400 C   0  0  0  0  0  0  0  0  0  0  0  0
   -1.5439   23.2603  -21.6551 C   0  0  0  0  0  0  0  0  0  0  0  0
   -1.4273   23.3762  -23.0235 C   0  0  0  0  0  0  0  0  0  0  0  0
   -0.9496   22.3456  -23.8206 C   0  0  0  0  0  0  0  0  0  0  0  0
   -0.5925   21.1851  -23.1743 C   0  0  0  0  0  0  0  0  0  0  0  0
   -0.6948   21.0303  -21.8045 C   0  0  0  0  0  0  0  0  0  0  0  0
   -0.8011   22.8276  -18.7270 C   0  0  0  0  0  0  0  0  0  0  0  0
   -1.2765   21.9222  -19.6713 O   0  0  0  0  0  0  0  0  0  0  0  0
   -0.3350   19.8609  -21.1522 O   0  0  0  0  0  0  0  0  0  0  0  0
    0.9532   19.4540  -20.8245 C   0  0  0  0  0  0  0  0  0  0  0  0
   -2.9241   22.7682  -28.3559 C   0  0  0  0  0  0  0  0  0  0  0  0
   -3.8505   22.7597  -29.0620 N   0  0  0  0  0  0  0  0  0  0  0  0
   -3.2561   22.3215  -25.5935 N   0  0  0  0  0  0  0  0  0  0  0  0
   -3.6562   21.3514  -25.6103 H   0  0  0  0  0  0  0  0  0  0  0  0
   -4.0828   23.3309  -25.0444 C   0  0  0  0  0  0  0  0  0  0  0  0
   -3.8771   24.6384  -25.4299 C   0  0  0  0  0  0  0  0  0  0  0  0
   -4.6714   25.6444  -24.9082 C   0  0  0  0  0  0  0  0  0  0  0  0
   -5.6807   25.3891  -24.0006 C   0  0  0  0  0  0  0  0  0  0  0  0
   -6.5725   26.1749  -23.3613 N   0  0  0  0  0  0  0  0  0  0  0  0
   -7.3500   25.4192  -22.5736 C   0  0  0  0  0  0  0  0  0  0  0  0
   -6.9281   24.1192  -22.7277 C   0  0  0  0  0  0  0  0  0  0  0  0
   -5.8816   24.0833  -23.6196 C   0  0  0  0  0  0  0  0  0  0  0  0
   -5.0869   23.0724  -24.1406 C   0  0  0  0  0  0  0  0  0  0  0  0
   -6.6258   27.2089  -23.4808 H   0  0  0  0  0  0  0  0  0  0  0  0
 13 14  1  0  0  0
 14  7  1  0  0  0
  7  8  2  0  0  0
  8  9  1  0  0  0
  9 10  2  0  0  0
 10 11  1  0  0  0
 11 12  2  0  0  0
 12 15  1  0  0  0
 15 16  1  0  0  0
 10  1  1  0  0  0
  1  2  2  0  0  0
  2  3  1  0  0  0
  3  4  2  0  0  0
  4  5  1  0  0  0
  5 17  1  0  0  0
 17 18  3  0  0  0
  5  6  2  0  0  0
  6 19  1  0  0  0
 19 21  1  0  0  0
 21 22  2  0  0  0
 22 23  1  0  0  0
 23 24  2  0  0  0
 24 25  1  0  0  0
 25 26  1  0  0  0
 26 27  2  0  0  0
 27 28  1  0  0  0
 28 29  2  0  0  0
 12  7  1  0  0  0
  6  1  1  0  0  0
 29 21  1  0  0  0
 28 24  1  0  0  0
 19 20  1  0  0  0
 25 30  1  0  0  0
M  END
> <minimizedAffinity>
-7.74481

> <CNNscore>
0.5649929643

> <CNNaffinity>
6.8078665733

> <CNN_VS>
3.8463966846

> <CNNaffinity_variance>
0.2419621199

$$$$
[H]c1nc([H])c(-c2c([H])c([H])c(OC([H])([H])[H])c(OC([H])([H])[H])c2[H])c(N([H])c2c([H])c([H])c3c(c2[H])c([H])c([H])n3[H])c1C#N


 30 33  0  0  0  0  0  0  0  0999 V2000
   -0.8042   22.2207  -24.4403 C   0  0  0  0  0  0  0  0  0  0  0  0
    0.3826   22.4518  -25.1298 C   0  0  0  0  0  0  0  0  0  0  0  0
    0.4157   22.7638  -26.4369 N   0  0  0  0  0  0  0  0  0  0  0  0
   -0.7064   22.8740  -27.1706 C   0  0  0  0  0  0  0  0  0  0  0  0
   -1.9077   22.6548  -26.5342 C   0  0  0  0  0  0  0  0  0  0  0  0
   -1.9651   22.3290  -25.1747 C   0  0  0  0  0  0  0  0  0  0  0  0
   -0.6663   21.0922  -20.3394 C   0  0  0  0  0  0  0  0  0  0  0  0
   -0.4533   20.1661  -21.3476 C   0  0  0  0  0  0  0  0  0  0  0  0
   -0.5088   20.5745  -22.6627 C   0  0  0  0  0  0  0  0  0  0  0  0
   -0.7720   21.8881  -23.0246 C   0  0  0  0  0  0  0  0  0  0  0  0
   -0.9778   22.7783  -21.9964 C   0  0  0  0  0  0  0  0  0  0  0  0
   -0.9304   22.4075  -20.6657 C   0  0  0  0  0  0  0  0  0  0  0  0
   -1.6070   20.0005  -18.3449 C   0  0  0  0  0  0  0  0  0  0  0  0
   -0.6187   20.7201  -19.0102 O   0  0  0  0  0  0  0  0  0  0  0  0
   -1.1378   23.3041  -19.6286 O   0  0  0  0  0  0  0  0  0  0  0  0
   -0.1611   23.9309  -18.8633 C   0  0  0  0  0  0  0  0  0  0  0  0
   -3.1054   22.7721  -27.3165 C   0  0  0  0  0  0  0  0  0  0  0  0
   -4.0778   22.8872  -27.9472 N   0  0  0  0  0  0  0  0  0  0  0  0
   -3.2209   22.1141  -24.5789 N   0  0  0  0  0  0  0  0  0  0  0  0
   -3.5615   21.1347  -24.4171 H   0  0  0  0  0  0  0  0  0  0  0  0
   -4.0847   23.1550  -24.1620 C   0  0  0  0  0  0  0  0  0  0  0  0
   -3.5315   24.3245  -23.6855 C   0  0  0  0  0  0  0  0  0  0  0  0
   -4.3537   25.3578  -23.2716 C   0  0  0  0  0  0  0  0  0  0  0  0
   -5.7311   25.2656  -23.3166 C   0  0  0  0  0  0  0  0  0  0  0  0
   -6.7278   26.1112  -22.9808 N   0  0  0  0  0  0  0  0  0  0  0  0
   -7.9096   25.5281  -23.2241 C   0  0  0  0  0  0  0  0  0  0  0  0
   -7.6396   24.2772  -23.7285 C   0  0  0  0  0  0  0  0  0  0  0  0
   -6.2775   24.0970  -23.7929 C   0  0  0  0  0  0  0  0  0  0  0  0
   -5.4561   23.0591  -24.2085 C   0  0  0  0  0  0  0  0  0  0  0  0
   -6.5731   27.0663  -22.5934 H   0  0  0  0  0  0  0  0  0  0  0  0
 13 14  1  0  0  0
 14  7  1  0  0  0
  7  8  2  0  0  0
  8  9  1  0  0  0
  9 10  2  0  0  0
 10 11  1  0  0  0
 11 12  2  0  0  0
 12 15  1  0  0  0
 15 16  1  0  0  0
 10  1  1  0  0  0
  1  2  2  0  0  0
  2  3  1  0  0  0
  3  4  2  0  0  0
  4  5  1  0  0  0
  5 17  1  0  0  0
 17 18  3  0  0  0
  5  6  2  0  0  0
  6 19  1  0  0  0
 19 21  1  0  0  0
 21 22  2  0  0  0
 22 23  1  0  0  0
 23 24  2  0  0  0
 24 25  1  0  0  0
 25 26  1  0  0  0
 26 27  2  0  0  0
 27 28  1  0  0  0
 28 29  2  0  0  0
 12  7  1  0  0  0
  6  1  1  0  0  0
 29 21  1  0  0  0
 28 24  1  0  0  0
 19 20  1  0  0  0
 25 30  1  0  0  0
M  END
> <minimizedAffinity>
-6.88908

> <CNNscore>
0.4480531812

> <CNNaffinity>
6.7128438950

> <CNN_VS>
3.0077111721

> <CNNaffinity_variance>
0.3962549269

$$$$
[H]c1nc([H])c(-c2c([H])c([H])c(OC([H])([H])[H])c(OC([H])([H])[H])c2[H])c(N([H])c2c([H])c([H])c3c(c2[H])c([H])c([H])n3[H])c1C#N


 30 33  0  0  0  0  0  0  0  0999 V2000
   -1.8669   22.7915  -26.4847 C   0  0  0  0  0  0  0  0  0  0  0  0
   -0.5456   22.9191  -26.9030 C   0  0  0  0  0  0  0  0  0  0  0  0
    0.4969   22.5262  -26.1507 N   0  0  0  0  0  0  0  0  0  0  0  0
    0.3293   21.9790  -24.9333 C   0  0  0  0  0  0  0  0  0  0  0  0
   -0.9601   21.8308  -24.4735 C   0  0  0  0  0  0  0  0  0  0  0  0
   -2.0595   22.2329  -25.2400 C   0  0  0  0  0  0  0  0  0  0  0  0
   -5.0273   24.2404  -28.9388 C   0  0  0  0  0  0  0  0  0  0  0  0
   -4.4524   25.0371  -27.9620 C   0  0  0  0  0  0  0  0  0  0  0  0
   -3.4322   24.5270  -27.1884 C   0  0  0  0  0  0  0  0  0  0  0  0
   -2.9507   23.2352  -27.3475 C   0  0  0  0  0  0  0  0  0  0  0  0
   -3.5460   22.4749  -28.3271 C   0  0  0  0  0  0  0  0  0  0  0  0
   -4.5712   22.9504  -29.1230 C   0  0  0  0  0  0  0  0  0  0  0  0
   -6.0207   25.9106  -30.4482 C   0  0  0  0  0  0  0  0  0  0  0  0
   -6.0518   24.7169  -29.7332 O   0  0  0  0  0  0  0  0  0  0  0  0
   -5.1719   22.1847  -30.1106 O   0  0  0  0  0  0  0  0  0  0  0  0
   -4.5282   21.4285  -31.0834 C   0  0  0  0  0  0  0  0  0  0  0  0
   -1.1396   21.2471  -23.1745 C   0  0  0  0  0  0  0  0  0  0  0  0
   -1.2685   20.7829  -22.1140 N   0  0  0  0  0  0  0  0  0  0  0  0
   -3.3536   22.0586  -24.7174 N   0  0  0  0  0  0  0  0  0  0  0  0
   -3.9210   21.2209  -24.9960 H   0  0  0  0  0  0  0  0  0  0  0  0
   -3.9649   22.9556  -23.8089 C   0  0  0  0  0  0  0  0  0  0  0  0
   -3.5340   24.2648  -23.7790 C   0  0  0  0  0  0  0  0  0  0  0  0
   -4.1150   25.1622  -22.9002 C   0  0  0  0  0  0  0  0  0  0  0  0
   -5.1275   24.7949  -22.0356 C   0  0  0  0  0  0  0  0  0  0  0  0
   -5.8413   25.4650  -21.1067 N   0  0  0  0  0  0  0  0  0  0  0  0
   -6.7214   24.6328  -20.5333 C   0  0  0  0  0  0  0  0  0  0  0  0
   -6.5497   23.4030  -21.1250 C   0  0  0  0  0  0  0  0  0  0  0  0
   -5.5536   23.4880  -22.0697 C   0  0  0  0  0  0  0  0  0  0  0  0
   -4.9731   22.5858  -22.9494 C   0  0  0  0  0  0  0  0  0  0  0  0
   -5.7075   26.4755  -20.8892 H   0  0  0  0  0  0  0  0  0  0  0  0
 13 14  1  0  0  0
 14  7  1  0  0  0
  7  8  2  0  0  0
  8  9  1  0  0  0
  9 10  2  0  0  0
 10 11  1  0  0  0
 11 12  2  0  0  0
 12 15  1  0  0  0
 15 16  1  0  0  0
 10  1  1  0  0  0
  1  2  2  0  0  0
  2  3  1  0  0  0
  3  4  2  0  0  0
  4  5  1  0  0  0
  5 17  1  0  0  0
 17 18  3  0  0  0
  5  6  2  0  0  0
  6 19  1  0  0  0
 19 21  1  0  0  0
 21 22  2  0  0  0
 22 23  1  0  0  0
 23 24  2  0  0  0
 24 25  1  0  0  0
 25 26  1  0  0  0
 26 27  2  0  0  0
 27 28  1  0  0  0
 28 29  2  0  0  0
 12  7  1  0  0  0
  6  1  1  0  0  0
 29 21  1  0  0  0
 28 24  1  0  0  0
 19 20  1  0  0  0
 25 30  1  0  0  0
M  END
> <minimizedAffinity>
-7.15564

> <CNNscore>
0.3762643933

> <CNNaffinity>
6.9556741714

> <CNN_VS>
2.6171724796

> <CNNaffinity_variance>
0.5264719725

$$$$
[H]c1nc([H])c(-c2c([H])c([H])c(OC([H])([H])[H])c(OC([H])([H])[H])c2[H])c(N([H])c2c([H])c([H])c3c(c2[H])c([H])c([H])n3[H])c1C#N


 30 33  0  0  0  0  0  0  0  0999 V2000
   -2.6308   22.8548  -26.6752 C   0  0  0  0  0  0  0  0  0  0  0  0
   -2.4670   22.5232  -28.0170 C   0  0  0  0  0  0  0  0  0  0  0  0
   -3.3462   22.8833  -28.9680 N   0  0  0  0  0  0  0  0  0  0  0  0
   -4.4519   23.5942  -28.6821 C   0  0  0  0  0  0  0  0  0  0  0  0
   -4.6598   23.9475  -27.3676 C   0  0  0  0  0  0  0  0  0  0  0  0
   -3.7576   23.5832  -26.3620 C   0  0  0  0  0  0  0  0  0  0  0  0
    0.3830   21.6867  -23.9071 C   0  0  0  0  0  0  0  0  0  0  0  0
    0.7097   22.2377  -25.1356 C   0  0  0  0  0  0  0  0  0  0  0  0
   -0.2983   22.6005  -26.0027 C   0  0  0  0  0  0  0  0  0  0  0  0
   -1.6414   22.4356  -25.6948 C   0  0  0  0  0  0  0  0  0  0  0  0
   -1.9263   21.8858  -24.4665 C   0  0  0  0  0  0  0  0  0  0  0  0
   -0.9439   21.5094  -23.5699 C   0  0  0  0  0  0  0  0  0  0  0  0
    2.6813   21.0066  -23.3499 C   0  0  0  0  0  0  0  0  0  0  0  0
    1.3658   21.3110  -23.0123 O   0  0  0  0  0  0  0  0  0  0  0  0
   -1.2301   20.9551  -22.3316 O   0  0  0  0  0  0  0  0  0  0  0  0
   -1.5240   21.6434  -21.1601 C   0  0  0  0  0  0  0  0  0  0  0  0
   -5.8394   24.7060  -27.0618 C   0  0  0  0  0  0  0  0  0  0  0  0
   -6.7999   25.3241  -26.8336 N   0  0  0  0  0  0  0  0  0  0  0  0
   -4.0234   23.9706  -25.0364 N   0  0  0  0  0  0  0  0  0  0  0  0
   -3.4866   24.7632  -24.6061 H   0  0  0  0  0  0  0  0  0  0  0  0
   -4.9978   23.3547  -24.2147 C   0  0  0  0  0  0  0  0  0  0  0  0
   -5.3412   22.0430  -24.4636 C   0  0  0  0  0  0  0  0  0  0  0  0
   -6.2908   21.4172  -23.6751 C   0  0  0  0  0  0  0  0  0  0  0  0
   -6.9209   22.0632  -22.6295 C   0  0  0  0  0  0  0  0  0  0  0  0
   -7.8567   21.6830  -21.7345 N   0  0  0  0  0  0  0  0  0  0  0  0
   -8.1312   22.7056  -20.9131 C   0  0  0  0  0  0  0  0  0  0  0  0
   -7.3396   23.7582  -21.3100 C   0  0  0  0  0  0  0  0  0  0  0  0
   -6.5744   23.3714  -22.3856 C   0  0  0  0  0  0  0  0  0  0  0  0
   -5.6229   24.0017  -23.1743 C   0  0  0  0  0  0  0  0  0  0  0  0
   -8.2835   20.7325  -21.7091 H   0  0  0  0  0  0  0  0  0  0  0  0
 13 14  1  0  0  0
 14  7  1  0  0  0
  7  8  2  0  0  0
  8  9  1  0  0  0
  9 10  2  0  0  0
 10 11  1  0  0  0
 11 12  2  0  0  0
 12 15  1  0  0  0
 15 16  1  0  0  0
 10  1  1  0  0  0
  1  2  2  0  0  0
  2  3  1  0  0  0
  3  4  2  0  0  0
  4  5  1  0  0  0
  5 17  1  0  0  0
 17 18  3  0  0  0
  5  6  2  0  0  0
  6 19  1  0  0  0
 19 21  1  0  0  0
 21 22  2  0  0  0
 22 23  1  0  0  0
 23 24  2  0  0  0
 24 25  1  0  0  0
 25 26  1  0  0  0
 26 27  2  0  0  0
 27 28  1  0  0  0
 28 29  2  0  0  0
 12  7  1  0  0  0
  6  1  1  0  0  0
 29 21  1  0  0  0
 28 24  1  0  0  0
 19 20  1  0  0  0
 25 30  1  0  0  0
M  END
> <minimizedAffinity>
-8.19126

> <CNNscore>
0.2511430085

> <CNNaffinity>
6.3857889175

> <CNN_VS>
1.6037462950

> <CNNaffinity_variance>
0.2430198491

$$$$
[H]c1nc([H])c(-c2c([H])c([H])c(OC([H])([H])[H])c(OC([H])([H])[H])c2[H])c(N([H])c2c([H])c([H])c3c(c2[H])c([H])c([H])n3[H])c1C#N


 30 33  0  0  0  0  0  0  0  0999 V2000
   -2.4615   22.7934  -26.1540 C   0  0  0  0  0  0  0  0  0  0  0  0
   -2.2394   22.1503  -27.3682 C   0  0  0  0  0  0  0  0  0  0  0  0
   -2.8219   22.5402  -28.5152 N   0  0  0  0  0  0  0  0  0  0  0  0
   -3.6652   23.5871  -28.5647 C   0  0  0  0  0  0  0  0  0  0  0  0
   -3.9180   24.2576  -27.3889 C   0  0  0  0  0  0  0  0  0  0  0  0
   -3.3226   23.8686  -26.1839 C   0  0  0  0  0  0  0  0  0  0  0  0
   -0.6701   21.3619  -22.5691 C   0  0  0  0  0  0  0  0  0  0  0  0
   -2.0400   21.2953  -22.7646 C   0  0  0  0  0  0  0  0  0  0  0  0
   -2.5785   21.7722  -23.9402 C   0  0  0  0  0  0  0  0  0  0  0  0
   -1.7988   22.3225  -24.9477 C   0  0  0  0  0  0  0  0  0  0  0  0
   -0.4436   22.3712  -24.7174 C   0  0  0  0  0  0  0  0  0  0  0  0
    0.1340   21.9034  -23.5520 C   0  0  0  0  0  0  0  0  0  0  0  0
    0.0773   19.5516  -21.0793 C   0  0  0  0  0  0  0  0  0  0  0  0
   -0.0944   20.8941  -21.4040 O   0  0  0  0  0  0  0  0  0  0  0  0
    1.5000   21.9522  -23.3190 O   0  0  0  0  0  0  0  0  0  0  0  0
    2.4310   20.9652  -23.6213 C   0  0  0  0  0  0  0  0  0  0  0  0
   -4.8179   25.3746  -27.4410 C   0  0  0  0  0  0  0  0  0  0  0  0
   -5.5444   26.2830  -27.5032 N   0  0  0  0  0  0  0  0  0  0  0  0
   -3.6201   24.5902  -25.0139 N   0  0  0  0  0  0  0  0  0  0  0  0
   -3.0516   25.4359  -24.7629 H   0  0  0  0  0  0  0  0  0  0  0  0
   -4.6680   24.2528  -24.1240 C   0  0  0  0  0  0  0  0  0  0  0  0
   -5.6702   23.4162  -24.5671 C   0  0  0  0  0  0  0  0  0  0  0  0
   -6.7062   23.0705  -23.7172 C   0  0  0  0  0  0  0  0  0  0  0  0
   -6.7801   23.5371  -22.4193 C   0  0  0  0  0  0  0  0  0  0  0  0
   -7.6642   23.3510  -21.4167 N   0  0  0  0  0  0  0  0  0  0  0  0
   -7.2678   24.0398  -20.3377 C   0  0  0  0  0  0  0  0  0  0  0  0
   -6.0974   24.6762  -20.6799 C   0  0  0  0  0  0  0  0  0  0  0  0
   -5.7779   24.3711  -21.9825 C   0  0  0  0  0  0  0  0  0  0  0  0
   -4.7379   24.7196  -22.8320 C   0  0  0  0  0  0  0  0  0  0  0  0
   -8.5167   22.7568  -21.4972 H   0  0  0  0  0  0  0  0  0  0  0  0
 13 14  1  0  0  0
 14  7  1  0  0  0
  7  8  2  0  0  0
  8  9  1  0  0  0
  9 10  2  0  0  0
 10 11  1  0  0  0
 11 12  2  0  0  0
 12 15  1  0  0  0
 15 16  1  0  0  0
 10  1  1  0  0  0
  1  2  2  0  0  0
  2  3  1  0  0  0
  3  4  2  0  0  0
  4  5  1  0  0  0
  5 17  1  0  0  0
 17 18  3  0  0  0
  5  6  2  0  0  0
  6 19  1  0  0  0
 19 21  1  0  0  0
 21 22  2  0  0  0
 22 23  1  0  0  0
 23 24  2  0  0  0
 24 25  1  0  0  0
 25 26  1  0  0  0
 26 27  2  0  0  0
 27 28  1  0  0  0
 28 29  2  0  0  0
 12  7  1  0  0  0
  6  1  1  0  0  0
 29 21  1  0  0  0
 28 24  1  0  0  0
 19 20  1  0  0  0
 25 30  1  0  0  0
M  END
> <minimizedAffinity>
-7.34053

> <CNNscore>
0.2430837303

> <CNNaffinity>
6.4529352188

> <CNN_VS>
1.5686035156

> <CNNaffinity_variance>
0.2391413450

$$$$
[H]OC(=O)[C@@]([H])(N([H])C(=O)C([H])([H])[C@]([H])(O[H])[C@@]([H])(N([H])C(=O)[C@@]([H])(N([H])C(=O)C([H])([H])C([H])(C([H])([H])[H])C([H])([H])[H])C([H])(C([H])([H])[H])C([H])([H])[H])C([H])([H])C([H])(C([H])([H])[H])C([H])([H])[H])[C@@]([H])(C([H])([H])[H])C([H])([H])C([H])([H])[H]


 38 37  0  0  0  0  0  0  0  0999 V2000
   -4.6941   24.8416  -23.0153 C   0  0  0  0  0  0  0  0  0  0  0  0
   -4.1106   23.7286  -23.7675 N   0  0  0  0  0  0  0  0  0  0  0  0
   -2.7466   23.3874  -23.5961 C   0  0  0  0  0  0  0  0  0  0  0  0
   -2.0679   24.0878  -22.7857 O   0  0  0  0  0  0  0  0  0  0  0  0
   -4.6823   23.1758  -24.4338 H   0  0  0  0  0  0  0  0  0  0  0  0
   -2.0989   22.2361  -24.3416 C   0  0  0  0  0  0  0  0  0  0  0  0
   -2.3264   22.4902  -25.7060 N   0  0  0  0  0  0  0  0  0  0  0  0
   -2.5384   22.7280  -26.9832 C   0  0  0  0  0  0  0  0  0  0  0  0
   -1.6961   22.7283  -27.9229 O   0  0  0  0  0  0  0  0  0  0  0  0
   -1.0184   22.2687  -25.9350 H   0  0  0  0  0  0  0  0  0  0  0  0
   -3.9376   23.0487  -27.4652 C   0  0  0  0  0  0  0  0  0  0  0  0
   -3.9610   23.4354  -28.9106 C   0  0  0  0  0  0  0  0  0  0  0  0
   -5.1368   22.8079  -29.6461 C   0  0  0  0  0  0  0  0  0  0  0  0
   -3.9837   24.9311  -29.1175 C   0  0  0  0  0  0  0  0  0  0  0  0
   -0.6570   22.2523  -23.9099 C   0  0  0  0  0  0  0  0  0  0  0  0
   -0.4279   21.2353  -22.8137 C   0  0  0  0  0  0  0  0  0  0  0  0
    0.3361   22.0906  -25.0358 C   0  0  0  0  0  0  0  0  0  0  0  0
   -5.3055   24.3822  -21.7508 C   0  0  0  0  0  0  0  0  0  0  0  0
   -5.6144   25.5078  -20.9533 O   0  0  0  0  0  0  0  0  0  0  0  0
   -6.5449   25.4752  -20.6558 H   0  0  0  0  0  0  0  0  0  0  0  0
   -6.5747   23.5724  -21.9775 C   0  0  0  0  0  0  0  0  0  0  0  0
   -7.0401   23.1159  -19.5202 N   0  0  0  0  0  0  0  0  0  0  0  0
   -6.8661   22.6438  -20.8658 C   0  0  0  0  0  0  0  0  0  0  0  0
   -6.9686   21.4179  -21.0596 O   0  0  0  0  0  0  0  0  0  0  0  0
   -6.9800   24.1352  -19.3754 H   0  0  0  0  0  0  0  0  0  0  0  0
   -7.3161   22.2614  -18.4043 C   0  0  0  0  0  0  0  0  0  0  0  0
   -8.7867   21.9456  -18.3725 C   0  0  0  0  0  0  0  0  0  0  0  0
   -9.4090   21.0389  -19.1657 O   0  0  0  0  0  0  0  0  0  0  0  0
   -9.4982   22.5860  -17.5315 O   0  0  0  0  0  0  0  0  0  0  0  0
  -10.1286   20.3671  -18.8760 H   0  0  0  0  0  0  0  0  0  0  0  0
   -6.9271   22.7906  -17.0651 C   0  0  0  0  0  0  0  0  0  0  0  0
   -6.1169   21.6533  -16.3948 C   0  0  0  0  0  0  0  0  0  0  0  0
   -4.6381   23.6946  -16.6567 C   0  0  0  0  0  0  0  0  0  0  0  0
   -6.0133   23.9905  -17.1409 C   0  0  0  0  0  0  0  0  0  0  0  0
   -5.6104   25.6130  -23.9453 C   0  0  0  0  0  0  0  0  0  0  0  0
   -5.1974   25.6808  -25.3665 C   0  0  0  0  0  0  0  0  0  0  0  0
   -6.3553   25.6037  -26.3336 C   0  0  0  0  0  0  0  0  0  0  0  0
   -4.6248   27.1163  -25.5525 C   0  0  0  0  0  0  0  0  0  0  0  0
 33 34  1  0  0  0
 34 31  1  0  0  0
 31 32  1  0  0  0
 31 26  1  0  0  0
 26 22  1  0  0  0
 22 23  1  0  0  0
 23 24  2  0  0  0
 23 21  1  0  0  0
 21 18  1  0  0  0
 18 19  1  0  0  0
 18  1  1  0  0  0
  1 35  1  0  0  0
 35 36  1  0  0  0
 36 37  1  0  0  0
 36 38  1  0  0  0
  1  2  1  0  0  0
  2  3  1  0  0  0
  3  4  2  0  0  0
  3  6  1  0  0  0
  6  7  1  0  0  0
  7  8  1  0  0  0
  8  9  2  0  0  0
  8 11  1  0  0  0
 11 12  1  0  0  0
 12 13  1  0  0  0
 12 14  1  0  0  0
  6 15  1  0  0  0
 15 16  1  0  0  0
 15 17  1  0  0  0
 26 27  1  0  0  0
 27 28  1  0  0  0
 27 29  2  0  0  0
 22 25  1  0  0  0
 19 20  1  0  0  0
  2  5  1  0  0  0
  7 10  1  0  0  0
 28 30  1  0  0  0
M  END
> <minimizedAffinity>
-6.78468

> <CNNscore>
0.3257039189

> <CNNaffinity>
6.2681679726

> <CNN_VS>
2.0415668488

> <CNNaffinity_variance>
0.2645116746

$$$$
[H]OC(=O)[C@@]([H])(N([H])C(=O)C([H])([H])[C@]([H])(O[H])[C@@]([H])(N([H])C(=O)[C@@]([H])(N([H])C(=O)C([H])([H])C([H])(C([H])([H])[H])C([H])([H])[H])C([H])(C([H])([H])[H])C([H])([H])[H])C([H])([H])C([H])(C([H])([H])[H])C([H])([H])[H])[C@@]([H])(C([H])([H])[H])C([H])([H])C([H])([H])[H]


 38 37  0  0  0  0  0  0  0  0999 V2000
   -2.4945   22.5315  -24.1021 C   0  0  0  0  0  0  0  0  0  0  0  0
   -3.2777   23.6987  -24.5134 N   0  0  0  0  0  0  0  0  0  0  0  0
   -4.6041   23.5394  -24.9843 C   0  0  0  0  0  0  0  0  0  0  0  0
   -5.0642   22.3592  -25.0426 O   0  0  0  0  0  0  0  0  0  0  0  0
   -2.8769   24.6545  -24.4676 H   0  0  0  0  0  0  0  0  0  0  0  0
   -5.4604   24.7169  -25.4097 C   0  0  0  0  0  0  0  0  0  0  0  0
   -5.6499   24.5686  -26.7954 N   0  0  0  0  0  0  0  0  0  0  0  0
   -5.8275   24.4288  -28.0921 C   0  0  0  0  0  0  0  0  0  0  0  0
   -6.0939   23.3729  -28.7297 O   0  0  0  0  0  0  0  0  0  0  0  0
   -5.8920   23.2600  -26.5923 H   0  0  0  0  0  0  0  0  0  0  0  0
   -5.7149   25.6356  -28.9999 C   0  0  0  0  0  0  0  0  0  0  0  0
   -4.9138   25.3431  -30.2295 C   0  0  0  0  0  0  0  0  0  0  0  0
   -5.4046   26.1419  -31.4288 C   0  0  0  0  0  0  0  0  0  0  0  0
   -3.4358   25.5867  -30.0386 C   0  0  0  0  0  0  0  0  0  0  0  0
   -6.7057   24.6187  -24.5700 C   0  0  0  0  0  0  0  0  0  0  0  0
   -6.6584   25.6280  -23.4443 C   0  0  0  0  0  0  0  0  0  0  0  0
   -7.9958   24.7135  -25.3489 C   0  0  0  0  0  0  0  0  0  0  0  0
   -1.4952   22.8828  -23.0716 C   0  0  0  0  0  0  0  0  0  0  0  0
   -1.8245   24.1427  -22.5217 O   0  0  0  0  0  0  0  0  0  0  0  0
   -1.8539   24.0966  -21.5459 H   0  0  0  0  0  0  0  0  0  0  0  0
   -1.4283   21.8551  -21.9502 C   0  0  0  0  0  0  0  0  0  0  0  0
   -3.6166   21.3631  -20.7533 N   0  0  0  0  0  0  0  0  0  0  0  0
   -2.4026   22.1220  -20.8719 C   0  0  0  0  0  0  0  0  0  0  0  0
   -2.2032   23.0174  -20.0297 O   0  0  0  0  0  0  0  0  0  0  0  0
   -3.7588   20.6064  -21.4393 H   0  0  0  0  0  0  0  0  0  0  0  0
   -4.5986   21.5832  -19.7341 C   0  0  0  0  0  0  0  0  0  0  0  0
   -4.9611   20.2674  -19.1012 C   0  0  0  0  0  0  0  0  0  0  0  0
   -4.0844   19.2793  -18.7952 O   0  0  0  0  0  0  0  0  0  0  0  0
   -6.1919   20.0724  -18.8355 O   0  0  0  0  0  0  0  0  0  0  0  0
   -4.0744   18.7169  -17.9368 H   0  0  0  0  0  0  0  0  0  0  0  0
   -5.8591   22.2477  -20.1751 C   0  0  0  0  0  0  0  0  0  0  0  0
   -5.7694   23.6964  -19.6344 C   0  0  0  0  0  0  0  0  0  0  0  0
   -7.2368   21.7306  -22.1896 C   0  0  0  0  0  0  0  0  0  0  0  0
   -5.9853   22.3500  -21.6765 C   0  0  0  0  0  0  0  0  0  0  0  0
   -1.9453   21.8662  -25.3492 C   0  0  0  0  0  0  0  0  0  0  0  0
   -1.3320   22.7635  -26.3562 C   0  0  0  0  0  0  0  0  0  0  0  0
    0.0649   22.3516  -26.7572 C   0  0  0  0  0  0  0  0  0  0  0  0
   -2.1844   22.5677  -27.6438 C   0  0  0  0  0  0  0  0  0  0  0  0
 33 34  1  0  0  0
 34 31  1  0  0  0
 31 32  1  0  0  0
 31 26  1  0  0  0
 26 22  1  0  0  0
 22 23  1  0  0  0
 23 24  2  0  0  0
 23 21  1  0  0  0
 21 18  1  0  0  0
 18 19  1  0  0  0
 18  1  1  0  0  0
  1 35  1  0  0  0
 35 36  1  0  0  0
 36 37  1  0  0  0
 36 38  1  0  0  0
  1  2  1  0  0  0
  2  3  1  0  0  0
  3  4  2  0  0  0
  3  6  1  0  0  0
  6  7  1  0  0  0
  7  8  1  0  0  0
  8  9  2  0  0  0
  8 11  1  0  0  0
 11 12  1  0  0  0
 12 13  1  0  0  0
 12 14  1  0  0  0
  6 15  1  0  0  0
 15 16  1  0  0  0
 15 17  1  0  0  0
 26 27  1  0  0  0
 27 28  1  0  0  0
 27 29  2  0  0  0
 22 25  1  0  0  0
 19 20  1  0  0  0
  2  5  1  0  0  0
  7 10  1  0  0  0
 28 30  1  0  0  0
M  END
> <minimizedAffinity>
-7.17096

> <CNNscore>
0.3055650294

> <CNNaffinity>
6.0626993179

> <CNN_VS>
1.8525488377

> <CNNaffinity_variance>
1.0642372370

$$$$
[H]OC(=O)[C@@]([H])(N([H])C(=O)C([H])([H])[C@]([H])(O[H])[C@@]([H])(N([H])C(=O)[C@@]([H])(N([H])C(=O)C([H])([H])C([H])(C([H])([H])[H])C([H])([H])[H])C([H])(C([H])([H])[H])C([H])([H])[H])C([H])([H])C([H])(C([H])([H])[H])C([H])([H])[H])[C@@]([H])(C([H])([H])[H])C([H])([H])C([H])([H])[H]


 38 37  0  0  0  0  0  0  0  0999 V2000
   -4.7299   24.8426  -22.9888 C   0  0  0  0  0  0  0  0  0  0  0  0
   -4.1721   23.7219  -23.7490 N   0  0  0  0  0  0  0  0  0  0  0  0
   -2.8035   23.3809  -23.6187 C   0  0  0  0  0  0  0  0  0  0  0  0
   -2.0983   24.0881  -22.8374 O   0  0  0  0  0  0  0  0  0  0  0  0
   -4.7655   23.1635  -24.3912 H   0  0  0  0  0  0  0  0  0  0  0  0
   -2.1812   22.2219  -24.3739 C   0  0  0  0  0  0  0  0  0  0  0  0
   -2.4264   22.4788  -25.7347 N   0  0  0  0  0  0  0  0  0  0  0  0
   -2.6550   22.7191  -27.0085 C   0  0  0  0  0  0  0  0  0  0  0  0
   -1.8372   22.6626  -27.9680 O   0  0  0  0  0  0  0  0  0  0  0  0
   -1.1397   22.1786  -25.9928 H   0  0  0  0  0  0  0  0  0  0  0  0
   -4.0441   23.1185  -27.4599 C   0  0  0  0  0  0  0  0  0  0  0  0
   -4.0781   23.5037  -28.9055 C   0  0  0  0  0  0  0  0  0  0  0  0
   -5.2353   22.8426  -29.6410 C   0  0  0  0  0  0  0  0  0  0  0  0
   -4.1431   24.9980  -29.1132 C   0  0  0  0  0  0  0  0  0  0  0  0
   -0.7328   22.2206  -23.9642 C   0  0  0  0  0  0  0  0  0  0  0  0
   -0.5018   21.2101  -22.8625 C   0  0  0  0  0  0  0  0  0  0  0  0
    0.2405   22.0343  -25.1035 C   0  0  0  0  0  0  0  0  0  0  0  0
   -4.8980   24.5012  -21.5609 C   0  0  0  0  0  0  0  0  0  0  0  0
   -5.5893   25.5514  -20.9148 O   0  0  0  0  0  0  0  0  0  0  0  0
   -6.3547   25.2050  -20.4154 H   0  0  0  0  0  0  0  0  0  0  0  0
   -5.6677   23.2033  -21.3585 C   0  0  0  0  0  0  0  0  0  0  0  0
   -4.1487   22.9324  -19.3381 N   0  0  0  0  0  0  0  0  0  0  0  0
   -5.2025   22.4407  -20.1816 C   0  0  0  0  0  0  0  0  0  0  0  0
   -5.7091   21.3430  -19.8830 O   0  0  0  0  0  0  0  0  0  0  0  0
   -3.7549   23.8546  -19.5785 H   0  0  0  0  0  0  0  0  0  0  0  0
   -3.6533   22.2328  -18.1905 C   0  0  0  0  0  0  0  0  0  0  0  0
   -3.9462   23.0376  -16.9536 C   0  0  0  0  0  0  0  0  0  0  0  0
   -3.7167   22.6277  -15.6817 O   0  0  0  0  0  0  0  0  0  0  0  0
   -4.4511   24.1952  -17.1224 O   0  0  0  0  0  0  0  0  0  0  0  0
   -3.3219   23.1919  -14.9208 H   0  0  0  0  0  0  0  0  0  0  0  0
   -2.1966   21.9122  -18.2002 C   0  0  0  0  0  0  0  0  0  0  0  0
   -2.0126   20.8770  -19.3376 C   0  0  0  0  0  0  0  0  0  0  0  0
   -0.2463   22.7548  -19.5077 C   0  0  0  0  0  0  0  0  0  0  0  0
   -1.3275   23.0980  -18.5453 C   0  0  0  0  0  0  0  0  0  0  0  0
   -5.9802   25.3220  -23.7007 C   0  0  0  0  0  0  0  0  0  0  0  0
   -6.0903   24.9781  -25.1376 C   0  0  0  0  0  0  0  0  0  0  0  0
   -7.5105   24.7334  -25.5902 C   0  0  0  0  0  0  0  0  0  0  0  0
   -5.6524   26.2652  -25.8955 C   0  0  0  0  0  0  0  0  0  0  0  0
 33 34  1  0  0  0
 34 31  1  0  0  0
 31 32  1  0  0  0
 31 26  1  0  0  0
 26 22  1  0  0  0
 22 23  1  0  0  0
 23 24  2  0  0  0
 23 21  1  0  0  0
 21 18  1  0  0  0
 18 19  1  0  0  0
 18  1  1  0  0  0
  1 35  1  0  0  0
 35 36  1  0  0  0
 36 37  1  0  0  0
 36 38  1  0  0  0
  1  2  1  0  0  0
  2  3  1  0  0  0
  3  4  2  0  0  0
  3  6  1  0  0  0
  6  7  1  0  0  0
  7  8  1  0  0  0
  8  9  2  0  0  0
  8 11  1  0  0  0
 11 12  1  0  0  0
 12 13  1  0  0  0
 12 14  1  0  0  0
  6 15  1  0  0  0
 15 16  1  0  0  0
 15 17  1  0  0  0
 26 27  1  0  0  0
 27 28  1  0  0  0
 27 29  2  0  0  0
 22 25  1  0  0  0
 19 20  1  0  0  0
  2  5  1  0  0  0
  7 10  1  0  0  0
 28 30  1  0  0  0
M  END
> <minimizedAffinity>
-6.60411

> <CNNscore>
0.2731645107

> <CNNaffinity>
6.5282120705

> <CNN_VS>
1.7832758427

> <CNNaffinity_variance>
0.2796307504

$$$$
[H]OC(=O)[C@@]([H])(N([H])C(=O)C([H])([H])[C@]([H])(O[H])[C@@]([H])(N([H])C(=O)[C@@]([H])(N([H])C(=O)C([H])([H])C([H])(C([H])([H])[H])C([H])([H])[H])C([H])(C([H])([H])[H])C([H])([H])[H])C([H])([H])C([H])(C([H])([H])[H])C([H])([H])[H])[C@@]([H])(C([H])([H])[H])C([H])([H])C([H])([H])[H]


 38 37  0  0  0  0  0  0  0  0999 V2000
   -2.2512   22.2688  -23.3448 C   0  0  0  0  0  0  0  0  0  0  0  0
   -2.7305   23.4164  -24.1183 N   0  0  0  0  0  0  0  0  0  0  0  0
   -3.7528   23.2503  -25.0845 C   0  0  0  0  0  0  0  0  0  0  0  0
   -4.2127   22.0804  -25.2513 O   0  0  0  0  0  0  0  0  0  0  0  0
   -2.3319   24.3632  -23.9729 H   0  0  0  0  0  0  0  0  0  0  0  0
   -4.2923   24.4087  -25.9017 C   0  0  0  0  0  0  0  0  0  0  0  0
   -3.9007   24.1536  -27.2281 N   0  0  0  0  0  0  0  0  0  0  0  0
   -3.5339   23.9140  -28.4694 C   0  0  0  0  0  0  0  0  0  0  0  0
   -3.0220   22.8599  -28.9377 O   0  0  0  0  0  0  0  0  0  0  0  0
   -3.5343   22.9146  -26.8505 H   0  0  0  0  0  0  0  0  0  0  0  0
   -3.7151   24.9836  -29.5259 C   0  0  0  0  0  0  0  0  0  0  0  0
   -5.1496   25.1517  -29.9174 C   0  0  0  0  0  0  0  0  0  0  0  0
   -5.3400   26.3089  -30.8880 C   0  0  0  0  0  0  0  0  0  0  0  0
   -5.7463   23.8984  -30.5118 C   0  0  0  0  0  0  0  0  0  0  0  0
   -5.7765   24.4066  -25.6512 C   0  0  0  0  0  0  0  0  0  0  0  0
   -6.2652   25.8146  -25.3924 C   0  0  0  0  0  0  0  0  0  0  0  0
   -6.5918   23.7223  -26.7222 C   0  0  0  0  0  0  0  0  0  0  0  0
   -1.8118   22.6700  -21.9921 C   0  0  0  0  0  0  0  0  0  0  0  0
   -1.5013   24.0490  -21.9991 O   0  0  0  0  0  0  0  0  0  0  0  0
   -1.9674   24.5116  -21.2751 H   0  0  0  0  0  0  0  0  0  0  0  0
   -2.8728   22.4065  -20.9325 C   0  0  0  0  0  0  0  0  0  0  0  0
   -5.2875   23.0128  -20.4180 N   0  0  0  0  0  0  0  0  0  0  0  0
   -4.0314   23.3164  -21.0456 C   0  0  0  0  0  0  0  0  0  0  0  0
   -3.9569   24.3781  -21.6922 O   0  0  0  0  0  0  0  0  0  0  0  0
   -5.3302   22.1449  -19.8627 H   0  0  0  0  0  0  0  0  0  0  0  0
   -6.4443   23.8534  -20.5006 C   0  0  0  0  0  0  0  0  0  0  0  0
   -6.8596   24.2644  -19.1142 C   0  0  0  0  0  0  0  0  0  0  0  0
   -7.8362   23.6728  -18.3830 O   0  0  0  0  0  0  0  0  0  0  0  0
   -6.2407   25.2484  -18.5924 O   0  0  0  0  0  0  0  0  0  0  0  0
   -7.7982   23.4488  -17.3822 H   0  0  0  0  0  0  0  0  0  0  0  0
   -7.6319   23.2640  -21.1840 C   0  0  0  0  0  0  0  0  0  0  0  0
   -7.8359   24.1178  -22.4601 C   0  0  0  0  0  0  0  0  0  0  0  0
   -6.9144   21.7614  -23.0417 C   0  0  0  0  0  0  0  0  0  0  0  0
   -7.4113   21.8419  -21.6418 C   0  0  0  0  0  0  0  0  0  0  0  0
   -1.2201   21.5330  -24.1787 C   0  0  0  0  0  0  0  0  0  0  0  0
    0.0060   22.2896  -24.5242 C   0  0  0  0  0  0  0  0  0  0  0  0
    1.2762   21.6277  -24.0441 C   0  0  0  0  0  0  0  0  0  0  0  0
    0.0938   22.2288  -26.0771 C   0  0  0  0  0  0  0  0  0  0  0  0
 33 34  1  0  0  0
 34 31  1  0  0  0
 31 32  1  0  0  0
 31 26  1  0  0  0
 26 22  1  0  0  0
 22 23  1  0  0  0
 23 24  2  0  0  0
 23 21  1  0  0  0
 21 18  1  0  0  0
 18 19  1  0  0  0
 18  1  1  0  0  0
  1 35  1  0  0  0
 35 36  1  0  0  0
 36 37  1  0  0  0
 36 38  1  0  0  0
  1  2  1  0  0  0
  2  3  1  0  0  0
  3  4  2  0  0  0
  3  6  1  0  0  0
  6  7  1  0  0  0
  7  8  1  0  0  0
  8  9  2  0  0  0
  8 11  1  0  0  0
 11 12  1  0  0  0
 12 13  1  0  0  0
 12 14  1  0  0  0
  6 15  1  0  0  0
 15 16  1  0  0  0
 15 17  1  0  0  0
 26 27  1  0  0  0
 27 28  1  0  0  0
 27 29  2  0  0  0
 22 25  1  0  0  0
 19 20  1  0  0  0
  2  5  1  0  0  0
  7 10  1  0  0  0
 28 30  1  0  0  0
M  END
> <minimizedAffinity>
-7.42821

> <CNNscore>
0.2703981698

> <CNNaffinity>
6.3720221519

> <CNN_VS>
1.7229831219

> <CNNaffinity_variance>
0.3632465601

$$$$
[H]OC(=O)[C@@]([H])(N([H])C(=O)C([H])([H])[C@]([H])(O[H])[C@@]([H])(N([H])C(=O)[C@@]([H])(N([H])C(=O)C([H])([H])C([H])(C([H])([H])[H])C([H])([H])[H])C([H])(C([H])([H])[H])C([H])([H])[H])C([H])([H])C([H])(C([H])([H])[H])C([H])([H])[H])[C@@]([H])(C([H])([H])[H])C([H])([H])C([H])([H])[H]


 38 37  0  0  0  0  0  0  0  0999 V2000
   -4.4318   24.5699  -22.3076 C   0  0  0  0  0  0  0  0  0  0  0  0
   -3.7535   23.2893  -22.5192 N   0  0  0  0  0  0  0  0  0  0  0  0
   -2.4392   23.0875  -22.0312 C   0  0  0  0  0  0  0  0  0  0  0  0
   -1.8869   24.0556  -21.4265 O   0  0  0  0  0  0  0  0  0  0  0  0
   -4.2206   22.5143  -23.0267 H   0  0  0  0  0  0  0  0  0  0  0  0
   -1.6989   21.7761  -22.2132 C   0  0  0  0  0  0  0  0  0  0  0  0
   -0.9840   21.9066  -23.4172 N   0  0  0  0  0  0  0  0  0  0  0  0
   -0.3142   22.0282  -24.5438 C   0  0  0  0  0  0  0  0  0  0  0  0
    0.7963   21.5106  -24.8463 O   0  0  0  0  0  0  0  0  0  0  0  0
   -0.0441   21.0848  -22.9138 H   0  0  0  0  0  0  0  0  0  0  0  0
   -0.8775   22.8764  -25.6646 C   0  0  0  0  0  0  0  0  0  0  0  0
   -1.6716   22.0660  -26.6403 C   0  0  0  0  0  0  0  0  0  0  0  0
   -2.9181   21.4711  -26.0005 C   0  0  0  0  0  0  0  0  0  0  0  0
   -2.0667   22.8495  -27.8693 C   0  0  0  0  0  0  0  0  0  0  0  0
   -0.8596   21.6252  -20.9729 C   0  0  0  0  0  0  0  0  0  0  0  0
   -1.7011   21.0951  -19.8332 C   0  0  0  0  0  0  0  0  0  0  0  0
    0.3977   20.8107  -21.1623 C   0  0  0  0  0  0  0  0  0  0  0  0
   -5.4911   24.4615  -21.2829 C   0  0  0  0  0  0  0  0  0  0  0  0
   -5.5894   25.6901  -20.5908 O   0  0  0  0  0  0  0  0  0  0  0  0
   -6.5144   26.0055  -20.5768 H   0  0  0  0  0  0  0  0  0  0  0  0
   -6.8487   24.1204  -21.8818 C   0  0  0  0  0  0  0  0  0  0  0  0
   -7.8324   22.5674  -20.1258 N   0  0  0  0  0  0  0  0  0  0  0  0
   -7.3434   22.7944  -21.4574 C   0  0  0  0  0  0  0  0  0  0  0  0
   -7.3508   21.8275  -22.2421 O   0  0  0  0  0  0  0  0  0  0  0  0
   -7.8472   23.3812  -19.4926 H   0  0  0  0  0  0  0  0  0  0  0  0
   -8.3161   21.3028  -19.6584 C   0  0  0  0  0  0  0  0  0  0  0  0
   -9.4049   21.5311  -18.6456 C   0  0  0  0  0  0  0  0  0  0  0  0
  -10.4883   20.7350  -18.4695 O   0  0  0  0  0  0  0  0  0  0  0  0
   -9.2942   22.5569  -17.8980 O   0  0  0  0  0  0  0  0  0  0  0  0
  -10.8903   20.4416  -17.5721 H   0  0  0  0  0  0  0  0  0  0  0  0
   -7.2979   20.3998  -19.0479 C   0  0  0  0  0  0  0  0  0  0  0  0
   -6.2765   21.3396  -18.3604 C   0  0  0  0  0  0  0  0  0  0  0  0
   -7.7229   18.0611  -18.2904 C   0  0  0  0  0  0  0  0  0  0  0  0
   -7.8633   19.5068  -17.9692 C   0  0  0  0  0  0  0  0  0  0  0  0
   -4.8760   25.0993  -23.6575 C   0  0  0  0  0  0  0  0  0  0  0  0
   -4.6336   24.2153  -24.8215 C   0  0  0  0  0  0  0  0  0  0  0  0
   -5.8900   23.5730  -25.3609 C   0  0  0  0  0  0  0  0  0  0  0  0
   -4.1589   25.1662  -25.9588 C   0  0  0  0  0  0  0  0  0  0  0  0
 33 34  1  0  0  0
 34 31  1  0  0  0
 31 32  1  0  0  0
 31 26  1  0  0  0
 26 22  1  0  0  0
 22 23  1  0  0  0
 23 24  2  0  0  0
 23 21  1  0  0  0
 21 18  1  0  0  0
 18 19  1  0  0  0
 18  1  1  0  0  0
  1 35  1  0  0  0
 35 36  1  0  0  0
 36 37  1  0  0  0
 36 38  1  0  0  0
  1  2  1  0  0  0
  2  3  1  0  0  0
  3  4  2  0  0  0
  3  6  1  0  0  0
  6  7  1  0  0  0
  7  8  1  0  0  0
  8  9  2  0  0  0
  8 11  1  0  0  0
 11 12  1  0  0  0
 12 13  1  0  0  0
 12 14  1  0  0  0
  6 15  1  0  0  0
 15 16  1  0  0  0
 15 17  1  0  0  0
 26 27  1  0  0  0
 27 28  1  0  0  0
 27 29  2  0  0  0
 22 25  1  0  0  0
 19 20  1  0  0  0
  2  5  1  0  0  0
  7 10  1  0  0  0
 28 30  1  0  0  0
M  END
> <minimizedAffinity>
-6.15228

> <CNNscore>
0.2650685608

> <CNNaffinity>
6.1075243950

> <CNN_VS>
1.6189126968

> <CNNaffinity_variance>
0.1876523495

$$$$
[H]OC(=O)[C@@]([H])(N([H])C(=O)C([H])([H])[C@]([H])(O[H])[C@@]([H])(N([H])C(=O)[C@@]([H])(N([H])C(=O)C([H])([H])C([H])(C([H])([H])[H])C([H])([H])[H])C([H])(C([H])([H])[H])C([H])([H])[H])C([H])([H])C([H])(C([H])([H])[H])C([H])([H])[H])[C@@]([H])(C([H])([H])[H])C([H])([H])C([H])([H])[H]


 38 37  0  0  0  0  0  0  0  0999 V2000
   -2.1870   22.1947  -24.5441 C   0  0  0  0  0  0  0  0  0  0  0  0
   -3.0655   23.3421  -24.3066 N   0  0  0  0  0  0  0  0  0  0  0  0
   -4.4254   23.2946  -24.7002 C   0  0  0  0  0  0  0  0  0  0  0  0
   -4.8311   22.2359  -25.2681 O   0  0  0  0  0  0  0  0  0  0  0  0
   -2.7092   24.2028  -23.8499 H   0  0  0  0  0  0  0  0  0  0  0  0
   -5.3786   24.4508  -24.4651 C   0  0  0  0  0  0  0  0  0  0  0  0
   -5.1722   25.3380  -25.5366 N   0  0  0  0  0  0  0  0  0  0  0  0
   -4.9793   26.1692  -26.5389 C   0  0  0  0  0  0  0  0  0  0  0  0
   -5.1587   27.4182  -26.5572 O   0  0  0  0  0  0  0  0  0  0  0  0
   -5.5464   26.3503  -24.7319 H   0  0  0  0  0  0  0  0  0  0  0  0
   -4.4820   25.6404  -27.8679 C   0  0  0  0  0  0  0  0  0  0  0  0
   -5.5964   25.1185  -28.7195 C   0  0  0  0  0  0  0  0  0  0  0  0
   -5.4672   25.5771  -30.1652 C   0  0  0  0  0  0  0  0  0  0  0  0
   -5.7082   23.6131  -28.6815 C   0  0  0  0  0  0  0  0  0  0  0  0
   -6.7450   23.8235  -24.3957 C   0  0  0  0  0  0  0  0  0  0  0  0
   -7.1328   23.5726  -22.9552 C   0  0  0  0  0  0  0  0  0  0  0  0
   -7.8204   24.5803  -25.1380 C   0  0  0  0  0  0  0  0  0  0  0  0
   -1.7497   21.5730  -23.2767 C   0  0  0  0  0  0  0  0  0  0  0  0
   -0.7471   22.3789  -22.6906 O   0  0  0  0  0  0  0  0  0  0  0  0
   -0.9659   22.5793  -21.7593 H   0  0  0  0  0  0  0  0  0  0  0  0
   -2.8927   21.4049  -22.2851 C   0  0  0  0  0  0  0  0  0  0  0  0
   -2.1746   21.7898  -19.8769 N   0  0  0  0  0  0  0  0  0  0  0  0
   -2.7528   22.2751  -21.0992 C   0  0  0  0  0  0  0  0  0  0  0  0
   -3.1345   23.4603  -21.1204 O   0  0  0  0  0  0  0  0  0  0  0  0
   -1.8372   20.8153  -19.8789 H   0  0  0  0  0  0  0  0  0  0  0  0
   -2.0214   22.5855  -18.6958 C   0  0  0  0  0  0  0  0  0  0  0  0
   -0.6013   23.0741  -18.6070 C   0  0  0  0  0  0  0  0  0  0  0  0
    0.3867   22.4800  -17.8933 O   0  0  0  0  0  0  0  0  0  0  0  0
   -0.3114   24.1318  -19.2557 O   0  0  0  0  0  0  0  0  0  0  0  0
    1.3563   22.3358  -18.1967 H   0  0  0  0  0  0  0  0  0  0  0  0
   -2.3615   21.9142  -17.4080 C   0  0  0  0  0  0  0  0  0  0  0  0
   -3.6138   22.6556  -16.8778 C   0  0  0  0  0  0  0  0  0  0  0  0
   -1.7535   19.5313  -16.9888 C   0  0  0  0  0  0  0  0  0  0  0  0
   -2.7517   20.4650  -17.5761 C   0  0  0  0  0  0  0  0  0  0  0  0
   -1.0754   22.6344  -25.4773 C   0  0  0  0  0  0  0  0  0  0  0  0
   -1.1204   22.0895  -26.8544 C   0  0  0  0  0  0  0  0  0  0  0  0
   -2.1458   22.7642  -27.7348 C   0  0  0  0  0  0  0  0  0  0  0  0
    0.2508   22.4713  -27.4845 C   0  0  0  0  0  0  0  0  0  0  0  0
 33 34  1  0  0  0
 34 31  1  0  0  0
 31 32  1  0  0  0
 31 26  1  0  0  0
 26 22  1  0  0  0
 22 23  1  0  0  0
 23 24  2  0  0  0
 23 21  1  0  0  0
 21 18  1  0  0  0
 18 19  1  0  0  0
 18  1  1  0  0  0
  1 35  1  0  0  0
 35 36  1  0  0  0
 36 37  1  0  0  0
 36 38  1  0  0  0
  1  2  1  0  0  0
  2  3  1  0  0  0
  3  4  2  0  0  0
  3  6  1  0  0  0
  6  7  1  0  0  0
  7  8  1  0  0  0
  8  9  2  0  0  0
  8 11  1  0  0  0
 11 12  1  0  0  0
 12 13  1  0  0  0
 12 14  1  0  0  0
  6 15  1  0  0  0
 15 16  1  0  0  0
 15 17  1  0  0  0
 26 27  1  0  0  0
 27 28  1  0  0  0
 27 29  2  0  0  0
 22 25  1  0  0  0
 19 20  1  0  0  0
  2  5  1  0  0  0
  7 10  1  0  0  0
 28 30  1  0  0  0
M  END
> <minimizedAffinity>
-6.54287

> <CNNscore>
0.2617143095

> <CNNaffinity>
6.3003859520

> <CNN_VS>
1.6489011049

> <CNNaffinity_variance>
0.2072987109

$$$$
[H]OC(=O)[C@@]([H])(N([H])C(=O)C([H])([H])[C@]([H])(O[H])[C@@]([H])(N([H])C(=O)[C@@]([H])(N([H])C(=O)C([H])([H])C([H])(C([H])([H])[H])C([H])([H])[H])C([H])(C([H])([H])[H])C([H])([H])[H])C([H])([H])C([H])(C([H])([H])[H])C([H])([H])[H])[C@@]([H])(C([H])([H])[H])C([H])([H])C([H])([H])[H]


 38 37  0  0  0  0  0  0  0  0999 V2000
   -2.2810   22.1788  -24.3895 C   0  0  0  0  0  0  0  0  0  0  0  0
   -3.1777   23.2757  -24.0185 N   0  0  0  0  0  0  0  0  0  0  0  0
   -4.4445   23.4042  -24.6391 C   0  0  0  0  0  0  0  0  0  0  0  0
   -4.7505   22.5474  -25.5224 O   0  0  0  0  0  0  0  0  0  0  0  0
   -2.9020   23.9721  -23.3006 H   0  0  0  0  0  0  0  0  0  0  0  0
   -5.4141   24.5144  -24.2810 C   0  0  0  0  0  0  0  0  0  0  0  0
   -5.4330   25.3763  -25.3921 N   0  0  0  0  0  0  0  0  0  0  0  0
   -5.4503   26.1837  -26.4315 C   0  0  0  0  0  0  0  0  0  0  0  0
   -5.1160   27.3998  -26.4753 O   0  0  0  0  0  0  0  0  0  0  0  0
   -4.9406   26.3521  -24.6062 H   0  0  0  0  0  0  0  0  0  0  0  0
   -5.9155   25.6666  -27.7765 C   0  0  0  0  0  0  0  0  0  0  0  0
   -4.8981   24.7790  -28.4217 C   0  0  0  0  0  0  0  0  0  0  0  0
   -5.5247   23.5053  -28.9716 C   0  0  0  0  0  0  0  0  0  0  0  0
   -4.1281   25.4713  -29.5209 C   0  0  0  0  0  0  0  0  0  0  0  0
   -6.7131   23.8168  -23.9784 C   0  0  0  0  0  0  0  0  0  0  0  0
   -6.6500   23.1614  -22.6166 C   0  0  0  0  0  0  0  0  0  0  0  0
   -7.9394   24.6861  -24.1216 C   0  0  0  0  0  0  0  0  0  0  0  0
   -1.7695   21.4681  -23.1990 C   0  0  0  0  0  0  0  0  0  0  0  0
   -0.3639   21.6091  -23.1475 O   0  0  0  0  0  0  0  0  0  0  0  0
   -0.0813   21.9325  -22.2695 H   0  0  0  0  0  0  0  0  0  0  0  0
   -2.3682   21.9966  -21.9028 C   0  0  0  0  0  0  0  0  0  0  0  0
   -0.4928   21.4489  -20.2761 N   0  0  0  0  0  0  0  0  0  0  0  0
   -1.3400   22.4102  -20.9256 C   0  0  0  0  0  0  0  0  0  0  0  0
   -1.1755   23.6090  -20.6311 O   0  0  0  0  0  0  0  0  0  0  0  0
   -0.6191   20.4620  -20.5473 H   0  0  0  0  0  0  0  0  0  0  0  0
    0.5137   21.7921  -19.3165 C   0  0  0  0  0  0  0  0  0  0  0  0
    1.8728   21.6054  -19.9341 C   0  0  0  0  0  0  0  0  0  0  0  0
    3.0374   22.0670  -19.4152 O   0  0  0  0  0  0  0  0  0  0  0  0
    1.9259   20.9623  -21.0328 O   0  0  0  0  0  0  0  0  0  0  0  0
    3.9290   21.5608  -19.3720 H   0  0  0  0  0  0  0  0  0  0  0  0
    0.4793   21.0310  -18.0341 C   0  0  0  0  0  0  0  0  0  0  0  0
    0.7351   22.0831  -16.9264 C   0  0  0  0  0  0  0  0  0  0  0  0
   -1.5279   21.0089  -16.5528 C   0  0  0  0  0  0  0  0  0  0  0  0
   -0.8672   20.4117  -17.7444 C   0  0  0  0  0  0  0  0  0  0  0  0
   -1.2258   22.7273  -25.3304 C   0  0  0  0  0  0  0  0  0  0  0  0
   -1.1537   22.1025  -26.6719 C   0  0  0  0  0  0  0  0  0  0  0  0
   -1.9900   22.8114  -27.7111 C   0  0  0  0  0  0  0  0  0  0  0  0
    0.3161   22.3157  -27.1380 C   0  0  0  0  0  0  0  0  0  0  0  0
 33 34  1  0  0  0
 34 31  1  0  0  0
 31 32  1  0  0  0
 31 26  1  0  0  0
 26 22  1  0  0  0
 22 23  1  0  0  0
 23 24  2  0  0  0
 23 21  1  0  0  0
 21 18  1  0  0  0
 18 19  1  0  0  0
 18  1  1  0  0  0
  1 35  1  0  0  0
 35 36  1  0  0  0
 36 37  1  0  0  0
 36 38  1  0  0  0
  1  2  1  0  0  0
  2  3  1  0  0  0
  3  4  2  0  0  0
  3  6  1  0  0  0
  6  7  1  0  0  0
  7  8  1  0  0  0
  8  9  2  0  0  0
  8 11  1  0  0  0
 11 12  1  0  0  0
 12 13  1  0  0  0
 12 14  1  0  0  0
  6 15  1  0  0  0
 15 16  1  0  0  0
 15 17  1  0  0  0
 26 27  1  0  0  0
 27 28  1  0  0  0
 27 29  2  0  0  0
 22 25  1  0  0  0
 19 20  1  0  0  0
  2  5  1  0  0  0
  7 10  1  0  0  0
 28 30  1  0  0  0
M  END
> <minimizedAffinity>
-6.53365

> <CNNscore>
0.2595494986

> <CNNaffinity>
6.0419983864

> <CNN_VS>
1.5681976080

> <CNNaffinity_variance>
0.3668273091

$$$$
[H]OC(=O)[C@@]([H])(N([H])C(=O)C([H])([H])[C@]([H])(O[H])[C@@]([H])(N([H])C(=O)[C@@]([H])(N([H])C(=O)C([H])([H])C([H])(C([H])([H])[H])C([H])([H])[H])C([H])(C([H])([H])[H])C([H])([H])[H])C([H])([H])C([H])(C([H])([H])[H])C([H])([H])[H])[C@@]([H])(C([H])([H])[H])C([H])([H])C([H])([H])[H]


 38 37  0  0  0  0  0  0  0  0999 V2000
   -2.1749   22.5818  -23.1572 C   0  0  0  0  0  0  0  0  0  0  0  0
   -1.9703   22.9088  -24.5701 N   0  0  0  0  0  0  0  0  0  0  0  0
   -2.3231   21.9776  -25.5774 C   0  0  0  0  0  0  0  0  0  0  0  0
   -2.8023   20.8655  -25.2013 O   0  0  0  0  0  0  0  0  0  0  0  0
   -1.5663   23.8210  -24.8546 H   0  0  0  0  0  0  0  0  0  0  0  0
   -2.1431   22.2736  -27.0542 C   0  0  0  0  0  0  0  0  0  0  0  0
   -3.2348   23.0832  -27.4159 N   0  0  0  0  0  0  0  0  0  0  0  0
   -4.2564   23.8413  -27.7535 C   0  0  0  0  0  0  0  0  0  0  0  0
   -4.8353   24.7195  -27.0561 O   0  0  0  0  0  0  0  0  0  0  0  0
   -3.1631   23.6691  -26.2060 H   0  0  0  0  0  0  0  0  0  0  0  0
   -4.8708   23.7040  -29.1308 C   0  0  0  0  0  0  0  0  0  0  0  0
   -4.9799   25.0209  -29.8331 C   0  0  0  0  0  0  0  0  0  0  0  0
   -3.6146   25.6493  -30.0741 C   0  0  0  0  0  0  0  0  0  0  0  0
   -5.7245   24.9270  -31.1434 C   0  0  0  0  0  0  0  0  0  0  0  0
   -0.7896   22.9233  -27.1609 C   0  0  0  0  0  0  0  0  0  0  0  0
    0.2731   22.0161  -26.5814 C   0  0  0  0  0  0  0  0  0  0  0  0
   -0.4262   23.3898  -28.5503 C   0  0  0  0  0  0  0  0  0  0  0  0
   -3.2004   23.4493  -22.5410 C   0  0  0  0  0  0  0  0  0  0  0  0
   -2.7704   23.8225  -21.2471 O   0  0  0  0  0  0  0  0  0  0  0  0
   -2.8183   24.7921  -21.1337 H   0  0  0  0  0  0  0  0  0  0  0  0
   -3.4664   24.7070  -23.3566 C   0  0  0  0  0  0  0  0  0  0  0  0
   -5.5852   24.9570  -21.9741 N   0  0  0  0  0  0  0  0  0  0  0  0
   -4.8348   25.2313  -23.1680 C   0  0  0  0  0  0  0  0  0  0  0  0
   -5.3843   25.9286  -24.0414 O   0  0  0  0  0  0  0  0  0  0  0  0
   -5.1109   24.4017  -21.2461 H   0  0  0  0  0  0  0  0  0  0  0  0
   -6.9162   25.4324  -21.7415 C   0  0  0  0  0  0  0  0  0  0  0  0
   -7.0658   25.7996  -20.2902 C   0  0  0  0  0  0  0  0  0  0  0  0
   -6.1106   25.6408  -19.3412 O   0  0  0  0  0  0  0  0  0  0  0  0
   -8.1823   26.2978  -19.9314 O   0  0  0  0  0  0  0  0  0  0  0  0
   -5.8658   26.3113  -18.6038 H   0  0  0  0  0  0  0  0  0  0  0  0
   -8.0170   24.4906  -22.0967 C   0  0  0  0  0  0  0  0  0  0  0  0
   -8.5537   24.9844  -23.4631 C   0  0  0  0  0  0  0  0  0  0  0  0
   -8.0311   22.1468  -21.2423 C   0  0  0  0  0  0  0  0  0  0  0  0
   -7.5441   23.0710  -22.3014 C   0  0  0  0  0  0  0  0  0  0  0  0
   -0.8221   22.5759  -22.4718 C   0  0  0  0  0  0  0  0  0  0  0  0
   -0.1572   21.2581  -22.3429 C   0  0  0  0  0  0  0  0  0  0  0  0
    1.1826   21.1901  -23.0372 C   0  0  0  0  0  0  0  0  0  0  0  0
    0.1773   21.1212  -20.8288 C   0  0  0  0  0  0  0  0  0  0  0  0
 33 34  1  0  0  0
 34 31  1  0  0  0
 31 32  1  0  0  0
 31 26  1  0  0  0
 26 22  1  0  0  0
 22 23  1  0  0  0
 23 24  2  0  0  0
 23 21  1  0  0  0
 21 18  1  0  0  0
 18 19  1  0  0  0
 18  1  1  0  0  0
  1 35  1  0  0  0
 35 36  1  0  0  0
 36 37  1  0  0  0
 36 38  1  0  0  0
  1  2  1  0  0  0
  2  3  1  0  0  0
  3  4  2  0  0  0
  3  6  1  0  0  0
  6  7  1  0  0  0
  7  8  1  0  0  0
  8  9  2  0  0  0
  8 11  1  0  0  0
 11 12  1  0  0  0
 12 13  1  0  0  0
 12 14  1  0  0  0
  6 15  1  0  0  0
 15 16  1  0  0  0
 15 17  1  0  0  0
 26 27  1  0  0  0
 27 28  1  0  0  0
 27 29  2  0  0  0
 22 25  1  0  0  0
 19 20  1  0  0  0
  2  5  1  0  0  0
  7 10  1  0  0  0
 28 30  1  0  0  0
M  END
> <minimizedAffinity>
-7.18637

> <CNNscore>
0.2568487227

> <CNNaffinity>
6.3635077477

> <CNN_VS>
1.6344587803

> <CNNaffinity_variance>
0.5665670633

$$$$
[H]OC(=O)[C@@]([H])(N([H])C(=O)C([H])([H])[C@]([H])(O[H])[C@@]([H])(N([H])C(=O)[C@@]([H])(N([H])C(=O)C([H])([H])C([H])(C([H])([H])[H])C([H])([H])[H])C([H])(C([H])([H])[H])C([H])([H])[H])C([H])([H])C([H])(C([H])([H])[H])C([H])([H])[H])[C@@]([H])(C([H])([H])[H])C([H])([H])C([H])([H])[H]


 38 37  0  0  0  0  0  0  0  0999 V2000
   -5.6165   23.9241  -23.0946 C   0  0  0  0  0  0  0  0  0  0  0  0
   -4.7826   22.9266  -23.7688 N   0  0  0  0  0  0  0  0  0  0  0  0
   -3.8052   23.3311  -24.7108 C   0  0  0  0  0  0  0  0  0  0  0  0
   -3.7003   24.5728  -24.9453 O   0  0  0  0  0  0  0  0  0  0  0  0
   -4.8932   21.9145  -23.5694 H   0  0  0  0  0  0  0  0  0  0  0  0
   -2.9084   22.3384  -25.4258 C   0  0  0  0  0  0  0  0  0  0  0  0
   -2.9675   22.6844  -26.7877 N   0  0  0  0  0  0  0  0  0  0  0  0
   -3.0220   23.0084  -28.0623 C   0  0  0  0  0  0  0  0  0  0  0  0
   -2.0616   23.2658  -28.8395 O   0  0  0  0  0  0  0  0  0  0  0  0
   -1.6226   22.7402  -26.8016 H   0  0  0  0  0  0  0  0  0  0  0  0
   -4.3646   23.1057  -28.7558 C   0  0  0  0  0  0  0  0  0  0  0  0
   -4.5540   24.4257  -29.4347 C   0  0  0  0  0  0  0  0  0  0  0  0
   -5.6693   24.3758  -30.4695 C   0  0  0  0  0  0  0  0  0  0  0  0
   -4.8232   25.5512  -28.4646 C   0  0  0  0  0  0  0  0  0  0  0  0
   -1.5595   22.4906  -24.7754 C   0  0  0  0  0  0  0  0  0  0  0  0
   -1.4678   21.6095  -23.5493 C   0  0  0  0  0  0  0  0  0  0  0  0
   -0.3883   22.2762  -25.7039 C   0  0  0  0  0  0  0  0  0  0  0  0
   -5.4770   23.8465  -21.6255 C   0  0  0  0  0  0  0  0  0  0  0  0
   -4.1654   24.2330  -21.2667 O   0  0  0  0  0  0  0  0  0  0  0  0
   -4.1860   24.9231  -20.5747 H   0  0  0  0  0  0  0  0  0  0  0  0
   -6.4730   24.7385  -20.8974 C   0  0  0  0  0  0  0  0  0  0  0  0
   -5.5346   23.9864  -18.6575 N   0  0  0  0  0  0  0  0  0  0  0  0
   -6.6517   24.3579  -19.4810 C   0  0  0  0  0  0  0  0  0  0  0  0
   -7.7800   24.3450  -18.9541 O   0  0  0  0  0  0  0  0  0  0  0  0
   -4.6021   24.0267  -19.0960 H   0  0  0  0  0  0  0  0  0  0  0  0
   -5.6501   23.6019  -17.2826 C   0  0  0  0  0  0  0  0  0  0  0  0
   -5.5101   24.8212  -16.4125 C   0  0  0  0  0  0  0  0  0  0  0  0
   -4.5333   25.7547  -16.5261 O   0  0  0  0  0  0  0  0  0  0  0  0
   -6.3817   24.9824  -15.4972 O   0  0  0  0  0  0  0  0  0  0  0  0
   -4.6513   26.7721  -16.4621 H   0  0  0  0  0  0  0  0  0  0  0  0
   -4.6742   22.5791  -16.8068 C   0  0  0  0  0  0  0  0  0  0  0  0
   -3.4331   22.7416  -17.7191 C   0  0  0  0  0  0  0  0  0  0  0  0
   -4.7192   21.7891  -14.4410 C   0  0  0  0  0  0  0  0  0  0  0  0
   -4.2075   22.8141  -15.3899 C   0  0  0  0  0  0  0  0  0  0  0  0
   -7.0306   23.7973  -23.6274 C   0  0  0  0  0  0  0  0  0  0  0  0
   -7.5129   24.9082  -24.4808 C   0  0  0  0  0  0  0  0  0  0  0  0
   -6.6485   26.1447  -24.4035 C   0  0  0  0  0  0  0  0  0  0  0  0
   -7.3409   24.3991  -25.9417 C   0  0  0  0  0  0  0  0  0  0  0  0
 33 34  1  0  0  0
 34 31  1  0  0  0
 31 32  1  0  0  0
 31 26  1  0  0  0
 26 22  1  0  0  0
 22 23  1  0  0  0
 23 24  2  0  0  0
 23 21  1  0  0  0
 21 18  1  0  0  0
 18 19  1  0  0  0
 18  1  1  0  0  0
  1 35  1  0  0  0
 35 36  1  0  0  0
 36 37  1  0  0  0
 36 38  1  0  0  0
  1  2  1  0  0  0
  2  3  1  0  0  0
  3  4  2  0  0  0
  3  6  1  0  0  0
  6  7  1  0  0  0
  7  8  1  0  0  0
  8  9  2  0  0  0
  8 11  1  0  0  0
 11 12  1  0  0  0
 12 13  1  0  0  0
 12 14  1  0  0  0
  6 15  1  0  0  0
 15 16  1  0  0  0
 15 17  1  0  0  0
 26 27  1  0  0  0
 27 28  1  0  0  0
 27 29  2  0  0  0
 22 25  1  0  0  0
 19 20  1  0  0  0
  2  5  1  0  0  0
  7 10  1  0  0  0
 28 30  1  0  0  0
M  END
> <minimizedAffinity>
-7.04612

> <CNNscore>
0.2556381524

> <CNNaffinity>
6.2002525330

> <CNN_VS>
1.5850211382

> <CNNaffinity_variance>
0.4515463412

$$$$
[H]c1c([H])c([H])c2c(c1[H])c1c3c(c4c5c([H])c([H])c([H])c([H])c5n5c4c1n2[C@@]1(C([H])([H])[H])O[C@]5([H])C([H])([H])[C@]([H])(N([H])C([H])([H])[H])[C@]1([H])OC([H])([H])[H])C(=O)N([H])C3([H])[H]


 37 44  0  0  0  0  0  0  0  0999 V2000
   -4.9488   25.4975  -24.3531 C   0  0  0  0  0  0  0  0  0  0  0  0
   -4.6147   24.3794  -23.3852 C   0  0  0  0  0  0  0  0  0  0  0  0
   -4.7726   23.0232  -24.0125 C   0  0  0  0  0  0  0  0  0  0  0  0
   -5.7274   22.8616  -24.9250 O   0  0  0  0  0  0  0  0  0  0  0  0
   -5.9867   23.8690  -25.8599 C   0  0  0  0  0  0  0  0  0  0  0  0
   -7.3133   23.4295  -26.4523 C   0  0  0  0  0  0  0  0  0  0  0  0
   -6.2174   25.1207  -25.0397 C   0  0  0  0  0  0  0  0  0  0  0  0
   -4.9304   23.9595  -26.8410 N   0  0  0  0  0  0  0  0  0  0  0  0
   -5.0775   24.4649  -28.0904 C   0  0  0  0  0  0  0  0  0  0  0  0
   -6.1069   25.0723  -28.7439 C   0  0  0  0  0  0  0  0  0  0  0  0
   -6.0084   25.5267  -30.0611 C   0  0  0  0  0  0  0  0  0  0  0  0
   -4.8426   25.3746  -30.7603 C   0  0  0  0  0  0  0  0  0  0  0  0
   -3.8005   24.7667  -30.1131 C   0  0  0  0  0  0  0  0  0  0  0  0
   -3.8866   24.3145  -28.8142 C   0  0  0  0  0  0  0  0  0  0  0  0
   -2.9953   23.7044  -27.9705 C   0  0  0  0  0  0  0  0  0  0  0  0
   -1.6829   23.3156  -28.1406 C   0  0  0  0  0  0  0  0  0  0  0  0
   -0.7808   23.4234  -29.3136 C   0  0  0  0  0  0  0  0  0  0  0  0
    0.4506   22.8460  -28.8899 N   0  0  0  0  0  0  0  0  0  0  0  0
    0.3482   22.3984  -27.5246 C   0  0  0  0  0  0  0  0  0  0  0  0
    1.3033   21.8650  -26.9464 O   0  0  0  0  0  0  0  0  0  0  0  0
   -0.9957   22.7056  -27.0846 C   0  0  0  0  0  0  0  0  0  0  0  0
   -1.6760   22.5144  -25.8825 C   0  0  0  0  0  0  0  0  0  0  0  0
   -1.3211   21.9880  -24.6422 C   0  0  0  0  0  0  0  0  0  0  0  0
   -0.1789   21.4407  -24.1646 C   0  0  0  0  0  0  0  0  0  0  0  0
   -0.1466   20.9949  -22.8312 C   0  0  0  0  0  0  0  0  0  0  0  0
   -1.2506   21.1132  -22.0327 C   0  0  0  0  0  0  0  0  0  0  0  0
   -2.4207   21.6663  -22.4987 C   0  0  0  0  0  0  0  0  0  0  0  0
   -2.4390   22.1009  -23.8127 C   0  0  0  0  0  0  0  0  0  0  0  0
   -3.4316   22.6680  -24.5115 N   0  0  0  0  0  0  0  0  0  0  0  0
   -2.9958   22.9180  -25.7483 C   0  0  0  0  0  0  0  0  0  0  0  0
   -3.6362   23.5063  -26.8040 C   0  0  0  0  0  0  0  0  0  0  0  0
    1.2923   22.7680  -29.4952 H   0  0  0  0  0  0  0  0  0  0  0  0
   -3.8749   27.6904  -24.2615 C   0  0  0  0  0  0  0  0  0  0  0  0
   -4.8270   26.7673  -23.7976 N   0  0  0  0  0  0  0  0  0  0  0  0
   -4.9176   26.8298  -22.7615 H   0  0  0  0  0  0  0  0  0  0  0  0
   -7.1291   24.7562  -24.0622 O   0  0  0  0  0  0  0  0  0  0  0  0
   -8.0780   25.6471  -23.6910 C   0  0  0  0  0  0  0  0  0  0  0  0
 33 34  1  0  0  0
 34  1  1  0  0  0
  1  2  1  0  0  0
  2  3  1  0  0  0
  3  4  1  0  0  0
  4  5  1  0  0  0
  5  6  1  0  0  0
  5  7  1  0  0  0
  7 36  1  0  0  0
 36 37  1  0  0  0
  5  8  1  0  0  0
  8  9  1  0  0  0
  9 10  2  0  0  0
 10 11  1  0  0  0
 11 12  2  0  0  0
 12 13  1  0  0  0
 13 14  2  0  0  0
 14 15  1  0  0  0
 15 16  2  0  0  0
 16 17  1  0  0  0
 17 18  1  0  0  0
 18 19  1  0  0  0
 19 20  2  0  0  0
 19 21  1  0  0  0
 21 22  2  0  0  0
 22 23  1  0  0  0
 23 24  2  0  0  0
 24 25  1  0  0  0
 25 26  2  0  0  0
 26 27  1  0  0  0
 27 28  2  0  0  0
 28 29  1  0  0  0
 29 30  1  0  0  0
 30 31  2  0  0  0
  7  1  1  0  0  0
 31  8  1  0  0  0
 29  3  1  0  0  0
 14  9  1  0  0  0
 31 15  1  0  0  0
 21 16  1  0  0  0
 30 22  1  0  0  0
 28 23  1  0  0  0
 34 35  1  0  0  0
 18 32  1  0  0  0
M  END
> <minimizedAffinity>
-8.96435

> <CNNscore>
0.5924534202

> <CNNaffinity>
7.2539954185

> <CNN_VS>
4.2976546288

> <CNNaffinity_variance>
0.2327012271

$$$$
[H]c1c([H])c([H])c2c(c1[H])c1c3c(c4c5c([H])c([H])c([H])c([H])c5n5c4c1n2[C@@]1(C([H])([H])[H])O[C@]5([H])C([H])([H])[C@]([H])(N([H])C([H])([H])[H])[C@]1([H])OC([H])([H])[H])C(=O)N([H])C3([H])[H]


 37 44  0  0  0  0  0  0  0  0999 V2000
   -4.3584   23.8423  -22.2354 C   0  0  0  0  0  0  0  0  0  0  0  0
   -3.4296   22.8531  -21.5589 C   0  0  0  0  0  0  0  0  0  0  0  0
   -3.3889   21.5341  -22.2775 C   0  0  0  0  0  0  0  0  0  0  0  0
   -4.4984   21.1134  -22.8795 O   0  0  0  0  0  0  0  0  0  0  0  0
   -5.3176   22.0195  -23.5608 C   0  0  0  0  0  0  0  0  0  0  0  0
   -6.5820   21.2099  -23.7848 C   0  0  0  0  0  0  0  0  0  0  0  0
   -5.6183   23.1132  -22.5578 C   0  0  0  0  0  0  0  0  0  0  0  0
   -4.7027   22.4614  -24.7908 N   0  0  0  0  0  0  0  0  0  0  0  0
   -5.3789   22.9344  -25.8664 C   0  0  0  0  0  0  0  0  0  0  0  0
   -6.6909   23.2138  -26.1039 C   0  0  0  0  0  0  0  0  0  0  0  0
   -7.1524   23.7162  -27.3229 C   0  0  0  0  0  0  0  0  0  0  0  0
   -6.2793   23.9528  -28.3489 C   0  0  0  0  0  0  0  0  0  0  0  0
   -4.9578   23.6769  -28.1212 C   0  0  0  0  0  0  0  0  0  0  0  0
   -4.4915   23.1811  -26.9230 C   0  0  0  0  0  0  0  0  0  0  0  0
   -3.2428   22.8507  -26.4649 C   0  0  0  0  0  0  0  0  0  0  0  0
   -2.0007   22.8914  -27.0633 C   0  0  0  0  0  0  0  0  0  0  0  0
   -1.5914   23.3080  -28.4272 C   0  0  0  0  0  0  0  0  0  0  0  0
   -0.1789   23.1264  -28.4632 N   0  0  0  0  0  0  0  0  0  0  0  0
    0.2925   22.6279  -27.1968 C   0  0  0  0  0  0  0  0  0  0  0  0
    1.4922   22.3981  -26.9992 O   0  0  0  0  0  0  0  0  0  0  0  0
   -0.8685   22.4916  -26.3437 C   0  0  0  0  0  0  0  0  0  0  0  0
   -1.0443   22.0633  -25.0284 C   0  0  0  0  0  0  0  0  0  0  0  0
   -0.1772   21.6348  -24.0255 C   0  0  0  0  0  0  0  0  0  0  0  0
    1.1634   21.4526  -23.9804 C   0  0  0  0  0  0  0  0  0  0  0  0
    1.7458   20.9984  -22.7836 C   0  0  0  0  0  0  0  0  0  0  0  0
    0.9700   20.7457  -21.6861 C   0  0  0  0  0  0  0  0  0  0  0  0
   -0.3936   20.9244  -21.7114 C   0  0  0  0  0  0  0  0  0  0  0  0
   -0.9541   21.3718  -22.8952 C   0  0  0  0  0  0  0  0  0  0  0  0
   -2.2358   21.6257  -23.1916 N   0  0  0  0  0  0  0  0  0  0  0  0
   -2.3088   22.0354  -24.4600 C   0  0  0  0  0  0  0  0  0  0  0  0
   -3.3925   22.4290  -25.1958 C   0  0  0  0  0  0  0  0  0  0  0  0
    0.4102   23.3305  -29.2952 H   0  0  0  0  0  0  0  0  0  0  0  0
   -5.5998   25.8485  -21.5994 C   0  0  0  0  0  0  0  0  0  0  0  0
   -4.4302   25.0701  -21.5850 N   0  0  0  0  0  0  0  0  0  0  0  0
   -3.5881   25.6799  -21.6531 H   0  0  0  0  0  0  0  0  0  0  0  0
   -6.0261   22.4555  -21.4086 O   0  0  0  0  0  0  0  0  0  0  0  0
   -7.1585   22.8646  -20.7904 C   0  0  0  0  0  0  0  0  0  0  0  0
 33 34  1  0  0  0
 34  1  1  0  0  0
  1  2  1  0  0  0
  2  3  1  0  0  0
  3  4  1  0  0  0
  4  5  1  0  0  0
  5  6  1  0  0  0
  5  7  1  0  0  0
  7 36  1  0  0  0
 36 37  1  0  0  0
  5  8  1  0  0  0
  8  9  1  0  0  0
  9 10  2  0  0  0
 10 11  1  0  0  0
 11 12  2  0  0  0
 12 13  1  0  0  0
 13 14  2  0  0  0
 14 15  1  0  0  0
 15 16  2  0  0  0
 16 17  1  0  0  0
 17 18  1  0  0  0
 18 19  1  0  0  0
 19 20  2  0  0  0
 19 21  1  0  0  0
 21 22  2  0  0  0
 22 23  1  0  0  0
 23 24  2  0  0  0
 24 25  1  0  0  0
 25 26  2  0  0  0
 26 27  1  0  0  0
 27 28  2  0  0  0
 28 29  1  0  0  0
 29 30  1  0  0  0
 30 31  2  0  0  0
  7  1  1  0  0  0
 31  8  1  0  0  0
 29  3  1  0  0  0
 14  9  1  0  0  0
 31 15  1  0  0  0
 21 16  1  0  0  0
 30 22  1  0  0  0
 28 23  1  0  0  0
 34 35  1  0  0  0
 18 32  1  0  0  0
M  END
> <minimizedAffinity>
-9.45638

> <CNNscore>
0.4624616206

> <CNNaffinity>
6.6106233597

> <CNN_VS>
3.0571596622

> <CNNaffinity_variance>
0.2066320628

$$$$
[H]c1c([H])c([H])c2c(c1[H])c1c3c(c4c5c([H])c([H])c([H])c([H])c5n5c4c1n2[C@@]1(C([H])([H])[H])O[C@]5([H])C([H])([H])[C@]([H])(N([H])C([H])([H])[H])[C@]1([H])OC([H])([H])[H])C(=O)N([H])C3([H])[H]


 37 44  0  0  0  0  0  0  0  0999 V2000
   -5.1032   24.1117  -21.9301 C   0  0  0  0  0  0  0  0  0  0  0  0
   -4.6291   23.1662  -20.8439 C   0  0  0  0  0  0  0  0  0  0  0  0
   -4.4844   21.7571  -21.3452 C   0  0  0  0  0  0  0  0  0  0  0  0
   -5.3275   21.3358  -22.2843 O   0  0  0  0  0  0  0  0  0  0  0  0
   -5.7096   22.1906  -23.3234 C   0  0  0  0  0  0  0  0  0  0  0  0
   -6.8858   21.4523  -23.9361 C   0  0  0  0  0  0  0  0  0  0  0  0
   -6.2282   23.4381  -22.6396 C   0  0  0  0  0  0  0  0  0  0  0  0
   -4.6261   22.4020  -24.2549 N   0  0  0  0  0  0  0  0  0  0  0  0
   -4.7819   22.7614  -25.5528 C   0  0  0  0  0  0  0  0  0  0  0  0
   -5.8614   23.0990  -26.3119 C   0  0  0  0  0  0  0  0  0  0  0  0
   -5.7624   23.4508  -27.6602 C   0  0  0  0  0  0  0  0  0  0  0  0
   -4.5446   23.4703  -28.2826 C   0  0  0  0  0  0  0  0  0  0  0  0
   -3.4521   23.1342  -27.5291 C   0  0  0  0  0  0  0  0  0  0  0  0
   -3.5381   22.7855  -26.1987 C   0  0  0  0  0  0  0  0  0  0  0  0
   -2.6062   22.4345  -25.2571 C   0  0  0  0  0  0  0  0  0  0  0  0
   -1.2354   22.2960  -25.3236 C   0  0  0  0  0  0  0  0  0  0  0  0
   -0.2933   22.4780  -26.4551 C   0  0  0  0  0  0  0  0  0  0  0  0
    0.9940   22.1897  -25.9172 N   0  0  0  0  0  0  0  0  0  0  0  0
    0.8867   21.8480  -24.5221 C   0  0  0  0  0  0  0  0  0  0  0  0
    1.8845   21.5618  -23.8486 O   0  0  0  0  0  0  0  0  0  0  0  0
   -0.5176   21.9233  -24.1810 C   0  0  0  0  0  0  0  0  0  0  0  0
   -1.2287   21.7055  -23.0014 C   0  0  0  0  0  0  0  0  0  0  0  0
   -0.8648   21.3653  -21.7002 C   0  0  0  0  0  0  0  0  0  0  0  0
    0.3258   21.0936  -21.1161 C   0  0  0  0  0  0  0  0  0  0  0  0
    0.3522   20.7771  -19.7460 C   0  0  0  0  0  0  0  0  0  0  0  0
   -0.8054   20.7450  -19.0186 C   0  0  0  0  0  0  0  0  0  0  0  0
   -2.0251   21.0179  -19.5931 C   0  0  0  0  0  0  0  0  0  0  0  0
   -2.0370   21.3278  -20.9420 C   0  0  0  0  0  0  0  0  0  0  0  0
   -3.0698   21.6293  -21.7405 N   0  0  0  0  0  0  0  0  0  0  0  0
   -2.6071   21.8539  -22.9724 C   0  0  0  0  0  0  0  0  0  0  0  0
   -3.2749   22.2146  -24.1102 C   0  0  0  0  0  0  0  0  0  0  0  0
    1.8740   22.2264  -26.4697 H   0  0  0  0  0  0  0  0  0  0  0  0
   -5.9660   25.7323  -20.3177 C   0  0  0  0  0  0  0  0  0  0  0  0
   -5.2621   25.4232  -21.4937 N   0  0  0  0  0  0  0  0  0  0  0  0
   -5.4547   26.1356  -22.2292 H   0  0  0  0  0  0  0  0  0  0  0  0
   -7.1179   22.9868  -21.6782 O   0  0  0  0  0  0  0  0  0  0  0  0
   -8.3308   23.5797  -21.5830 C   0  0  0  0  0  0  0  0  0  0  0  0
 33 34  1  0  0  0
 34  1  1  0  0  0
  1  2  1  0  0  0
  2  3  1  0  0  0
  3  4  1  0  0  0
  4  5  1  0  0  0
  5  6  1  0  0  0
  5  7  1  0  0  0
  7 36  1  0  0  0
 36 37  1  0  0  0
  5  8  1  0  0  0
  8  9  1  0  0  0
  9 10  2  0  0  0
 10 11  1  0  0  0
 11 12  2  0  0  0
 12 13  1  0  0  0
 13 14  2  0  0  0
 14 15  1  0  0  0
 15 16  2  0  0  0
 16 17  1  0  0  0
 17 18  1  0  0  0
 18 19  1  0  0  0
 19 20  2  0  0  0
 19 21  1  0  0  0
 21 22  2  0  0  0
 22 23  1  0  0  0
 23 24  2  0  0  0
 24 25  1  0  0  0
 25 26  2  0  0  0
 26 27  1  0  0  0
 27 28  2  0  0  0
 28 29  1  0  0  0
 29 30  1  0  0  0
 30 31  2  0  0  0
  7  1  1  0  0  0
 31  8  1  0  0  0
 29  3  1  0  0  0
 14  9  1  0  0  0
 31 15  1  0  0  0
 21 16  1  0  0  0
 30 22  1  0  0  0
 28 23  1  0  0  0
 34 35  1  0  0  0
 18 32  1  0  0  0
M  END
> <minimizedAffinity>
-10.36108

> <CNNscore>
0.3592338562

> <CNNaffinity>
6.5081377029

> <CNN_VS>
2.3379433155

> <CNNaffinity_variance>
0.1501696855

$$$$
[H]c1c([H])c([H])c2c(c1[H])c1c3c(c4c5c([H])c([H])c([H])c([H])c5n5c4c1n2[C@@]1(C([H])([H])[H])O[C@]5([H])C([H])([H])[C@]([H])(N([H])C([H])([H])[H])[C@]1([H])OC([H])([H])[H])C(=O)N([H])C3([H])[H]


 37 44  0  0  0  0  0  0  0  0999 V2000
   -2.4078   21.4840  -16.2619 C   0  0  0  0  0  0  0  0  0  0  0  0
   -2.0062   21.5287  -14.8006 C   0  0  0  0  0  0  0  0  0  0  0  0
   -0.8381   20.6299  -14.5080 C   0  0  0  0  0  0  0  0  0  0  0  0
   -0.7257   19.5011  -15.2034 O   0  0  0  0  0  0  0  0  0  0  0  0
   -1.0326   19.4803  -16.5678 C   0  0  0  0  0  0  0  0  0  0  0  0
   -1.0948   17.9930  -16.8646 C   0  0  0  0  0  0  0  0  0  0  0  0
   -2.4321   20.0496  -16.6679 C   0  0  0  0  0  0  0  0  0  0  0  0
   -0.0280   20.1709  -17.3427 N   0  0  0  0  0  0  0  0  0  0  0  0
    0.2287   19.9423  -18.6541 C   0  0  0  0  0  0  0  0  0  0  0  0
   -0.3530   19.1571  -19.6032 C   0  0  0  0  0  0  0  0  0  0  0  0
    0.0996   19.0991  -20.9235 C   0  0  0  0  0  0  0  0  0  0  0  0
    1.1715   19.8499  -21.3212 C   0  0  0  0  0  0  0  0  0  0  0  0
    1.7633   20.6442  -20.3761 C   0  0  0  0  0  0  0  0  0  0  0  0
    1.3255   20.7091  -19.0711 C   0  0  0  0  0  0  0  0  0  0  0  0
    1.7363   21.4242  -17.9765 C   0  0  0  0  0  0  0  0  0  0  0  0
    2.7578   22.3342  -17.8002 C   0  0  0  0  0  0  0  0  0  0  0  0
    3.7752   22.8501  -18.7488 C   0  0  0  0  0  0  0  0  0  0  0  0
    4.5631   23.7621  -17.9892 N   0  0  0  0  0  0  0  0  0  0  0  0
    4.0782   23.8324  -16.6347 C   0  0  0  0  0  0  0  0  0  0  0  0
    4.6127   24.5670  -15.7946 O   0  0  0  0  0  0  0  0  0  0  0  0
    2.9505   22.9297  -16.5480 C   0  0  0  0  0  0  0  0  0  0  0  0
    2.0864   22.5748  -15.5127 C   0  0  0  0  0  0  0  0  0  0  0  0
    1.9546   22.9700  -14.1831 C   0  0  0  0  0  0  0  0  0  0  0  0
    2.6479   23.8328  -13.4038 C   0  0  0  0  0  0  0  0  0  0  0  0
    2.2474   24.0111  -12.0675 C   0  0  0  0  0  0  0  0  0  0  0  0
    1.1764   23.3242  -11.5662 C   0  0  0  0  0  0  0  0  0  0  0  0
    0.4589   22.4431  -12.3414 C   0  0  0  0  0  0  0  0  0  0  0  0
    0.8635   22.2768  -13.6546 C   0  0  0  0  0  0  0  0  0  0  0  0
    0.3520   21.4936  -14.6137 N   0  0  0  0  0  0  0  0  0  0  0  0
    1.0706   21.6555  -15.7270 C   0  0  0  0  0  0  0  0  0  0  0  0
    0.9161   21.0908  -16.9631 C   0  0  0  0  0  0  0  0  0  0  0  0
    5.3696   24.2921  -18.3759 H   0  0  0  0  0  0  0  0  0  0  0  0
   -3.9342   22.4882  -17.8843 C   0  0  0  0  0  0  0  0  0  0  0  0
   -3.4976   22.2948  -16.5629 N   0  0  0  0  0  0  0  0  0  0  0  0
   -3.5787   23.1810  -16.0210 H   0  0  0  0  0  0  0  0  0  0  0  0
   -3.1768   19.3609  -15.7241 O   0  0  0  0  0  0  0  0  0  0  0  0
   -4.4297   18.9631  -16.0462 C   0  0  0  0  0  0  0  0  0  0  0  0
 33 34  1  0  0  0
 34  1  1  0  0  0
  1  2  1  0  0  0
  2  3  1  0  0  0
  3  4  1  0  0  0
  4  5  1  0  0  0
  5  6  1  0  0  0
  5  7  1  0  0  0
  7 36  1  0  0  0
 36 37  1  0  0  0
  5  8  1  0  0  0
  8  9  1  0  0  0
  9 10  2  0  0  0
 10 11  1  0  0  0
 11 12  2  0  0  0
 12 13  1  0  0  0
 13 14  2  0  0  0
 14 15  1  0  0  0
 15 16  2  0  0  0
 16 17  1  0  0  0
 17 18  1  0  0  0
 18 19  1  0  0  0
 19 20  2  0  0  0
 19 21  1  0  0  0
 21 22  2  0  0  0
 22 23  1  0  0  0
 23 24  2  0  0  0
 24 25  1  0  0  0
 25 26  2  0  0  0
 26 27  1  0  0  0
 27 28  2  0  0  0
 28 29  1  0  0  0
 29 30  1  0  0  0
 30 31  2  0  0  0
  7  1  1  0  0  0
 31  8  1  0  0  0
 29  3  1  0  0  0
 14  9  1  0  0  0
 31 15  1  0  0  0
 21 16  1  0  0  0
 30 22  1  0  0  0
 28 23  1  0  0  0
 34 35  1  0  0  0
 18 32  1  0  0  0
M  END
> <minimizedAffinity>
-5.74713

> <CNNscore>
0.3096060157

> <CNNaffinity>
5.3685660362

> <CNN_VS>
1.6621403694

> <CNNaffinity_variance>
0.1529362500

$$$$
[H]c1c([H])c([H])c2c(c1[H])c1c3c(c4c5c([H])c([H])c([H])c([H])c5n5c4c1n2[C@@]1(C([H])([H])[H])O[C@]5([H])C([H])([H])[C@]([H])(N([H])C([H])([H])[H])[C@]1([H])OC([H])([H])[H])C(=O)N([H])C3([H])[H]


 37 44  0  0  0  0  0  0  0  0999 V2000
   -4.7869   25.7263  -26.1246 C   0  0  0  0  0  0  0  0  0  0  0  0
   -6.0706   25.2726  -25.4576 C   0  0  0  0  0  0  0  0  0  0  0  0
   -6.2654   23.7862  -25.5599 C   0  0  0  0  0  0  0  0  0  0  0  0
   -5.8177   23.1685  -26.6500 O   0  0  0  0  0  0  0  0  0  0  0  0
   -4.5988   23.5453  -27.2232 C   0  0  0  0  0  0  0  0  0  0  0  0
   -4.6460   22.8522  -28.5729 C   0  0  0  0  0  0  0  0  0  0  0  0
   -4.7104   25.0389  -27.4453 C   0  0  0  0  0  0  0  0  0  0  0  0
   -3.4828   23.1236  -26.4088 N   0  0  0  0  0  0  0  0  0  0  0  0
   -2.2265   22.9089  -26.8709 C   0  0  0  0  0  0  0  0  0  0  0  0
   -1.6276   23.0828  -28.0819 C   0  0  0  0  0  0  0  0  0  0  0  0
   -0.2811   22.7913  -28.3128 C   0  0  0  0  0  0  0  0  0  0  0  0
    0.5055   22.3087  -27.3031 C   0  0  0  0  0  0  0  0  0  0  0  0
   -0.0855   22.1313  -26.0809 C   0  0  0  0  0  0  0  0  0  0  0  0
   -1.4126   22.4153  -25.8420 C   0  0  0  0  0  0  0  0  0  0  0  0
   -2.2044   22.3364  -24.7262 C   0  0  0  0  0  0  0  0  0  0  0  0
   -1.9409   21.9259  -23.4359 C   0  0  0  0  0  0  0  0  0  0  0  0
   -0.6939   21.4187  -22.8122 C   0  0  0  0  0  0  0  0  0  0  0  0
   -1.0381   21.1533  -21.4556 N   0  0  0  0  0  0  0  0  0  0  0  0
   -2.4220   21.4755  -21.2197 C   0  0  0  0  0  0  0  0  0  0  0  0
   -2.9393   21.3254  -20.1057 O   0  0  0  0  0  0  0  0  0  0  0  0
   -2.9585   21.9554  -22.4751 C   0  0  0  0  0  0  0  0  0  0  0  0
   -4.2178   22.4080  -22.8667 C   0  0  0  0  0  0  0  0  0  0  0  0
   -5.4270   22.6017  -22.2021 C   0  0  0  0  0  0  0  0  0  0  0  0
   -5.8224   22.3891  -20.9250 C   0  0  0  0  0  0  0  0  0  0  0  0
   -7.1465   22.6975  -20.5651 C   0  0  0  0  0  0  0  0  0  0  0  0
   -8.0176   23.2029  -21.4903 C   0  0  0  0  0  0  0  0  0  0  0  0
   -7.6357   23.4261  -22.7927 C   0  0  0  0  0  0  0  0  0  0  0  0
   -6.3300   23.1184  -23.1337 C   0  0  0  0  0  0  0  0  0  0  0  0
   -5.7046   23.2347  -24.3129 N   0  0  0  0  0  0  0  0  0  0  0  0
   -4.4459   22.8124  -24.1733 C   0  0  0  0  0  0  0  0  0  0  0  0
   -3.4281   22.7650  -25.0858 C   0  0  0  0  0  0  0  0  0  0  0  0
   -0.3706   20.7801  -20.7511 H   0  0  0  0  0  0  0  0  0  0  0  0
   -3.8997   27.7000  -24.9897 C   0  0  0  0  0  0  0  0  0  0  0  0
   -4.5843   27.1014  -26.0606 N   0  0  0  0  0  0  0  0  0  0  0  0
   -5.3813   27.7011  -26.3619 H   0  0  0  0  0  0  0  0  0  0  0  0
   -5.9256   25.2252  -28.0842 O   0  0  0  0  0  0  0  0  0  0  0  0
   -5.9369   25.8047  -29.3073 C   0  0  0  0  0  0  0  0  0  0  0  0
 33 34  1  0  0  0
 34  1  1  0  0  0
  1  2  1  0  0  0
  2  3  1  0  0  0
  3  4  1  0  0  0
  4  5  1  0  0  0
  5  6  1  0  0  0
  5  7  1  0  0  0
  7 36  1  0  0  0
 36 37  1  0  0  0
  5  8  1  0  0  0
  8  9  1  0  0  0
  9 10  2  0  0  0
 10 11  1  0  0  0
 11 12  2  0  0  0
 12 13  1  0  0  0
 13 14  2  0  0  0
 14 15  1  0  0  0
 15 16  2  0  0  0
 16 17  1  0  0  0
 17 18  1  0  0  0
 18 19  1  0  0  0
 19 20  2  0  0  0
 19 21  1  0  0  0
 21 22  2  0  0  0
 22 23  1  0  0  0
 23 24  2  0  0  0
 24 25  1  0  0  0
 25 26  2  0  0  0
 26 27  1  0  0  0
 27 28  2  0  0  0
 28 29  1  0  0  0
 29 30  1  0  0  0
 30 31  2  0  0  0
  7  1  1  0  0  0
 31  8  1  0  0  0
 29  3  1  0  0  0
 14  9  1  0  0  0
 31 15  1  0  0  0
 21 16  1  0  0  0
 30 22  1  0  0  0
 28 23  1  0  0  0
 34 35  1  0  0  0
 18 32  1  0  0  0
M  END
> <minimizedAffinity>
-10.84664

> <CNNscore>
0.2814891040

> <CNNaffinity>
6.6113176346

> <CNN_VS>
1.8610138893

> <CNNaffinity_variance>
0.4469131827

$$$$
[H]c1c([H])c([H])c2c(c1[H])c1c3c(c4c5c([H])c([H])c([H])c([H])c5n5c4c1n2[C@@]1(C([H])([H])[H])O[C@]5([H])C([H])([H])[C@]([H])(N([H])C([H])([H])[H])[C@]1([H])OC([H])([H])[H])C(=O)N([H])C3([H])[H]


 37 44  0  0  0  0  0  0  0  0999 V2000
   -3.7722   21.6999  -20.9436 C   0  0  0  0  0  0  0  0  0  0  0  0
   -4.5518   22.9208  -21.3911 C   0  0  0  0  0  0  0  0  0  0  0  0
   -3.6514   24.0815  -21.7068 C   0  0  0  0  0  0  0  0  0  0  0  0
   -2.5330   24.2184  -20.9991 O   0  0  0  0  0  0  0  0  0  0  0  0
   -1.7802   23.0937  -20.6462 C   0  0  0  0  0  0  0  0  0  0  0  0
   -0.8285   23.6531  -19.6043 C   0  0  0  0  0  0  0  0  0  0  0  0
   -2.7561   22.1641  -19.9562 C   0  0  0  0  0  0  0  0  0  0  0  0
   -1.1008   22.5357  -21.7924 N   0  0  0  0  0  0  0  0  0  0  0  0
    0.0253   21.7832  -21.7324 C   0  0  0  0  0  0  0  0  0  0  0  0
    0.7625   21.2740  -20.7062 C   0  0  0  0  0  0  0  0  0  0  0  0
    1.9077   20.4992  -20.9045 C   0  0  0  0  0  0  0  0  0  0  0  0
    2.3409   20.2157  -22.1706 C   0  0  0  0  0  0  0  0  0  0  0  0
    1.6070   20.7211  -23.2100 C   0  0  0  0  0  0  0  0  0  0  0  0
    0.4759   21.4866  -23.0261 C   0  0  0  0  0  0  0  0  0  0  0  0
   -0.4109   22.0753  -23.8894 C   0  0  0  0  0  0  0  0  0  0  0  0
   -0.4692   22.1135  -25.2670 C   0  0  0  0  0  0  0  0  0  0  0  0
    0.4247   21.5258  -26.2949 C   0  0  0  0  0  0  0  0  0  0  0  0
   -0.1449   21.9059  -27.5441 N   0  0  0  0  0  0  0  0  0  0  0  0
   -1.3365   22.6869  -27.3322 C   0  0  0  0  0  0  0  0  0  0  0  0
   -1.9995   23.1240  -28.2811 O   0  0  0  0  0  0  0  0  0  0  0  0
   -1.5126   22.7991  -25.9003 C   0  0  0  0  0  0  0  0  0  0  0  0
   -2.4680   23.4243  -25.0998 C   0  0  0  0  0  0  0  0  0  0  0  0
   -3.6283   24.1490  -25.3641 C   0  0  0  0  0  0  0  0  0  0  0  0
   -4.2349   24.5335  -26.5116 C   0  0  0  0  0  0  0  0  0  0  0  0
   -5.4270   25.2755  -26.4324 C   0  0  0  0  0  0  0  0  0  0  0  0
   -5.9622   25.6018  -25.2169 C   0  0  0  0  0  0  0  0  0  0  0  0
   -5.3614   25.2208  -24.0396 C   0  0  0  0  0  0  0  0  0  0  0  0
   -4.1889   24.4911  -24.1316 C   0  0  0  0  0  0  0  0  0  0  0  0
   -3.4090   24.0007  -23.1588 N   0  0  0  0  0  0  0  0  0  0  0  0
   -2.3766   23.3650  -23.7175 C   0  0  0  0  0  0  0  0  0  0  0  0
   -1.3400   22.6897  -23.1343 C   0  0  0  0  0  0  0  0  0  0  0  0
    0.2575   21.6464  -28.4670 H   0  0  0  0  0  0  0  0  0  0  0  0
   -5.8333   20.7712  -20.0163 C   0  0  0  0  0  0  0  0  0  0  0  0
   -4.5790   20.6110  -20.6287 N   0  0  0  0  0  0  0  0  0  0  0  0
   -4.0945   19.7707  -20.2480 H   0  0  0  0  0  0  0  0  0  0  0  0
   -3.4109   22.9484  -19.0204 O   0  0  0  0  0  0  0  0  0  0  0  0
   -3.5274   22.4896  -17.7525 C   0  0  0  0  0  0  0  0  0  0  0  0
 33 34  1  0  0  0
 34  1  1  0  0  0
  1  2  1  0  0  0
  2  3  1  0  0  0
  3  4  1  0  0  0
  4  5  1  0  0  0
  5  6  1  0  0  0
  5  7  1  0  0  0
  7 36  1  0  0  0
 36 37  1  0  0  0
  5  8  1  0  0  0
  8  9  1  0  0  0
  9 10  2  0  0  0
 10 11  1  0  0  0
 11 12  2  0  0  0
 12 13  1  0  0  0
 13 14  2  0  0  0
 14 15  1  0  0  0
 15 16  2  0  0  0
 16 17  1  0  0  0
 17 18  1  0  0  0
 18 19  1  0  0  0
 19 20  2  0  0  0
 19 21  1  0  0  0
 21 22  2  0  0  0
 22 23  1  0  0  0
 23 24  2  0  0  0
 24 25  1  0  0  0
 25 26  2  0  0  0
 26 27  1  0  0  0
 27 28  2  0  0  0
 28 29  1  0  0  0
 29 30  1  0  0  0
 30 31  2  0  0  0
  7  1  1  0  0  0
 31  8  1  0  0  0
 29  3  1  0  0  0
 14  9  1  0  0  0
 31 15  1  0  0  0
 21 16  1  0  0  0
 30 22  1  0  0  0
 28 23  1  0  0  0
 34 35  1  0  0  0
 18 32  1  0  0  0
M  END
> <minimizedAffinity>
-8.29313

> <CNNscore>
0.2631576359

> <CNNaffinity>
6.2783098221

> <CNN_VS>
1.6521852016

> <CNNaffinity_variance>
0.1948463619

$$$$
[H]c1c([H])c([H])c2c(c1[H])c1c3c(c4c5c([H])c([H])c([H])c([H])c5n5c4c1n2[C@@]1(C([H])([H])[H])O[C@]5([H])C([H])([H])[C@]([H])(N([H])C([H])([H])[H])[C@]1([H])OC([H])([H])[H])C(=O)N([H])C3([H])[H]


 37 44  0  0  0  0  0  0  0  0999 V2000
   -0.9312   20.5122  -18.0241 C   0  0  0  0  0  0  0  0  0  0  0  0
   -0.8823   20.7061  -16.5212 C   0  0  0  0  0  0  0  0  0  0  0  0
    0.2881   19.9991  -15.8982 C   0  0  0  0  0  0  0  0  0  0  0  0
    0.6921   18.8546  -16.4434 O   0  0  0  0  0  0  0  0  0  0  0  0
    0.7097   18.7038  -17.8338 C   0  0  0  0  0  0  0  0  0  0  0  0
    0.8974   17.2062  -17.9962 C   0  0  0  0  0  0  0  0  0  0  0  0
   -0.6883   19.0653  -18.2893 C   0  0  0  0  0  0  0  0  0  0  0  0
    1.7734   19.4761  -18.4325 N   0  0  0  0  0  0  0  0  0  0  0  0
    2.3485   19.2017  -19.6292 C   0  0  0  0  0  0  0  0  0  0  0  0
    2.0984   18.2839  -20.6042 C   0  0  0  0  0  0  0  0  0  0  0  0
    2.8440   18.2047  -21.7828 C   0  0  0  0  0  0  0  0  0  0  0  0
    3.8794   19.0702  -22.0061 C   0  0  0  0  0  0  0  0  0  0  0  0
    4.1392   19.9980  -21.0335 C   0  0  0  0  0  0  0  0  0  0  0  0
    3.4104   20.0852  -19.8673 C   0  0  0  0  0  0  0  0  0  0  0  0
    3.4708   20.9192  -18.7815 C   0  0  0  0  0  0  0  0  0  0  0  0
    4.3071   21.9719  -18.4730 C   0  0  0  0  0  0  0  0  0  0  0  0
    5.4441   22.5623  -19.2213 C   0  0  0  0  0  0  0  0  0  0  0  0
    5.9213   23.6218  -18.3973 N   0  0  0  0  0  0  0  0  0  0  0  0
    5.1351   23.7108  -17.1937 C   0  0  0  0  0  0  0  0  0  0  0  0
    5.3708   24.5650  -16.3300 O   0  0  0  0  0  0  0  0  0  0  0  0
    4.1353   22.6675  -17.2704 C   0  0  0  0  0  0  0  0  0  0  0  0
    3.1072   22.2632  -16.4196 C   0  0  0  0  0  0  0  0  0  0  0  0
    2.6285   22.7208  -15.1938 C   0  0  0  0  0  0  0  0  0  0  0  0
    3.0158   23.7198  -14.3666 C   0  0  0  0  0  0  0  0  0  0  0  0
    2.3022   23.9262  -13.1723 C   0  0  0  0  0  0  0  0  0  0  0  0
    1.2363   23.1307  -12.8542 C   0  0  0  0  0  0  0  0  0  0  0  0
    0.8268   22.1104  -13.6809 C   0  0  0  0  0  0  0  0  0  0  0  0
    1.5376   21.9180  -14.8529 C   0  0  0  0  0  0  0  0  0  0  0  0
    1.3574   21.0113  -15.8227 N   0  0  0  0  0  0  0  0  0  0  0  0
    2.2861   21.1998  -16.7629 C   0  0  0  0  0  0  0  0  0  0  0  0
    2.4875   20.5409  -17.9444 C   0  0  0  0  0  0  0  0  0  0  0  0
    6.7246   24.2328  -18.6470 H   0  0  0  0  0  0  0  0  0  0  0  0
   -2.2471   22.5199  -18.4804 C   0  0  0  0  0  0  0  0  0  0  0  0
   -2.0134   21.1426  -18.6300 N   0  0  0  0  0  0  0  0  0  0  0  0
   -2.9147   20.6197  -18.6271 H   0  0  0  0  0  0  0  0  0  0  0  0
   -1.5399   18.3418  -17.4701 O   0  0  0  0  0  0  0  0  0  0  0  0
   -2.6275   17.7523  -18.0189 C   0  0  0  0  0  0  0  0  0  0  0  0
 33 34  1  0  0  0
 34  1  1  0  0  0
  1  2  1  0  0  0
  2  3  1  0  0  0
  3  4  1  0  0  0
  4  5  1  0  0  0
  5  6  1  0  0  0
  5  7  1  0  0  0
  7 36  1  0  0  0
 36 37  1  0  0  0
  5  8  1  0  0  0
  8  9  1  0  0  0
  9 10  2  0  0  0
 10 11  1  0  0  0
 11 12  2  0  0  0
 12 13  1  0  0  0
 13 14  2  0  0  0
 14 15  1  0  0  0
 15 16  2  0  0  0
 16 17  1  0  0  0
 17 18  1  0  0  0
 18 19  1  0  0  0
 19 20  2  0  0  0
 19 21  1  0  0  0
 21 22  2  0  0  0
 22 23  1  0  0  0
 23 24  2  0  0  0
 24 25  1  0  0  0
 25 26  2  0  0  0
 26 27  1  0  0  0
 27 28  2  0  0  0
 28 29  1  0  0  0
 29 30  1  0  0  0
 30 31  2  0  0  0
  7  1  1  0  0  0
 31  8  1  0  0  0
 29  3  1  0  0  0
 14  9  1  0  0  0
 31 15  1  0  0  0
 21 16  1  0  0  0
 30 22  1  0  0  0
 28 23  1  0  0  0
 34 35  1  0  0  0
 18 32  1  0  0  0
M  END
> <minimizedAffinity>
-5.75819

> <CNNscore>
0.2458883971

> <CNNaffinity>
5.2375693321

> <CNN_VS>
1.2878575325

> <CNNaffinity_variance>
0.2639264762

$$$$
[H]c1c([H])c([H])c2c(c1[H])c1c3c(c4c5c([H])c([H])c([H])c([H])c5n5c4c1n2[C@@]1(C([H])([H])[H])O[C@]5([H])C([H])([H])[C@]([H])(N([H])C([H])([H])[H])[C@]1([H])OC([H])([H])[H])C(=O)N([H])C3([H])[H]


 37 44  0  0  0  0  0  0  0  0999 V2000
   -4.1959   25.2344  -24.2330 C   0  0  0  0  0  0  0  0  0  0  0  0
   -4.9136   24.5212  -23.1039 C   0  0  0  0  0  0  0  0  0  0  0  0
   -4.9740   23.0357  -23.3220 C   0  0  0  0  0  0  0  0  0  0  0  0
   -5.0721   22.5888  -24.5715 O   0  0  0  0  0  0  0  0  0  0  0  0
   -4.3546   23.2082  -25.6000 C   0  0  0  0  0  0  0  0  0  0  0  0
   -4.9998   22.6245  -26.8439 C   0  0  0  0  0  0  0  0  0  0  0  0
   -4.7210   24.6746  -25.5112 C   0  0  0  0  0  0  0  0  0  0  0  0
   -2.9430   22.9174  -25.5046 N   0  0  0  0  0  0  0  0  0  0  0  0
   -2.0746   22.9531  -26.5451 C   0  0  0  0  0  0  0  0  0  0  0  0
   -2.1880   23.3189  -27.8524 C   0  0  0  0  0  0  0  0  0  0  0  0
   -1.1179   23.2762  -28.7492 C   0  0  0  0  0  0  0  0  0  0  0  0
    0.1158   22.8551  -28.3349 C   0  0  0  0  0  0  0  0  0  0  0  0
    0.2421   22.4862  -27.0225 C   0  0  0  0  0  0  0  0  0  0  0  0
   -0.8066   22.5242  -26.1293 C   0  0  0  0  0  0  0  0  0  0  0  0
   -0.9165   22.2268  -24.7959 C   0  0  0  0  0  0  0  0  0  0  0  0
    0.0018   21.7670  -23.8752 C   0  0  0  0  0  0  0  0  0  0  0  0
    1.4391   21.4289  -24.0206 C   0  0  0  0  0  0  0  0  0  0  0  0
    1.8540   21.0046  -22.7255 N   0  0  0  0  0  0  0  0  0  0  0  0
    0.7511   21.0707  -21.8015 C   0  0  0  0  0  0  0  0  0  0  0  0
    0.8832   20.7496  -20.6139 O   0  0  0  0  0  0  0  0  0  0  0  0
   -0.3913   21.5504  -22.5492 C   0  0  0  0  0  0  0  0  0  0  0  0
   -1.7168   21.8146  -22.2063 C   0  0  0  0  0  0  0  0  0  0  0  0
   -2.4407   21.7503  -21.0175 C   0  0  0  0  0  0  0  0  0  0  0  0
   -2.1153   21.3755  -19.7581 C   0  0  0  0  0  0  0  0  0  0  0  0
   -3.1032   21.4284  -18.7585 C   0  0  0  0  0  0  0  0  0  0  0  0
   -4.3694   21.8513  -19.0555 C   0  0  0  0  0  0  0  0  0  0  0  0
   -4.7202   22.2363  -20.3286 C   0  0  0  0  0  0  0  0  0  0  0  0
   -3.7387   22.1794  -21.3029 C   0  0  0  0  0  0  0  0  0  0  0  0
   -3.8073   22.4905  -22.6043 N   0  0  0  0  0  0  0  0  0  0  0  0
   -2.6124   22.2757  -23.1593 C   0  0  0  0  0  0  0  0  0  0  0  0
   -2.1928   22.4709  -24.4464 C   0  0  0  0  0  0  0  0  0  0  0  0
    2.8204   20.6948  -22.4996 H   0  0  0  0  0  0  0  0  0  0  0  0
   -4.0300   27.4873  -25.1643 C   0  0  0  0  0  0  0  0  0  0  0  0
   -4.1364   26.6147  -24.0684 N   0  0  0  0  0  0  0  0  0  0  0  0
   -3.5611   26.9613  -23.2718 H   0  0  0  0  0  0  0  0  0  0  0  0
   -6.1045   24.7038  -25.4429 O   0  0  0  0  0  0  0  0  0  0  0  0
   -6.7860   25.4496  -26.3435 C   0  0  0  0  0  0  0  0  0  0  0  0
 33 34  1  0  0  0
 34  1  1  0  0  0
  1  2  1  0  0  0
  2  3  1  0  0  0
  3  4  1  0  0  0
  4  5  1  0  0  0
  5  6  1  0  0  0
  5  7  1  0  0  0
  7 36  1  0  0  0
 36 37  1  0  0  0
  5  8  1  0  0  0
  8  9  1  0  0  0
  9 10  2  0  0  0
 10 11  1  0  0  0
 11 12  2  0  0  0
 12 13  1  0  0  0
 13 14  2  0  0  0
 14 15  1  0  0  0
 15 16  2  0  0  0
 16 17  1  0  0  0
 17 18  1  0  0  0
 18 19  1  0  0  0
 19 20  2  0  0  0
 19 21  1  0  0  0
 21 22  2  0  0  0
 22 23  1  0  0  0
 23 24  2  0  0  0
 24 25  1  0  0  0
 25 26  2  0  0  0
 26 27  1  0  0  0
 27 28  2  0  0  0
 28 29  1  0  0  0
 29 30  1  0  0  0
 30 31  2  0  0  0
  7  1  1  0  0  0
 31  8  1  0  0  0
 29  3  1  0  0  0
 14  9  1  0  0  0
 31 15  1  0  0  0
 21 16  1  0  0  0
 30 22  1  0  0  0
 28 23  1  0  0  0
 34 35  1  0  0  0
 18 32  1  0  0  0
M  END
> <minimizedAffinity>
-10.51644

> <CNNscore>
0.2022876441

> <CNNaffinity>
6.1796164513

> <CNN_VS>
1.2500600815

> <CNNaffinity_variance>
0.6510413885

$$$$
[H]c1c([H])c([H])c2c(c1[H])c1c3c(c4c5c([H])c([H])c([H])c([H])c5n5c4c1n2[C@@]1(C([H])([H])[H])O[C@]5([H])C([H])([H])[C@]([H])(N([H])C([H])([H])[H])[C@]1([H])OC([H])([H])[H])C(=O)N([H])C3([H])[H]


 37 44  0  0  0  0  0  0  0  0999 V2000
   -5.0108   22.9256  -15.6278 C   0  0  0  0  0  0  0  0  0  0  0  0
   -3.6066   22.3700  -15.4931 C   0  0  0  0  0  0  0  0  0  0  0  0
   -3.3869   21.1708  -16.3714 C   0  0  0  0  0  0  0  0  0  0  0  0
   -4.4160   20.3559  -16.5892 O   0  0  0  0  0  0  0  0  0  0  0  0
   -5.6996   20.8772  -16.7807 C   0  0  0  0  0  0  0  0  0  0  0  0
   -6.5741   19.6429  -16.6546 C   0  0  0  0  0  0  0  0  0  0  0  0
   -5.9486   21.7675  -15.5815 C   0  0  0  0  0  0  0  0  0  0  0  0
   -5.8169   21.5255  -18.0662 N   0  0  0  0  0  0  0  0  0  0  0  0
   -6.9805   21.7035  -18.7386 C   0  0  0  0  0  0  0  0  0  0  0  0
   -8.2864   21.4554  -18.4403 C   0  0  0  0  0  0  0  0  0  0  0  0
   -9.3345   21.7438  -19.3176 C   0  0  0  0  0  0  0  0  0  0  0  0
   -9.0799   22.3018  -20.5402 C   0  0  0  0  0  0  0  0  0  0  0  0
   -7.7710   22.5569  -20.8504 C   0  0  0  0  0  0  0  0  0  0  0  0
   -6.7294   22.2765  -19.9929 C   0  0  0  0  0  0  0  0  0  0  0  0
   -5.3726   22.4526  -20.0733 C   0  0  0  0  0  0  0  0  0  0  0  0
   -4.5675   22.9713  -21.0660 C   0  0  0  0  0  0  0  0  0  0  0  0
   -4.9029   23.5172  -22.4041 C   0  0  0  0  0  0  0  0  0  0  0  0
   -3.6537   23.8951  -22.9752 N   0  0  0  0  0  0  0  0  0  0  0  0
   -2.5800   23.6140  -22.0573 C   0  0  0  0  0  0  0  0  0  0  0  0
   -1.4027   23.8647  -22.3441 O   0  0  0  0  0  0  0  0  0  0  0  0
   -3.1824   23.0378  -20.8744 C   0  0  0  0  0  0  0  0  0  0  0  0
   -2.6638   22.5714  -19.6670 C   0  0  0  0  0  0  0  0  0  0  0  0
   -1.3824   22.5083  -19.1236 C   0  0  0  0  0  0  0  0  0  0  0  0
   -0.1622   22.8577  -19.5941 C   0  0  0  0  0  0  0  0  0  0  0  0
    0.9628   22.6605  -18.7736 C   0  0  0  0  0  0  0  0  0  0  0  0
    0.8245   22.1250  -17.5228 C   0  0  0  0  0  0  0  0  0  0  0  0
   -0.4062   21.7634  -17.0261 C   0  0  0  0  0  0  0  0  0  0  0  0
   -1.5051   21.9628  -17.8438 C   0  0  0  0  0  0  0  0  0  0  0  0
   -2.7993   21.7029  -17.6145 N   0  0  0  0  0  0  0  0  0  0  0  0
   -3.5041   22.0559  -18.6918 C   0  0  0  0  0  0  0  0  0  0  0  0
   -4.8522   22.0026  -18.9168 C   0  0  0  0  0  0  0  0  0  0  0  0
   -3.5525   24.3130  -23.9218 H   0  0  0  0  0  0  0  0  0  0  0  0
   -6.5300   24.5998  -14.7007 C   0  0  0  0  0  0  0  0  0  0  0  0
   -5.2514   24.0288  -14.8149 N   0  0  0  0  0  0  0  0  0  0  0  0
   -4.5212   24.7721  -14.8154 H   0  0  0  0  0  0  0  0  0  0  0  0
   -5.6108   21.0003  -14.4783 O   0  0  0  0  0  0  0  0  0  0  0  0
   -6.3968   21.0591  -13.3781 C   0  0  0  0  0  0  0  0  0  0  0  0
 33 34  1  0  0  0
 34  1  1  0  0  0
  1  2  1  0  0  0
  2  3  1  0  0  0
  3  4  1  0  0  0
  4  5  1  0  0  0
  5  6  1  0  0  0
  5  7  1  0  0  0
  7 36  1  0  0  0
 36 37  1  0  0  0
  5  8  1  0  0  0
  8  9  1  0  0  0
  9 10  2  0  0  0
 10 11  1  0  0  0
 11 12  2  0  0  0
 12 13  1  0  0  0
 13 14  2  0  0  0
 14 15  1  0  0  0
 15 16  2  0  0  0
 16 17  1  0  0  0
 17 18  1  0  0  0
 18 19  1  0  0  0
 19 20  2  0  0  0
 19 21  1  0  0  0
 21 22  2  0  0  0
 22 23  1  0  0  0
 23 24  2  0  0  0
 24 25  1  0  0  0
 25 26  2  0  0  0
 26 27  1  0  0  0
 27 28  2  0  0  0
 28 29  1  0  0  0
 29 30  1  0  0  0
 30 31  2  0  0  0
  7  1  1  0  0  0
 31  8  1  0  0  0
 29  3  1  0  0  0
 14  9  1  0  0  0
 31 15  1  0  0  0
 21 16  1  0  0  0
 30 22  1  0  0  0
 28 23  1  0  0  0
 34 35  1  0  0  0
 18 32  1  0  0  0
M  END
> <minimizedAffinity>
-6.75254

> <CNNscore>
0.1943821162

> <CNNaffinity>
5.3804254532

> <CNN_VS>
1.0458585024

> <CNNaffinity_variance>
0.2925951183

$$$$
[H]O[C@]1([H])C([H])([H])C([H])([H])[C@@]([H])(N([H])C(=O)c2c([H])c(OC([H])([H])[H])c(OC([H])([H])[H])c(OC([H])([H])[H])c2[H])C([H])([H])C1([H])[H]


 24 25  0  0  0  0  0  0  0  0999 V2000
   -2.5137   22.2050  -25.7394 C   0  0  0  0  0  0  0  0  0  0  0  0
   -3.5188   22.2573  -24.8013 C   0  0  0  0  0  0  0  0  0  0  0  0
   -3.2429   22.0852  -23.4397 C   0  0  0  0  0  0  0  0  0  0  0  0
   -1.9379   21.8651  -23.0951 C   0  0  0  0  0  0  0  0  0  0  0  0
   -0.9131   21.8117  -24.0511 C   0  0  0  0  0  0  0  0  0  0  0  0
   -1.1906   21.9818  -25.3890 C   0  0  0  0  0  0  0  0  0  0  0  0
   -4.3396   22.1490  -22.4791 C   0  0  0  0  0  0  0  0  0  0  0  0
   -5.4707   21.6510  -22.7752 O   0  0  0  0  0  0  0  0  0  0  0  0
   -4.1596   22.7584  -21.2223 N   0  0  0  0  0  0  0  0  0  0  0  0
   -3.2465   23.1655  -20.9703 H   0  0  0  0  0  0  0  0  0  0  0  0
   -5.2347   22.8169  -20.2903 C   0  0  0  0  0  0  0  0  0  0  0  0
   -4.7759   22.5302  -18.8579 C   0  0  0  0  0  0  0  0  0  0  0  0
   -6.0456   22.2615  -18.0699 C   0  0  0  0  0  0  0  0  0  0  0  0
   -7.0019   23.4046  -18.1100 C   0  0  0  0  0  0  0  0  0  0  0  0
   -8.2640   22.9009  -17.7149 O   0  0  0  0  0  0  0  0  0  0  0  0
   -7.1768   24.0261  -19.4498 C   0  0  0  0  0  0  0  0  0  0  0  0
   -5.9269   24.1561  -20.2514 C   0  0  0  0  0  0  0  0  0  0  0  0
   -8.6748   22.5538  -18.5460 H   0  0  0  0  0  0  0  0  0  0  0  0
   -3.9219   23.1091  -27.4611 C   0  0  0  0  0  0  0  0  0  0  0  0
   -2.7689   22.3744  -27.1021 O   0  0  0  0  0  0  0  0  0  0  0  0
    0.4058   21.5873  -23.6821 O   0  0  0  0  0  0  0  0  0  0  0  0
    0.6638   21.1586  -22.3624 C   0  0  0  0  0  0  0  0  0  0  0  0
   -0.2036   21.9361  -26.3679 O   0  0  0  0  0  0  0  0  0  0  0  0
    0.3695   23.1412  -26.8666 C   0  0  0  0  0  0  0  0  0  0  0  0
 19 20  1  0  0  0
 20  1  1  0  0  0
  1  2  2  0  0  0
  2  3  1  0  0  0
  3  4  2  0  0  0
  4  5  1  0  0  0
  5 21  1  0  0  0
 21 22  1  0  0  0
  5  6  2  0  0  0
  6 23  1  0  0  0
 23 24  1  0  0  0
  3  7  1  0  0  0
  7  8  2  0  0  0
  7  9  1  0  0  0
  9 11  1  0  0  0
 11 12  1  0  0  0
 12 13  1  0  0  0
 13 14  1  0  0  0
 14 15  1  0  0  0
 14 16  1  0  0  0
 16 17  1  0  0  0
  6  1  1  0  0  0
 17 11  1  0  0  0
  9 10  1  0  0  0
 15 18  1  0  0  0
M  END
> <minimizedAffinity>
-5.24158

> <CNNscore>
0.3426494300

> <CNNaffinity>
4.7525115013

> <CNN_VS>
1.6284453869

> <CNNaffinity_variance>
0.0943910703

$$$$
[H]O[C@]1([H])C([H])([H])C([H])([H])[C@@]([H])(N([H])C(=O)c2c([H])c(OC([H])([H])[H])c(OC([H])([H])[H])c(OC([H])([H])[H])c2[H])C([H])([H])C1([H])[H]


 24 25  0  0  0  0  0  0  0  0999 V2000
   -3.7688   23.2542  -26.4480 C   0  0  0  0  0  0  0  0  0  0  0  0
   -4.1097   23.5415  -25.1464 C   0  0  0  0  0  0  0  0  0  0  0  0
   -3.1963   23.3486  -24.1033 C   0  0  0  0  0  0  0  0  0  0  0  0
   -1.9625   22.8655  -24.4416 C   0  0  0  0  0  0  0  0  0  0  0  0
   -1.6146   22.5724  -25.7684 C   0  0  0  0  0  0  0  0  0  0  0  0
   -2.5174   22.7643  -26.7903 C   0  0  0  0  0  0  0  0  0  0  0  0
   -3.6000   23.6672  -22.7376 C   0  0  0  0  0  0  0  0  0  0  0  0
   -2.7356   24.0763  -21.9006 O   0  0  0  0  0  0  0  0  0  0  0  0
   -4.9417   23.5263  -22.3334 N   0  0  0  0  0  0  0  0  0  0  0  0
   -5.6522   23.1958  -23.0034 H   0  0  0  0  0  0  0  0  0  0  0  0
   -5.3280   23.8390  -20.9990 C   0  0  0  0  0  0  0  0  0  0  0  0
   -6.6116   24.6723  -20.9476 C   0  0  0  0  0  0  0  0  0  0  0  0
   -6.6801   25.2276  -19.5361 C   0  0  0  0  0  0  0  0  0  0  0  0
   -6.6900   24.1593  -18.4961 C   0  0  0  0  0  0  0  0  0  0  0  0
   -6.3439   24.7744  -17.2694 O   0  0  0  0  0  0  0  0  0  0  0  0
   -5.7185   23.0566  -18.7240 C   0  0  0  0  0  0  0  0  0  0  0  0
   -5.5799   22.6231  -20.1434 C   0  0  0  0  0  0  0  0  0  0  0  0
   -5.3544   24.7618  -17.2447 H   0  0  0  0  0  0  0  0  0  0  0  0
   -5.9943   23.7919  -27.1710 C   0  0  0  0  0  0  0  0  0  0  0  0
   -4.6660   23.4400  -27.5023 O   0  0  0  0  0  0  0  0  0  0  0  0
   -0.3572   22.0827  -26.0924 O   0  0  0  0  0  0  0  0  0  0  0  0
    0.5435   21.8131  -25.0398 C   0  0  0  0  0  0  0  0  0  0  0  0
   -2.2118   22.4862  -28.1183 O   0  0  0  0  0  0  0  0  0  0  0  0
   -1.4842   23.4288  -28.9004 C   0  0  0  0  0  0  0  0  0  0  0  0
 19 20  1  0  0  0
 20  1  1  0  0  0
  1  2  2  0  0  0
  2  3  1  0  0  0
  3  4  2  0  0  0
  4  5  1  0  0  0
  5 21  1  0  0  0
 21 22  1  0  0  0
  5  6  2  0  0  0
  6 23  1  0  0  0
 23 24  1  0  0  0
  3  7  1  0  0  0
  7  8  2  0  0  0
  7  9  1  0  0  0
  9 11  1  0  0  0
 11 12  1  0  0  0
 12 13  1  0  0  0
 13 14  1  0  0  0
 14 15  1  0  0  0
 14 16  1  0  0  0
 16 17  1  0  0  0
  6  1  1  0  0  0
 17 11  1  0  0  0
  9 10  1  0  0  0
 15 18  1  0  0  0
M  END
> <minimizedAffinity>
-5.90154

> <CNNscore>
0.3186237812

> <CNNaffinity>
5.1779603958

> <CNN_VS>
1.6498212814

> <CNNaffinity_variance>
0.1689529270

$$$$
[H]O[C@]1([H])C([H])([H])C([H])([H])[C@@]([H])(N([H])C(=O)c2c([H])c(OC([H])([H])[H])c(OC([H])([H])[H])c(OC([H])([H])[H])c2[H])C([H])([H])C1([H])[H]


 24 25  0  0  0  0  0  0  0  0999 V2000
   -1.9499   22.4922  -26.3203 C   0  0  0  0  0  0  0  0  0  0  0  0
   -1.4307   22.5074  -25.0463 C   0  0  0  0  0  0  0  0  0  0  0  0
   -2.1797   22.9955  -23.9690 C   0  0  0  0  0  0  0  0  0  0  0  0
   -3.4391   23.4508  -24.2459 C   0  0  0  0  0  0  0  0  0  0  0  0
   -3.9687   23.4355  -25.5446 C   0  0  0  0  0  0  0  0  0  0  0  0
   -3.2271   22.9541  -26.6003 C   0  0  0  0  0  0  0  0  0  0  0  0
   -1.5897   22.9922  -22.6343 C   0  0  0  0  0  0  0  0  0  0  0  0
   -1.6605   24.0327  -21.9079 O   0  0  0  0  0  0  0  0  0  0  0  0
   -0.9397   21.8454  -22.1386 N   0  0  0  0  0  0  0  0  0  0  0  0
   -0.8762   20.9951  -22.7182 H   0  0  0  0  0  0  0  0  0  0  0  0
   -0.3662   21.8500  -20.8352 C   0  0  0  0  0  0  0  0  0  0  0  0
   -1.2982   21.2307  -19.7900 C   0  0  0  0  0  0  0  0  0  0  0  0
   -0.7288   21.6401  -18.4434 C   0  0  0  0  0  0  0  0  0  0  0  0
    0.6770   21.1833  -18.2489 C   0  0  0  0  0  0  0  0  0  0  0  0
    1.2168   21.9490  -17.1882 O   0  0  0  0  0  0  0  0  0  0  0  0
    1.5651   21.3762  -19.4262 C   0  0  0  0  0  0  0  0  0  0  0  0
    0.9329   21.0896  -20.7452 C   0  0  0  0  0  0  0  0  0  0  0  0
    1.5642   22.7719  -17.6149 H   0  0  0  0  0  0  0  0  0  0  0  0
   -0.0022   22.6614  -27.7142 C   0  0  0  0  0  0  0  0  0  0  0  0
   -1.2184   22.0093  -27.4078 O   0  0  0  0  0  0  0  0  0  0  0  0
   -5.2493   23.9020  -25.8062 O   0  0  0  0  0  0  0  0  0  0  0  0
   -6.3422   23.1612  -25.3075 C   0  0  0  0  0  0  0  0  0  0  0  0
   -3.7155   22.9218  -27.9022 O   0  0  0  0  0  0  0  0  0  0  0  0
   -3.6251   24.0762  -28.7319 C   0  0  0  0  0  0  0  0  0  0  0  0
 19 20  1  0  0  0
 20  1  1  0  0  0
  1  2  2  0  0  0
  2  3  1  0  0  0
  3  4  2  0  0  0
  4  5  1  0  0  0
  5 21  1  0  0  0
 21 22  1  0  0  0
  5  6  2  0  0  0
  6 23  1  0  0  0
 23 24  1  0  0  0
  3  7  1  0  0  0
  7  8  2  0  0  0
  7  9  1  0  0  0
  9 11  1  0  0  0
 11 12  1  0  0  0
 12 13  1  0  0  0
 13 14  1  0  0  0
 14 15  1  0  0  0
 14 16  1  0  0  0
 16 17  1  0  0  0
  6  1  1  0  0  0
 17 11  1  0  0  0
  9 10  1  0  0  0
 15 18  1  0  0  0
M  END
> <minimizedAffinity>
-5.61387

> <CNNscore>
0.2689221501

> <CNNaffinity>
4.7782692909

> <CNN_VS>
1.2849824429

> <CNNaffinity_variance>
0.1773331910

$$$$
[H]O[C@]1([H])C([H])([H])C([H])([H])[C@@]([H])(N([H])C(=O)c2c([H])c(OC([H])([H])[H])c(OC([H])([H])[H])c(OC([H])([H])[H])c2[H])C([H])([H])C1([H])[H]


 24 25  0  0  0  0  0  0  0  0999 V2000
   -2.0186   22.7799  -27.0093 C   0  0  0  0  0  0  0  0  0  0  0  0
   -1.3010   22.6260  -25.8455 C   0  0  0  0  0  0  0  0  0  0  0  0
   -1.9464   22.5565  -24.6052 C   0  0  0  0  0  0  0  0  0  0  0  0
   -3.3108   22.6483  -24.6108 C   0  0  0  0  0  0  0  0  0  0  0  0
   -4.0427   22.8051  -25.7970 C   0  0  0  0  0  0  0  0  0  0  0  0
   -3.4022   22.8728  -27.0141 C   0  0  0  0  0  0  0  0  0  0  0  0
   -1.1459   22.3924  -23.3961 C   0  0  0  0  0  0  0  0  0  0  0  0
   -1.2437   23.2375  -22.4521 O   0  0  0  0  0  0  0  0  0  0  0  0
   -0.2620   21.3042  -23.2616 N   0  0  0  0  0  0  0  0  0  0  0  0
   -0.1743   20.6117  -24.0203 H   0  0  0  0  0  0  0  0  0  0  0  0
    0.5160   21.1509  -22.0788 C   0  0  0  0  0  0  0  0  0  0  0  0
    0.0051   20.0112  -21.1930 C   0  0  0  0  0  0  0  0  0  0  0  0
    0.6730   20.2131  -19.8445 C   0  0  0  0  0  0  0  0  0  0  0  0
    2.1613   20.2019  -19.9308 C   0  0  0  0  0  0  0  0  0  0  0  0
    2.6482   20.7933  -18.7408 O   0  0  0  0  0  0  0  0  0  0  0  0
    2.7270   20.9747  -21.0687 C   0  0  0  0  0  0  0  0  0  0  0  0
    1.9704   20.8569  -22.3475 C   0  0  0  0  0  0  0  0  0  0  0  0
    2.6646   21.7659  -18.9242 H   0  0  0  0  0  0  0  0  0  0  0  0
    0.0084   23.0359  -28.2705 C   0  0  0  0  0  0  0  0  0  0  0  0
   -1.3930   22.8513  -28.2560 O   0  0  0  0  0  0  0  0  0  0  0  0
   -5.4274   22.8964  -25.7827 O   0  0  0  0  0  0  0  0  0  0  0  0
   -6.0169   23.9589  -25.0648 C   0  0  0  0  0  0  0  0  0  0  0  0
   -4.0910   23.0279  -28.2124 O   0  0  0  0  0  0  0  0  0  0  0  0
   -4.4010   24.3303  -28.6992 C   0  0  0  0  0  0  0  0  0  0  0  0
 19 20  1  0  0  0
 20  1  1  0  0  0
  1  2  2  0  0  0
  2  3  1  0  0  0
  3  4  2  0  0  0
  4  5  1  0  0  0
  5 21  1  0  0  0
 21 22  1  0  0  0
  5  6  2  0  0  0
  6 23  1  0  0  0
 23 24  1  0  0  0
  3  7  1  0  0  0
  7  8  2  0  0  0
  7  9  1  0  0  0
  9 11  1  0  0  0
 11 12  1  0  0  0
 12 13  1  0  0  0
 13 14  1  0  0  0
 14 15  1  0  0  0
 14 16  1  0  0  0
 16 17  1  0  0  0
  6  1  1  0  0  0
 17 11  1  0  0  0
  9 10  1  0  0  0
 15 18  1  0  0  0
M  END
> <minimizedAffinity>
-5.70098

> <CNNscore>
0.2559970319

> <CNNaffinity>
4.9295301437

> <CNN_VS>
1.2619451284

> <CNNaffinity_variance>
0.0878836140

$$$$
[H]O[C@]1([H])C([H])([H])C([H])([H])[C@@]([H])(N([H])C(=O)c2c([H])c(OC([H])([H])[H])c(OC([H])([H])[H])c(OC([H])([H])[H])c2[H])C([H])([H])C1([H])[H]


 24 25  0  0  0  0  0  0  0  0999 V2000
   -4.1353   23.1300  -27.6264 C   0  0  0  0  0  0  0  0  0  0  0  0
   -3.5790   22.6342  -26.4698 C   0  0  0  0  0  0  0  0  0  0  0  0
   -4.3058   22.6104  -25.2736 C   0  0  0  0  0  0  0  0  0  0  0  0
   -5.5822   23.0996  -25.3144 C   0  0  0  0  0  0  0  0  0  0  0  0
   -6.1496   23.6051  -26.4933 C   0  0  0  0  0  0  0  0  0  0  0  0
   -5.4297   23.6260  -27.6669 C   0  0  0  0  0  0  0  0  0  0  0  0
   -3.6766   22.0750  -24.0707 C   0  0  0  0  0  0  0  0  0  0  0  0
   -4.2102   21.0977  -23.4581 O   0  0  0  0  0  0  0  0  0  0  0  0
   -2.4799   22.6302  -23.5776 N   0  0  0  0  0  0  0  0  0  0  0  0
   -2.0372   23.4229  -24.0661 H   0  0  0  0  0  0  0  0  0  0  0  0
   -1.8720   22.1024  -22.4031 C   0  0  0  0  0  0  0  0  0  0  0  0
   -0.5924   21.3211  -22.7141 C   0  0  0  0  0  0  0  0  0  0  0  0
   -0.2830   20.5294  -21.4561 C   0  0  0  0  0  0  0  0  0  0  0  0
   -0.1052   21.3979  -20.2574 C   0  0  0  0  0  0  0  0  0  0  0  0
   -0.2352   20.5646  -19.1210 O   0  0  0  0  0  0  0  0  0  0  0  0
   -1.1088   22.4870  -20.1206 C   0  0  0  0  0  0  0  0  0  0  0  0
   -1.4878   23.1577  -21.3966 C   0  0  0  0  0  0  0  0  0  0  0  0
   -1.2065   20.5361  -18.9317 H   0  0  0  0  0  0  0  0  0  0  0  0
   -2.0222   23.3062  -28.7528 C   0  0  0  0  0  0  0  0  0  0  0  0
   -3.4263   23.1623  -28.8294 O   0  0  0  0  0  0  0  0  0  0  0  0
   -7.4469   24.0975  -26.5151 O   0  0  0  0  0  0  0  0  0  0  0  0
   -7.9153   24.7895  -25.3778 C   0  0  0  0  0  0  0  0  0  0  0  0
   -5.9556   24.1186  -28.8565 O   0  0  0  0  0  0  0  0  0  0  0  0
   -5.7652   25.4842  -29.2148 C   0  0  0  0  0  0  0  0  0  0  0  0
 19 20  1  0  0  0
 20  1  1  0  0  0
  1  2  2  0  0  0
  2  3  1  0  0  0
  3  4  2  0  0  0
  4  5  1  0  0  0
  5 21  1  0  0  0
 21 22  1  0  0  0
  5  6  2  0  0  0
  6 23  1  0  0  0
 23 24  1  0  0  0
  3  7  1  0  0  0
  7  8  2  0  0  0
  7  9  1  0  0  0
  9 11  1  0  0  0
 11 12  1  0  0  0
 12 13  1  0  0  0
 13 14  1  0  0  0
 14 15  1  0  0  0
 14 16  1  0  0  0
 16 17  1  0  0  0
  6  1  1  0  0  0
 17 11  1  0  0  0
  9 10  1  0  0  0
 15 18  1  0  0  0
M  END
> <minimizedAffinity>
-6.24520

> <CNNscore>
0.2300586104

> <CNNaffinity>
4.8540048599

> <CNN_VS>
1.1167056561

> <CNNaffinity_variance>
0.1466962397

$$$$
[H]O[C@]1([H])C([H])([H])C([H])([H])[C@@]([H])(N([H])C(=O)c2c([H])c(OC([H])([H])[H])c(OC([H])([H])[H])c(OC([H])([H])[H])c2[H])C([H])([H])C1([H])[H]


 24 25  0  0  0  0  0  0  0  0999 V2000
   -3.9724   22.8632  -26.7471 C   0  0  0  0  0  0  0  0  0  0  0  0
   -4.9878   23.0837  -25.8452 C   0  0  0  0  0  0  0  0  0  0  0  0
   -4.8341   22.7551  -24.4931 C   0  0  0  0  0  0  0  0  0  0  0  0
   -3.6365   22.2102  -24.1203 C   0  0  0  0  0  0  0  0  0  0  0  0
   -2.6013   21.9853  -25.0394 C   0  0  0  0  0  0  0  0  0  0  0  0
   -2.7583   22.3106  -26.3682 C   0  0  0  0  0  0  0  0  0  0  0  0
   -5.9369   23.0067  -23.5712 C   0  0  0  0  0  0  0  0  0  0  0  0
   -6.6277   22.0355  -23.1298 O   0  0  0  0  0  0  0  0  0  0  0  0
   -6.2470   24.3182  -23.1624 N   0  0  0  0  0  0  0  0  0  0  0  0
   -5.6936   25.1143  -23.5132 H   0  0  0  0  0  0  0  0  0  0  0  0
   -7.3249   24.5558  -22.2627 C   0  0  0  0  0  0  0  0  0  0  0  0
   -6.8878   25.3585  -21.0342 C   0  0  0  0  0  0  0  0  0  0  0  0
   -8.0137   25.2064  -20.0269 C   0  0  0  0  0  0  0  0  0  0  0  0
   -9.3234   25.6913  -20.5485 C   0  0  0  0  0  0  0  0  0  0  0  0
  -10.3283   25.1359  -19.7213 O   0  0  0  0  0  0  0  0  0  0  0  0
   -9.6293   25.2830  -21.9456 C   0  0  0  0  0  0  0  0  0  0  0  0
   -8.4690   25.3196  -22.8804 C   0  0  0  0  0  0  0  0  0  0  0  0
  -10.5235   24.2480  -20.1131 H   0  0  0  0  0  0  0  0  0  0  0  0
   -4.4381   24.5203  -28.4210 C   0  0  0  0  0  0  0  0  0  0  0  0
   -4.1066   23.1843  -28.0998 O   0  0  0  0  0  0  0  0  0  0  0  0
   -1.3925   21.4312  -24.6421 O   0  0  0  0  0  0  0  0  0  0  0  0
   -0.5322   22.2141  -23.8429 C   0  0  0  0  0  0  0  0  0  0  0  0
   -1.7567   22.1036  -27.3108 O   0  0  0  0  0  0  0  0  0  0  0  0
   -0.7518   23.0915  -27.5195 C   0  0  0  0  0  0  0  0  0  0  0  0
 19 20  1  0  0  0
 20  1  1  0  0  0
  1  2  2  0  0  0
  2  3  1  0  0  0
  3  4  2  0  0  0
  4  5  1  0  0  0
  5 21  1  0  0  0
 21 22  1  0  0  0
  5  6  2  0  0  0
  6 23  1  0  0  0
 23 24  1  0  0  0
  3  7  1  0  0  0
  7  8  2  0  0  0
  7  9  1  0  0  0
  9 11  1  0  0  0
 11 12  1  0  0  0
 12 13  1  0  0  0
 13 14  1  0  0  0
 14 15  1  0  0  0
 14 16  1  0  0  0
 16 17  1  0  0  0
  6  1  1  0  0  0
 17 11  1  0  0  0
  9 10  1  0  0  0
 15 18  1  0  0  0
M  END
> <minimizedAffinity>
-5.95614

> <CNNscore>
0.2231916189

> <CNNaffinity>
4.8646259308

> <CNN_VS>
1.0857437849

> <CNNaffinity_variance>
0.0659665614

$$$$
[H]O[C@]1([H])C([H])([H])C([H])([H])[C@@]([H])(N([H])C(=O)c2c([H])c(OC([H])([H])[H])c(OC([H])([H])[H])c(OC([H])([H])[H])c2[H])C([H])([H])C1([H])[H]


 24 25  0  0  0  0  0  0  0  0999 V2000
   -4.6165   23.9112  -26.4080 C   0  0  0  0  0  0  0  0  0  0  0  0
   -4.3097   23.2356  -25.2494 C   0  0  0  0  0  0  0  0  0  0  0  0
   -3.1333   22.4843  -25.1437 C   0  0  0  0  0  0  0  0  0  0  0  0
   -2.3149   22.4573  -26.2391 C   0  0  0  0  0  0  0  0  0  0  0  0
   -2.6274   23.1459  -27.4203 C   0  0  0  0  0  0  0  0  0  0  0  0
   -3.7861   23.8834  -27.5183 C   0  0  0  0  0  0  0  0  0  0  0  0
   -2.8474   21.7840  -23.8957 C   0  0  0  0  0  0  0  0  0  0  0  0
   -3.7327   21.0388  -23.3703 O   0  0  0  0  0  0  0  0  0  0  0  0
   -1.5969   21.9243  -23.2631 N   0  0  0  0  0  0  0  0  0  0  0  0
   -0.8705   22.5256  -23.6798 H   0  0  0  0  0  0  0  0  0  0  0  0
   -1.3255   21.2379  -22.0453 C   0  0  0  0  0  0  0  0  0  0  0  0
    0.1256   20.7560  -21.9630 C   0  0  0  0  0  0  0  0  0  0  0  0
    0.1567   19.7510  -20.8254 C   0  0  0  0  0  0  0  0  0  0  0  0
   -0.2910   20.3342  -19.5284 C   0  0  0  0  0  0  0  0  0  0  0  0
   -0.6090   19.2500  -18.6762 O   0  0  0  0  0  0  0  0  0  0  0  0
   -1.5012   21.1944  -19.6148 C   0  0  0  0  0  0  0  0  0  0  0  0
   -1.5618   22.0768  -20.8146 C   0  0  0  0  0  0  0  0  0  0  0  0
   -1.5523   19.0297  -18.8801 H   0  0  0  0  0  0  0  0  0  0  0  0
   -7.0005   24.0490  -26.1584 C   0  0  0  0  0  0  0  0  0  0  0  0
   -5.7851   24.6661  -26.5327 O   0  0  0  0  0  0  0  0  0  0  0  0
   -1.7842   23.1067  -28.5219 O   0  0  0  0  0  0  0  0  0  0  0  0
   -0.3925   23.0565  -28.2931 C   0  0  0  0  0  0  0  0  0  0  0  0
   -4.1322   24.5802  -28.6711 O   0  0  0  0  0  0  0  0  0  0  0  0
   -4.9659   23.9733  -29.6540 C   0  0  0  0  0  0  0  0  0  0  0  0
 19 20  1  0  0  0
 20  1  1  0  0  0
  1  2  2  0  0  0
  2  3  1  0  0  0
  3  4  2  0  0  0
  4  5  1  0  0  0
  5 21  1  0  0  0
 21 22  1  0  0  0
  5  6  2  0  0  0
  6 23  1  0  0  0
 23 24  1  0  0  0
  3  7  1  0  0  0
  7  8  2  0  0  0
  7  9  1  0  0  0
  9 11  1  0  0  0
 11 12  1  0  0  0
 12 13  1  0  0  0
 13 14  1  0  0  0
 14 15  1  0  0  0
 14 16  1  0  0  0
 16 17  1  0  0  0
  6  1  1  0  0  0
 17 11  1  0  0  0
  9 10  1  0  0  0
 15 18  1  0  0  0
M  END
> <minimizedAffinity>
-5.67059

> <CNNscore>
0.2183578759

> <CNNaffinity>
4.9910879135

> <CNN_VS>
1.0898433924

> <CNNaffinity_variance>
0.0869304761

$$$$
[H]O[C@]1([H])C([H])([H])C([H])([H])[C@@]([H])(N([H])C(=O)c2c([H])c(OC([H])([H])[H])c(OC([H])([H])[H])c(OC([H])([H])[H])c2[H])C([H])([H])C1([H])[H]


 24 25  0  0  0  0  0  0  0  0999 V2000
    0.0580   21.7681  -23.8783 C   0  0  0  0  0  0  0  0  0  0  0  0
   -1.1178   22.4775  -23.7929 C   0  0  0  0  0  0  0  0  0  0  0  0
   -1.7631   22.6567  -22.5636 C   0  0  0  0  0  0  0  0  0  0  0  0
   -1.1709   22.0965  -21.4655 C   0  0  0  0  0  0  0  0  0  0  0  0
    0.0276   21.3733  -21.5523 C   0  0  0  0  0  0  0  0  0  0  0  0
    0.6579   21.2005  -22.7644 C   0  0  0  0  0  0  0  0  0  0  0  0
   -3.0081   23.4167  -22.5191 C   0  0  0  0  0  0  0  0  0  0  0  0
   -3.2877   24.1150  -21.4947 O   0  0  0  0  0  0  0  0  0  0  0  0
   -3.9080   23.3862  -23.6020 N   0  0  0  0  0  0  0  0  0  0  0  0
   -3.6920   22.8238  -24.4387 H   0  0  0  0  0  0  0  0  0  0  0  0
   -5.1209   24.1304  -23.5510 C   0  0  0  0  0  0  0  0  0  0  0  0
   -5.3836   24.8995  -24.8487 C   0  0  0  0  0  0  0  0  0  0  0  0
   -6.4701   25.9055  -24.5128 C   0  0  0  0  0  0  0  0  0  0  0  0
   -7.7160   25.2613  -24.0075 C   0  0  0  0  0  0  0  0  0  0  0  0
   -8.4681   26.2694  -23.3588 O   0  0  0  0  0  0  0  0  0  0  0  0
   -7.4991   24.1709  -23.0196 C   0  0  0  0  0  0  0  0  0  0  0  0
   -6.3417   23.2782  -23.3114 C   0  0  0  0  0  0  0  0  0  0  0  0
   -8.1256   26.2896  -22.4303 H   0  0  0  0  0  0  0  0  0  0  0  0
    0.2284   22.2881  -26.2161 C   0  0  0  0  0  0  0  0  0  0  0  0
    0.7167   21.5786  -25.0953 O   0  0  0  0  0  0  0  0  0  0  0  0
    0.6138   20.8120  -20.4266 O   0  0  0  0  0  0  0  0  0  0  0  0
   -0.2017   20.5764  -19.2991 C   0  0  0  0  0  0  0  0  0  0  0  0
    1.8470   20.4905  -22.8928 O   0  0  0  0  0  0  0  0  0  0  0  0
    3.0990   21.1545  -22.7476 C   0  0  0  0  0  0  0  0  0  0  0  0
 19 20  1  0  0  0
 20  1  1  0  0  0
  1  2  2  0  0  0
  2  3  1  0  0  0
  3  4  2  0  0  0
  4  5  1  0  0  0
  5 21  1  0  0  0
 21 22  1  0  0  0
  5  6  2  0  0  0
  6 23  1  0  0  0
 23 24  1  0  0  0
  3  7  1  0  0  0
  7  8  2  0  0  0
  7  9  1  0  0  0
  9 11  1  0  0  0
 11 12  1  0  0  0
 12 13  1  0  0  0
 13 14  1  0  0  0
 14 15  1  0  0  0
 14 16  1  0  0  0
 16 17  1  0  0  0
  6  1  1  0  0  0
 17 11  1  0  0  0
  9 10  1  0  0  0
 15 18  1  0  0  0
M  END
> <minimizedAffinity>
-5.62712

> <CNNscore>
0.2032098472

> <CNNaffinity>
4.7688317299

> <CNN_VS>
0.9690735936

> <CNNaffinity_variance>
0.0908770338

$$$$
[H]O[C@]1([H])C([H])([H])C([H])([H])[C@@]([H])(N([H])C(=O)c2c([H])c(OC([H])([H])[H])c(OC([H])([H])[H])c(OC([H])([H])[H])c2[H])C([H])([H])C1([H])[H]


 24 25  0  0  0  0  0  0  0  0999 V2000
   -4.1626   24.8441  -25.4194 C   0  0  0  0  0  0  0  0  0  0  0  0
   -3.9781   24.6696  -24.0672 C   0  0  0  0  0  0  0  0  0  0  0  0
   -3.1644   23.6408  -23.5782 C   0  0  0  0  0  0  0  0  0  0  0  0
   -2.5697   22.8283  -24.5036 C   0  0  0  0  0  0  0  0  0  0  0  0
   -2.7576   23.0059  -25.8821 C   0  0  0  0  0  0  0  0  0  0  0  0
   -3.5591   24.0198  -26.3572 C   0  0  0  0  0  0  0  0  0  0  0  0
   -2.9963   23.4927  -22.1361 C   0  0  0  0  0  0  0  0  0  0  0  0
   -1.9852   24.0040  -21.5605 O   0  0  0  0  0  0  0  0  0  0  0  0
   -3.9447   22.7870  -21.3707 N   0  0  0  0  0  0  0  0  0  0  0  0
   -4.7694   22.3681  -21.8263 H   0  0  0  0  0  0  0  0  0  0  0  0
   -3.7737   22.6466  -19.9640 C   0  0  0  0  0  0  0  0  0  0  0  0
   -5.1014   22.7385  -19.2070 C   0  0  0  0  0  0  0  0  0  0  0  0
   -4.7260   22.9467  -17.7506 C   0  0  0  0  0  0  0  0  0  0  0  0
   -3.8744   21.8478  -17.2120 C   0  0  0  0  0  0  0  0  0  0  0  0
   -3.2664   22.3376  -16.0317 O   0  0  0  0  0  0  0  0  0  0  0  0
   -2.7813   21.4035  -18.1174 C   0  0  0  0  0  0  0  0  0  0  0  0
   -3.1480   21.3352  -19.5605 C   0  0  0  0  0  0  0  0  0  0  0  0
   -2.4448   22.7980  -16.3367 H   0  0  0  0  0  0  0  0  0  0  0  0
   -4.7157   27.1798  -25.4760 C   0  0  0  0  0  0  0  0  0  0  0  0
   -4.9703   25.8645  -25.9266 O   0  0  0  0  0  0  0  0  0  0  0  0
   -2.1455   22.1710  -26.8063 O   0  0  0  0  0  0  0  0  0  0  0  0
   -0.7850   22.3955  -27.1074 C   0  0  0  0  0  0  0  0  0  0  0  0
   -3.7710   24.2295  -27.7157 O   0  0  0  0  0  0  0  0  0  0  0  0
   -4.8009   23.5215  -28.3995 C   0  0  0  0  0  0  0  0  0  0  0  0
 19 20  1  0  0  0
 20  1  1  0  0  0
  1  2  2  0  0  0
  2  3  1  0  0  0
  3  4  2  0  0  0
  4  5  1  0  0  0
  5 21  1  0  0  0
 21 22  1  0  0  0
  5  6  2  0  0  0
  6 23  1  0  0  0
 23 24  1  0  0  0
  3  7  1  0  0  0
  7  8  2  0  0  0
  7  9  1  0  0  0
  9 11  1  0  0  0
 11 12  1  0  0  0
 12 13  1  0  0  0
 13 14  1  0  0  0
 14 15  1  0  0  0
 14 16  1  0  0  0
 16 17  1  0  0  0
  6  1  1  0  0  0
 17 11  1  0  0  0
  9 10  1  0  0  0
 15 18  1  0  0  0
M  END
> <minimizedAffinity>
-5.51753

> <CNNscore>
0.1988780200

> <CNNaffinity>
4.7875432968

> <CNN_VS>
0.9521371126

> <CNNaffinity_variance>
0.1869300455

$$$$
[H]c1c([H])c([H])c2c(c1[H])c1c3c(c4c5c([H])c([H])c([H])c([H])c5n5c4c1n2[C@@]1([H])O[C@@]5(C([H])([H])[H])[C@@]([H])(N([H])C([H])([H])[H])C1([H])[H])C([H])([H])N([H])C3=O


 34 41  0  0  0  0  0  0  0  0999 V2000
   -3.2047   21.9902  -19.7853 C   0  0  0  0  0  0  0  0  0  0  0  0
   -4.4916   22.4617  -20.3948 C   0  0  0  0  0  0  0  0  0  0  0  0
   -4.2641   22.6578  -21.8644 C   0  0  0  0  0  0  0  0  0  0  0  0
   -2.8366   22.3075  -22.1633 O   0  0  0  0  0  0  0  0  0  0  0  0
   -2.1818   21.8949  -20.8783 C   0  0  0  0  0  0  0  0  0  0  0  0
   -0.7547   21.4628  -20.7151 C   0  0  0  0  0  0  0  0  0  0  0  0
   -1.2545   21.8416  -22.0562 N   0  0  0  0  0  0  0  0  0  0  0  0
    0.1814   21.4188  -21.9591 C   0  0  0  0  0  0  0  0  0  0  0  0
    1.0208   20.9759  -20.7975 C   0  0  0  0  0  0  0  0  0  0  0  0
    2.4593   20.6070  -21.0092 C   0  0  0  0  0  0  0  0  0  0  0  0
    3.0583   20.6811  -22.3824 C   0  0  0  0  0  0  0  0  0  0  0  0
    2.2188   21.1241  -23.5439 C   0  0  0  0  0  0  0  0  0  0  0  0
    0.7803   21.4929  -23.3322 C   0  0  0  0  0  0  0  0  0  0  0  0
   -0.2853   21.9615  -24.2781 C   0  0  0  0  0  0  0  0  0  0  0  0
   -0.4905   22.2912  -25.8116 C   0  0  0  0  0  0  0  0  0  0  0  0
    0.5324   22.1959  -26.9046 C   0  0  0  0  0  0  0  0  0  0  0  0
   -0.1223   22.6085  -28.1895 N   0  0  0  0  0  0  0  0  0  0  0  0
   -1.5499   22.9588  -27.8907 C   0  0  0  0  0  0  0  0  0  0  0  0
   -2.5708   23.4236  -28.8866 O   0  0  0  0  0  0  0  0  0  0  0  0
   -1.7775   22.7627  -26.4210 C   0  0  0  0  0  0  0  0  0  0  0  0
   -2.9903   22.9526  -25.5590 C   0  0  0  0  0  0  0  0  0  0  0  0
   -4.4057   23.3930  -25.7880 C   0  0  0  0  0  0  0  0  0  0  0  0
   -5.1364   23.8189  -27.0268 C   0  0  0  0  0  0  0  0  0  0  0  0
   -6.5815   24.2130  -26.9472 C   0  0  0  0  0  0  0  0  0  0  0  0
   -7.2959   24.1812  -25.6287 C   0  0  0  0  0  0  0  0  0  0  0  0
   -6.5653   23.7553  -24.3898 C   0  0  0  0  0  0  0  0  0  0  0  0
   -5.1202   23.3612  -24.4695 C   0  0  0  0  0  0  0  0  0  0  0  0
   -4.1462   22.9011  -23.4255 N   0  0  0  0  0  0  0  0  0  0  0  0
   -2.8299   22.6486  -24.0989 C   0  0  0  0  0  0  0  0  0  0  0  0
   -1.5430   22.1771  -23.4895 C   0  0  0  0  0  0  0  0  0  0  0  0
    0.5350   22.6615  -29.5367 H   0  0  0  0  0  0  0  0  0  0  0  0
   -3.4607   22.6919  -17.2970 C   0  0  0  0  0  0  0  0  0  0  0  0
   -3.9930   21.9868  -18.5092 N   0  0  0  0  0  0  0  0  0  0  0  0
   -5.0693   21.4571  -18.3160 H   0  0  0  0  0  0  0  0  0  0  0  0
 32 33  1  0  0  0
 33  1  1  0  0  0
  1  2  1  0  0  0
  2  3  1  0  0  0
  3  4  1  0  0  0
  4  5  1  0  0  0
  5  6  1  0  0  0
  5  7  1  0  0  0
  7  8  1  0  0  0
  8  9  2  0  0  0
  9 10  1  0  0  0
 10 11  2  0  0  0
 11 12  1  0  0  0
 12 13  2  0  0  0
 13 14  1  0  0  0
 14 15  2  0  0  0
 15 16  1  0  0  0
 16 17  1  0  0  0
 17 18  1  0  0  0
 18 19  2  0  0  0
 18 20  1  0  0  0
 20 21  2  0  0  0
 21 22  1  0  0  0
 22 23  2  0  0  0
 23 24  1  0  0  0
 24 25  2  0  0  0
 25 26  1  0  0  0
 26 27  2  0  0  0
 27 28  1  0  0  0
 28 29  1  0  0  0
 29 30  2  0  0  0
  5  1  1  0  0  0
 30  7  1  0  0  0
 28  3  1  0  0  0
 13  8  1  0  0  0
 30 14  1  0  0  0
 20 15  1  0  0  0
 29 21  1  0  0  0
 27 22  1  0  0  0
 33 34  1  0  0  0
 17 31  1  0  0  0
M  END
> <minimizedAffinity>
-10.35725

> <CNNscore>
0.7148689032

> <CNNaffinity>
7.0392289162

> <CNN_VS>
5.0321259499

> <CNNaffinity_variance>
0.1738616377

$$$$
[H]c1c([H])c([H])c2c(c1[H])c1c3c(c4c5c([H])c([H])c([H])c([H])c5n5c4c1n2[C@@]1([H])O[C@@]5(C([H])([H])[H])[C@@]([H])(N([H])C([H])([H])[H])C1([H])[H])C([H])([H])N([H])C3=O


 34 41  0  0  0  0  0  0  0  0999 V2000
   -0.5351   16.0242  -20.0725 C   0  0  0  0  0  0  0  0  0  0  0  0
    0.6549   15.9937  -19.1598 C   0  0  0  0  0  0  0  0  0  0  0  0
    0.2314   15.3622  -17.8668 C   0  0  0  0  0  0  0  0  0  0  0  0
   -1.2204   15.0023  -17.9804 O   0  0  0  0  0  0  0  0  0  0  0  0
   -1.6940   15.4114  -19.3435 C   0  0  0  0  0  0  0  0  0  0  0  0
   -3.0829   15.2382  -19.8831 C   0  0  0  0  0  0  0  0  0  0  0  0
   -2.7699   14.7804  -18.5103 N   0  0  0  0  0  0  0  0  0  0  0  0
   -4.1765   14.5790  -18.9913 C   0  0  0  0  0  0  0  0  0  0  0  0
   -4.8494   14.9074  -20.2910 C   0  0  0  0  0  0  0  0  0  0  0  0
   -6.3002   14.5808  -20.4879 C   0  0  0  0  0  0  0  0  0  0  0  0
   -7.0779   13.9260  -19.3851 C   0  0  0  0  0  0  0  0  0  0  0  0
   -6.4049   13.5976  -18.0854 C   0  0  0  0  0  0  0  0  0  0  0  0
   -4.9542   13.9242  -17.8885 C   0  0  0  0  0  0  0  0  0  0  0  0
   -4.0284   13.7208  -16.7259 C   0  0  0  0  0  0  0  0  0  0  0  0
   -4.0328   13.1359  -15.2561 C   0  0  0  0  0  0  0  0  0  0  0  0
   -5.1918   12.5232  -14.5272 C   0  0  0  0  0  0  0  0  0  0  0  0
   -4.7181   12.1140  -13.1640 N   0  0  0  0  0  0  0  0  0  0  0  0
   -3.2664   12.4739  -13.0504 C   0  0  0  0  0  0  0  0  0  0  0  0
   -2.3917   12.2428  -11.8540 O   0  0  0  0  0  0  0  0  0  0  0  0
   -2.8428   13.1055  -14.3434 C   0  0  0  0  0  0  0  0  0  0  0  0
   -1.5273   13.6568  -14.8076 C   0  0  0  0  0  0  0  0  0  0  0  0
   -0.1589   13.8015  -14.2107 C   0  0  0  0  0  0  0  0  0  0  0  0
    0.3962   13.4237  -12.8693 C   0  0  0  0  0  0  0  0  0  0  0  0
    1.8356   13.6980  -12.5488 C   0  0  0  0  0  0  0  0  0  0  0  0
    2.7201   14.3502  -13.5697 C   0  0  0  0  0  0  0  0  0  0  0  0
    2.1651   14.7280  -14.9112 C   0  0  0  0  0  0  0  0  0  0  0  0
    0.7257   14.4537  -15.2316 C   0  0  0  0  0  0  0  0  0  0  0  0
   -0.0961   14.7120  -16.4596 N   0  0  0  0  0  0  0  0  0  0  0  0
   -1.4885   14.2195  -16.1975 C   0  0  0  0  0  0  0  0  0  0  0  0
   -2.6785   14.2500  -17.1102 C   0  0  0  0  0  0  0  0  0  0  0  0
   -5.5500   11.4599  -12.1011 H   0  0  0  0  0  0  0  0  0  0  0  0
    1.8313   16.1825  -21.1332 C   0  0  0  0  0  0  0  0  0  0  0  0
    0.4167   16.6716  -21.0342 N   0  0  0  0  0  0  0  0  0  0  0  0
    0.1795   17.5943  -21.7883 H   0  0  0  0  0  0  0  0  0  0  0  0
 32 33  1  0  0  0
 33  1  1  0  0  0
  1  2  1  0  0  0
  2  3  1  0  0  0
  3  4  1  0  0  0
  4  5  1  0  0  0
  5  6  1  0  0  0
  5  7  1  0  0  0
  7  8  1  0  0  0
  8  9  2  0  0  0
  9 10  1  0  0  0
 10 11  2  0  0  0
 11 12  1  0  0  0
 12 13  2  0  0  0
 13 14  1  0  0  0
 14 15  2  0  0  0
 15 16  1  0  0  0
 16 17  1  0  0  0
 17 18  1  0  0  0
 18 19  2  0  0  0
 18 20  1  0  0  0
 20 21  2  0  0  0
 21 22  1  0  0  0
 22 23  2  0  0  0
 23 24  1  0  0  0
 24 25  2  0  0  0
 25 26  1  0  0  0
 26 27  2  0  0  0
 27 28  1  0  0  0
 28 29  1  0  0  0
 29 30  2  0  0  0
  5  1  1  0  0  0
 30  7  1  0  0  0
 28  3  1  0  0  0
 13  8  1  0  0  0
 30 14  1  0  0  0
 20 15  1  0  0  0
 29 21  1  0  0  0
 27 22  1  0  0  0
 33 34  1  0  0  0
 17 31  1  0  0  0
M  END
> <minimizedAffinity>
-3.39923

> <CNNscore>
0.7048713565

> <CNNaffinity>
5.1766843796

> <CNN_VS>
3.6488964558

> <CNNaffinity_variance>
0.2073068172

$$$$
[H]c1c([H])c([H])c2c(c1[H])c1c3c(c4c5c([H])c([H])c([H])c([H])c5n5c4c1n2[C@@]1([H])O[C@@]5(C([H])([H])[H])[C@@]([H])(N([H])C([H])([H])[H])C1([H])[H])C([H])([H])N([H])C3=O


 34 41  0  0  0  0  0  0  0  0999 V2000
   -1.4544   15.9650  -19.5711 C   0  0  0  0  0  0  0  0  0  0  0  0
   -0.4438   16.4560  -18.5774 C   0  0  0  0  0  0  0  0  0  0  0  0
   -0.9428   16.1189  -17.2036 C   0  0  0  0  0  0  0  0  0  0  0  0
   -2.2618   15.4195  -17.3482 O   0  0  0  0  0  0  0  0  0  0  0  0
   -2.5780   15.3244  -18.8114 C   0  0  0  0  0  0  0  0  0  0  0  0
   -3.8028   14.6986  -19.4099 C   0  0  0  0  0  0  0  0  0  0  0  0
   -3.6346   14.7140  -17.9391 N   0  0  0  0  0  0  0  0  0  0  0  0
   -4.8806   14.0737  -18.4753 C   0  0  0  0  0  0  0  0  0  0  0  0
   -5.3846   13.8747  -19.8740 C   0  0  0  0  0  0  0  0  0  0  0  0
   -6.6957   13.1841  -20.1076 C   0  0  0  0  0  0  0  0  0  0  0  0
   -7.5025   12.6927  -18.9426 C   0  0  0  0  0  0  0  0  0  0  0  0
   -6.9984   12.8917  -17.5438 C   0  0  0  0  0  0  0  0  0  0  0  0
   -5.6875   13.5822  -17.3102 C   0  0  0  0  0  0  0  0  0  0  0  0
   -4.9402   13.9188  -16.0539 C   0  0  0  0  0  0  0  0  0  0  0  0
   -5.0709   13.7692  -14.4846 C   0  0  0  0  0  0  0  0  0  0  0  0
   -6.1945   13.1286  -13.7249 C   0  0  0  0  0  0  0  0  0  0  0  0
   -5.8783   13.2237  -12.2617 N   0  0  0  0  0  0  0  0  0  0  0  0
   -4.5593   13.9231  -12.1170 C   0  0  0  0  0  0  0  0  0  0  0  0
   -3.8617   14.2312  -10.8254 O   0  0  0  0  0  0  0  0  0  0  0  0
   -4.0602   14.2602  -13.4908 C   0  0  0  0  0  0  0  0  0  0  0  0
   -2.8160   14.9508  -13.9653 C   0  0  0  0  0  0  0  0  0  0  0  0
   -1.6149   15.5609  -13.3059 C   0  0  0  0  0  0  0  0  0  0  0  0
   -1.2224   15.6980  -11.8646 C   0  0  0  0  0  0  0  0  0  0  0  0
    0.0676   16.3706  -11.4992 C   0  0  0  0  0  0  0  0  0  0  0  0
    0.9651   16.9061  -12.5751 C   0  0  0  0  0  0  0  0  0  0  0  0
    0.5727   16.7690  -14.0164 C   0  0  0  0  0  0  0  0  0  0  0  0
   -0.7173   16.0964  -14.3817 C   0  0  0  0  0  0  0  0  0  0  0  0
   -1.3638   15.8173  -15.7062 N   0  0  0  0  0  0  0  0  0  0  0  0
   -2.6608   15.1093  -15.4488 C   0  0  0  0  0  0  0  0  0  0  0  0
   -3.6715   14.6183  -16.4426 C   0  0  0  0  0  0  0  0  0  0  0  0
   -6.7314   12.7097  -11.1401 H   0  0  0  0  0  0  0  0  0  0  0  0
    0.8473   17.0228  -20.1484 C   0  0  0  0  0  0  0  0  0  0  0  0
   -0.5003   16.5275  -20.5827 N   0  0  0  0  0  0  0  0  0  0  0  0
   -0.6855   16.6418  -21.7781 H   0  0  0  0  0  0  0  0  0  0  0  0
 32 33  1  0  0  0
 33  1  1  0  0  0
  1  2  1  0  0  0
  2  3  1  0  0  0
  3  4  1  0  0  0
  4  5  1  0  0  0
  5  6  1  0  0  0
  5  7  1  0  0  0
  7  8  1  0  0  0
  8  9  2  0  0  0
  9 10  1  0  0  0
 10 11  2  0  0  0
 11 12  1  0  0  0
 12 13  2  0  0  0
 13 14  1  0  0  0
 14 15  2  0  0  0
 15 16  1  0  0  0
 16 17  1  0  0  0
 17 18  1  0  0  0
 18 19  2  0  0  0
 18 20  1  0  0  0
 20 21  2  0  0  0
 21 22  1  0  0  0
 22 23  2  0  0  0
 23 24  1  0  0  0
 24 25  2  0  0  0
 25 26  1  0  0  0
 26 27  2  0  0  0
 27 28  1  0  0  0
 28 29  1  0  0  0
 29 30  2  0  0  0
  5  1  1  0  0  0
 30  7  1  0  0  0
 28  3  1  0  0  0
 13  8  1  0  0  0
 30 14  1  0  0  0
 20 15  1  0  0  0
 29 21  1  0  0  0
 27 22  1  0  0  0
 33 34  1  0  0  0
 17 31  1  0  0  0
M  END
> <minimizedAffinity>
-2.75777

> <CNNscore>
0.7043638825

> <CNNaffinity>
5.2756562233

> <CNN_VS>
3.7159817219

> <CNNaffinity_variance>
0.4413150847

$$$$
[H]c1c([H])c([H])c2c(c1[H])c1c3c(c4c5c([H])c([H])c([H])c([H])c5n5c4c1n2[C@@]1([H])O[C@@]5(C([H])([H])[H])[C@@]([H])(N([H])C([H])([H])[H])C1([H])[H])C([H])([H])N([H])C3=O


 34 41  0  0  0  0  0  0  0  0999 V2000
   -6.9160   23.9003  -22.3414 C   0  0  0  0  0  0  0  0  0  0  0  0
   -7.3689   24.4848  -23.6464 C   0  0  0  0  0  0  0  0  0  0  0  0
   -6.2572   24.3184  -24.6397 C   0  0  0  0  0  0  0  0  0  0  0  0
   -5.1172   23.6310  -23.9484 O   0  0  0  0  0  0  0  0  0  0  0  0
   -5.5243   23.3726  -22.5281 C   0  0  0  0  0  0  0  0  0  0  0  0
   -4.6868   22.7039  -21.4786 C   0  0  0  0  0  0  0  0  0  0  0  0
   -4.1404   22.8868  -22.8424 N   0  0  0  0  0  0  0  0  0  0  0  0
   -3.2538   22.2113  -21.8385 C   0  0  0  0  0  0  0  0  0  0  0  0
   -3.4581   21.8605  -20.3945 C   0  0  0  0  0  0  0  0  0  0  0  0
   -2.3678   21.1715  -19.6286 C   0  0  0  0  0  0  0  0  0  0  0  0
   -1.0734   20.8332  -20.3067 C   0  0  0  0  0  0  0  0  0  0  0  0
   -0.8692   21.1839  -21.7508 C   0  0  0  0  0  0  0  0  0  0  0  0
   -1.9594   21.8730  -22.5167 C   0  0  0  0  0  0  0  0  0  0  0  0
   -2.0459   22.3394  -23.9397 C   0  0  0  0  0  0  0  0  0  0  0  0
   -1.1787   22.3751  -25.2622 C   0  0  0  0  0  0  0  0  0  0  0  0
    0.2130   21.8475  -25.4489 C   0  0  0  0  0  0  0  0  0  0  0  0
    0.6201   22.1059  -26.8693 N   0  0  0  0  0  0  0  0  0  0  0  0
   -0.5200   22.7933  -27.5605 C   0  0  0  0  0  0  0  0  0  0  0  0
   -0.5441   23.2365  -28.9933 O   0  0  0  0  0  0  0  0  0  0  0  0
   -1.6317   22.9597  -26.5673 C   0  0  0  0  0  0  0  0  0  0  0  0
   -2.9980   23.5680  -26.6826 C   0  0  0  0  0  0  0  0  0  0  0  0
   -3.7848   24.2285  -27.7756 C   0  0  0  0  0  0  0  0  0  0  0  0
   -3.4580   24.5247  -29.2093 C   0  0  0  0  0  0  0  0  0  0  0  0
   -4.4663   25.2116  -30.0819 C   0  0  0  0  0  0  0  0  0  0  0  0
   -5.8013   25.6024  -29.5208 C   0  0  0  0  0  0  0  0  0  0  0  0
   -6.1282   25.3062  -28.0871 C   0  0  0  0  0  0  0  0  0  0  0  0
   -5.1199   24.6193  -27.2145 C   0  0  0  0  0  0  0  0  0  0  0  0
   -5.1582   24.2002  -25.7747 N   0  0  0  0  0  0  0  0  0  0  0  0
   -3.8468   23.5505  -25.4460 C   0  0  0  0  0  0  0  0  0  0  0  0
   -3.3939   22.9660  -24.1410 C   0  0  0  0  0  0  0  0  0  0  0  0
    1.9361   21.7410  -27.4895 H   0  0  0  0  0  0  0  0  0  0  0  0
   -8.9748   25.4751  -22.5183 C   0  0  0  0  0  0  0  0  0  0  0  0
   -8.2722   24.3243  -21.8610 N   0  0  0  0  0  0  0  0  0  0  0  0
   -8.9151   23.8297  -20.9563 H   0  0  0  0  0  0  0  0  0  0  0  0
 32 33  1  0  0  0
 33  1  1  0  0  0
  1  2  1  0  0  0
  2  3  1  0  0  0
  3  4  1  0  0  0
  4  5  1  0  0  0
  5  6  1  0  0  0
  5  7  1  0  0  0
  7  8  1  0  0  0
  8  9  2  0  0  0
  9 10  1  0  0  0
 10 11  2  0  0  0
 11 12  1  0  0  0
 12 13  2  0  0  0
 13 14  1  0  0  0
 14 15  2  0  0  0
 15 16  1  0  0  0
 16 17  1  0  0  0
 17 18  1  0  0  0
 18 19  2  0  0  0
 18 20  1  0  0  0
 20 21  2  0  0  0
 21 22  1  0  0  0
 22 23  2  0  0  0
 23 24  1  0  0  0
 24 25  2  0  0  0
 25 26  1  0  0  0
 26 27  2  0  0  0
 27 28  1  0  0  0
 28 29  1  0  0  0
 29 30  2  0  0  0
  5  1  1  0  0  0
 30  7  1  0  0  0
 28  3  1  0  0  0
 13  8  1  0  0  0
 30 14  1  0  0  0
 20 15  1  0  0  0
 29 21  1  0  0  0
 27 22  1  0  0  0
 33 34  1  0  0  0
 17 31  1  0  0  0
M  END
> <minimizedAffinity>
-10.80043

> <CNNscore>
0.6595132947

> <CNNaffinity>
7.2077851295

> <CNN_VS>
4.7536301613

> <CNNaffinity_variance>
0.3024489284

$$$$
[H]c1c([H])c([H])c2c(c1[H])c1c3c(c4c5c([H])c([H])c([H])c([H])c5n5c4c1n2[C@@]1([H])O[C@@]5(C([H])([H])[H])[C@@]([H])(N([H])C([H])([H])[H])C1([H])[H])C([H])([H])N([H])C3=O


 34 41  0  0  0  0  0  0  0  0999 V2000
   -7.3792   25.4393  -24.0040 C   0  0  0  0  0  0  0  0  0  0  0  0
   -6.9415   24.9355  -22.6606 C   0  0  0  0  0  0  0  0  0  0  0  0
   -5.6036   24.2776  -22.8255 C   0  0  0  0  0  0  0  0  0  0  0  0
   -5.2144   24.3748  -24.2709 O   0  0  0  0  0  0  0  0  0  0  0  0
   -6.3117   25.0927  -24.9992 C   0  0  0  0  0  0  0  0  0  0  0  0
   -6.3371   25.4086  -26.4653 C   0  0  0  0  0  0  0  0  0  0  0  0
   -5.1763   24.6900  -25.8928 N   0  0  0  0  0  0  0  0  0  0  0  0
   -5.1416   24.9760  -27.3649 C   0  0  0  0  0  0  0  0  0  0  0  0
   -6.1126   25.6664  -28.2762 C   0  0  0  0  0  0  0  0  0  0  0  0
   -5.8006   25.8066  -29.7368 C   0  0  0  0  0  0  0  0  0  0  0  0
   -4.5177   25.2565  -30.2858 C   0  0  0  0  0  0  0  0  0  0  0  0
   -3.5468   24.5661  -29.3744 C   0  0  0  0  0  0  0  0  0  0  0  0
   -3.8587   24.4259  -27.9139 C   0  0  0  0  0  0  0  0  0  0  0  0
   -3.1004   23.7998  -26.7812 C   0  0  0  0  0  0  0  0  0  0  0  0
   -1.7419   23.0393  -26.5010 C   0  0  0  0  0  0  0  0  0  0  0  0
   -0.6745   22.6928  -27.4962 C   0  0  0  0  0  0  0  0  0  0  0  0
    0.4229   21.9748  -26.7679 N   0  0  0  0  0  0  0  0  0  0  0  0
    0.0336   21.8777  -25.3226 C   0  0  0  0  0  0  0  0  0  0  0  0
    0.8406   21.2354  -24.2334 O   0  0  0  0  0  0  0  0  0  0  0  0
   -1.3043   22.5356  -25.1575 C   0  0  0  0  0  0  0  0  0  0  0  0
   -2.1806   22.7410  -23.9576 C   0  0  0  0  0  0  0  0  0  0  0  0
   -2.0952   22.3960  -22.5004 C   0  0  0  0  0  0  0  0  0  0  0  0
   -1.0457   21.6872  -21.6966 C   0  0  0  0  0  0  0  0  0  0  0  0
   -1.2397   21.4833  -20.2233 C   0  0  0  0  0  0  0  0  0  0  0  0
   -2.4833   21.9882  -19.5537 C   0  0  0  0  0  0  0  0  0  0  0  0
   -3.5330   22.6971  -20.3574 C   0  0  0  0  0  0  0  0  0  0  0  0
   -3.3389   22.9009  -21.8307 C   0  0  0  0  0  0  0  0  0  0  0  0
   -4.1929   23.5581  -22.8742 N   0  0  0  0  0  0  0  0  0  0  0  0
   -3.4771   23.4593  -24.1887 C   0  0  0  0  0  0  0  0  0  0  0  0
   -3.9147   23.9630  -25.5320 C   0  0  0  0  0  0  0  0  0  0  0  0
    1.6874   21.4468  -27.3778 H   0  0  0  0  0  0  0  0  0  0  0  0
   -9.2076   25.0426  -22.2013 C   0  0  0  0  0  0  0  0  0  0  0  0
   -8.5910   25.9118  -23.2569 N   0  0  0  0  0  0  0  0  0  0  0  0
   -9.1739   26.9679  -23.4023 H   0  0  0  0  0  0  0  0  0  0  0  0
 32 33  1  0  0  0
 33  1  1  0  0  0
  1  2  1  0  0  0
  2  3  1  0  0  0
  3  4  1  0  0  0
  4  5  1  0  0  0
  5  6  1  0  0  0
  5  7  1  0  0  0
  7  8  1  0  0  0
  8  9  2  0  0  0
  9 10  1  0  0  0
 10 11  2  0  0  0
 11 12  1  0  0  0
 12 13  2  0  0  0
 13 14  1  0  0  0
 14 15  2  0  0  0
 15 16  1  0  0  0
 16 17  1  0  0  0
 17 18  1  0  0  0
 18 19  2  0  0  0
 18 20  1  0  0  0
 20 21  2  0  0  0
 21 22  1  0  0  0
 22 23  2  0  0  0
 23 24  1  0  0  0
 24 25  2  0  0  0
 25 26  1  0  0  0
 26 27  2  0  0  0
 27 28  1  0  0  0
 28 29  1  0  0  0
 29 30  2  0  0  0
  5  1  1  0  0  0
 30  7  1  0  0  0
 28  3  1  0  0  0
 13  8  1  0  0  0
 30 14  1  0  0  0
 20 15  1  0  0  0
 29 21  1  0  0  0
 27 22  1  0  0  0
 33 34  1  0  0  0
 17 31  1  0  0  0
M  END
> <minimizedAffinity>
-10.99106

> <CNNscore>
0.6071329117

> <CNNaffinity>
7.2028450966

> <CNN_VS>
4.3730845451

> <CNNaffinity_variance>
0.3870533109

$$$$
[H]c1c([H])c([H])c2c(c1[H])c1c3c(c4c5c([H])c([H])c([H])c([H])c5n5c4c1n2[C@@]1([H])O[C@@]5(C([H])([H])[H])[C@@]([H])(N([H])C([H])([H])[H])C1([H])[H])C([H])([H])N([H])C3=O


 34 41  0  0  0  0  0  0  0  0999 V2000
   -7.0500   23.6458  -21.7890 C   0  0  0  0  0  0  0  0  0  0  0  0
   -7.4217   23.8171  -23.2321 C   0  0  0  0  0  0  0  0  0  0  0  0
   -6.2045   23.5326  -24.0612 C   0  0  0  0  0  0  0  0  0  0  0  0
   -5.0805   23.1855  -23.1305 O   0  0  0  0  0  0  0  0  0  0  0  0
   -5.6031   23.2555  -21.7263 C   0  0  0  0  0  0  0  0  0  0  0  0
   -4.8167   22.9830  -20.4783 C   0  0  0  0  0  0  0  0  0  0  0  0
   -4.1548   22.8715  -21.7979 N   0  0  0  0  0  0  0  0  0  0  0  0
   -3.3146   22.5865  -20.5884 C   0  0  0  0  0  0  0  0  0  0  0  0
   -3.6299   22.5979  -19.1220 C   0  0  0  0  0  0  0  0  0  0  0  0
   -2.5626   22.2625  -18.1227 C   0  0  0  0  0  0  0  0  0  0  0  0
   -1.1801   21.9158  -18.5899 C   0  0  0  0  0  0  0  0  0  0  0  0
   -0.8648   21.9045  -20.0564 C   0  0  0  0  0  0  0  0  0  0  0  0
   -1.9321   22.2398  -21.0556 C   0  0  0  0  0  0  0  0  0  0  0  0
   -1.9177   22.3105  -22.5539 C   0  0  0  0  0  0  0  0  0  0  0  0
   -0.9284   22.1063  -23.7712 C   0  0  0  0  0  0  0  0  0  0  0  0
    0.5185   21.7160  -23.7085 C   0  0  0  0  0  0  0  0  0  0  0  0
    1.0411   21.6461  -25.1128 N   0  0  0  0  0  0  0  0  0  0  0  0
   -0.0829   21.9932  -26.0434 C   0  0  0  0  0  0  0  0  0  0  0  0
   -0.0036   22.0465  -27.5404 O   0  0  0  0  0  0  0  0  0  0  0  0
   -1.3002   22.2776  -25.2144 C   0  0  0  0  0  0  0  0  0  0  0  0
   -2.6990   22.6705  -25.5870 C   0  0  0  0  0  0  0  0  0  0  0  0
   -3.4299   22.9300  -26.8708 C   0  0  0  0  0  0  0  0  0  0  0  0
   -2.9892   22.8834  -28.3039 C   0  0  0  0  0  0  0  0  0  0  0  0
   -3.9643   23.1988  -29.3991 C   0  0  0  0  0  0  0  0  0  0  0  0
   -5.3802   23.5609  -29.0614 C   0  0  0  0  0  0  0  0  0  0  0  0
   -5.8210   23.6075  -27.6283 C   0  0  0  0  0  0  0  0  0  0  0  0
   -4.8459   23.2921  -26.5331 C   0  0  0  0  0  0  0  0  0  0  0  0
   -4.9900   23.2564  -25.0405 N   0  0  0  0  0  0  0  0  0  0  0  0
   -3.6632   22.8722  -24.4558 C   0  0  0  0  0  0  0  0  0  0  0  0
   -3.2915   22.7009  -23.0127 C   0  0  0  0  0  0  0  0  0  0  0  0
    2.4417   21.2913  -25.5157 H   0  0  0  0  0  0  0  0  0  0  0  0
   -9.0874   25.1908  -22.2493 C   0  0  0  0  0  0  0  0  0  0  0  0
   -8.4819   24.0165  -21.5392 N   0  0  0  0  0  0  0  0  0  0  0  0
   -9.2623   23.4585  -20.7936 H   0  0  0  0  0  0  0  0  0  0  0  0
 32 33  1  0  0  0
 33  1  1  0  0  0
  1  2  1  0  0  0
  2  3  1  0  0  0
  3  4  1  0  0  0
  4  5  1  0  0  0
  5  6  1  0  0  0
  5  7  1  0  0  0
  7  8  1  0  0  0
  8  9  2  0  0  0
  9 10  1  0  0  0
 10 11  2  0  0  0
 11 12  1  0  0  0
 12 13  2  0  0  0
 13 14  1  0  0  0
 14 15  2  0  0  0
 15 16  1  0  0  0
 16 17  1  0  0  0
 17 18  1  0  0  0
 18 19  2  0  0  0
 18 20  1  0  0  0
 20 21  2  0  0  0
 21 22  1  0  0  0
 22 23  2  0  0  0
 23 24  1  0  0  0
 24 25  2  0  0  0
 25 26  1  0  0  0
 26 27  2  0  0  0
 27 28  1  0  0  0
 28 29  1  0  0  0
 29 30  2  0  0  0
  5  1  1  0  0  0
 30  7  1  0  0  0
 28  3  1  0  0  0
 13  8  1  0  0  0
 30 14  1  0  0  0
 20 15  1  0  0  0
 29 21  1  0  0  0
 27 22  1  0  0  0
 33 34  1  0  0  0
 17 31  1  0  0  0
M  END
> <minimizedAffinity>
-10.28862

> <CNNscore>
0.5069385767

> <CNNaffinity>
6.9460930824

> <CNN_VS>
3.5212426186

> <CNNaffinity_variance>
0.2975085378

$$$$
[H]c1c([H])c([H])c2c(c1[H])c1c3c(c4c5c([H])c([H])c([H])c([H])c5n5c4c1n2[C@@]1([H])O[C@@]5(C([H])([H])[H])[C@@]([H])(N([H])C([H])([H])[H])C1([H])[H])C([H])([H])N([H])C3=O


 34 41  0  0  0  0  0  0  0  0999 V2000
   -4.7612   22.8064  -19.9585 C   0  0  0  0  0  0  0  0  0  0  0  0
   -3.3932   22.2871  -19.6287 C   0  0  0  0  0  0  0  0  0  0  0  0
   -2.6031   22.2205  -20.9020 C   0  0  0  0  0  0  0  0  0  0  0  0
   -3.4828   22.6987  -22.0189 O   0  0  0  0  0  0  0  0  0  0  0  0
   -4.8166   23.0608  -21.4358 C   0  0  0  0  0  0  0  0  0  0  0  0
   -5.9983   23.5853  -22.1964 C   0  0  0  0  0  0  0  0  0  0  0  0
   -4.7445   23.2727  -22.9190 N   0  0  0  0  0  0  0  0  0  0  0  0
   -5.8895   23.7936  -23.7360 C   0  0  0  0  0  0  0  0  0  0  0  0
   -7.2817   24.2090  -23.3626 C   0  0  0  0  0  0  0  0  0  0  0  0
   -8.2266   24.6999  -24.4192 C   0  0  0  0  0  0  0  0  0  0  0  0
   -7.7795   24.7752  -25.8489 C   0  0  0  0  0  0  0  0  0  0  0  0
   -6.3873   24.3597  -26.2222 C   0  0  0  0  0  0  0  0  0  0  0  0
   -5.4424   23.8689  -25.1657 C   0  0  0  0  0  0  0  0  0  0  0  0
   -4.0209   23.3946  -25.2325 C   0  0  0  0  0  0  0  0  0  0  0  0
   -2.8632   23.1676  -26.2863 C   0  0  0  0  0  0  0  0  0  0  0  0
   -2.9186   23.4220  -27.7635 C   0  0  0  0  0  0  0  0  0  0  0  0
   -1.5848   23.0599  -28.3466 N   0  0  0  0  0  0  0  0  0  0  0  0
   -0.7051   22.5817  -27.2298 C   0  0  0  0  0  0  0  0  0  0  0  0
    0.7153   22.1183  -27.3628 O   0  0  0  0  0  0  0  0  0  0  0  0
   -1.4951   22.6482  -25.9564 C   0  0  0  0  0  0  0  0  0  0  0  0
   -1.1456   22.3030  -24.5391 C   0  0  0  0  0  0  0  0  0  0  0  0
    0.0703   21.7762  -23.8364 C   0  0  0  0  0  0  0  0  0  0  0  0
    1.4311   21.3916  -24.3368 C   0  0  0  0  0  0  0  0  0  0  0  0
    2.4674   20.8852  -23.3779 C   0  0  0  0  0  0  0  0  0  0  0  0
    2.1430   20.7632  -21.9186 C   0  0  0  0  0  0  0  0  0  0  0  0
    0.7822   21.1478  -21.4180 C   0  0  0  0  0  0  0  0  0  0  0  0
   -0.2541   21.6542  -22.3770 C   0  0  0  0  0  0  0  0  0  0  0  0
   -1.6706   22.1057  -22.1777 N   0  0  0  0  0  0  0  0  0  0  0  0
   -2.2216   22.5067  -23.5140 C   0  0  0  0  0  0  0  0  0  0  0  0
   -3.5896   23.0261  -23.8439 C   0  0  0  0  0  0  0  0  0  0  0  0
   -1.1986   23.1586  -29.7926 H   0  0  0  0  0  0  0  0  0  0  0  0
   -5.7930   23.6905  -17.7441 C   0  0  0  0  0  0  0  0  0  0  0  0
   -5.0023   22.6539  -18.4859 N   0  0  0  0  0  0  0  0  0  0  0  0
   -4.6192   21.7483  -17.7722 H   0  0  0  0  0  0  0  0  0  0  0  0
 32 33  1  0  0  0
 33  1  1  0  0  0
  1  2  1  0  0  0
  2  3  1  0  0  0
  3  4  1  0  0  0
  4  5  1  0  0  0
  5  6  1  0  0  0
  5  7  1  0  0  0
  7  8  1  0  0  0
  8  9  2  0  0  0
  9 10  1  0  0  0
 10 11  2  0  0  0
 11 12  1  0  0  0
 12 13  2  0  0  0
 13 14  1  0  0  0
 14 15  2  0  0  0
 15 16  1  0  0  0
 16 17  1  0  0  0
 17 18  1  0  0  0
 18 19  2  0  0  0
 18 20  1  0  0  0
 20 21  2  0  0  0
 21 22  1  0  0  0
 22 23  2  0  0  0
 23 24  1  0  0  0
 24 25  2  0  0  0
 25 26  1  0  0  0
 26 27  2  0  0  0
 27 28  1  0  0  0
 28 29  1  0  0  0
 29 30  2  0  0  0
  5  1  1  0  0  0
 30  7  1  0  0  0
 28  3  1  0  0  0
 13  8  1  0  0  0
 30 14  1  0  0  0
 20 15  1  0  0  0
 29 21  1  0  0  0
 27 22  1  0  0  0
 33 34  1  0  0  0
 17 31  1  0  0  0
M  END
> <minimizedAffinity>
-10.60742

> <CNNscore>
0.4978595972

> <CNNaffinity>
6.7753052711

> <CNN_VS>
3.3731508255

> <CNNaffinity_variance>
0.2024184912

$$$$
[H]c1c([H])c([H])c2c(c1[H])c1c3c(c4c5c([H])c([H])c([H])c([H])c5n5c4c1n2[C@@]1([H])O[C@@]5(C([H])([H])[H])[C@@]([H])(N([H])C([H])([H])[H])C1([H])[H])C([H])([H])N([H])C3=O


 34 41  0  0  0  0  0  0  0  0999 V2000
   -7.1835   23.8837  -22.8919 C   0  0  0  0  0  0  0  0  0  0  0  0
   -6.6164   23.7114  -21.5139 C   0  0  0  0  0  0  0  0  0  0  0  0
   -5.1738   23.3242  -21.6514 C   0  0  0  0  0  0  0  0  0  0  0  0
   -4.8493   23.2572  -23.1144 O   0  0  0  0  0  0  0  0  0  0  0  0
   -6.0914   23.6030  -23.8810 C   0  0  0  0  0  0  0  0  0  0  0  0
   -6.2188   23.6584  -25.3745 C   0  0  0  0  0  0  0  0  0  0  0  0
   -4.9184   23.2990  -24.7651 N   0  0  0  0  0  0  0  0  0  0  0  0
   -4.9810   23.3369  -26.2633 C   0  0  0  0  0  0  0  0  0  0  0  0
   -6.0982   23.6517  -27.2135 C   0  0  0  0  0  0  0  0  0  0  0  0
   -5.8586   23.6078  -28.6936 C   0  0  0  0  0  0  0  0  0  0  0  0
   -4.5020   23.2493  -29.2235 C   0  0  0  0  0  0  0  0  0  0  0  0
   -3.3848   22.9346  -28.2733 C   0  0  0  0  0  0  0  0  0  0  0  0
   -3.6243   22.9784  -26.7932 C   0  0  0  0  0  0  0  0  0  0  0  0
   -2.7231   22.7188  -25.6225 C   0  0  0  0  0  0  0  0  0  0  0  0
   -1.2278   22.3110  -25.3063 C   0  0  0  0  0  0  0  0  0  0  0  0
   -0.1356   22.0303  -26.2954 C   0  0  0  0  0  0  0  0  0  0  0  0
    1.1064   21.6845  -25.5288 N   0  0  0  0  0  0  0  0  0  0  0  0
    0.7819   21.7514  -24.0658 C   0  0  0  0  0  0  0  0  0  0  0  0
    1.7330   21.4790  -22.9383 O   0  0  0  0  0  0  0  0  0  0  0  0
   -0.6607   22.1387  -23.9282 C   0  0  0  0  0  0  0  0  0  0  0  0
   -1.5313   22.3566  -22.7263 C   0  0  0  0  0  0  0  0  0  0  0  0
   -1.3392   22.2840  -21.2405 C   0  0  0  0  0  0  0  0  0  0  0  0
   -0.1439   21.9497  -20.3981 C   0  0  0  0  0  0  0  0  0  0  0  0
   -0.2544   21.9585  -18.9022 C   0  0  0  0  0  0  0  0  0  0  0  0
   -1.5602   22.3016  -18.2487 C   0  0  0  0  0  0  0  0  0  0  0  0
   -2.7556   22.6359  -19.0911 C   0  0  0  0  0  0  0  0  0  0  0  0
   -2.6450   22.6270  -20.5869 C   0  0  0  0  0  0  0  0  0  0  0  0
   -3.6442   22.9118  -21.6689 N   0  0  0  0  0  0  0  0  0  0  0  0
   -2.9558   22.7447  -22.9911 C   0  0  0  0  0  0  0  0  0  0  0  0
   -3.5229   22.9170  -24.3690 C   0  0  0  0  0  0  0  0  0  0  0  0
    2.4390   21.3333  -26.1210 H   0  0  0  0  0  0  0  0  0  0  0  0
   -9.2584   25.4122  -22.5619 C   0  0  0  0  0  0  0  0  0  0  0  0
   -8.4495   24.2150  -22.1587 N   0  0  0  0  0  0  0  0  0  0  0  0
   -8.9354   23.6059  -21.2264 H   0  0  0  0  0  0  0  0  0  0  0  0
 32 33  1  0  0  0
 33  1  1  0  0  0
  1  2  1  0  0  0
  2  3  1  0  0  0
  3  4  1  0  0  0
  4  5  1  0  0  0
  5  6  1  0  0  0
  5  7  1  0  0  0
  7  8  1  0  0  0
  8  9  2  0  0  0
  9 10  1  0  0  0
 10 11  2  0  0  0
 11 12  1  0  0  0
 12 13  2  0  0  0
 13 14  1  0  0  0
 14 15  2  0  0  0
 15 16  1  0  0  0
 16 17  1  0  0  0
 17 18  1  0  0  0
 18 19  2  0  0  0
 18 20  1  0  0  0
 20 21  2  0  0  0
 21 22  1  0  0  0
 22 23  2  0  0  0
 23 24  1  0  0  0
 24 25  2  0  0  0
 25 26  1  0  0  0
 26 27  2  0  0  0
 27 28  1  0  0  0
 28 29  1  0  0  0
 29 30  2  0  0  0
  5  1  1  0  0  0
 30  7  1  0  0  0
 28  3  1  0  0  0
 13  8  1  0  0  0
 30 14  1  0  0  0
 20 15  1  0  0  0
 29 21  1  0  0  0
 27 22  1  0  0  0
 33 34  1  0  0  0
 17 31  1  0  0  0
M  END
> <minimizedAffinity>
-10.35436

> <CNNscore>
0.4974557757

> <CNNaffinity>
6.9696564674

> <CNN_VS>
3.4670958519

> <CNNaffinity_variance>
0.2333208770

$$$$
[H]c1c([H])c([H])c2c(c1[H])c1c3c(c4c5c([H])c([H])c([H])c([H])c5n5c4c1n2[C@@]1([H])O[C@@]5(C([H])([H])[H])[C@@]([H])(N([H])C([H])([H])[H])C1([H])[H])C([H])([H])N([H])C3=O


 34 41  0  0  0  0  0  0  0  0999 V2000
   -6.6760   24.0121  -21.6870 C   0  0  0  0  0  0  0  0  0  0  0  0
   -5.8836   23.3592  -20.5936 C   0  0  0  0  0  0  0  0  0  0  0  0
   -4.5713   22.9189  -21.1716 C   0  0  0  0  0  0  0  0  0  0  0  0
   -4.5527   23.2996  -22.6223 O   0  0  0  0  0  0  0  0  0  0  0  0
   -5.8535   23.9753  -22.9409 C   0  0  0  0  0  0  0  0  0  0  0  0
   -6.2604   24.5187  -24.2785 C   0  0  0  0  0  0  0  0  0  0  0  0
   -4.9357   23.8760  -24.1231 N   0  0  0  0  0  0  0  0  0  0  0  0
   -5.2832   24.3991  -25.4854 C   0  0  0  0  0  0  0  0  0  0  0  0
   -6.5036   25.0942  -26.0122 C   0  0  0  0  0  0  0  0  0  0  0  0
   -6.5672   25.5093  -27.4523 C   0  0  0  0  0  0  0  0  0  0  0  0
   -5.4105   25.2295  -28.3653 C   0  0  0  0  0  0  0  0  0  0  0  0
   -4.1902   24.5344  -27.8384 C   0  0  0  0  0  0  0  0  0  0  0  0
   -4.1266   24.1193  -26.3984 C   0  0  0  0  0  0  0  0  0  0  0  0
   -3.0640   23.4231  -25.6005 C   0  0  0  0  0  0  0  0  0  0  0  0
   -1.6152   22.8130  -25.7765 C   0  0  0  0  0  0  0  0  0  0  0  0
   -0.7927   22.7762  -27.0304 C   0  0  0  0  0  0  0  0  0  0  0  0
    0.5081   22.1006  -26.7118 N   0  0  0  0  0  0  0  0  0  0  0  0
    0.4895   21.7198  -25.2611 C   0  0  0  0  0  0  0  0  0  0  0  0
    1.5899   21.0213  -24.5187 O   0  0  0  0  0  0  0  0  0  0  0  0
   -0.8228   22.1601  -24.6830 C   0  0  0  0  0  0  0  0  0  0  0  0
   -1.3985   22.0509  -23.3022 C   0  0  0  0  0  0  0  0  0  0  0  0
   -0.9332   21.4883  -21.9919 C   0  0  0  0  0  0  0  0  0  0  0  0
    0.3388   20.8030  -21.5888 C   0  0  0  0  0  0  0  0  0  0  0  0
    0.5252   20.3391  -20.1746 C   0  0  0  0  0  0  0  0  0  0  0  0
   -0.5604   20.5603  -19.1635 C   0  0  0  0  0  0  0  0  0  0  0  0
   -1.8325   21.2456  -19.5665 C   0  0  0  0  0  0  0  0  0  0  0  0
   -2.0188   21.7095  -20.9807 C   0  0  0  0  0  0  0  0  0  0  0  0
   -3.1551   22.4090  -21.6661 N   0  0  0  0  0  0  0  0  0  0  0  0
   -2.7717   22.6199  -23.1008 C   0  0  0  0  0  0  0  0  0  0  0  0
   -3.5642   23.2728  -24.1943 C   0  0  0  0  0  0  0  0  0  0  0  0
    1.6303   21.8497  -27.6748 H   0  0  0  0  0  0  0  0  0  0  0  0
   -8.0424   23.0567  -19.6945 C   0  0  0  0  0  0  0  0  0  0  0  0
   -7.7093   24.1933  -20.6149 N   0  0  0  0  0  0  0  0  0  0  0  0
   -8.3502   25.1983  -20.3794 H   0  0  0  0  0  0  0  0  0  0  0  0
 32 33  1  0  0  0
 33  1  1  0  0  0
  1  2  1  0  0  0
  2  3  1  0  0  0
  3  4  1  0  0  0
  4  5  1  0  0  0
  5  6  1  0  0  0
  5  7  1  0  0  0
  7  8  1  0  0  0
  8  9  2  0  0  0
  9 10  1  0  0  0
 10 11  2  0  0  0
 11 12  1  0  0  0
 12 13  2  0  0  0
 13 14  1  0  0  0
 14 15  2  0  0  0
 15 16  1  0  0  0
 16 17  1  0  0  0
 17 18  1  0  0  0
 18 19  2  0  0  0
 18 20  1  0  0  0
 20 21  2  0  0  0
 21 22  1  0  0  0
 22 23  2  0  0  0
 23 24  1  0  0  0
 24 25  2  0  0  0
 25 26  1  0  0  0
 26 27  2  0  0  0
 27 28  1  0  0  0
 28 29  1  0  0  0
 29 30  2  0  0  0
  5  1  1  0  0  0
 30  7  1  0  0  0
 28  3  1  0  0  0
 13  8  1  0  0  0
 30 14  1  0  0  0
 20 15  1  0  0  0
 29 21  1  0  0  0
 27 22  1  0  0  0
 33 34  1  0  0  0
 17 31  1  0  0  0
M  END
> <minimizedAffinity>
-9.55609

> <CNNscore>
0.4832381308

> <CNNaffinity>
6.9121751785

> <CNN_VS>
3.3402266502

> <CNNaffinity_variance>
0.5867444277

$$$$
[H]c1nc2c(c([H])c1[H])c(C1=C(c3nc(N4C([H])([H])C([H])([H])N(C([H])([H])[H])C([H])([H])C4([H])[H])nc4c([H])c([H])c(F)c([H])c34)C(=O)N([H])C1=O)c([H])n2[H]


 36 41  0  0  0  0  0  0  0  0999 V2000
   -3.9319   21.9159  -24.6722 C   0  0  0  0  0  0  0  0  0  0  0  0
   -4.5560   22.5105  -25.6958 N   0  0  0  0  0  0  0  0  0  0  0  0
   -3.8781   22.9401  -26.7989 C   0  0  0  0  0  0  0  0  0  0  0  0
   -2.5290   22.7571  -26.8499 C   0  0  0  0  0  0  0  0  0  0  0  0
   -1.7273   23.1676  -27.8865 C   0  0  0  0  0  0  0  0  0  0  0  0
   -0.3410   22.9793  -27.8920 C   0  0  0  0  0  0  0  0  0  0  0  0
    0.4339   23.3903  -28.9247 F   0  0  0  0  0  0  0  0  0  0  0  0
    0.2594   22.3633  -26.8280 C   0  0  0  0  0  0  0  0  0  0  0  0
   -0.4999   21.9400  -25.7718 C   0  0  0  0  0  0  0  0  0  0  0  0
   -1.8580   22.1358  -25.7880 C   0  0  0  0  0  0  0  0  0  0  0  0
   -2.6076   21.7443  -24.7444 N   0  0  0  0  0  0  0  0  0  0  0  0
   -4.5758   23.5962  -27.8875 C   0  0  0  0  0  0  0  0  0  0  0  0
   -5.2871   24.7204  -27.8502 C   0  0  0  0  0  0  0  0  0  0  0  0
   -5.7914   24.9671  -29.1893 C   0  0  0  0  0  0  0  0  0  0  0  0
   -6.5117   25.9488  -29.5541 O   0  0  0  0  0  0  0  0  0  0  0  0
   -5.3491   23.9298  -30.0462 N   0  0  0  0  0  0  0  0  0  0  0  0
   -4.5788   23.0525  -29.2432 C   0  0  0  0  0  0  0  0  0  0  0  0
   -4.0271   22.0104  -29.6914 O   0  0  0  0  0  0  0  0  0  0  0  0
   -5.5617   23.8413  -31.0857 H   0  0  0  0  0  0  0  0  0  0  0  0
   -5.4668   25.6057  -26.6832 C   0  0  0  0  0  0  0  0  0  0  0  0
   -4.7034   26.7424  -26.4089 C   0  0  0  0  0  0  0  0  0  0  0  0
   -5.1364   27.2885  -25.2596 N   0  0  0  0  0  0  0  0  0  0  0  0
   -6.1590   26.5621  -24.7528 C   0  0  0  0  0  0  0  0  0  0  0  0
   -6.9075   26.6896  -23.6452 N   0  0  0  0  0  0  0  0  0  0  0  0
   -7.8877   25.8367  -23.3134 C   0  0  0  0  0  0  0  0  0  0  0  0
   -8.1152   24.7860  -24.1708 C   0  0  0  0  0  0  0  0  0  0  0  0
   -7.3631   24.6261  -25.3189 C   0  0  0  0  0  0  0  0  0  0  0  0
   -6.3604   25.5102  -25.6482 C   0  0  0  0  0  0  0  0  0  0  0  0
   -4.7713   28.1585  -24.7718 H   0  0  0  0  0  0  0  0  0  0  0  0
   -7.0145   21.5306  -20.2449 C   0  0  0  0  0  0  0  0  0  0  0  0
   -6.2688   21.9938  -21.3590 N   0  0  0  0  0  0  0  0  0  0  0  0
   -6.8335   21.8375  -22.6342 C   0  0  0  0  0  0  0  0  0  0  0  0
   -6.0182   21.0843  -23.6422 C   0  0  0  0  0  0  0  0  0  0  0  0
   -4.6167   21.4642  -23.5187 N   0  0  0  0  0  0  0  0  0  0  0  0
   -4.0326   21.3481  -22.2092 C   0  0  0  0  0  0  0  0  0  0  0  0
   -4.8730   22.0666  -21.2139 C   0  0  0  0  0  0  0  0  0  0  0  0
 30 31  1  0  0  0
 31 32  1  0  0  0
 32 33  1  0  0  0
 33 34  1  0  0  0
 34 35  1  0  0  0
 35 36  1  0  0  0
 34  1  1  0  0  0
  1  2  2  0  0  0
  2  3  1  0  0  0
  3 12  1  0  0  0
 12 13  2  0  0  0
 13 14  1  0  0  0
 14 15  2  0  0  0
 14 16  1  0  0  0
 16 17  1  0  0  0
 17 18  2  0  0  0
 13 20  1  0  0  0
 20 21  2  0  0  0
 21 22  1  0  0  0
 22 23  1  0  0  0
 23 24  2  0  0  0
 24 25  1  0  0  0
 25 26  2  0  0  0
 26 27  1  0  0  0
 27 28  2  0  0  0
  3  4  2  0  0  0
  4  5  1  0  0  0
  5  6  2  0  0  0
  6  7  1  0  0  0
  6  8  1  0  0  0
  8  9  2  0  0  0
  9 10  1  0  0  0
 10 11  2  0  0  0
 36 31  1  0  0  0
 11  1  1  0  0  0
 17 12  1  0  0  0
 28 20  1  0  0  0
 10  4  1  0  0  0
 28 23  1  0  0  0
 16 19  1  0  0  0
 22 29  1  0  0  0
M  END
> <minimizedAffinity>
-10.99069

> <CNNscore>
0.6989259720

> <CNNaffinity>
7.3409156799

> <CNN_VS>
5.1307568550

> <CNNaffinity_variance>
0.3857809603

$$$$
[H]c1nc2c(c([H])c1[H])c(C1=C(c3nc(N4C([H])([H])C([H])([H])N(C([H])([H])[H])C([H])([H])C4([H])[H])nc4c([H])c([H])c(F)c([H])c34)C(=O)N([H])C1=O)c([H])n2[H]


 36 41  0  0  0  0  0  0  0  0999 V2000
   -6.3747   23.8205  -15.0935 C   0  0  0  0  0  0  0  0  0  0  0  0
   -7.1092   23.2715  -16.0682 N   0  0  0  0  0  0  0  0  0  0  0  0
   -6.5759   22.3853  -16.9576 C   0  0  0  0  0  0  0  0  0  0  0  0
   -5.2581   22.0582  -16.8444 C   0  0  0  0  0  0  0  0  0  0  0  0
   -4.5937   21.2038  -17.6897 C   0  0  0  0  0  0  0  0  0  0  0  0
   -3.2330   20.9090  -17.5524 C   0  0  0  0  0  0  0  0  0  0  0  0
   -2.5946   20.0623  -18.3958 F   0  0  0  0  0  0  0  0  0  0  0  0
   -2.5171   21.4877  -16.5401 C   0  0  0  0  0  0  0  0  0  0  0  0
   -3.1375   22.3474  -15.6756 C   0  0  0  0  0  0  0  0  0  0  0  0
   -4.4730   22.6221  -15.8298 C   0  0  0  0  0  0  0  0  0  0  0  0
   -5.0840   23.4834  -14.9996 N   0  0  0  0  0  0  0  0  0  0  0  0
   -7.3895   21.8171  -18.0146 C   0  0  0  0  0  0  0  0  0  0  0  0
   -7.5374   22.2523  -19.2636 C   0  0  0  0  0  0  0  0  0  0  0  0
   -8.4566   21.3528  -19.9375 C   0  0  0  0  0  0  0  0  0  0  0  0
   -8.8446   21.4376  -21.1450 O   0  0  0  0  0  0  0  0  0  0  0  0
   -8.8627   20.3444  -19.0297 N   0  0  0  0  0  0  0  0  0  0  0  0
   -8.1994   20.6192  -17.8080 C   0  0  0  0  0  0  0  0  0  0  0  0
   -8.3351   19.9106  -16.7732 O   0  0  0  0  0  0  0  0  0  0  0  0
   -9.5339   19.5449  -19.2392 H   0  0  0  0  0  0  0  0  0  0  0  0
   -6.8347   23.3925  -19.8836 C   0  0  0  0  0  0  0  0  0  0  0  0
   -7.2011   24.7335  -19.7510 C   0  0  0  0  0  0  0  0  0  0  0  0
   -6.3474   25.4886  -20.4633 N   0  0  0  0  0  0  0  0  0  0  0  0
   -5.4242   24.7065  -21.0684 C   0  0  0  0  0  0  0  0  0  0  0  0
   -4.3869   24.9783  -21.8767 N   0  0  0  0  0  0  0  0  0  0  0  0
   -3.5820   24.0358  -22.3885 C   0  0  0  0  0  0  0  0  0  0  0  0
   -3.8577   22.7316  -22.0511 C   0  0  0  0  0  0  0  0  0  0  0  0
   -4.9173   22.4178  -21.2216 C   0  0  0  0  0  0  0  0  0  0  0  0
   -5.7351   23.3959  -20.7019 C   0  0  0  0  0  0  0  0  0  0  0  0
   -6.3458   26.5451  -20.5735 H   0  0  0  0  0  0  0  0  0  0  0  0
   -7.4134   26.7905  -10.6945 C   0  0  0  0  0  0  0  0  0  0  0  0
   -6.9320   25.8198  -11.6098 N   0  0  0  0  0  0  0  0  0  0  0  0
   -5.9311   26.2118  -12.5121 C   0  0  0  0  0  0  0  0  0  0  0  0
   -6.2259   26.0156  -13.9690 C   0  0  0  0  0  0  0  0  0  0  0  0
   -6.9087   24.7426  -14.1619 N   0  0  0  0  0  0  0  0  0  0  0  0
   -8.0918   24.5222  -13.3737 C   0  0  0  0  0  0  0  0  0  0  0  0
   -7.7940   24.7589  -11.9355 C   0  0  0  0  0  0  0  0  0  0  0  0
 30 31  1  0  0  0
 31 32  1  0  0  0
 32 33  1  0  0  0
 33 34  1  0  0  0
 34 35  1  0  0  0
 35 36  1  0  0  0
 34  1  1  0  0  0
  1  2  2  0  0  0
  2  3  1  0  0  0
  3 12  1  0  0  0
 12 13  2  0  0  0
 13 14  1  0  0  0
 14 15  2  0  0  0
 14 16  1  0  0  0
 16 17  1  0  0  0
 17 18  2  0  0  0
 13 20  1  0  0  0
 20 21  2  0  0  0
 21 22  1  0  0  0
 22 23  1  0  0  0
 23 24  2  0  0  0
 24 25  1  0  0  0
 25 26  2  0  0  0
 26 27  1  0  0  0
 27 28  2  0  0  0
  3  4  2  0  0  0
  4  5  1  0  0  0
  5  6  2  0  0  0
  6  7  1  0  0  0
  6  8  1  0  0  0
  8  9  2  0  0  0
  9 10  1  0  0  0
 10 11  2  0  0  0
 36 31  1  0  0  0
 11  1  1  0  0  0
 17 12  1  0  0  0
 28 20  1  0  0  0
 10  4  1  0  0  0
 28 23  1  0  0  0
 16 19  1  0  0  0
 22 29  1  0  0  0
M  END
> <minimizedAffinity>
-6.55983

> <CNNscore>
0.3109704852

> <CNNaffinity>
5.6258521080

> <CNN_VS>
1.7494739294

> <CNNaffinity_variance>
0.1562199444

$$$$
[H]c1nc2c(c([H])c1[H])c(C1=C(c3nc(N4C([H])([H])C([H])([H])N(C([H])([H])[H])C([H])([H])C4([H])[H])nc4c([H])c([H])c(F)c([H])c34)C(=O)N([H])C1=O)c([H])n2[H]


 36 41  0  0  0  0  0  0  0  0999 V2000
   -6.2039   23.9481  -15.0071 C   0  0  0  0  0  0  0  0  0  0  0  0
   -6.8805   24.0502  -16.1571 N   0  0  0  0  0  0  0  0  0  0  0  0
   -6.3861   23.5551  -17.3282 C   0  0  0  0  0  0  0  0  0  0  0  0
   -5.1684   22.9440  -17.3175 C   0  0  0  0  0  0  0  0  0  0  0  0
   -4.5467   22.4300  -18.4289 C   0  0  0  0  0  0  0  0  0  0  0  0
   -3.2850   21.8276  -18.3800 C   0  0  0  0  0  0  0  0  0  0  0  0
   -2.6876   21.3248  -19.4874 F   0  0  0  0  0  0  0  0  0  0  0  0
   -2.6267   21.7389  -17.1839 C   0  0  0  0  0  0  0  0  0  0  0  0
   -3.2071   22.2399  -16.0510 C   0  0  0  0  0  0  0  0  0  0  0  0
   -4.4453   22.8270  -16.1229 C   0  0  0  0  0  0  0  0  0  0  0  0
   -5.0116   23.3425  -15.0193 N   0  0  0  0  0  0  0  0  0  0  0  0
   -7.1321   23.6930  -18.5638 C   0  0  0  0  0  0  0  0  0  0  0  0
   -8.1369   22.9410  -19.0069 C   0  0  0  0  0  0  0  0  0  0  0  0
   -8.5505   23.4723  -20.2933 C   0  0  0  0  0  0  0  0  0  0  0  0
   -9.4852   23.0234  -21.0285 O   0  0  0  0  0  0  0  0  0  0  0  0
   -7.7413   24.5902  -20.6116 N   0  0  0  0  0  0  0  0  0  0  0  0
   -6.8379   24.7472  -19.5312 C   0  0  0  0  0  0  0  0  0  0  0  0
   -5.9658   25.6575  -19.4860 O   0  0  0  0  0  0  0  0  0  0  0  0
   -7.8107   25.1846  -21.4922 H   0  0  0  0  0  0  0  0  0  0  0  0
   -8.7755   21.8204  -18.2897 C   0  0  0  0  0  0  0  0  0  0  0  0
   -9.9456   21.9103  -17.5328 C   0  0  0  0  0  0  0  0  0  0  0  0
  -10.2204   20.7011  -17.0142 N   0  0  0  0  0  0  0  0  0  0  0  0
   -9.2803   19.8051  -17.3931 C   0  0  0  0  0  0  0  0  0  0  0  0
   -9.1093   18.4983  -17.1355 N   0  0  0  0  0  0  0  0  0  0  0  0
   -8.0818   17.7797  -17.6108 C   0  0  0  0  0  0  0  0  0  0  0  0
   -7.1712   18.4422  -18.3999 C   0  0  0  0  0  0  0  0  0  0  0  0
   -7.3181   19.7864  -18.6843 C   0  0  0  0  0  0  0  0  0  0  0  0
   -8.3788   20.5120  -18.1907 C   0  0  0  0  0  0  0  0  0  0  0  0
  -11.0375   20.4274  -16.3931 H   0  0  0  0  0  0  0  0  0  0  0  0
   -7.1742   24.9561   -9.7828 C   0  0  0  0  0  0  0  0  0  0  0  0
   -6.7364   24.4018  -11.0128 N   0  0  0  0  0  0  0  0  0  0  0  0
   -5.6725   25.0354  -11.6733 C   0  0  0  0  0  0  0  0  0  0  0  0
   -5.9243   25.4748  -13.0846 C   0  0  0  0  0  0  0  0  0  0  0  0
   -6.6987   24.4562  -13.7822 N   0  0  0  0  0  0  0  0  0  0  0  0
   -7.9258   24.0413  -13.1565 C   0  0  0  0  0  0  0  0  0  0  0  0
   -7.6670   23.6461  -11.7459 C   0  0  0  0  0  0  0  0  0  0  0  0
 30 31  1  0  0  0
 31 32  1  0  0  0
 32 33  1  0  0  0
 33 34  1  0  0  0
 34 35  1  0  0  0
 35 36  1  0  0  0
 34  1  1  0  0  0
  1  2  2  0  0  0
  2  3  1  0  0  0
  3 12  1  0  0  0
 12 13  2  0  0  0
 13 14  1  0  0  0
 14 15  2  0  0  0
 14 16  1  0  0  0
 16 17  1  0  0  0
 17 18  2  0  0  0
 13 20  1  0  0  0
 20 21  2  0  0  0
 21 22  1  0  0  0
 22 23  1  0  0  0
 23 24  2  0  0  0
 24 25  1  0  0  0
 25 26  2  0  0  0
 26 27  1  0  0  0
 27 28  2  0  0  0
  3  4  2  0  0  0
  4  5  1  0  0  0
  5  6  2  0  0  0
  6  7  1  0  0  0
  6  8  1  0  0  0
  8  9  2  0  0  0
  9 10  1  0  0  0
 10 11  2  0  0  0
 36 31  1  0  0  0
 11  1  1  0  0  0
 17 12  1  0  0  0
 28 20  1  0  0  0
 10  4  1  0  0  0
 28 23  1  0  0  0
 16 19  1  0  0  0
 22 29  1  0  0  0
M  END
> <minimizedAffinity>
-5.81895

> <CNNscore>
0.2836996913

> <CNNaffinity>
5.6724977493

> <CNN_VS>
1.6092858315

> <CNNaffinity_variance>
0.0314783566

$$$$
[H]c1nc2c(c([H])c1[H])c(C1=C(c3nc(N4C([H])([H])C([H])([H])N(C([H])([H])[H])C([H])([H])C4([H])[H])nc4c([H])c([H])c(F)c([H])c34)C(=O)N([H])C1=O)c([H])n2[H]


 36 41  0  0  0  0  0  0  0  0999 V2000
   -5.5312   23.1433  -20.3262 C   0  0  0  0  0  0  0  0  0  0  0  0
   -5.0244   21.9447  -20.0142 N   0  0  0  0  0  0  0  0  0  0  0  0
   -4.7065   21.6111  -18.7302 C   0  0  0  0  0  0  0  0  0  0  0  0
   -4.9116   22.5305  -17.7458 C   0  0  0  0  0  0  0  0  0  0  0  0
   -4.6083   22.3321  -16.4212 C   0  0  0  0  0  0  0  0  0  0  0  0
   -4.8150   23.3101  -15.4424 C   0  0  0  0  0  0  0  0  0  0  0  0
   -4.5105   23.0957  -14.1396 F   0  0  0  0  0  0  0  0  0  0  0  0
   -5.3391   24.5220  -15.8010 C   0  0  0  0  0  0  0  0  0  0  0  0
   -5.6538   24.7647  -17.1100 C   0  0  0  0  0  0  0  0  0  0  0  0
   -5.4421   23.7906  -18.0530 C   0  0  0  0  0  0  0  0  0  0  0  0
   -5.7264   24.0295  -19.3440 N   0  0  0  0  0  0  0  0  0  0  0  0
   -4.1435   20.3113  -18.4208 C   0  0  0  0  0  0  0  0  0  0  0  0
   -4.7705   19.2311  -17.9612 C   0  0  0  0  0  0  0  0  0  0  0  0
   -3.7807   18.1802  -17.8054 C   0  0  0  0  0  0  0  0  0  0  0  0
   -3.9958   16.9980  -17.3911 O   0  0  0  0  0  0  0  0  0  0  0  0
   -2.5138   18.6797  -18.1945 N   0  0  0  0  0  0  0  0  0  0  0  0
   -2.7208   20.0253  -18.5873 C   0  0  0  0  0  0  0  0  0  0  0  0
   -1.7934   20.7767  -18.9957 O   0  0  0  0  0  0  0  0  0  0  0  0
   -1.5969   18.1384  -18.1876 H   0  0  0  0  0  0  0  0  0  0  0  0
   -6.2212   19.0922  -17.7284 C   0  0  0  0  0  0  0  0  0  0  0  0
   -7.1631   18.7420  -18.6982 C   0  0  0  0  0  0  0  0  0  0  0  0
   -8.3826   18.7287  -18.1332 N   0  0  0  0  0  0  0  0  0  0  0  0
   -8.2949   19.0569  -16.8237 C   0  0  0  0  0  0  0  0  0  0  0  0
   -9.2131   19.1870  -15.8525 N   0  0  0  0  0  0  0  0  0  0  0  0
   -8.9126   19.5384  -14.5937 C   0  0  0  0  0  0  0  0  0  0  0  0
   -7.5870   19.7718  -14.3122 C   0  0  0  0  0  0  0  0  0  0  0  0
   -6.6174   19.6465  -15.2886 C   0  0  0  0  0  0  0  0  0  0  0  0
   -6.9398   19.2836  -16.5769 C   0  0  0  0  0  0  0  0  0  0  0  0
   -9.3129   18.5026  -18.5932 H   0  0  0  0  0  0  0  0  0  0  0  0
   -5.4994   24.0678  -25.6550 C   0  0  0  0  0  0  0  0  0  0  0  0
   -5.1455   23.7714  -24.3138 N   0  0  0  0  0  0  0  0  0  0  0  0
   -5.4807   22.5034  -23.8144 C   0  0  0  0  0  0  0  0  0  0  0  0
   -6.3170   22.4711  -22.5703 C   0  0  0  0  0  0  0  0  0  0  0  0
   -5.8662   23.5091  -21.6519 N   0  0  0  0  0  0  0  0  0  0  0  0
   -5.7961   24.8461  -22.1779 C   0  0  0  0  0  0  0  0  0  0  0  0
   -4.9968   24.8558  -23.4326 C   0  0  0  0  0  0  0  0  0  0  0  0
 30 31  1  0  0  0
 31 32  1  0  0  0
 32 33  1  0  0  0
 33 34  1  0  0  0
 34 35  1  0  0  0
 35 36  1  0  0  0
 34  1  1  0  0  0
  1  2  2  0  0  0
  2  3  1  0  0  0
  3 12  1  0  0  0
 12 13  2  0  0  0
 13 14  1  0  0  0
 14 15  2  0  0  0
 14 16  1  0  0  0
 16 17  1  0  0  0
 17 18  2  0  0  0
 13 20  1  0  0  0
 20 21  2  0  0  0
 21 22  1  0  0  0
 22 23  1  0  0  0
 23 24  2  0  0  0
 24 25  1  0  0  0
 25 26  2  0  0  0
 26 27  1  0  0  0
 27 28  2  0  0  0
  3  4  2  0  0  0
  4  5  1  0  0  0
  5  6  2  0  0  0
  6  7  1  0  0  0
  6  8  1  0  0  0
  8  9  2  0  0  0
  9 10  1  0  0  0
 10 11  2  0  0  0
 36 31  1  0  0  0
 11  1  1  0  0  0
 17 12  1  0  0  0
 28 20  1  0  0  0
 10  4  1  0  0  0
 28 23  1  0  0  0
 16 19  1  0  0  0
 22 29  1  0  0  0
M  END
> <minimizedAffinity>
-5.64673

> <CNNscore>
0.2215381712

> <CNNaffinity>
5.7184987068

> <CNN_VS>
1.2668657303

> <CNNaffinity_variance>
0.3239405155

$$$$
[H]c1nc2c(c([H])c1[H])c(C1=C(c3nc(N4C([H])([H])C([H])([H])N(C([H])([H])[H])C([H])([H])C4([H])[H])nc4c([H])c([H])c(F)c([H])c34)C(=O)N([H])C1=O)c([H])n2[H]


 36 41  0  0  0  0  0  0  0  0999 V2000
   -6.1066   23.2492  -20.0453 C   0  0  0  0  0  0  0  0  0  0  0  0
   -6.8305   22.1868  -19.6736 N   0  0  0  0  0  0  0  0  0  0  0  0
   -7.1488   21.9555  -18.3674 C   0  0  0  0  0  0  0  0  0  0  0  0
   -6.7113   22.8339  -17.4223 C   0  0  0  0  0  0  0  0  0  0  0  0
   -6.9374   22.7019  -16.0742 C   0  0  0  0  0  0  0  0  0  0  0  0
   -6.4529   23.6158  -15.1322 C   0  0  0  0  0  0  0  0  0  0  0  0
   -6.6872   23.4696  -13.8057 F   0  0  0  0  0  0  0  0  0  0  0  0
   -5.7198   24.6918  -15.5526 C   0  0  0  0  0  0  0  0  0  0  0  0
   -5.4677   24.8620  -16.8863 C   0  0  0  0  0  0  0  0  0  0  0  0
   -5.9527   23.9526  -17.7923 C   0  0  0  0  0  0  0  0  0  0  0  0
   -5.6895   24.0996  -19.1013 N   0  0  0  0  0  0  0  0  0  0  0  0
   -7.9208   20.7880  -17.9893 C   0  0  0  0  0  0  0  0  0  0  0  0
   -7.4808   19.5591  -17.7296 C   0  0  0  0  0  0  0  0  0  0  0  0
   -8.6330   18.7389  -17.4010 C   0  0  0  0  0  0  0  0  0  0  0  0
   -8.6168   17.5061  -17.0919 O   0  0  0  0  0  0  0  0  0  0  0  0
   -9.8016   19.5356  -17.4758 N   0  0  0  0  0  0  0  0  0  0  0  0
   -9.3737   20.8347  -17.8460 C   0  0  0  0  0  0  0  0  0  0  0  0
  -10.1651   21.8043  -18.0038 O   0  0  0  0  0  0  0  0  0  0  0  0
  -10.7972   19.2082  -17.2877 H   0  0  0  0  0  0  0  0  0  0  0  0
   -6.0718   19.1210  -17.6978 C   0  0  0  0  0  0  0  0  0  0  0  0
   -5.4137   18.4480  -18.7294 C   0  0  0  0  0  0  0  0  0  0  0  0
   -4.1508   18.1949  -18.3454 N   0  0  0  0  0  0  0  0  0  0  0  0
   -3.9372   18.6710  -17.0973 C   0  0  0  0  0  0  0  0  0  0  0  0
   -2.8658   18.6598  -16.2876 N   0  0  0  0  0  0  0  0  0  0  0  0
   -2.8650   19.1895  -15.0557 C   0  0  0  0  0  0  0  0  0  0  0  0
   -4.0365   19.7670  -14.6257 C   0  0  0  0  0  0  0  0  0  0  0  0
   -5.1568   19.7954  -15.4340 C   0  0  0  0  0  0  0  0  0  0  0  0
   -5.1434   19.2488  -16.6976 C   0  0  0  0  0  0  0  0  0  0  0  0
   -3.3882   17.6997  -18.8945 H   0  0  0  0  0  0  0  0  0  0  0  0
   -4.3869   25.4779  -24.6634 C   0  0  0  0  0  0  0  0  0  0  0  0
   -4.7986   25.2400  -23.3271 N   0  0  0  0  0  0  0  0  0  0  0  0
   -3.8947   24.5936  -22.4700 C   0  0  0  0  0  0  0  0  0  0  0  0
   -4.3775   23.3378  -21.8080 C   0  0  0  0  0  0  0  0  0  0  0  0
   -5.7648   23.5062  -21.3946 N   0  0  0  0  0  0  0  0  0  0  0  0
   -6.6912   23.9291  -22.4105 C   0  0  0  0  0  0  0  0  0  0  0  0
   -6.1800   25.1527  -23.0849 C   0  0  0  0  0  0  0  0  0  0  0  0
 30 31  1  0  0  0
 31 32  1  0  0  0
 32 33  1  0  0  0
 33 34  1  0  0  0
 34 35  1  0  0  0
 35 36  1  0  0  0
 34  1  1  0  0  0
  1  2  2  0  0  0
  2  3  1  0  0  0
  3 12  1  0  0  0
 12 13  2  0  0  0
 13 14  1  0  0  0
 14 15  2  0  0  0
 14 16  1  0  0  0
 16 17  1  0  0  0
 17 18  2  0  0  0
 13 20  1  0  0  0
 20 21  2  0  0  0
 21 22  1  0  0  0
 22 23  1  0  0  0
 23 24  2  0  0  0
 24 25  1  0  0  0
 25 26  2  0  0  0
 26 27  1  0  0  0
 27 28  2  0  0  0
  3  4  2  0  0  0
  4  5  1  0  0  0
  5  6  2  0  0  0
  6  7  1  0  0  0
  6  8  1  0  0  0
  8  9  2  0  0  0
  9 10  1  0  0  0
 10 11  2  0  0  0
 36 31  1  0  0  0
 11  1  1  0  0  0
 17 12  1  0  0  0
 28 20  1  0  0  0
 10  4  1  0  0  0
 28 23  1  0  0  0
 16 19  1  0  0  0
 22 29  1  0  0  0
M  END
> <minimizedAffinity>
-5.67803

> <CNNscore>
0.2192247361

> <CNNaffinity>
5.6390008926

> <CNN_VS>
1.2362084389

> <CNNaffinity_variance>
0.1538631022

$$$$
[H]c1nc2c(c([H])c1[H])c(C1=C(c3nc(N4C([H])([H])C([H])([H])N(C([H])([H])[H])C([H])([H])C4([H])[H])nc4c([H])c([H])c(F)c([H])c34)C(=O)N([H])C1=O)c([H])n2[H]


 36 41  0  0  0  0  0  0  0  0999 V2000
    3.0157   22.3975  -16.9180 C   0  0  0  0  0  0  0  0  0  0  0  0
    1.7003   22.2838  -17.1365 N   0  0  0  0  0  0  0  0  0  0  0  0
    1.2048   21.8655  -18.3367 C   0  0  0  0  0  0  0  0  0  0  0  0
    2.0803   21.5601  -19.3350 C   0  0  0  0  0  0  0  0  0  0  0  0
    1.7126   21.1563  -20.5950 C   0  0  0  0  0  0  0  0  0  0  0  0
    2.6429   20.8715  -21.6004 C   0  0  0  0  0  0  0  0  0  0  0  0
    2.2612   20.4731  -22.8379 F   0  0  0  0  0  0  0  0  0  0  0  0
    3.9796   20.9960  -21.3363 C   0  0  0  0  0  0  0  0  0  0  0  0
    4.3917   21.3979  -20.0953 C   0  0  0  0  0  0  0  0  0  0  0  0
    3.4612   21.6724  -19.1248 C   0  0  0  0  0  0  0  0  0  0  0  0
    3.8569   22.0903  -17.9110 N   0  0  0  0  0  0  0  0  0  0  0  0
   -0.2254   21.7663  -18.5530 C   0  0  0  0  0  0  0  0  0  0  0  0
   -0.9999   20.6886  -18.4537 C   0  0  0  0  0  0  0  0  0  0  0  0
   -2.3587   21.0921  -18.7688 C   0  0  0  0  0  0  0  0  0  0  0  0
   -3.3844   20.3415  -18.7788 O   0  0  0  0  0  0  0  0  0  0  0  0
   -2.3703   22.4765  -19.0673 N   0  0  0  0  0  0  0  0  0  0  0  0
   -1.0316   22.9224  -18.9366 C   0  0  0  0  0  0  0  0  0  0  0  0
   -0.6788   24.1175  -19.1326 O   0  0  0  0  0  0  0  0  0  0  0  0
   -3.2242   23.0535  -19.3350 H   0  0  0  0  0  0  0  0  0  0  0  0
   -0.5773   19.3422  -18.0216 C   0  0  0  0  0  0  0  0  0  0  0  0
   -0.5048   18.9068  -16.6967 C   0  0  0  0  0  0  0  0  0  0  0  0
   -0.0666   17.6363  -16.6813 N   0  0  0  0  0  0  0  0  0  0  0  0
    0.1580   17.2036  -17.9432 C   0  0  0  0  0  0  0  0  0  0  0  0
    0.5987   16.0378  -18.4430 N   0  0  0  0  0  0  0  0  0  0  0  0
    0.7644   15.8113  -19.7543 C   0  0  0  0  0  0  0  0  0  0  0  0
    0.4597   16.8455  -20.6079 C   0  0  0  0  0  0  0  0  0  0  0  0
    0.0039   18.0576  -20.1261 C   0  0  0  0  0  0  0  0  0  0  0  0
   -0.1631   18.2761  -18.7771 C   0  0  0  0  0  0  0  0  0  0  0  0
    0.0986   17.0128  -15.8373 H   0  0  0  0  0  0  0  0  0  0  0  0
    4.9727   22.6695  -11.8833 C   0  0  0  0  0  0  0  0  0  0  0  0
    4.3709   22.2541  -13.0987 N   0  0  0  0  0  0  0  0  0  0  0  0
    5.2171   21.9437  -14.1744 C   0  0  0  0  0  0  0  0  0  0  0  0
    4.9823   22.6932  -15.4516 C   0  0  0  0  0  0  0  0  0  0  0  0
    3.5496   22.8307  -15.6807 N   0  0  0  0  0  0  0  0  0  0  0  0
    2.7799   23.4053  -14.6099 C   0  0  0  0  0  0  0  0  0  0  0  0
    3.0531   22.6769  -13.3419 C   0  0  0  0  0  0  0  0  0  0  0  0
 30 31  1  0  0  0
 31 32  1  0  0  0
 32 33  1  0  0  0
 33 34  1  0  0  0
 34 35  1  0  0  0
 35 36  1  0  0  0
 34  1  1  0  0  0
  1  2  2  0  0  0
  2  3  1  0  0  0
  3 12  1  0  0  0
 12 13  2  0  0  0
 13 14  1  0  0  0
 14 15  2  0  0  0
 14 16  1  0  0  0
 16 17  1  0  0  0
 17 18  2  0  0  0
 13 20  1  0  0  0
 20 21  2  0  0  0
 21 22  1  0  0  0
 22 23  1  0  0  0
 23 24  2  0  0  0
 24 25  1  0  0  0
 25 26  2  0  0  0
 26 27  1  0  0  0
 27 28  2  0  0  0
  3  4  2  0  0  0
  4  5  1  0  0  0
  5  6  2  0  0  0
  6  7  1  0  0  0
  6  8  1  0  0  0
  8  9  2  0  0  0
  9 10  1  0  0  0
 10 11  2  0  0  0
 36 31  1  0  0  0
 11  1  1  0  0  0
 17 12  1  0  0  0
 28 20  1  0  0  0
 10  4  1  0  0  0
 28 23  1  0  0  0
 16 19  1  0  0  0
 22 29  1  0  0  0
M  END
> <minimizedAffinity>
-5.85159

> <CNNscore>
0.2101846486

> <CNNaffinity>
5.4499316216

> <CNN_VS>
1.1454919577

> <CNNaffinity_variance>
0.1813838184

$$$$
[H]c1nc2c(c([H])c1[H])c(C1=C(c3nc(N4C([H])([H])C([H])([H])N(C([H])([H])[H])C([H])([H])C4([H])[H])nc4c([H])c([H])c(F)c([H])c34)C(=O)N([H])C1=O)c([H])n2[H]


 36 41  0  0  0  0  0  0  0  0999 V2000
   -4.9317   23.0141  -20.2831 C   0  0  0  0  0  0  0  0  0  0  0  0
   -4.3237   21.8586  -19.9896 N   0  0  0  0  0  0  0  0  0  0  0  0
   -4.0630   21.4905  -18.7022 C   0  0  0  0  0  0  0  0  0  0  0  0
   -4.4330   22.3295  -17.6945 C   0  0  0  0  0  0  0  0  0  0  0  0
   -4.2040   22.0918  -16.3614 C   0  0  0  0  0  0  0  0  0  0  0  0
   -4.5814   22.9892  -15.3566 C   0  0  0  0  0  0  0  0  0  0  0  0
   -4.3481   22.7370  -14.0460 F   0  0  0  0  0  0  0  0  0  0  0  0
   -5.2048   24.1586  -15.6972 C   0  0  0  0  0  0  0  0  0  0  0  0
   -5.4509   24.4382  -17.0134 C   0  0  0  0  0  0  0  0  0  0  0  0
   -5.0714   23.5433  -17.9820 C   0  0  0  0  0  0  0  0  0  0  0  0
   -5.2882   23.8212  -19.2782 N   0  0  0  0  0  0  0  0  0  0  0  0
   -3.3883   20.2404  -18.4119 C   0  0  0  0  0  0  0  0  0  0  0  0
   -2.0807   19.9927  -18.4075 C   0  0  0  0  0  0  0  0  0  0  0  0
   -1.8984   18.5944  -18.0614 C   0  0  0  0  0  0  0  0  0  0  0  0
   -0.7891   17.9834  -17.9532 O   0  0  0  0  0  0  0  0  0  0  0  0
   -3.1682   18.0017  -17.8558 N   0  0  0  0  0  0  0  0  0  0  0  0
   -4.1241   19.0252  -18.0723 C   0  0  0  0  0  0  0  0  0  0  0  0
   -5.3680   18.8419  -17.9709 O   0  0  0  0  0  0  0  0  0  0  0  0
   -3.3515   16.9868  -17.5911 H   0  0  0  0  0  0  0  0  0  0  0  0
   -1.0017   20.9745  -18.6311 C   0  0  0  0  0  0  0  0  0  0  0  0
   -0.7251   21.6052  -19.8459 C   0  0  0  0  0  0  0  0  0  0  0  0
    0.3321   22.4186  -19.6812 N   0  0  0  0  0  0  0  0  0  0  0  0
    0.7751   22.3572  -18.4045 C   0  0  0  0  0  0  0  0  0  0  0  0
    1.7856   22.9621  -17.7593 N   0  0  0  0  0  0  0  0  0  0  0  0
    2.0680   22.7511  -16.4655 C   0  0  0  0  0  0  0  0  0  0  0  0
    1.2642   21.8634  -15.7897 C   0  0  0  0  0  0  0  0  0  0  0  0
    0.2160   21.2243  -16.4240 C   0  0  0  0  0  0  0  0  0  0  0  0
   -0.0636   21.4513  -17.7527 C   0  0  0  0  0  0  0  0  0  0  0  0
    0.7961   23.0412  -20.4060 H   0  0  0  0  0  0  0  0  0  0  0  0
   -7.3107   24.6787  -24.8460 C   0  0  0  0  0  0  0  0  0  0  0  0
   -7.0380   24.2073  -23.5364 N   0  0  0  0  0  0  0  0  0  0  0  0
   -6.5936   25.1390  -22.5856 C   0  0  0  0  0  0  0  0  0  0  0  0
   -5.2891   24.8391  -21.9099 C   0  0  0  0  0  0  0  0  0  0  0  0
   -5.2099   23.4147  -21.6118 N   0  0  0  0  0  0  0  0  0  0  0  0
   -5.4262   22.5148  -22.7130 C   0  0  0  0  0  0  0  0  0  0  0  0
   -6.7039   22.8494  -23.3976 C   0  0  0  0  0  0  0  0  0  0  0  0
 30 31  1  0  0  0
 31 32  1  0  0  0
 32 33  1  0  0  0
 33 34  1  0  0  0
 34 35  1  0  0  0
 35 36  1  0  0  0
 34  1  1  0  0  0
  1  2  2  0  0  0
  2  3  1  0  0  0
  3 12  1  0  0  0
 12 13  2  0  0  0
 13 14  1  0  0  0
 14 15  2  0  0  0
 14 16  1  0  0  0
 16 17  1  0  0  0
 17 18  2  0  0  0
 13 20  1  0  0  0
 20 21  2  0  0  0
 21 22  1  0  0  0
 22 23  1  0  0  0
 23 24  2  0  0  0
 24 25  1  0  0  0
 25 26  2  0  0  0
 26 27  1  0  0  0
 27 28  2  0  0  0
  3  4  2  0  0  0
  4  5  1  0  0  0
  5  6  2  0  0  0
  6  7  1  0  0  0
  6  8  1  0  0  0
  8  9  2  0  0  0
  9 10  1  0  0  0
 10 11  2  0  0  0
 36 31  1  0  0  0
 11  1  1  0  0  0
 17 12  1  0  0  0
 28 20  1  0  0  0
 10  4  1  0  0  0
 28 23  1  0  0  0
 16 19  1  0  0  0
 22 29  1  0  0  0
M  END
> <minimizedAffinity>
-6.06976

> <CNNscore>
0.1368267238

> <CNNaffinity>
5.6580672264

> <CNN_VS>
0.7741748095

> <CNNaffinity_variance>
0.2130883187

$$$$
[H]c1nc2c(c([H])c1[H])c(C1=C(c3nc(N4C([H])([H])C([H])([H])N(C([H])([H])[H])C([H])([H])C4([H])[H])nc4c([H])c([H])c(F)c([H])c34)C(=O)N([H])C1=O)c([H])n2[H]


 36 41  0  0  0  0  0  0  0  0999 V2000
   -2.0327   21.6515  -18.4535 C   0  0  0  0  0  0  0  0  0  0  0  0
   -2.9557   22.5273  -18.8679 N   0  0  0  0  0  0  0  0  0  0  0  0
   -4.2658   22.1759  -19.0133 C   0  0  0  0  0  0  0  0  0  0  0  0
   -4.6348   20.8955  -18.7291 C   0  0  0  0  0  0  0  0  0  0  0  0
   -5.9114   20.4069  -18.8607 C   0  0  0  0  0  0  0  0  0  0  0  0
   -6.2465   19.0783  -18.5780 C   0  0  0  0  0  0  0  0  0  0  0  0
   -7.5124   18.6143  -18.7128 F   0  0  0  0  0  0  0  0  0  0  0  0
   -5.2746   18.2142  -18.1527 C   0  0  0  0  0  0  0  0  0  0  0  0
   -3.9882   18.6569  -18.0097 C   0  0  0  0  0  0  0  0  0  0  0  0
   -3.6826   19.9643  -18.2932 C   0  0  0  0  0  0  0  0  0  0  0  0
   -2.4174   20.4007  -18.1780 N   0  0  0  0  0  0  0  0  0  0  0  0
   -5.2434   23.1398  -19.4795 C   0  0  0  0  0  0  0  0  0  0  0  0
   -6.0086   23.9523  -18.7546 C   0  0  0  0  0  0  0  0  0  0  0  0
   -6.8260   24.7239  -19.6736 C   0  0  0  0  0  0  0  0  0  0  0  0
   -7.6824   25.6090  -19.3591 O   0  0  0  0  0  0  0  0  0  0  0  0
   -6.5180   24.3362  -21.0005 N   0  0  0  0  0  0  0  0  0  0  0  0
   -5.5195   23.3357  -20.9004 C   0  0  0  0  0  0  0  0  0  0  0  0
   -5.0103   22.7645  -21.9033 O   0  0  0  0  0  0  0  0  0  0  0  0
   -6.9582   24.7286  -21.8870 H   0  0  0  0  0  0  0  0  0  0  0  0
   -5.9788   24.1068  -17.2871 C   0  0  0  0  0  0  0  0  0  0  0  0
   -5.2258   25.0554  -16.5919 C   0  0  0  0  0  0  0  0  0  0  0  0
   -5.4322   24.8913  -15.2739 N   0  0  0  0  0  0  0  0  0  0  0  0
   -6.2930   23.8701  -15.0588 C   0  0  0  0  0  0  0  0  0  0  0  0
   -6.7978   23.3225  -13.9414 N   0  0  0  0  0  0  0  0  0  0  0  0
   -7.6482   22.2856  -13.9456 C   0  0  0  0  0  0  0  0  0  0  0  0
   -8.0036   21.7771  -15.1728 C   0  0  0  0  0  0  0  0  0  0  0  0
   -7.5023   22.3175  -16.3415 C   0  0  0  0  0  0  0  0  0  0  0  0
   -6.6308   23.3831  -16.3227 C   0  0  0  0  0  0  0  0  0  0  0  0
   -5.0119   25.4481  -14.4729 H   0  0  0  0  0  0  0  0  0  0  0  0
    3.3756   21.6867  -18.4364 C   0  0  0  0  0  0  0  0  0  0  0  0
    2.0082   21.3196  -18.5225 N   0  0  0  0  0  0  0  0  0  0  0  0
    1.2985   21.7067  -19.6696 C   0  0  0  0  0  0  0  0  0  0  0  0
    0.0563   22.5171  -19.4494 C   0  0  0  0  0  0  0  0  0  0  0  0
   -0.6687   21.9959  -18.2976 N   0  0  0  0  0  0  0  0  0  0  0  0
    0.0755   21.8705  -17.0729 C   0  0  0  0  0  0  0  0  0  0  0  0
    1.3239   21.0986  -17.3153 C   0  0  0  0  0  0  0  0  0  0  0  0
 30 31  1  0  0  0
 31 32  1  0  0  0
 32 33  1  0  0  0
 33 34  1  0  0  0
 34 35  1  0  0  0
 35 36  1  0  0  0
 34  1  1  0  0  0
  1  2  2  0  0  0
  2  3  1  0  0  0
  3 12  1  0  0  0
 12 13  2  0  0  0
 13 14  1  0  0  0
 14 15  2  0  0  0
 14 16  1  0  0  0
 16 17  1  0  0  0
 17 18  2  0  0  0
 13 20  1  0  0  0
 20 21  2  0  0  0
 21 22  1  0  0  0
 22 23  1  0  0  0
 23 24  2  0  0  0
 24 25  1  0  0  0
 25 26  2  0  0  0
 26 27  1  0  0  0
 27 28  2  0  0  0
  3  4  2  0  0  0
  4  5  1  0  0  0
  5  6  2  0  0  0
  6  7  1  0  0  0
  6  8  1  0  0  0
  8  9  2  0  0  0
  9 10  1  0  0  0
 10 11  2  0  0  0
 36 31  1  0  0  0
 11  1  1  0  0  0
 17 12  1  0  0  0
 28 20  1  0  0  0
 10  4  1  0  0  0
 28 23  1  0  0  0
 16 19  1  0  0  0
 22 29  1  0  0  0
M  END
> <minimizedAffinity>
-5.91815

> <CNNscore>
0.1362725049

> <CNNaffinity>
5.4900450706

> <CNN_VS>
0.7481421828

> <CNNaffinity_variance>
0.0286448244

$$$$
[H]c1nc2c(c([H])c1[H])c(C1=C(c3nc(N4C([H])([H])C([H])([H])N(C([H])([H])[H])C([H])([H])C4([H])[H])nc4c([H])c([H])c(F)c([H])c34)C(=O)N([H])C1=O)c([H])n2[H]


 36 41  0  0  0  0  0  0  0  0999 V2000
   -1.7169   21.3135  -16.9232 C   0  0  0  0  0  0  0  0  0  0  0  0
   -0.9053   21.1833  -17.9793 N   0  0  0  0  0  0  0  0  0  0  0  0
    0.3816   20.7500  -17.8475 C   0  0  0  0  0  0  0  0  0  0  0  0
    0.8451   20.4467  -16.6027 C   0  0  0  0  0  0  0  0  0  0  0  0
    2.1246   20.0288  -16.3301 C   0  0  0  0  0  0  0  0  0  0  0  0
    2.5689   19.7466  -15.0338 C   0  0  0  0  0  0  0  0  0  0  0  0
    3.8352   19.3342  -14.7843 F   0  0  0  0  0  0  0  0  0  0  0  0
    1.7072   19.8883  -13.9806 C   0  0  0  0  0  0  0  0  0  0  0  0
    0.4236   20.3046  -14.2050 C   0  0  0  0  0  0  0  0  0  0  0  0
    0.0100   20.5761  -15.4850 C   0  0  0  0  0  0  0  0  0  0  0  0
   -1.2417   21.0080  -15.7112 N   0  0  0  0  0  0  0  0  0  0  0  0
    1.2455   20.6330  -19.0059 C   0  0  0  0  0  0  0  0  0  0  0  0
    2.1847   21.4797  -19.4211 C   0  0  0  0  0  0  0  0  0  0  0  0
    2.7734   20.9272  -20.6280 C   0  0  0  0  0  0  0  0  0  0  0  0
    3.7068   21.4466  -21.3169 O   0  0  0  0  0  0  0  0  0  0  0  0
    2.1403   19.6962  -20.9272 N   0  0  0  0  0  0  0  0  0  0  0  0
    1.1711   19.4913  -19.9140 C   0  0  0  0  0  0  0  0  0  0  0  0
    0.4179   18.4802  -19.8722 O   0  0  0  0  0  0  0  0  0  0  0  0
    2.3606   19.0619  -21.7535 H   0  0  0  0  0  0  0  0  0  0  0  0
    2.6134   22.7163  -18.7392 C   0  0  0  0  0  0  0  0  0  0  0  0
    1.9198   23.9282  -18.7568 C   0  0  0  0  0  0  0  0  0  0  0  0
    2.6121   24.8343  -18.0452 N   0  0  0  0  0  0  0  0  0  0  0  0
    3.7423   24.2775  -17.5524 C   0  0  0  0  0  0  0  0  0  0  0  0
    4.7457   24.7615  -16.8027 N   0  0  0  0  0  0  0  0  0  0  0  0
    5.8030   24.0298  -16.4218 C   0  0  0  0  0  0  0  0  0  0  0  0
    5.8344   22.7189  -16.8358 C   0  0  0  0  0  0  0  0  0  0  0  0
    4.8179   22.1899  -17.6078 C   0  0  0  0  0  0  0  0  0  0  0  0
    3.7373   22.9522  -17.9907 C   0  0  0  0  0  0  0  0  0  0  0  0
    2.3615   25.8500  -17.8613 H   0  0  0  0  0  0  0  0  0  0  0  0
   -6.2156   24.0725  -18.1069 C   0  0  0  0  0  0  0  0  0  0  0  0
   -4.8721   23.6553  -17.9254 N   0  0  0  0  0  0  0  0  0  0  0  0
   -4.3471   22.7268  -18.8373 C   0  0  0  0  0  0  0  0  0  0  0  0
   -3.7896   21.4602  -18.2602 C   0  0  0  0  0  0  0  0  0  0  0  0
   -3.0543   21.7624  -17.0388 N   0  0  0  0  0  0  0  0  0  0  0  0
   -3.7607   22.5075  -16.0313 C   0  0  0  0  0  0  0  0  0  0  0  0
   -4.3415   23.7408  -16.6270 C   0  0  0  0  0  0  0  0  0  0  0  0
 30 31  1  0  0  0
 31 32  1  0  0  0
 32 33  1  0  0  0
 33 34  1  0  0  0
 34 35  1  0  0  0
 35 36  1  0  0  0
 34  1  1  0  0  0
  1  2  2  0  0  0
  2  3  1  0  0  0
  3 12  1  0  0  0
 12 13  2  0  0  0
 13 14  1  0  0  0
 14 15  2  0  0  0
 14 16  1  0  0  0
 16 17  1  0  0  0
 17 18  2  0  0  0
 13 20  1  0  0  0
 20 21  2  0  0  0
 21 22  1  0  0  0
 22 23  1  0  0  0
 23 24  2  0  0  0
 24 25  1  0  0  0
 25 26  2  0  0  0
 26 27  1  0  0  0
 27 28  2  0  0  0
  3  4  2  0  0  0
  4  5  1  0  0  0
  5  6  2  0  0  0
  6  7  1  0  0  0
  6  8  1  0  0  0
  8  9  2  0  0  0
  9 10  1  0  0  0
 10 11  2  0  0  0
 36 31  1  0  0  0
 11  1  1  0  0  0
 17 12  1  0  0  0
 28 20  1  0  0  0
 10  4  1  0  0  0
 28 23  1  0  0  0
 16 19  1  0  0  0
 22 29  1  0  0  0
M  END
> <minimizedAffinity>
-5.81568

> <CNNscore>
0.1357690841

> <CNNaffinity>
5.3354597092

> <CNN_VS>
0.7243905067

> <CNNaffinity_variance>
0.1796053946

$$$$
[H]O[C@@]1([H])C([H])([H])C([H])([H])[C@]2([H])[C@]1(C([H])([H])[H])C([H])([H])C([H])([H])[C@]1([H])[C@]3(C([H])([H])[H])C(=C([H])C(=O)C([H])([H])C3([H])[H])C([H])([H])C([H])([H])[C@@]21[H]


 22 25  0  0  0  0  0  0  0  0999 V2000
   -0.4833   19.3998  -16.9049 C   0  0  0  0  0  0  0  0  0  0  0  0
   -0.8309   20.8644  -16.8965 C   0  0  0  0  0  0  0  0  0  0  0  0
   -0.3900   21.5692  -18.1333 C   0  0  0  0  0  0  0  0  0  0  0  0
    1.1171   21.5318  -18.1875 C   0  0  0  0  0  0  0  0  0  0  0  0
    1.6844   22.2853  -17.0031 C   0  0  0  0  0  0  0  0  0  0  0  0
    1.2199   21.6807  -15.6798 C   0  0  0  0  0  0  0  0  0  0  0  0
    1.5670   22.6782  -14.5833 C   0  0  0  0  0  0  0  0  0  0  0  0
    3.0041   23.0587  -14.5696 C   0  0  0  0  0  0  0  0  0  0  0  0
    3.6024   23.2403  -15.9007 C   0  0  0  0  0  0  0  0  0  0  0  0
    4.5159   24.1862  -16.0440 C   0  0  0  0  0  0  0  0  0  0  0  0
    5.1695   24.4515  -17.3091 C   0  0  0  0  0  0  0  0  0  0  0  0
    5.7676   25.5190  -17.5565 O   0  0  0  0  0  0  0  0  0  0  0  0
    5.0893   23.3499  -18.3338 C   0  0  0  0  0  0  0  0  0  0  0  0
    3.6392   22.9106  -18.3551 C   0  0  0  0  0  0  0  0  0  0  0  0
    3.1738   22.3702  -17.0378 C   0  0  0  0  0  0  0  0  0  0  0  0
    3.8140   21.0119  -16.8351 C   0  0  0  0  0  0  0  0  0  0  0  0
   -0.2502   21.5914  -15.7039 C   0  0  0  0  0  0  0  0  0  0  0  0
   -0.8933   20.8721  -14.5770 C   0  0  0  0  0  0  0  0  0  0  0  0
   -2.3203   20.6758  -15.0950 C   0  0  0  0  0  0  0  0  0  0  0  0
   -2.2882   21.0908  -16.5531 C   0  0  0  0  0  0  0  0  0  0  0  0
   -3.1661   20.4269  -17.3403 O   0  0  0  0  0  0  0  0  0  0  0  0
   -2.9214   19.5305  -17.6239 H   0  0  0  0  0  0  0  0  0  0  0  0
  2  1  1  0  0  0
  2  3  1  0  0  0
  3  4  1  0  0  0
  4  5  1  0  0  0
  5  6  1  0  0  0
  6  7  1  0  0  0
  7  8  1  0  0  0
  8  9  1  0  0  0
  9 10  2  0  0  0
 10 11  1  0  0  0
 11 12  2  0  0  0
 11 13  1  0  0  0
 13 14  1  0  0  0
 14 15  1  0  0  0
 15 16  1  0  0  0
  6 17  1  0  0  0
 17 18  1  0  0  0
 18 19  1  0  0  0
 19 20  1  0  0  0
 20 21  1  0  0  0
 17  2  1  0  0  0
 20  2  1  0  0  0
 15  5  1  0  0  0
 15  9  1  0  0  0
 21 22  1  0  0  0
M  END
> <minimizedAffinity>
-4.93060

> <CNNscore>
0.6596058607

> <CNNaffinity>
4.5940065384

> <CNN_VS>
3.0302336216

> <CNNaffinity_variance>
0.1242738813

$$$$
[H]O[C@@]1([H])C([H])([H])C([H])([H])[C@]2([H])[C@]1(C([H])([H])[H])C([H])([H])C([H])([H])[C@]1([H])[C@]3(C([H])([H])[H])C(=C([H])C(=O)C([H])([H])C3([H])[H])C([H])([H])C([H])([H])[C@@]21[H]


 22 25  0  0  0  0  0  0  0  0999 V2000
    3.6486   20.6392  -14.9031 C   0  0  0  0  0  0  0  0  0  0  0  0
    3.1569   22.0602  -14.8331 C   0  0  0  0  0  0  0  0  0  0  0  0
    1.8217   22.1773  -14.1817 C   0  0  0  0  0  0  0  0  0  0  0  0
    0.8106   21.4623  -15.0431 C   0  0  0  0  0  0  0  0  0  0  0  0
    0.7241   22.1437  -16.3925 C   0  0  0  0  0  0  0  0  0  0  0  0
    2.0737   22.1442  -17.1073 C   0  0  0  0  0  0  0  0  0  0  0  0
    1.9629   23.1132  -18.2764 C   0  0  0  0  0  0  0  0  0  0  0  0
    0.8287   22.8063  -19.1874 C   0  0  0  0  0  0  0  0  0  0  0  0
   -0.4039   22.3793  -18.5086 C   0  0  0  0  0  0  0  0  0  0  0  0
   -1.5594   22.7558  -19.0309 C   0  0  0  0  0  0  0  0  0  0  0  0
   -2.8334   22.3921  -18.4454 C   0  0  0  0  0  0  0  0  0  0  0  0
   -3.8984   22.9889  -18.7061 O   0  0  0  0  0  0  0  0  0  0  0  0
   -2.8076   21.2319  -17.4846 C   0  0  0  0  0  0  0  0  0  0  0  0
   -1.6400   21.4919  -16.5544 C   0  0  0  0  0  0  0  0  0  0  0  0
   -0.3251   21.5468  -17.2698 C   0  0  0  0  0  0  0  0  0  0  0  0
    0.0382   20.1380  -17.6931 C   0  0  0  0  0  0  0  0  0  0  0  0
    3.0793   22.7147  -16.1946 C   0  0  0  0  0  0  0  0  0  0  0  0
    4.4942   22.6487  -16.6356 C   0  0  0  0  0  0  0  0  0  0  0  0
    5.2475   22.9896  -15.3475 C   0  0  0  0  0  0  0  0  0  0  0  0
    4.2033   22.9854  -14.2481 C   0  0  0  0  0  0  0  0  0  0  0  0
    4.6737   22.6142  -13.0348 O   0  0  0  0  0  0  0  0  0  0  0  0
    4.7975   21.6638  -12.8761 H   0  0  0  0  0  0  0  0  0  0  0  0
  2  1  1  0  0  0
  2  3  1  0  0  0
  3  4  1  0  0  0
  4  5  1  0  0  0
  5  6  1  0  0  0
  6  7  1  0  0  0
  7  8  1  0  0  0
  8  9  1  0  0  0
  9 10  2  0  0  0
 10 11  1  0  0  0
 11 12  2  0  0  0
 11 13  1  0  0  0
 13 14  1  0  0  0
 14 15  1  0  0  0
 15 16  1  0  0  0
  6 17  1  0  0  0
 17 18  1  0  0  0
 18 19  1  0  0  0
 19 20  1  0  0  0
 20 21  1  0  0  0
 17  2  1  0  0  0
 20  2  1  0  0  0
 15  5  1  0  0  0
 15  9  1  0  0  0
 21 22  1  0  0  0
M  END
> <minimizedAffinity>
-4.49077

> <CNNscore>
0.6415655017

> <CNNaffinity>
4.6560268402

> <CNN_VS>
2.9871461391

> <CNNaffinity_variance>
0.0870544463

$$$$
[H]O[C@@]1([H])C([H])([H])C([H])([H])[C@]2([H])[C@]1(C([H])([H])[H])C([H])([H])C([H])([H])[C@]1([H])[C@]3(C([H])([H])[H])C(=C([H])C(=O)C([H])([H])C3([H])[H])C([H])([H])C([H])([H])[C@@]21[H]


 22 25  0  0  0  0  0  0  0  0999 V2000
    1.0762   19.8590  -14.0846 C   0  0  0  0  0  0  0  0  0  0  0  0
    0.7543   21.3293  -14.1048 C   0  0  0  0  0  0  0  0  0  0  0  0
   -0.7017   21.5989  -14.2726 C   0  0  0  0  0  0  0  0  0  0  0  0
   -1.1230   21.0941  -15.6303 C   0  0  0  0  0  0  0  0  0  0  0  0
   -0.3869   21.8638  -16.7066 C   0  0  0  0  0  0  0  0  0  0  0  0
    1.1264   21.7121  -16.5680 C   0  0  0  0  0  0  0  0  0  0  0  0
    1.7675   22.7579  -17.4698 C   0  0  0  0  0  0  0  0  0  0  0  0
    1.3074   22.6771  -18.8812 C   0  0  0  0  0  0  0  0  0  0  0  0
   -0.1263   22.3928  -19.0429 C   0  0  0  0  0  0  0  0  0  0  0  0
   -0.7601   22.9656  -20.0527 C   0  0  0  0  0  0  0  0  0  0  0  0
   -2.1708   22.7557  -20.3057 C   0  0  0  0  0  0  0  0  0  0  0  0
   -2.8556   23.5165  -21.0204 O   0  0  0  0  0  0  0  0  0  0  0  0
   -2.7834   21.5464  -19.6482 C   0  0  0  0  0  0  0  0  0  0  0  0
   -2.3103   21.5749  -18.2090 C   0  0  0  0  0  0  0  0  0  0  0  0
   -0.8207   21.4821  -18.0824 C   0  0  0  0  0  0  0  0  0  0  0  0
   -0.4079   20.0646  -18.4234 C   0  0  0  0  0  0  0  0  0  0  0  0
    1.5022   22.0718  -15.1899 C   0  0  0  0  0  0  0  0  0  0  0  0
    2.9120   21.8279  -14.7976 C   0  0  0  0  0  0  0  0  0  0  0  0
    2.8507   21.9743  -13.2751 C   0  0  0  0  0  0  0  0  0  0  0  0
    1.3764   22.0537  -12.9296 C   0  0  0  0  0  0  0  0  0  0  0  0
    1.0606   21.5429  -11.7169 O   0  0  0  0  0  0  0  0  0  0  0  0
    0.9921   20.5766  -11.6440 H   0  0  0  0  0  0  0  0  0  0  0  0
  2  1  1  0  0  0
  2  3  1  0  0  0
  3  4  1  0  0  0
  4  5  1  0  0  0
  5  6  1  0  0  0
  6  7  1  0  0  0
  7  8  1  0  0  0
  8  9  1  0  0  0
  9 10  2  0  0  0
 10 11  1  0  0  0
 11 12  2  0  0  0
 11 13  1  0  0  0
 13 14  1  0  0  0
 14 15  1  0  0  0
 15 16  1  0  0  0
  6 17  1  0  0  0
 17 18  1  0  0  0
 18 19  1  0  0  0
 19 20  1  0  0  0
 20 21  1  0  0  0
 17  2  1  0  0  0
 20  2  1  0  0  0
 15  5  1  0  0  0
 15  9  1  0  0  0
 21 22  1  0  0  0
M  END
> <minimizedAffinity>
-4.09433

> <CNNscore>
0.6267184019

> <CNNaffinity>
4.4529376030

> <CNN_VS>
2.7907378674

> <CNNaffinity_variance>
0.0726277679

$$$$
[H]O[C@@]1([H])C([H])([H])C([H])([H])[C@]2([H])[C@]1(C([H])([H])[H])C([H])([H])C([H])([H])[C@]1([H])[C@]3(C([H])([H])[H])C(=C([H])C(=O)C([H])([H])C3([H])[H])C([H])([H])C([H])([H])[C@@]21[H]


 22 25  0  0  0  0  0  0  0  0999 V2000
    2.8501   20.3429  -12.8138 C   0  0  0  0  0  0  0  0  0  0  0  0
    2.3202   21.7519  -12.8069 C   0  0  0  0  0  0  0  0  0  0  0  0
    0.8581   21.8199  -13.0872 C   0  0  0  0  0  0  0  0  0  0  0  0
    0.6225   21.3272  -14.4933 C   0  0  0  0  0  0  0  0  0  0  0  0
    1.3209   22.2451  -15.4743 C   0  0  0  0  0  0  0  0  0  0  0  0
    2.8246   22.3033  -15.2138 C   0  0  0  0  0  0  0  0  0  0  0  0
    3.3754   23.4723  -16.0189 C   0  0  0  0  0  0  0  0  0  0  0  0
    3.0441   23.3960  -17.4662 C   0  0  0  0  0  0  0  0  0  0  0  0
    1.6841   22.9191  -17.7590 C   0  0  0  0  0  0  0  0  0  0  0  0
    1.0549   23.4447  -18.7970 C   0  0  0  0  0  0  0  0  0  0  0  0
   -0.2860   23.0492  -19.1761 C   0  0  0  0  0  0  0  0  0  0  0  0
   -1.0161   23.7390  -19.9175 O   0  0  0  0  0  0  0  0  0  0  0  0
   -0.7658   21.7346  -18.6179 C   0  0  0  0  0  0  0  0  0  0  0  0
   -0.4162   21.7597  -17.1437 C   0  0  0  0  0  0  0  0  0  0  0  0
    1.0566   21.8733  -16.8951 C   0  0  0  0  0  0  0  0  0  0  0  0
    1.6966   20.5471  -17.2521 C   0  0  0  0  0  0  0  0  0  0  0  0
    3.0348   22.6451  -13.7965 C   0  0  0  0  0  0  0  0  0  0  0  0
    4.4299   22.5851  -13.2956 C   0  0  0  0  0  0  0  0  0  0  0  0
    4.2288   22.6468  -11.7795 C   0  0  0  0  0  0  0  0  0  0  0  0
    2.7362   22.4991  -11.5572 C   0  0  0  0  0  0  0  0  0  0  0  0
    2.4039   21.8901  -10.3953 O   0  0  0  0  0  0  0  0  0  0  0  0
    2.4713   20.9215  -10.3643 H   0  0  0  0  0  0  0  0  0  0  0  0
  2  1  1  0  0  0
  2  3  1  0  0  0
  3  4  1  0  0  0
  4  5  1  0  0  0
  5  6  1  0  0  0
  6  7  1  0  0  0
  7  8  1  0  0  0
  8  9  1  0  0  0
  9 10  2  0  0  0
 10 11  1  0  0  0
 11 12  2  0  0  0
 11 13  1  0  0  0
 13 14  1  0  0  0
 14 15  1  0  0  0
 15 16  1  0  0  0
  6 17  1  0  0  0
 17 18  1  0  0  0
 18 19  1  0  0  0
 19 20  1  0  0  0
 20 21  1  0  0  0
 17  2  1  0  0  0
 20  2  1  0  0  0
 15  5  1  0  0  0
 15  9  1  0  0  0
 21 22  1  0  0  0
M  END
> <minimizedAffinity>
-4.91946

> <CNNscore>
0.5977914333

> <CNNaffinity>
4.3306207657

> <CNN_VS>
2.5888080597

> <CNNaffinity_variance>
0.2035814226

$$$$
[H]O[C@@]1([H])C([H])([H])C([H])([H])[C@]2([H])[C@]1(C([H])([H])[H])C([H])([H])C([H])([H])[C@]1([H])[C@]3(C([H])([H])[H])C(=C([H])C(=O)C([H])([H])C3([H])[H])C([H])([H])C([H])([H])[C@@]21[H]


 22 25  0  0  0  0  0  0  0  0999 V2000
   -7.0679   23.3824  -23.4763 C   0  0  0  0  0  0  0  0  0  0  0  0
   -6.2201   24.6074  -23.6923 C   0  0  0  0  0  0  0  0  0  0  0  0
   -5.9101   24.8484  -25.1299 C   0  0  0  0  0  0  0  0  0  0  0  0
   -5.0656   23.7030  -25.6303 C   0  0  0  0  0  0  0  0  0  0  0  0
   -3.7529   23.6756  -24.8762 C   0  0  0  0  0  0  0  0  0  0  0  0
   -3.9732   23.5109  -23.3739 C   0  0  0  0  0  0  0  0  0  0  0  0
   -2.6482   23.8163  -22.6890 C   0  0  0  0  0  0  0  0  0  0  0  0
   -1.5204   22.9931  -23.1994 C   0  0  0  0  0  0  0  0  0  0  0  0
   -1.5272   22.7794  -24.6544 C   0  0  0  0  0  0  0  0  0  0  0  0
   -0.3615   22.7335  -25.2778 C   0  0  0  0  0  0  0  0  0  0  0  0
   -0.2512   22.5282  -26.7075 C   0  0  0  0  0  0  0  0  0  0  0  0
    0.7768   22.8069  -27.3587 O   0  0  0  0  0  0  0  0  0  0  0  0
   -1.4665   21.9487  -27.3836 C   0  0  0  0  0  0  0  0  0  0  0  0
   -2.6470   22.7435  -26.8632 C   0  0  0  0  0  0  0  0  0  0  0  0
   -2.8239   22.6224  -25.3807 C   0  0  0  0  0  0  0  0  0  0  0  0
   -3.3446   21.2310  -25.0822 C   0  0  0  0  0  0  0  0  0  0  0  0
   -4.9155   24.5518  -22.9287 C   0  0  0  0  0  0  0  0  0  0  0  0
   -5.3962   24.4616  -21.5281 C   0  0  0  0  0  0  0  0  0  0  0  0
   -6.5719   25.4418  -21.5291 C   0  0  0  0  0  0  0  0  0  0  0  0
   -6.7930   25.8158  -22.9818 C   0  0  0  0  0  0  0  0  0  0  0  0
   -8.0786   26.1003  -23.2940 O   0  0  0  0  0  0  0  0  0  0  0  0
   -8.6813   25.3505  -23.4293 H   0  0  0  0  0  0  0  0  0  0  0  0
  2  1  1  0  0  0
  2  3  1  0  0  0
  3  4  1  0  0  0
  4  5  1  0  0  0
  5  6  1  0  0  0
  6  7  1  0  0  0
  7  8  1  0  0  0
  8  9  1  0  0  0
  9 10  2  0  0  0
 10 11  1  0  0  0
 11 12  2  0  0  0
 11 13  1  0  0  0
 13 14  1  0  0  0
 14 15  1  0  0  0
 15 16  1  0  0  0
  6 17  1  0  0  0
 17 18  1  0  0  0
 18 19  1  0  0  0
 19 20  1  0  0  0
 20 21  1  0  0  0
 17  2  1  0  0  0
 20  2  1  0  0  0
 15  5  1  0  0  0
 15  9  1  0  0  0
 21 22  1  0  0  0
M  END
> <minimizedAffinity>
-8.72490

> <CNNscore>
0.5932494402

> <CNNaffinity>
6.1967287064

> <CNN_VS>
3.6762058735

> <CNNaffinity_variance>
0.4058771729

$$$$
[H]O[C@@]1([H])C([H])([H])C([H])([H])[C@]2([H])[C@]1(C([H])([H])[H])C([H])([H])C([H])([H])[C@]1([H])[C@]3(C([H])([H])[H])C(=C([H])C(=O)C([H])([H])C3([H])[H])C([H])([H])C([H])([H])[C@@]21[H]


 22 25  0  0  0  0  0  0  0  0999 V2000
   -7.6560   24.5079  -25.8480 C   0  0  0  0  0  0  0  0  0  0  0  0
   -6.5116   24.9599  -24.9808 C   0  0  0  0  0  0  0  0  0  0  0  0
   -5.5965   25.9059  -25.6799 C   0  0  0  0  0  0  0  0  0  0  0  0
   -4.9445   25.1735  -26.8262 C   0  0  0  0  0  0  0  0  0  0  0  0
   -4.1035   24.0360  -26.2864 C   0  0  0  0  0  0  0  0  0  0  0  0
   -4.9464   23.0490  -25.4817 C   0  0  0  0  0  0  0  0  0  0  0  0
   -3.9817   22.1446  -24.7271 C   0  0  0  0  0  0  0  0  0  0  0  0
   -2.9946   21.4715  -25.6119 C   0  0  0  0  0  0  0  0  0  0  0  0
   -2.4668   22.3153  -26.6944 C   0  0  0  0  0  0  0  0  0  0  0  0
   -1.2026   22.1500  -27.0465 C   0  0  0  0  0  0  0  0  0  0  0  0
   -0.5800   22.9265  -28.0990 C   0  0  0  0  0  0  0  0  0  0  0  0
    0.6573   23.0330  -28.2265 O   0  0  0  0  0  0  0  0  0  0  0  0
   -1.5218   23.6142  -29.0530 C   0  0  0  0  0  0  0  0  0  0  0  0
   -2.5664   24.2891  -28.1873 C   0  0  0  0  0  0  0  0  0  0  0  0
   -3.3522   23.3199  -27.3585 C   0  0  0  0  0  0  0  0  0  0  0  0
   -4.2850   22.5617  -28.2810 C   0  0  0  0  0  0  0  0  0  0  0  0
   -5.6887   23.8037  -24.4574 C   0  0  0  0  0  0  0  0  0  0  0  0
   -6.7001   23.0505  -23.6760 C   0  0  0  0  0  0  0  0  0  0  0  0
   -7.4824   24.1764  -22.9952 C   0  0  0  0  0  0  0  0  0  0  0  0
   -6.9939   25.4610  -23.6357 C   0  0  0  0  0  0  0  0  0  0  0  0
   -7.9243   26.4418  -23.6963 O   0  0  0  0  0  0  0  0  0  0  0  0
   -8.5901   26.3820  -24.4011 H   0  0  0  0  0  0  0  0  0  0  0  0
  2  1  1  0  0  0
  2  3  1  0  0  0
  3  4  1  0  0  0
  4  5  1  0  0  0
  5  6  1  0  0  0
  6  7  1  0  0  0
  7  8  1  0  0  0
  8  9  1  0  0  0
  9 10  2  0  0  0
 10 11  1  0  0  0
 11 12  2  0  0  0
 11 13  1  0  0  0
 13 14  1  0  0  0
 14 15  1  0  0  0
 15 16  1  0  0  0
  6 17  1  0  0  0
 17 18  1  0  0  0
 18 19  1  0  0  0
 19 20  1  0  0  0
 20 21  1  0  0  0
 17  2  1  0  0  0
 20  2  1  0  0  0
 15  5  1  0  0  0
 15  9  1  0  0  0
 21 22  1  0  0  0
M  END
> <minimizedAffinity>
-8.95033

> <CNNscore>
0.5818570256

> <CNNaffinity>
6.2928819656

> <CNN_VS>
3.6615576744

> <CNNaffinity_variance>
0.3870081306

$$$$
[H]O[C@@]1([H])C([H])([H])C([H])([H])[C@]2([H])[C@]1(C([H])([H])[H])C([H])([H])C([H])([H])[C@]1([H])[C@]3(C([H])([H])[H])C(=C([H])C(=O)C([H])([H])C3([H])[H])C([H])([H])C([H])([H])[C@@]21[H]


 22 25  0  0  0  0  0  0  0  0999 V2000
   -3.8471   22.5615  -22.4865 C   0  0  0  0  0  0  0  0  0  0  0  0
   -2.7841   23.4914  -23.0074 C   0  0  0  0  0  0  0  0  0  0  0  0
   -3.3019   24.8604  -23.2878 C   0  0  0  0  0  0  0  0  0  0  0  0
   -4.3108   24.7650  -24.4052 C   0  0  0  0  0  0  0  0  0  0  0  0
   -3.6280   24.2665  -25.6614 C   0  0  0  0  0  0  0  0  0  0  0  0
   -2.9932   22.8941  -25.4470 C   0  0  0  0  0  0  0  0  0  0  0  0
   -2.0763   22.6325  -26.6339 C   0  0  0  0  0  0  0  0  0  0  0  0
   -2.7665   22.7492  -27.9455 C   0  0  0  0  0  0  0  0  0  0  0  0
   -3.7325   23.8546  -28.0333 C   0  0  0  0  0  0  0  0  0  0  0  0
   -3.8473   24.4848  -29.1905 C   0  0  0  0  0  0  0  0  0  0  0  0
   -4.7665   25.5866  -29.3888 C   0  0  0  0  0  0  0  0  0  0  0  0
   -4.6649   26.3974  -30.3325 O   0  0  0  0  0  0  0  0  0  0  0  0
   -5.8756   25.7072  -28.3762 C   0  0  0  0  0  0  0  0  0  0  0  0
   -5.2147   25.5609  -27.0205 C   0  0  0  0  0  0  0  0  0  0  0  0
   -4.5457   24.2333  -26.8377 C   0  0  0  0  0  0  0  0  0  0  0  0
   -5.6249   23.1825  -26.6728 C   0  0  0  0  0  0  0  0  0  0  0  0
   -2.1209   22.9690  -24.2625 C   0  0  0  0  0  0  0  0  0  0  0  0
   -1.5394   21.6922  -23.7804 C   0  0  0  0  0  0  0  0  0  0  0  0
   -1.0114   22.0825  -22.3976 C   0  0  0  0  0  0  0  0  0  0  0  0
   -1.5492   23.4749  -22.1311 C   0  0  0  0  0  0  0  0  0  0  0  0
   -1.7774   23.7429  -20.8245 O   0  0  0  0  0  0  0  0  0  0  0  0
   -2.5925   23.3886  -20.4322 H   0  0  0  0  0  0  0  0  0  0  0  0
  2  1  1  0  0  0
  2  3  1  0  0  0
  3  4  1  0  0  0
  4  5  1  0  0  0
  5  6  1  0  0  0
  6  7  1  0  0  0
  7  8  1  0  0  0
  8  9  1  0  0  0
  9 10  2  0  0  0
 10 11  1  0  0  0
 11 12  2  0  0  0
 11 13  1  0  0  0
 13 14  1  0  0  0
 14 15  1  0  0  0
 15 16  1  0  0  0
  6 17  1  0  0  0
 17 18  1  0  0  0
 18 19  1  0  0  0
 19 20  1  0  0  0
 20 21  1  0  0  0
 17  2  1  0  0  0
 20  2  1  0  0  0
 15  5  1  0  0  0
 15  9  1  0  0  0
 21 22  1  0  0  0
M  END
> <minimizedAffinity>
-9.47357

> <CNNscore>
0.4905694127

> <CNNaffinity>
6.2915968895

> <CNN_VS>
3.0864648819

> <CNNaffinity_variance>
0.3018542230

$$$$
[H]O[C@@]1([H])C([H])([H])C([H])([H])[C@]2([H])[C@]1(C([H])([H])[H])C([H])([H])C([H])([H])[C@]1([H])[C@]3(C([H])([H])[H])C(=C([H])C(=O)C([H])([H])C3([H])[H])C([H])([H])C([H])([H])[C@@]21[H]


 22 25  0  0  0  0  0  0  0  0999 V2000
   -5.6799   23.2764  -28.8718 C   0  0  0  0  0  0  0  0  0  0  0  0
   -5.0299   24.4886  -28.2604 C   0  0  0  0  0  0  0  0  0  0  0  0
   -3.6280   24.6877  -28.7250 C   0  0  0  0  0  0  0  0  0  0  0  0
   -2.7997   23.5228  -28.2430 C   0  0  0  0  0  0  0  0  0  0  0  0
   -2.7833   23.5063  -26.7290 C   0  0  0  0  0  0  0  0  0  0  0  0
   -4.1932   23.3846  -26.1548 C   0  0  0  0  0  0  0  0  0  0  0  0
   -4.1018   23.6989  -24.6679 C   0  0  0  0  0  0  0  0  0  0  0  0
   -3.1123   22.8536  -23.9492 C   0  0  0  0  0  0  0  0  0  0  0  0
   -1.8688   22.6001  -24.6922 C   0  0  0  0  0  0  0  0  0  0  0  0
   -0.7413   22.5285  -24.0043 C   0  0  0  0  0  0  0  0  0  0  0  0
    0.5401   22.2831  -24.6336 C   0  0  0  0  0  0  0  0  0  0  0  0
    1.6304   22.5362  -24.0808 O   0  0  0  0  0  0  0  0  0  0  0  0
    0.4893   21.6943  -26.0195 C   0  0  0  0  0  0  0  0  0  0  0  0
   -0.5364   22.5118  -26.7782 C   0  0  0  0  0  0  0  0  0  0  0  0
   -1.9061   22.4328  -26.1770 C   0  0  0  0  0  0  0  0  0  0  0  0
   -2.4656   21.0541  -26.4634 C   0  0  0  0  0  0  0  0  0  0  0  0
   -5.0265   24.4443  -26.7484 C   0  0  0  0  0  0  0  0  0  0  0  0
   -6.4790   24.3962  -26.4506 C   0  0  0  0  0  0  0  0  0  0  0  0
   -7.0482   25.3847  -27.4714 C   0  0  0  0  0  0  0  0  0  0  0  0
   -5.8994   25.7202  -28.4023 C   0  0  0  0  0  0  0  0  0  0  0  0
   -6.2756   26.0057  -29.6705 O   0  0  0  0  0  0  0  0  0  0  0  0
   -6.4856   25.2569  -30.2527 H   0  0  0  0  0  0  0  0  0  0  0  0
  2  1  1  0  0  0
  2  3  1  0  0  0
  3  4  1  0  0  0
  4  5  1  0  0  0
  5  6  1  0  0  0
  6  7  1  0  0  0
  7  8  1  0  0  0
  8  9  1  0  0  0
  9 10  2  0  0  0
 10 11  1  0  0  0
 11 12  2  0  0  0
 11 13  1  0  0  0
 13 14  1  0  0  0
 14 15  1  0  0  0
 15 16  1  0  0  0
  6 17  1  0  0  0
 17 18  1  0  0  0
 18 19  1  0  0  0
 19 20  1  0  0  0
 20 21  1  0  0  0
 17  2  1  0  0  0
 20  2  1  0  0  0
 15  5  1  0  0  0
 15  9  1  0  0  0
 21 22  1  0  0  0
M  END
> <minimizedAffinity>
-8.21053

> <CNNscore>
0.4894158244

> <CNNaffinity>
6.4003448486

> <CNN_VS>
3.1324300766

> <CNNaffinity_variance>
0.3249958158

$$$$
[H]O[C@@]1([H])C([H])([H])C([H])([H])[C@]2([H])[C@]1(C([H])([H])[H])C([H])([H])C([H])([H])[C@]1([H])[C@]3(C([H])([H])[H])C(=C([H])C(=O)C([H])([H])C3([H])[H])C([H])([H])C([H])([H])[C@@]21[H]


 22 25  0  0  0  0  0  0  0  0999 V2000
   -5.5590   24.8169  -21.4318 C   0  0  0  0  0  0  0  0  0  0  0  0
   -6.7691   23.9716  -21.1370 C   0  0  0  0  0  0  0  0  0  0  0  0
   -7.5715   24.4914  -19.9938 C   0  0  0  0  0  0  0  0  0  0  0  0
   -6.7285   24.4047  -18.7459 C   0  0  0  0  0  0  0  0  0  0  0  0
   -6.4024   22.9549  -18.4558 C   0  0  0  0  0  0  0  0  0  0  0  0
   -5.6440   22.3089  -19.6134 C   0  0  0  0  0  0  0  0  0  0  0  0
   -5.6504   20.8056  -19.3718 C   0  0  0  0  0  0  0  0  0  0  0  0
   -5.1069   20.4227  -18.0421 C   0  0  0  0  0  0  0  0  0  0  0  0
   -5.4995   21.3137  -16.9401 C   0  0  0  0  0  0  0  0  0  0  0  0
   -5.7128   20.7714  -15.7527 C   0  0  0  0  0  0  0  0  0  0  0  0
   -6.1031   21.5544  -14.5982 C   0  0  0  0  0  0  0  0  0  0  0  0
   -6.6242   21.0542  -13.5800 O   0  0  0  0  0  0  0  0  0  0  0  0
   -5.8428   23.0355  -14.6905 C   0  0  0  0  0  0  0  0  0  0  0  0
   -6.3561   23.4610  -16.0513 C   0  0  0  0  0  0  0  0  0  0  0  0
   -5.6456   22.7815  -17.1815 C   0  0  0  0  0  0  0  0  0  0  0  0
   -4.2508   23.3657  -17.2781 C   0  0  0  0  0  0  0  0  0  0  0  0
   -6.4135   22.5297  -20.8498 C   0  0  0  0  0  0  0  0  0  0  0  0
   -5.7635   22.1265  -22.1210 C   0  0  0  0  0  0  0  0  0  0  0  0
   -6.6571   22.8002  -23.1654 C   0  0  0  0  0  0  0  0  0  0  0  0
   -7.5856   23.7103  -22.3853 C   0  0  0  0  0  0  0  0  0  0  0  0
   -7.9684   24.8218  -23.0555 O   0  0  0  0  0  0  0  0  0  0  0  0
   -7.3354   25.5576  -23.0973 H   0  0  0  0  0  0  0  0  0  0  0  0
  2  1  1  0  0  0
  2  3  1  0  0  0
  3  4  1  0  0  0
  4  5  1  0  0  0
  5  6  1  0  0  0
  6  7  1  0  0  0
  7  8  1  0  0  0
  8  9  1  0  0  0
  9 10  2  0  0  0
 10 11  1  0  0  0
 11 12  2  0  0  0
 11 13  1  0  0  0
 13 14  1  0  0  0
 14 15  1  0  0  0
 15 16  1  0  0  0
  6 17  1  0  0  0
 17 18  1  0  0  0
 18 19  1  0  0  0
 19 20  1  0  0  0
 20 21  1  0  0  0
 17  2  1  0  0  0
 20  2  1  0  0  0
 15  5  1  0  0  0
 15  9  1  0  0  0
 21 22  1  0  0  0
M  END
> <minimizedAffinity>
-4.33961

> <CNNscore>
0.4839421213

> <CNNaffinity>
4.6922912598

> <CNN_VS>
2.2707974911

> <CNNaffinity_variance>
0.0544274859

$$$$
[H]c1c([H])c2c(c(OC([H])([H])[H])c1OC([H])([H])[H])C([H])([H])N1C([H])([H])C([H])([H])c3c([H])c(OC([H])([H])[H])c(OC([H])([H])[H])c([H])c3C1([H])C2([H])[H]


 26 29  0  0  0  0  0  0  0  0999 V2000
   -7.7854   21.1409  -18.6731 C   0  0  0  0  0  0  0  0  0  0  0  0
   -7.0543   19.9709  -18.6301 C   0  0  0  0  0  0  0  0  0  0  0  0
   -5.6752   20.0783  -18.5239 C   0  0  0  0  0  0  0  0  0  0  0  0
   -4.7710   18.9003  -18.4691 C   0  0  0  0  0  0  0  0  0  0  0  0
   -3.7171   19.1074  -17.4299 C   0  0  0  0  0  0  0  0  0  0  0  0
   -3.2772   20.4533  -17.2636 N   0  0  0  0  0  0  0  0  0  0  0  0
   -1.9501   20.5049  -16.7710 C   0  0  0  0  0  0  0  0  0  0  0  0
   -1.0284   21.3874  -17.5124 C   0  0  0  0  0  0  0  0  0  0  0  0
   -1.5321   22.4746  -18.1881 C   0  0  0  0  0  0  0  0  0  0  0  0
   -3.0102   22.6878  -18.1393 C   0  0  0  0  0  0  0  0  0  0  0  0
   -3.6069   21.3191  -18.3516 C   0  0  0  0  0  0  0  0  0  0  0  0
   -5.0874   21.3272  -18.4656 C   0  0  0  0  0  0  0  0  0  0  0  0
   -5.8480   22.4760  -18.5110 C   0  0  0  0  0  0  0  0  0  0  0  0
   -7.2300   22.4014  -18.6171 C   0  0  0  0  0  0  0  0  0  0  0  0
   -0.6702   23.2846  -18.8605 C   0  0  0  0  0  0  0  0  0  0  0  0
    0.6955   23.0174  -18.8644 C   0  0  0  0  0  0  0  0  0  0  0  0
    1.2165   21.9476  -18.2032 C   0  0  0  0  0  0  0  0  0  0  0  0
    0.3464   21.1134  -17.5130 C   0  0  0  0  0  0  0  0  0  0  0  0
  -10.0330   20.8457  -17.7111 C   0  0  0  0  0  0  0  0  0  0  0  0
   -9.1666   21.0595  -18.7792 O   0  0  0  0  0  0  0  0  0  0  0  0
   -7.9956   23.5577  -18.6629 O   0  0  0  0  0  0  0  0  0  0  0  0
   -7.8491   24.4734  -19.7242 C   0  0  0  0  0  0  0  0  0  0  0  0
    2.5749   21.6571  -18.1904 O   0  0  0  0  0  0  0  0  0  0  0  0
    3.3525   22.1145  -19.2843 C   0  0  0  0  0  0  0  0  0  0  0  0
    0.8682   20.0185  -16.8352 O   0  0  0  0  0  0  0  0  0  0  0  0
    1.3123   20.2353  -15.4884 C   0  0  0  0  0  0  0  0  0  0  0  0
 19 20  1  0  0  0
 20  1  1  0  0  0
  1  2  2  0  0  0
  2  3  1  0  0  0
  3  4  1  0  0  0
  4  5  1  0  0  0
  5  6  1  0  0  0
  6  7  1  0  0  0
  7  8  1  0  0  0
  8  9  2  0  0  0
  9 10  1  0  0  0
 10 11  1  0  0  0
 11 12  1  0  0  0
 12 13  1  0  0  0
 13 14  2  0  0  0
 14 21  1  0  0  0
 21 22  1  0  0  0
  9 15  1  0  0  0
 15 16  2  0  0  0
 16 17  1  0  0  0
 17 23  1  0  0  0
 23 24  1  0  0  0
 17 18  2  0  0  0
 18 25  1  0  0  0
 25 26  1  0  0  0
 14  1  1  0  0  0
 12  3  2  0  0  0
 11  6  1  0  0  0
 18  8  1  0  0  0
M  END
> <minimizedAffinity>
-4.14778

> <CNNscore>
0.4899710119

> <CNNaffinity>
4.7624044418

> <CNN_VS>
2.3334400654

> <CNNaffinity_variance>
0.4401413798

$$$$
[H]c1c([H])c2c(c(OC([H])([H])[H])c1OC([H])([H])[H])C([H])([H])N1C([H])([H])C([H])([H])c3c([H])c(OC([H])([H])[H])c(OC([H])([H])[H])c([H])c3C1([H])C2([H])[H]


 26 29  0  0  0  0  0  0  0  0999 V2000
   -6.1526   19.0926  -18.6356 C   0  0  0  0  0  0  0  0  0  0  0  0
   -5.1527   18.3004  -18.1084 C   0  0  0  0  0  0  0  0  0  0  0  0
   -3.9030   18.8761  -17.9307 C   0  0  0  0  0  0  0  0  0  0  0  0
   -2.7401   18.1365  -17.3749 C   0  0  0  0  0  0  0  0  0  0  0  0
   -2.0048   18.9932  -16.3955 C   0  0  0  0  0  0  0  0  0  0  0  0
   -1.9897   20.3876  -16.6923 N   0  0  0  0  0  0  0  0  0  0  0  0
   -0.8487   21.0199  -16.1403 C   0  0  0  0  0  0  0  0  0  0  0  0
   -0.0773   21.8680  -17.0697 C   0  0  0  0  0  0  0  0  0  0  0  0
   -0.7177   22.4583  -18.1345 C   0  0  0  0  0  0  0  0  0  0  0  0
   -2.1782   22.1856  -18.2931 C   0  0  0  0  0  0  0  0  0  0  0  0
   -2.3259   20.7056  -18.0443 C   0  0  0  0  0  0  0  0  0  0  0  0
   -3.7012   20.1975  -18.2797 C   0  0  0  0  0  0  0  0  0  0  0  0
   -4.7226   20.9605  -18.8041 C   0  0  0  0  0  0  0  0  0  0  0  0
   -5.9841   20.4131  -18.9937 C   0  0  0  0  0  0  0  0  0  0  0  0
    0.0037   23.2445  -18.9786 C   0  0  0  0  0  0  0  0  0  0  0  0
    1.3644   23.4470  -18.7683 C   0  0  0  0  0  0  0  0  0  0  0  0
    2.0192   22.8731  -17.7219 C   0  0  0  0  0  0  0  0  0  0  0  0
    1.2932   22.0684  -16.8531 C   0  0  0  0  0  0  0  0  0  0  0  0
   -7.8057   17.2888  -18.3563 C   0  0  0  0  0  0  0  0  0  0  0  0
   -7.4115   18.5395  -18.8227 O   0  0  0  0  0  0  0  0  0  0  0  0
   -7.0121   21.1810  -19.5215 O   0  0  0  0  0  0  0  0  0  0  0  0
   -7.0230   21.5228  -20.8887 C   0  0  0  0  0  0  0  0  0  0  0  0
    3.3760   23.0578  -17.4882 O   0  0  0  0  0  0  0  0  0  0  0  0
    3.7969   24.3406  -17.0547 C   0  0  0  0  0  0  0  0  0  0  0  0
    1.9524   21.4778  -15.7821 O   0  0  0  0  0  0  0  0  0  0  0  0
    1.9948   22.2171  -14.5534 C   0  0  0  0  0  0  0  0  0  0  0  0
 19 20  1  0  0  0
 20  1  1  0  0  0
  1  2  2  0  0  0
  2  3  1  0  0  0
  3  4  1  0  0  0
  4  5  1  0  0  0
  5  6  1  0  0  0
  6  7  1  0  0  0
  7  8  1  0  0  0
  8  9  2  0  0  0
  9 10  1  0  0  0
 10 11  1  0  0  0
 11 12  1  0  0  0
 12 13  1  0  0  0
 13 14  2  0  0  0
 14 21  1  0  0  0
 21 22  1  0  0  0
  9 15  1  0  0  0
 15 16  2  0  0  0
 16 17  1  0  0  0
 17 23  1  0  0  0
 23 24  1  0  0  0
 17 18  2  0  0  0
 18 25  1  0  0  0
 25 26  1  0  0  0
 14  1  1  0  0  0
 12  3  2  0  0  0
 11  6  1  0  0  0
 18  8  1  0  0  0
M  END
> <minimizedAffinity>
-4.28709

> <CNNscore>
0.4699184000

> <CNNaffinity>
4.5080666542

> <CNN_VS>
2.1184234619

> <CNNaffinity_variance>
0.3054380715

$$$$
[H]c1c([H])c2c(c(OC([H])([H])[H])c1OC([H])([H])[H])C([H])([H])N1C([H])([H])C([H])([H])c3c([H])c(OC([H])([H])[H])c(OC([H])([H])[H])c([H])c3C1([H])C2([H])[H]


 26 29  0  0  0  0  0  0  0  0999 V2000
    2.3271   19.6786  -19.1950 C   0  0  0  0  0  0  0  0  0  0  0  0
    2.9406   19.5937  -20.4286 C   0  0  0  0  0  0  0  0  0  0  0  0
    2.2208   20.0207  -21.5351 C   0  0  0  0  0  0  0  0  0  0  0  0
    2.7610   19.9827  -22.9189 C   0  0  0  0  0  0  0  0  0  0  0  0
    2.4168   21.2450  -23.6414 C   0  0  0  0  0  0  0  0  0  0  0  0
    1.1613   21.8255  -23.2956 N   0  0  0  0  0  0  0  0  0  0  0  0
    0.6363   22.5927  -24.3642 C   0  0  0  0  0  0  0  0  0  0  0  0
   -0.7660   22.3077  -24.7253 C   0  0  0  0  0  0  0  0  0  0  0  0
   -1.6251   21.8239  -23.7660 C   0  0  0  0  0  0  0  0  0  0  0  0
   -1.0688   21.5999  -22.3974 C   0  0  0  0  0  0  0  0  0  0  0  0
    0.2661   20.9361  -22.6251 C   0  0  0  0  0  0  0  0  0  0  0  0
    0.9383   20.5078  -21.3722 C   0  0  0  0  0  0  0  0  0  0  0  0
    0.3555   20.5788  -20.1249 C   0  0  0  0  0  0  0  0  0  0  0  0
    1.0501   20.1592  -18.9986 C   0  0  0  0  0  0  0  0  0  0  0  0
   -2.9173   21.5733  -24.1105 C   0  0  0  0  0  0  0  0  0  0  0  0
   -3.3608   21.8021  -25.4095 C   0  0  0  0  0  0  0  0  0  0  0  0
   -2.5289   22.2801  -26.3752 C   0  0  0  0  0  0  0  0  0  0  0  0
   -1.2074   22.5399  -26.0355 C   0  0  0  0  0  0  0  0  0  0  0  0
    3.3888   17.9392  -17.8122 C   0  0  0  0  0  0  0  0  0  0  0  0
    3.0268   19.2576  -18.0729 O   0  0  0  0  0  0  0  0  0  0  0  0
    0.4636   20.2306  -17.7433 O   0  0  0  0  0  0  0  0  0  0  0  0
   -0.1684   21.4146  -17.3130 C   0  0  0  0  0  0  0  0  0  0  0  0
   -2.9445   22.5175  -27.6793 O   0  0  0  0  0  0  0  0  0  0  0  0
   -3.7458   23.6639  -27.9125 C   0  0  0  0  0  0  0  0  0  0  0  0
   -0.3501   23.0277  -27.0141 O   0  0  0  0  0  0  0  0  0  0  0  0
    0.3946   22.0623  -27.7701 C   0  0  0  0  0  0  0  0  0  0  0  0
 19 20  1  0  0  0
 20  1  1  0  0  0
  1  2  2  0  0  0
  2  3  1  0  0  0
  3  4  1  0  0  0
  4  5  1  0  0  0
  5  6  1  0  0  0
  6  7  1  0  0  0
  7  8  1  0  0  0
  8  9  2  0  0  0
  9 10  1  0  0  0
 10 11  1  0  0  0
 11 12  1  0  0  0
 12 13  1  0  0  0
 13 14  2  0  0  0
 14 21  1  0  0  0
 21 22  1  0  0  0
  9 15  1  0  0  0
 15 16  2  0  0  0
 16 17  1  0  0  0
 17 23  1  0  0  0
 23 24  1  0  0  0
 17 18  2  0  0  0
 18 25  1  0  0  0
 25 26  1  0  0  0
 14  1  1  0  0  0
 12  3  2  0  0  0
 11  6  1  0  0  0
 18  8  1  0  0  0
M  END
> <minimizedAffinity>
-5.87077

> <CNNscore>
0.3013798594

> <CNNaffinity>
5.5049476624

> <CNN_VS>
1.6590803862

> <CNNaffinity_variance>
0.0965489894

$$$$
[H]c1c([H])c2c(c(OC([H])([H])[H])c1OC([H])([H])[H])C([H])([H])N1C([H])([H])C([H])([H])c3c([H])c(OC([H])([H])[H])c(OC([H])([H])[H])c([H])c3C1([H])C2([H])[H]


 26 29  0  0  0  0  0  0  0  0999 V2000
   -1.9366   22.4797  -20.8720 C   0  0  0  0  0  0  0  0  0  0  0  0
   -3.2962   22.7063  -20.9464 C   0  0  0  0  0  0  0  0  0  0  0  0
   -4.0045   22.7622  -19.7548 C   0  0  0  0  0  0  0  0  0  0  0  0
   -5.4704   22.9980  -19.6921 C   0  0  0  0  0  0  0  0  0  0  0  0
   -5.7909   23.9631  -18.5968 C   0  0  0  0  0  0  0  0  0  0  0  0
   -4.9499   23.8867  -17.4481 N   0  0  0  0  0  0  0  0  0  0  0  0
   -5.6238   24.3340  -16.2852 C   0  0  0  0  0  0  0  0  0  0  0  0
   -5.5505   23.4324  -15.1191 C   0  0  0  0  0  0  0  0  0  0  0  0
   -4.4702   22.5918  -14.9826 C   0  0  0  0  0  0  0  0  0  0  0  0
   -3.4276   22.6358  -16.0520 C   0  0  0  0  0  0  0  0  0  0  0  0
   -4.2007   22.6741  -17.3463 C   0  0  0  0  0  0  0  0  0  0  0  0
   -3.3415   22.5930  -18.5546 C   0  0  0  0  0  0  0  0  0  0  0  0
   -1.9819   22.3682  -18.5166 C   0  0  0  0  0  0  0  0  0  0  0  0
   -1.2456   22.3069  -19.6917 C   0  0  0  0  0  0  0  0  0  0  0  0
   -4.4112   21.7719  -13.8984 C   0  0  0  0  0  0  0  0  0  0  0  0
   -5.4256   21.7838  -12.9458 C   0  0  0  0  0  0  0  0  0  0  0  0
   -6.5040   22.6067  -13.0600 C   0  0  0  0  0  0  0  0  0  0  0  0
   -6.5753   23.4485  -14.1625 C   0  0  0  0  0  0  0  0  0  0  0  0
   -1.2950   21.3941  -22.9873 C   0  0  0  0  0  0  0  0  0  0  0  0
   -1.2061   22.4195  -22.0504 O   0  0  0  0  0  0  0  0  0  0  0  0
    0.1228   22.0807  -19.6535 O   0  0  0  0  0  0  0  0  0  0  0  0
    0.6298   20.7940  -19.3820 C   0  0  0  0  0  0  0  0  0  0  0  0
   -7.5306   22.6393  -12.1246 O   0  0  0  0  0  0  0  0  0  0  0  0
   -8.3837   21.5092  -12.0495 C   0  0  0  0  0  0  0  0  0  0  0  0
   -7.6720   24.2921  -14.2885 O   0  0  0  0  0  0  0  0  0  0  0  0
   -7.6263   25.5341  -13.5719 C   0  0  0  0  0  0  0  0  0  0  0  0
 19 20  1  0  0  0
 20  1  1  0  0  0
  1  2  2  0  0  0
  2  3  1  0  0  0
  3  4  1  0  0  0
  4  5  1  0  0  0
  5  6  1  0  0  0
  6  7  1  0  0  0
  7  8  1  0  0  0
  8  9  2  0  0  0
  9 10  1  0  0  0
 10 11  1  0  0  0
 11 12  1  0  0  0
 12 13  1  0  0  0
 13 14  2  0  0  0
 14 21  1  0  0  0
 21 22  1  0  0  0
  9 15  1  0  0  0
 15 16  2  0  0  0
 16 17  1  0  0  0
 17 23  1  0  0  0
 23 24  1  0  0  0
 17 18  2  0  0  0
 18 25  1  0  0  0
 25 26  1  0  0  0
 14  1  1  0  0  0
 12  3  2  0  0  0
 11  6  1  0  0  0
 18  8  1  0  0  0
M  END
> <minimizedAffinity>
-4.09208

> <CNNscore>
0.2801365554

> <CNNaffinity>
4.5510964394

> <CNN_VS>
1.2749284506

> <CNNaffinity_variance>
0.1821321398

$$$$
[H]c1c([H])c2c(c(OC([H])([H])[H])c1OC([H])([H])[H])C([H])([H])N1C([H])([H])C([H])([H])c3c([H])c(OC([H])([H])[H])c(OC([H])([H])[H])c([H])c3C1([H])C2([H])[H]


 26 29  0  0  0  0  0  0  0  0999 V2000
   -0.3475   22.1625  -21.0742 C   0  0  0  0  0  0  0  0  0  0  0  0
   -1.4438   22.9913  -20.9444 C   0  0  0  0  0  0  0  0  0  0  0  0
   -2.2112   23.2237  -22.0766 C   0  0  0  0  0  0  0  0  0  0  0  0
   -3.4151   24.0950  -22.0764 C   0  0  0  0  0  0  0  0  0  0  0  0
   -4.5133   23.4568  -22.8640 C   0  0  0  0  0  0  0  0  0  0  0  0
   -4.0930   22.6850  -23.9866 N   0  0  0  0  0  0  0  0  0  0  0  0
   -5.0984   22.6345  -24.9831 C   0  0  0  0  0  0  0  0  0  0  0  0
   -4.6563   22.9623  -26.3524 C   0  0  0  0  0  0  0  0  0  0  0  0
   -3.3482   22.7345  -26.7121 C   0  0  0  0  0  0  0  0  0  0  0  0
   -2.4379   22.1728  -25.6687 C   0  0  0  0  0  0  0  0  0  0  0  0
   -2.7564   22.9507  -24.4166 C   0  0  0  0  0  0  0  0  0  0  0  0
   -1.8623   22.6311  -23.2748 C   0  0  0  0  0  0  0  0  0  0  0  0
   -0.7603   21.8083  -23.3690 C   0  0  0  0  0  0  0  0  0  0  0  0
    0.0273   21.5563  -22.2541 C   0  0  0  0  0  0  0  0  0  0  0  0
   -2.9561   23.0335  -27.9802 C   0  0  0  0  0  0  0  0  0  0  0  0
   -3.8621   23.5602  -28.8957 C   0  0  0  0  0  0  0  0  0  0  0  0
   -5.1611   23.7942  -28.5623 C   0  0  0  0  0  0  0  0  0  0  0  0
   -5.5732   23.4929  -27.2706 C   0  0  0  0  0  0  0  0  0  0  0  0
    0.4641   22.7110  -18.8147 C   0  0  0  0  0  0  0  0  0  0  0  0
    0.4358   21.9146  -19.9558 O   0  0  0  0  0  0  0  0  0  0  0  0
    1.1365   20.7282  -22.3490 O   0  0  0  0  0  0  0  0  0  0  0  0
    2.2371   21.0922  -23.1506 C   0  0  0  0  0  0  0  0  0  0  0  0
   -6.0865   24.3191  -29.4556 O   0  0  0  0  0  0  0  0  0  0  0  0
   -5.6696   24.5009  -30.7986 C   0  0  0  0  0  0  0  0  0  0  0  0
   -6.8969   23.7283  -26.9202 O   0  0  0  0  0  0  0  0  0  0  0  0
   -7.1854   24.9639  -26.2508 C   0  0  0  0  0  0  0  0  0  0  0  0
 19 20  1  0  0  0
 20  1  1  0  0  0
  1  2  2  0  0  0
  2  3  1  0  0  0
  3  4  1  0  0  0
  4  5  1  0  0  0
  5  6  1  0  0  0
  6  7  1  0  0  0
  7  8  1  0  0  0
  8  9  2  0  0  0
  9 10  1  0  0  0
 10 11  1  0  0  0
 11 12  1  0  0  0
 12 13  1  0  0  0
 13 14  2  0  0  0
 14 21  1  0  0  0
 21 22  1  0  0  0
  9 15  1  0  0  0
 15 16  2  0  0  0
 16 17  1  0  0  0
 17 23  1  0  0  0
 23 24  1  0  0  0
 17 18  2  0  0  0
 18 25  1  0  0  0
 25 26  1  0  0  0
 14  1  1  0  0  0
 12  3  2  0  0  0
 11  6  1  0  0  0
 18  8  1  0  0  0
M  END
> <minimizedAffinity>
-8.18663

> <CNNscore>
0.2705230713

> <CNNaffinity>
5.8690629005

> <CNN_VS>
1.5877169371

> <CNNaffinity_variance>
0.2913793623

$$$$
[H]c1c([H])c2c(c(OC([H])([H])[H])c1OC([H])([H])[H])C([H])([H])N1C([H])([H])C([H])([H])c3c([H])c(OC([H])([H])[H])c(OC([H])([H])[H])c([H])c3C1([H])C2([H])[H]


 26 29  0  0  0  0  0  0  0  0999 V2000
   -9.0267   23.6158  -19.9944 C   0  0  0  0  0  0  0  0  0  0  0  0
   -7.9396   23.9528  -20.7755 C   0  0  0  0  0  0  0  0  0  0  0  0
   -6.6846   23.5584  -20.3348 C   0  0  0  0  0  0  0  0  0  0  0  0
   -5.4326   23.8565  -21.0777 C   0  0  0  0  0  0  0  0  0  0  0  0
   -4.5419   22.6564  -21.0891 C   0  0  0  0  0  0  0  0  0  0  0  0
   -4.5956   21.8429  -19.9195 N   0  0  0  0  0  0  0  0  0  0  0  0
   -3.3806   21.1420  -19.7228 C   0  0  0  0  0  0  0  0  0  0  0  0
   -2.7987   21.2412  -18.3702 C   0  0  0  0  0  0  0  0  0  0  0  0
   -3.6271   21.4561  -17.2931 C   0  0  0  0  0  0  0  0  0  0  0  0
   -5.0893   21.5925  -17.5691 C   0  0  0  0  0  0  0  0  0  0  0  0
   -5.1737   22.4853  -18.7815 C   0  0  0  0  0  0  0  0  0  0  0  0
   -6.5633   22.8549  -19.1519 C   0  0  0  0  0  0  0  0  0  0  0  0
   -7.6707   22.5349  -18.3959 C   0  0  0  0  0  0  0  0  0  0  0  0
   -8.9398   22.9154  -18.8103 C   0  0  0  0  0  0  0  0  0  0  0  0
   -3.0783   21.5371  -16.0508 C   0  0  0  0  0  0  0  0  0  0  0  0
   -1.7044   21.4054  -15.8737 C   0  0  0  0  0  0  0  0  0  0  0  0
   -0.8653   21.1927  -16.9244 C   0  0  0  0  0  0  0  0  0  0  0  0
   -1.4139   21.1079  -18.1977 C   0  0  0  0  0  0  0  0  0  0  0  0
  -10.5628   25.1112  -21.2063 C   0  0  0  0  0  0  0  0  0  0  0  0
  -10.2926   23.9991  -20.4142 O   0  0  0  0  0  0  0  0  0  0  0  0
  -10.0543   22.5933  -18.0494 O   0  0  0  0  0  0  0  0  0  0  0  0
  -10.1514   21.3388  -17.4146 C   0  0  0  0  0  0  0  0  0  0  0  0
    0.5094   21.0576  -16.7768 O   0  0  0  0  0  0  0  0  0  0  0  0
    1.2297   22.1809  -16.2971 C   0  0  0  0  0  0  0  0  0  0  0  0
   -0.5660   20.8912  -19.2768 O   0  0  0  0  0  0  0  0  0  0  0  0
    0.0248   22.0481  -19.8857 C   0  0  0  0  0  0  0  0  0  0  0  0
 19 20  1  0  0  0
 20  1  1  0  0  0
  1  2  2  0  0  0
  2  3  1  0  0  0
  3  4  1  0  0  0
  4  5  1  0  0  0
  5  6  1  0  0  0
  6  7  1  0  0  0
  7  8  1  0  0  0
  8  9  2  0  0  0
  9 10  1  0  0  0
 10 11  1  0  0  0
 11 12  1  0  0  0
 12 13  1  0  0  0
 13 14  2  0  0  0
 14 21  1  0  0  0
 21 22  1  0  0  0
  9 15  1  0  0  0
 15 16  2  0  0  0
 16 17  1  0  0  0
 17 23  1  0  0  0
 23 24  1  0  0  0
 17 18  2  0  0  0
 18 25  1  0  0  0
 25 26  1  0  0  0
 14  1  1  0  0  0
 12  3  2  0  0  0
 11  6  1  0  0  0
 18  8  1  0  0  0
M  END
> <minimizedAffinity>
-3.94488

> <CNNscore>
0.2697945237

> <CNNaffinity>
4.5053877831

> <CNN_VS>
1.2155289650

> <CNNaffinity_variance>
0.3927868307

$$$$
[H]c1c([H])c2c(c(OC([H])([H])[H])c1OC([H])([H])[H])C([H])([H])N1C([H])([H])C([H])([H])c3c([H])c(OC([H])([H])[H])c(OC([H])([H])[H])c([H])c3C1([H])C2([H])[H]


 26 29  0  0  0  0  0  0  0  0999 V2000
    1.2222   21.4569  -22.8840 C   0  0  0  0  0  0  0  0  0  0  0  0
    0.3294   21.6009  -23.9268 C   0  0  0  0  0  0  0  0  0  0  0  0
   -1.0198   21.6750  -23.6122 C   0  0  0  0  0  0  0  0  0  0  0  0
   -2.0851   21.8288  -24.6368 C   0  0  0  0  0  0  0  0  0  0  0  0
   -3.0994   22.8269  -24.1799 C   0  0  0  0  0  0  0  0  0  0  0  0
   -3.3400   22.8562  -22.7749 N   0  0  0  0  0  0  0  0  0  0  0  0
   -4.6462   23.3210  -22.4851 C   0  0  0  0  0  0  0  0  0  0  0  0
   -5.4294   22.4841  -21.5555 C   0  0  0  0  0  0  0  0  0  0  0  0
   -4.7727   21.7148  -20.6231 C   0  0  0  0  0  0  0  0  0  0  0  0
   -3.2794   21.7657  -20.6212 C   0  0  0  0  0  0  0  0  0  0  0  0
   -2.8869   21.6952  -22.0757 C   0  0  0  0  0  0  0  0  0  0  0  0
   -1.4207   21.6039  -22.2919 C   0  0  0  0  0  0  0  0  0  0  0  0
   -0.5017   21.4600  -21.2745 C   0  0  0  0  0  0  0  0  0  0  0  0
    0.8551   21.3829  -21.5573 C   0  0  0  0  0  0  0  0  0  0  0  0
   -5.5073   20.9545  -19.7668 C   0  0  0  0  0  0  0  0  0  0  0  0
   -6.8973   20.9552  -19.8337 C   0  0  0  0  0  0  0  0  0  0  0  0
   -7.5686   21.7080  -20.7479 C   0  0  0  0  0  0  0  0  0  0  0  0
   -6.8295   22.4886  -21.6275 C   0  0  0  0  0  0  0  0  0  0  0  0
    3.3506   20.2297  -23.0522 C   0  0  0  0  0  0  0  0  0  0  0  0
    2.5773   21.3805  -23.1734 O   0  0  0  0  0  0  0  0  0  0  0  0
    1.7801   21.2380  -20.5333 O   0  0  0  0  0  0  0  0  0  0  0  0
    1.4151   21.4915  -19.1959 C   0  0  0  0  0  0  0  0  0  0  0  0
   -8.9548   21.7278  -20.8372 O   0  0  0  0  0  0  0  0  0  0  0  0
   -9.6787   22.1421  -19.6905 C   0  0  0  0  0  0  0  0  0  0  0  0
   -7.5052   23.2604  -22.5646 O   0  0  0  0  0  0  0  0  0  0  0  0
   -7.9518   24.5569  -22.1430 C   0  0  0  0  0  0  0  0  0  0  0  0
 19 20  1  0  0  0
 20  1  1  0  0  0
  1  2  2  0  0  0
  2  3  1  0  0  0
  3  4  1  0  0  0
  4  5  1  0  0  0
  5  6  1  0  0  0
  6  7  1  0  0  0
  7  8  1  0  0  0
  8  9  2  0  0  0
  9 10  1  0  0  0
 10 11  1  0  0  0
 11 12  1  0  0  0
 12 13  1  0  0  0
 13 14  2  0  0  0
 14 21  1  0  0  0
 21 22  1  0  0  0
  9 15  1  0  0  0
 15 16  2  0  0  0
 16 17  1  0  0  0
 17 23  1  0  0  0
 23 24  1  0  0  0
 17 18  2  0  0  0
 18 25  1  0  0  0
 25 26  1  0  0  0
 14  1  1  0  0  0
 12  3  2  0  0  0
 11  6  1  0  0  0
 18  8  1  0  0  0
M  END
> <minimizedAffinity>
-5.91103

> <CNNscore>
0.2311577201

> <CNNaffinity>
5.2558846474

> <CNN_VS>
1.2149382830

> <CNNaffinity_variance>
0.2616267502

$$$$
[H]c1c([H])c2c(c(OC([H])([H])[H])c1OC([H])([H])[H])C([H])([H])N1C([H])([H])C([H])([H])c3c([H])c(OC([H])([H])[H])c(OC([H])([H])[H])c([H])c3C1([H])C2([H])[H]


 26 29  0  0  0  0  0  0  0  0999 V2000
   -7.8582   22.8971  -18.8340 C   0  0  0  0  0  0  0  0  0  0  0  0
   -7.6353   21.5367  -18.7639 C   0  0  0  0  0  0  0  0  0  0  0  0
   -6.3235   21.0947  -18.8563 C   0  0  0  0  0  0  0  0  0  0  0  0
   -5.9445   19.6590  -18.7970 C   0  0  0  0  0  0  0  0  0  0  0  0
   -4.7350   19.4803  -17.9374 C   0  0  0  0  0  0  0  0  0  0  0  0
   -3.7918   20.5487  -17.9780 N   0  0  0  0  0  0  0  0  0  0  0  0
   -2.4845   20.0940  -17.6768 C   0  0  0  0  0  0  0  0  0  0  0  0
   -1.4319   20.5047  -18.6262 C   0  0  0  0  0  0  0  0  0  0  0  0
   -1.5849   21.6699  -19.3413 C   0  0  0  0  0  0  0  0  0  0  0  0
   -2.8381   22.4523  -19.1173 C   0  0  0  0  0  0  0  0  0  0  0  0
   -3.9401   21.4229  -19.0986 C   0  0  0  0  0  0  0  0  0  0  0  0
   -5.3010   22.0106  -19.0126 C   0  0  0  0  0  0  0  0  0  0  0  0
   -5.5593   23.3631  -19.0789 C   0  0  0  0  0  0  0  0  0  0  0  0
   -6.8612   23.8363  -18.9894 C   0  0  0  0  0  0  0  0  0  0  0  0
   -0.6030   22.0408  -20.2068 C   0  0  0  0  0  0  0  0  0  0  0  0
    0.5348   21.2554  -20.3656 C   0  0  0  0  0  0  0  0  0  0  0  0
    0.7078   20.0987  -19.6691 C   0  0  0  0  0  0  0  0  0  0  0  0
   -0.2879   19.7095  -18.7823 C   0  0  0  0  0  0  0  0  0  0  0  0
  -10.0836   23.3492  -19.7867 C   0  0  0  0  0  0  0  0  0  0  0  0
   -9.1620   23.3638  -18.7439 O   0  0  0  0  0  0  0  0  0  0  0  0
   -7.1211   25.1975  -19.0562 O   0  0  0  0  0  0  0  0  0  0  0  0
   -7.1397   25.8643  -20.2977 C   0  0  0  0  0  0  0  0  0  0  0  0
    1.8328   19.2955  -19.8079 O   0  0  0  0  0  0  0  0  0  0  0  0
    2.0140   18.6314  -21.0475 C   0  0  0  0  0  0  0  0  0  0  0  0
   -0.1210   18.5303  -18.0668 O   0  0  0  0  0  0  0  0  0  0  0  0
   -0.6123   17.3251  -18.6704 C   0  0  0  0  0  0  0  0  0  0  0  0
 19 20  1  0  0  0
 20  1  1  0  0  0
  1  2  2  0  0  0
  2  3  1  0  0  0
  3  4  1  0  0  0
  4  5  1  0  0  0
  5  6  1  0  0  0
  6  7  1  0  0  0
  7  8  1  0  0  0
  8  9  2  0  0  0
  9 10  1  0  0  0
 10 11  1  0  0  0
 11 12  1  0  0  0
 12 13  1  0  0  0
 13 14  2  0  0  0
 14 21  1  0  0  0
 21 22  1  0  0  0
  9 15  1  0  0  0
 15 16  2  0  0  0
 16 17  1  0  0  0
 17 23  1  0  0  0
 23 24  1  0  0  0
 17 18  2  0  0  0
 18 25  1  0  0  0
 25 26  1  0  0  0
 14  1  1  0  0  0
 12  3  2  0  0  0
 11  6  1  0  0  0
 18  8  1  0  0  0
M  END
> <minimizedAffinity>
-4.17046

> <CNNscore>
0.2226354331

> <CNNaffinity>
4.6240000725

> <CNN_VS>
1.0294662714

> <CNNaffinity_variance>
0.6195865870

$$$$
[H]c1c([H])c2c(c(OC([H])([H])[H])c1OC([H])([H])[H])C([H])([H])N1C([H])([H])C([H])([H])c3c([H])c(OC([H])([H])[H])c(OC([H])([H])[H])c([H])c3C1([H])C2([H])[H]


 26 29  0  0  0  0  0  0  0  0999 V2000
    0.0311   22.1564  -24.7547 C   0  0  0  0  0  0  0  0  0  0  0  0
   -1.2740   22.5277  -24.5016 C   0  0  0  0  0  0  0  0  0  0  0  0
   -1.8016   22.2144  -23.2573 C   0  0  0  0  0  0  0  0  0  0  0  0
   -3.1913   22.5547  -22.8557 C   0  0  0  0  0  0  0  0  0  0  0  0
   -3.2096   23.0797  -21.4565 C   0  0  0  0  0  0  0  0  0  0  0  0
   -2.2470   22.5064  -20.5748 N   0  0  0  0  0  0  0  0  0  0  0  0
   -2.6833   22.5623  -19.2284 C   0  0  0  0  0  0  0  0  0  0  0  0
   -2.5990   21.2947  -18.4774 C   0  0  0  0  0  0  0  0  0  0  0  0
   -1.6552   20.3599  -18.8347 C   0  0  0  0  0  0  0  0  0  0  0  0
   -0.7687   20.6881  -19.9919 C   0  0  0  0  0  0  0  0  0  0  0  0
   -1.6901   21.2727  -21.0329 C   0  0  0  0  0  0  0  0  0  0  0  0
   -1.0209   21.5539  -22.3284 C   0  0  0  0  0  0  0  0  0  0  0  0
    0.2797   21.1976  -22.6144 C   0  0  0  0  0  0  0  0  0  0  0  0
    0.8360   21.4971  -23.8504 C   0  0  0  0  0  0  0  0  0  0  0  0
   -1.5829   19.1992  -18.1286 C   0  0  0  0  0  0  0  0  0  0  0  0
   -2.4484   18.9626  -17.0648 C   0  0  0  0  0  0  0  0  0  0  0  0
   -3.3902   19.8726  -16.6934 C   0  0  0  0  0  0  0  0  0  0  0  0
   -3.4735   21.0615  -17.4068 C   0  0  0  0  0  0  0  0  0  0  0  0
   -0.0663   22.2862  -27.2120 C   0  0  0  0  0  0  0  0  0  0  0  0
    0.5814   22.4588  -25.9922 O   0  0  0  0  0  0  0  0  0  0  0  0
    2.1450   21.1385  -24.1382 O   0  0  0  0  0  0  0  0  0  0  0  0
    3.0825   20.9537  -23.1022 C   0  0  0  0  0  0  0  0  0  0  0  0
   -4.2667   19.6627  -15.6363 O   0  0  0  0  0  0  0  0  0  0  0  0
   -3.8337   20.0449  -14.3413 C   0  0  0  0  0  0  0  0  0  0  0  0
   -4.4316   21.9969  -17.0358 O   0  0  0  0  0  0  0  0  0  0  0  0
   -5.7353   21.8629  -17.6194 C   0  0  0  0  0  0  0  0  0  0  0  0
 19 20  1  0  0  0
 20  1  1  0  0  0
  1  2  2  0  0  0
  2  3  1  0  0  0
  3  4  1  0  0  0
  4  5  1  0  0  0
  5  6  1  0  0  0
  6  7  1  0  0  0
  7  8  1  0  0  0
  8  9  2  0  0  0
  9 10  1  0  0  0
 10 11  1  0  0  0
 11 12  1  0  0  0
 12 13  1  0  0  0
 13 14  2  0  0  0
 14 21  1  0  0  0
 21 22  1  0  0  0
  9 15  1  0  0  0
 15 16  2  0  0  0
 16 17  1  0  0  0
 17 23  1  0  0  0
 23 24  1  0  0  0
 17 18  2  0  0  0
 18 25  1  0  0  0
 25 26  1  0  0  0
 14  1  1  0  0  0
 12  3  2  0  0  0
 11  6  1  0  0  0
 18  8  1  0  0  0
M  END
> <minimizedAffinity>
-4.84973

> <CNNscore>
0.2153320014

> <CNNaffinity>
5.1825494766

> <CNN_VS>
1.1159687042

> <CNNaffinity_variance>
0.2955287993

$$$$
[H]c1nc(N([H])c2c([H])c([H])c(N3C([H])([H])C([H])([H])C([H])(N4C([H])([H])C([H])([H])N(C([H])([H])[H])C([H])([H])C4([H])[H])C([H])([H])C3([H])[H])c([H])c2OC([H])([H])[H])nc(N([H])c2c([H])c([H])c([H])c([H])c2S(=O)(=O)C([H])(C([H])([H])[H])C([H])([H])[H])c1Cl


 44 48  0  0  0  0  0  0  0  0999 V2000
    1.2271   22.4846  -24.0974 N   0  0  0  0  0  0  0  0  0  0  0  0
    1.6782   23.4455  -23.8871 H   0  0  0  0  0  0  0  0  0  0  0  0
    0.2777   22.4569  -25.1530 C   0  0  0  0  0  0  0  0  0  0  0  0
    0.5300   22.1762  -26.4340 N   0  0  0  0  0  0  0  0  0  0  0  0
   -0.4162   22.1664  -27.3812 C   0  0  0  0  0  0  0  0  0  0  0  0
   -1.7195   22.4550  -27.0505 C   0  0  0  0  0  0  0  0  0  0  0  0
   -2.9773   22.4468  -28.2828 Cl  0  0  0  0  0  0  0  0  0  0  0  0
   -2.0126   22.7550  -25.7041 C   0  0  0  0  0  0  0  0  0  0  0  0
   -1.0003   22.7389  -24.8346 N   0  0  0  0  0  0  0  0  0  0  0  0
   -3.3501   23.0440  -25.3930 N   0  0  0  0  0  0  0  0  0  0  0  0
   -3.9530   22.1814  -25.1846 H   0  0  0  0  0  0  0  0  0  0  0  0
   -4.0442   24.2600  -25.3041 C   0  0  0  0  0  0  0  0  0  0  0  0
   -4.0871   25.1108  -26.3884 C   0  0  0  0  0  0  0  0  0  0  0  0
   -4.7743   26.3293  -26.3151 C   0  0  0  0  0  0  0  0  0  0  0  0
   -5.4030   26.6658  -25.1539 C   0  0  0  0  0  0  0  0  0  0  0  0
   -5.3586   25.8143  -24.0733 C   0  0  0  0  0  0  0  0  0  0  0  0
   -4.6940   24.6167  -24.1173 C   0  0  0  0  0  0  0  0  0  0  0  0
   -4.6491   23.5666  -22.7626 S   0  0  0  0  0  0  0  0  0  0  0  0
   -4.6924   24.3712  -21.4878 O   0  0  0  0  0  0  0  0  0  0  0  0
   -3.4426   22.6722  -22.7012 O   0  0  0  0  0  0  0  0  0  0  0  0
   -6.0598   22.4786  -22.6942 C   0  0  0  0  0  0  0  0  0  0  0  0
   -7.3063   23.2424  -22.3856 C   0  0  0  0  0  0  0  0  0  0  0  0
   -6.1501   21.5481  -23.8574 C   0  0  0  0  0  0  0  0  0  0  0  0
    0.8665   21.0879  -22.1761 C   0  0  0  0  0  0  0  0  0  0  0  0
    1.2257   20.0605  -21.3231 C   0  0  0  0  0  0  0  0  0  0  0  0
    2.3745   19.3256  -21.5141 C   0  0  0  0  0  0  0  0  0  0  0  0
    3.1433   19.6700  -22.5992 C   0  0  0  0  0  0  0  0  0  0  0  0
    2.8096   20.7029  -23.4809 C   0  0  0  0  0  0  0  0  0  0  0  0
    1.6636   21.4318  -23.2853 C   0  0  0  0  0  0  0  0  0  0  0  0
    2.7288   18.2608  -20.6275 N   0  0  0  0  0  0  0  0  0  0  0  0
    4.1081   18.0284  -20.3669 C   0  0  0  0  0  0  0  0  0  0  0  0
    4.4167   17.1552  -19.1832 C   0  0  0  0  0  0  0  0  0  0  0  0
    3.5411   15.9541  -19.0577 C   0  0  0  0  0  0  0  0  0  0  0  0
    2.2887   16.0431  -19.9066 C   0  0  0  0  0  0  0  0  0  0  0  0
    1.7330   17.4234  -20.0030 C   0  0  0  0  0  0  0  0  0  0  0  0
    3.1887   15.5380  -17.7591 N   0  0  0  0  0  0  0  0  0  0  0  0
    2.1018   14.6679  -17.5832 C   0  0  0  0  0  0  0  0  0  0  0  0
    1.6760   14.6694  -16.1123 C   0  0  0  0  0  0  0  0  0  0  0  0
    2.8772   14.5866  -15.3043 N   0  0  0  0  0  0  0  0  0  0  0  0
    3.5267   13.3156  -15.3473 C   0  0  0  0  0  0  0  0  0  0  0  0
    3.7307   15.7222  -15.4428 C   0  0  0  0  0  0  0  0  0  0  0  0
    3.3380   16.4885  -16.7042 C   0  0  0  0  0  0  0  0  0  0  0  0
   -0.5865   22.1911  -20.6047 C   0  0  0  0  0  0  0  0  0  0  0  0
   -0.3038   21.7872  -21.9249 O   0  0  0  0  0  0  0  0  0  0  0  0
 43 44  1  0  0  0
 44 24  1  0  0  0
 24 25  2  0  0  0
 25 26  1  0  0  0
 26 27  2  0  0  0
 27 28  1  0  0  0
 28 29  2  0  0  0
 29  1  1  0  0  0
  1  3  1  0  0  0
  3  4  2  0  0  0
  4  5  1  0  0  0
  5  6  2  0  0  0
  6  7  1  0  0  0
  6  8  1  0  0  0
  8 10  1  0  0  0
 10 12  1  0  0  0
 12 13  2  0  0  0
 13 14  1  0  0  0
 14 15  2  0  0  0
 15 16  1  0  0  0
 16 17  2  0  0  0
 17 18  1  0  0  0
 18 19  2  0  0  0
 18 20  2  0  0  0
 18 21  1  0  0  0
 21 22  1  0  0  0
 21 23  1  0  0  0
  8  9  2  0  0  0
 26 30  1  0  0  0
 30 31  1  0  0  0
 31 32  1  0  0  0
 32 33  1  0  0  0
 33 34  1  0  0  0
 34 35  1  0  0  0
 33 36  1  0  0  0
 36 37  1  0  0  0
 37 38  1  0  0  0
 38 39  1  0  0  0
 39 40  1  0  0  0
 39 41  1  0  0  0
 41 42  1  0  0  0
 29 24  1  0  0  0
  9  3  1  0  0  0
 35 30  1  0  0  0
 42 36  1  0  0  0
 17 12  1  0  0  0
  1  2  1  0  0  0
 10 11  1  0  0  0
M  END
> <minimizedAffinity>
-7.38980

> <CNNscore>
0.7782101631

> <CNNaffinity>
7.4814095497

> <CNN_VS>
5.8221087456

> <CNNaffinity_variance>
0.0130340904

$$$$
[H]c1nc(N([H])c2c([H])c([H])c(N3C([H])([H])C([H])([H])C([H])(N4C([H])([H])C([H])([H])N(C([H])([H])[H])C([H])([H])C4([H])[H])C([H])([H])C3([H])[H])c([H])c2OC([H])([H])[H])nc(N([H])c2c([H])c([H])c([H])c([H])c2S(=O)(=O)C([H])(C([H])([H])[H])C([H])([H])[H])c1Cl


 44 48  0  0  0  0  0  0  0  0999 V2000
   -0.0262   22.3333  -23.3458 N   0  0  0  0  0  0  0  0  0  0  0  0
   -0.3485   23.0498  -22.6015 H   0  0  0  0  0  0  0  0  0  0  0  0
   -0.6608   22.4196  -24.6132 C   0  0  0  0  0  0  0  0  0  0  0  0
   -0.0980   22.1626  -25.7965 N   0  0  0  0  0  0  0  0  0  0  0  0
   -0.7570   22.2629  -26.9577 C   0  0  0  0  0  0  0  0  0  0  0  0
   -2.0776   22.6465  -26.9649 C   0  0  0  0  0  0  0  0  0  0  0  0
   -2.9604   22.7837  -28.4822 Cl  0  0  0  0  0  0  0  0  0  0  0  0
   -2.6957   22.9239  -25.7280 C   0  0  0  0  0  0  0  0  0  0  0  0
   -1.9543   22.7950  -24.6259 N   0  0  0  0  0  0  0  0  0  0  0  0
   -4.0440   23.3113  -25.7630 N   0  0  0  0  0  0  0  0  0  0  0  0
   -4.7230   22.5286  -26.0410 H   0  0  0  0  0  0  0  0  0  0  0  0
   -4.6674   24.5402  -25.4991 C   0  0  0  0  0  0  0  0  0  0  0  0
   -4.3342   25.6557  -26.2380 C   0  0  0  0  0  0  0  0  0  0  0  0
   -4.9462   26.8902  -25.9856 C   0  0  0  0  0  0  0  0  0  0  0  0
   -5.8792   26.9765  -24.9963 C   0  0  0  0  0  0  0  0  0  0  0  0
   -6.2099   25.8612  -24.2604 C   0  0  0  0  0  0  0  0  0  0  0  0
   -5.6272   24.6415  -24.4860 C   0  0  0  0  0  0  0  0  0  0  0  0
   -6.0511   23.2613  -23.5610 S   0  0  0  0  0  0  0  0  0  0  0  0
   -6.0757   22.0393  -24.4444 O   0  0  0  0  0  0  0  0  0  0  0  0
   -7.3815   23.3545  -22.8677 O   0  0  0  0  0  0  0  0  0  0  0  0
   -4.8635   22.9062  -22.2797 C   0  0  0  0  0  0  0  0  0  0  0  0
   -4.2519   21.5577  -22.4800 C   0  0  0  0  0  0  0  0  0  0  0  0
   -3.8978   24.0182  -22.0392 C   0  0  0  0  0  0  0  0  0  0  0  0
    0.6927   20.6447  -21.7953 C   0  0  0  0  0  0  0  0  0  0  0  0
    1.6194   19.7391  -21.3122 C   0  0  0  0  0  0  0  0  0  0  0  0
    2.8503   19.5723  -21.9065 C   0  0  0  0  0  0  0  0  0  0  0  0
    3.1059   20.3554  -23.0059 C   0  0  0  0  0  0  0  0  0  0  0  0
    2.1919   21.2805  -23.5200 C   0  0  0  0  0  0  0  0  0  0  0  0
    0.9668   21.4424  -22.9233 C   0  0  0  0  0  0  0  0  0  0  0  0
    3.7956   18.6262  -21.3997 N   0  0  0  0  0  0  0  0  0  0  0  0
    5.1819   18.9128  -21.5416 C   0  0  0  0  0  0  0  0  0  0  0  0
    6.1146   18.0878  -20.7000 C   0  0  0  0  0  0  0  0  0  0  0  0
    5.7742   16.6366  -20.6438 C   0  0  0  0  0  0  0  0  0  0  0  0
    4.3664   16.3397  -21.1201 C   0  0  0  0  0  0  0  0  0  0  0  0
    3.3816   17.4000  -20.7608 C   0  0  0  0  0  0  0  0  0  0  0  0
    6.0015   15.9611  -19.4290 N   0  0  0  0  0  0  0  0  0  0  0  0
    5.3752   14.7269  -19.1967 C   0  0  0  0  0  0  0  0  0  0  0  0
    5.4527   14.3845  -17.7062 C   0  0  0  0  0  0  0  0  0  0  0  0
    6.8017   14.6688  -17.2569 N   0  0  0  0  0  0  0  0  0  0  0  0
    7.7871   13.7586  -17.7464 C   0  0  0  0  0  0  0  0  0  0  0  0
    7.1439   16.0522  -17.3362 C   0  0  0  0  0  0  0  0  0  0  0  0
    6.1485   16.7588  -18.2540 C   0  0  0  0  0  0  0  0  0  0  0  0
   -0.5439   20.9414  -19.7506 C   0  0  0  0  0  0  0  0  0  0  0  0
   -0.5278   20.7618  -21.1483 O   0  0  0  0  0  0  0  0  0  0  0  0
 43 44  1  0  0  0
 44 24  1  0  0  0
 24 25  2  0  0  0
 25 26  1  0  0  0
 26 27  2  0  0  0
 27 28  1  0  0  0
 28 29  2  0  0  0
 29  1  1  0  0  0
  1  3  1  0  0  0
  3  4  2  0  0  0
  4  5  1  0  0  0
  5  6  2  0  0  0
  6  7  1  0  0  0
  6  8  1  0  0  0
  8 10  1  0  0  0
 10 12  1  0  0  0
 12 13  2  0  0  0
 13 14  1  0  0  0
 14 15  2  0  0  0
 15 16  1  0  0  0
 16 17  2  0  0  0
 17 18  1  0  0  0
 18 19  2  0  0  0
 18 20  2  0  0  0
 18 21  1  0  0  0
 21 22  1  0  0  0
 21 23  1  0  0  0
  8  9  2  0  0  0
 26 30  1  0  0  0
 30 31  1  0  0  0
 31 32  1  0  0  0
 32 33  1  0  0  0
 33 34  1  0  0  0
 34 35  1  0  0  0
 33 36  1  0  0  0
 36 37  1  0  0  0
 37 38  1  0  0  0
 38 39  1  0  0  0
 39 40  1  0  0  0
 39 41  1  0  0  0
 41 42  1  0  0  0
 29 24  1  0  0  0
  9  3  1  0  0  0
 35 30  1  0  0  0
 42 36  1  0  0  0
 17 12  1  0  0  0
  1  2  1  0  0  0
 10 11  1  0  0  0
M  END
> <minimizedAffinity>
-7.31011

> <CNNscore>
0.6084362268

> <CNNaffinity>
7.3627090454

> <CNN_VS>
4.4797387123

> <CNNaffinity_variance>
0.0146667212

$$$$
[H]c1nc(N([H])c2c([H])c([H])c(N3C([H])([H])C([H])([H])C([H])(N4C([H])([H])C([H])([H])N(C([H])([H])[H])C([H])([H])C4([H])[H])C([H])([H])C3([H])[H])c([H])c2OC([H])([H])[H])nc(N([H])c2c([H])c([H])c([H])c([H])c2S(=O)(=O)C([H])(C([H])([H])[H])C([H])([H])[H])c1Cl


 44 48  0  0  0  0  0  0  0  0999 V2000
   -1.4873   23.3852  -22.2478 N   0  0  0  0  0  0  0  0  0  0  0  0
   -0.9219   24.2376  -21.8943 H   0  0  0  0  0  0  0  0  0  0  0  0
   -1.3051   23.0360  -23.6121 C   0  0  0  0  0  0  0  0  0  0  0  0
   -0.1514   22.6959  -24.1922 N   0  0  0  0  0  0  0  0  0  0  0  0
   -0.0503   22.3755  -25.4882 C   0  0  0  0  0  0  0  0  0  0  0  0
   -1.1703   22.3880  -26.2862 C   0  0  0  0  0  0  0  0  0  0  0  0
   -1.0566   21.9693  -27.9928 Cl  0  0  0  0  0  0  0  0  0  0  0  0
   -2.4015   22.7438  -25.6979 C   0  0  0  0  0  0  0  0  0  0  0  0
   -2.3988   23.0467  -24.3982 N   0  0  0  0  0  0  0  0  0  0  0  0
   -3.5290   22.7468  -26.5334 N   0  0  0  0  0  0  0  0  0  0  0  0
   -4.0513   21.8107  -26.5762 H   0  0  0  0  0  0  0  0  0  0  0  0
   -4.0992   23.7550  -27.3251 C   0  0  0  0  0  0  0  0  0  0  0  0
   -3.5540   24.0578  -28.5549 C   0  0  0  0  0  0  0  0  0  0  0  0
   -4.1106   25.0629  -29.3563 C   0  0  0  0  0  0  0  0  0  0  0  0
   -5.2024   25.7414  -28.9043 C   0  0  0  0  0  0  0  0  0  0  0  0
   -5.7445   25.4367  -27.6763 C   0  0  0  0  0  0  0  0  0  0  0  0
   -5.2206   24.4586  -26.8720 C   0  0  0  0  0  0  0  0  0  0  0  0
   -5.9086   24.0903  -25.3452 S   0  0  0  0  0  0  0  0  0  0  0  0
   -5.8756   22.6005  -25.1132 O   0  0  0  0  0  0  0  0  0  0  0  0
   -7.3280   24.5520  -25.1682 O   0  0  0  0  0  0  0  0  0  0  0  0
   -4.9957   24.8091  -23.9930 C   0  0  0  0  0  0  0  0  0  0  0  0
   -4.3529   26.0926  -24.4078 C   0  0  0  0  0  0  0  0  0  0  0  0
   -5.7669   24.8622  -22.7165 C   0  0  0  0  0  0  0  0  0  0  0  0
   -1.9702   22.9574  -19.9335 C   0  0  0  0  0  0  0  0  0  0  0  0
   -2.7240   22.3878  -18.9238 C   0  0  0  0  0  0  0  0  0  0  0  0
   -3.8329   21.6165  -19.1918 C   0  0  0  0  0  0  0  0  0  0  0  0
   -4.1482   21.4450  -20.5178 C   0  0  0  0  0  0  0  0  0  0  0  0
   -3.4078   22.0062  -21.5629 C   0  0  0  0  0  0  0  0  0  0  0  0
   -2.3036   22.7738  -21.2896 C   0  0  0  0  0  0  0  0  0  0  0  0
   -4.6070   21.0400  -18.1364 N   0  0  0  0  0  0  0  0  0  0  0  0
   -3.9539   20.1787  -17.2113 C   0  0  0  0  0  0  0  0  0  0  0  0
   -4.7033   19.8860  -15.9418 C   0  0  0  0  0  0  0  0  0  0  0  0
   -6.1584   19.6184  -16.1322 C   0  0  0  0  0  0  0  0  0  0  0  0
   -6.6692   20.0600  -17.4890 C   0  0  0  0  0  0  0  0  0  0  0  0
   -6.0188   21.3036  -17.9928 C   0  0  0  0  0  0  0  0  0  0  0  0
   -7.0409   20.0786  -15.1357 N   0  0  0  0  0  0  0  0  0  0  0  0
   -6.5282   20.7464  -14.0130 C   0  0  0  0  0  0  0  0  0  0  0  0
   -7.5952   20.8001  -12.9160 C   0  0  0  0  0  0  0  0  0  0  0  0
   -8.8501   21.1752  -13.5380 N   0  0  0  0  0  0  0  0  0  0  0  0
   -8.9068   22.5348  -13.9712 C   0  0  0  0  0  0  0  0  0  0  0  0
   -9.3292   20.2081  -14.4721 C   0  0  0  0  0  0  0  0  0  0  0  0
   -8.1834   19.2715  -14.8497 C   0  0  0  0  0  0  0  0  0  0  0  0
    0.2143   23.1044  -18.9314 C   0  0  0  0  0  0  0  0  0  0  0  0
   -0.8657   23.7228  -19.5927 O   0  0  0  0  0  0  0  0  0  0  0  0
 43 44  1  0  0  0
 44 24  1  0  0  0
 24 25  2  0  0  0
 25 26  1  0  0  0
 26 27  2  0  0  0
 27 28  1  0  0  0
 28 29  2  0  0  0
 29  1  1  0  0  0
  1  3  1  0  0  0
  3  4  2  0  0  0
  4  5  1  0  0  0
  5  6  2  0  0  0
  6  7  1  0  0  0
  6  8  1  0  0  0
  8 10  1  0  0  0
 10 12  1  0  0  0
 12 13  2  0  0  0
 13 14  1  0  0  0
 14 15  2  0  0  0
 15 16  1  0  0  0
 16 17  2  0  0  0
 17 18  1  0  0  0
 18 19  2  0  0  0
 18 20  2  0  0  0
 18 21  1  0  0  0
 21 22  1  0  0  0
 21 23  1  0  0  0
  8  9  2  0  0  0
 26 30  1  0  0  0
 30 31  1  0  0  0
 31 32  1  0  0  0
 32 33  1  0  0  0
 33 34  1  0  0  0
 34 35  1  0  0  0
 33 36  1  0  0  0
 36 37  1  0  0  0
 37 38  1  0  0  0
 38 39  1  0  0  0
 39 40  1  0  0  0
 39 41  1  0  0  0
 41 42  1  0  0  0
 29 24  1  0  0  0
  9  3  1  0  0  0
 35 30  1  0  0  0
 42 36  1  0  0  0
 17 12  1  0  0  0
  1  2  1  0  0  0
 10 11  1  0  0  0
M  END
> <minimizedAffinity>
-7.47255

> <CNNscore>
0.2763276398

> <CNNaffinity>
7.3410348892

> <CNN_VS>
2.0285308361

> <CNNaffinity_variance>
0.0624970123

$$$$
[H]c1nc(N([H])c2c([H])c([H])c(N3C([H])([H])C([H])([H])C([H])(N4C([H])([H])C([H])([H])N(C([H])([H])[H])C([H])([H])C4([H])[H])C([H])([H])C3([H])[H])c([H])c2OC([H])([H])[H])nc(N([H])c2c([H])c([H])c([H])c([H])c2S(=O)(=O)C([H])(C([H])([H])[H])C([H])([H])[H])c1Cl


 44 48  0  0  0  0  0  0  0  0999 V2000
   -1.4233   22.9245  -21.7863 N   0  0  0  0  0  0  0  0  0  0  0  0
   -0.8311   23.6741  -21.2777 H   0  0  0  0  0  0  0  0  0  0  0  0
   -1.1056   22.6967  -23.1515 C   0  0  0  0  0  0  0  0  0  0  0  0
    0.0744   22.2953  -23.6306 N   0  0  0  0  0  0  0  0  0  0  0  0
    0.3060   22.0979  -24.9344 C   0  0  0  0  0  0  0  0  0  0  0  0
   -0.6992   22.3100  -25.8486 C   0  0  0  0  0  0  0  0  0  0  0  0
   -0.4131   22.0553  -27.5672 Cl  0  0  0  0  0  0  0  0  0  0  0  0
   -1.9554   22.7344  -25.3683 C   0  0  0  0  0  0  0  0  0  0  0  0
   -2.0867   22.9030  -24.0510 N   0  0  0  0  0  0  0  0  0  0  0  0
   -2.9643   22.9417  -26.3214 N   0  0  0  0  0  0  0  0  0  0  0  0
   -2.6275   22.9015  -27.3392 H   0  0  0  0  0  0  0  0  0  0  0  0
   -4.3380   23.1925  -26.1845 C   0  0  0  0  0  0  0  0  0  0  0  0
   -4.9232   23.1657  -24.9363 C   0  0  0  0  0  0  0  0  0  0  0  0
   -6.2937   23.4121  -24.7831 C   0  0  0  0  0  0  0  0  0  0  0  0
   -7.0455   23.6799  -25.8875 C   0  0  0  0  0  0  0  0  0  0  0  0
   -6.4583   23.7063  -27.1323 C   0  0  0  0  0  0  0  0  0  0  0  0
   -5.1205   23.4690  -27.3110 C   0  0  0  0  0  0  0  0  0  0  0  0
   -4.4041   23.5066  -28.8684 S   0  0  0  0  0  0  0  0  0  0  0  0
   -4.8781   22.3273  -29.6800 O   0  0  0  0  0  0  0  0  0  0  0  0
   -2.9011   23.4908  -28.8686 O   0  0  0  0  0  0  0  0  0  0  0  0
   -4.8712   24.9526  -29.8007 C   0  0  0  0  0  0  0  0  0  0  0  0
   -3.6975   25.8536  -30.0087 C   0  0  0  0  0  0  0  0  0  0  0  0
   -5.6636   24.6398  -31.0260 C   0  0  0  0  0  0  0  0  0  0  0  0
   -1.9748   21.5489  -19.8953 C   0  0  0  0  0  0  0  0  0  0  0  0
   -2.8787   20.9070  -19.0688 C   0  0  0  0  0  0  0  0  0  0  0  0
   -4.2371   20.9772  -19.2843 C   0  0  0  0  0  0  0  0  0  0  0  0
   -4.6436   21.7205  -20.3657 C   0  0  0  0  0  0  0  0  0  0  0  0
   -3.7567   22.3816  -21.2212 C   0  0  0  0  0  0  0  0  0  0  0  0
   -2.4042   22.3078  -21.0015 C   0  0  0  0  0  0  0  0  0  0  0  0
   -5.1601   20.3140  -18.4162 N   0  0  0  0  0  0  0  0  0  0  0  0
   -4.7072   19.9091  -17.1296 C   0  0  0  0  0  0  0  0  0  0  0  0
   -5.7773   19.5462  -16.1387 C   0  0  0  0  0  0  0  0  0  0  0  0
   -6.8874   18.7248  -16.7028 C   0  0  0  0  0  0  0  0  0  0  0  0
   -6.9215   18.7360  -18.2180 C   0  0  0  0  0  0  0  0  0  0  0  0
   -6.5216   20.0440  -18.8117 C   0  0  0  0  0  0  0  0  0  0  0  0
   -8.1862   18.9600  -16.2112 N   0  0  0  0  0  0  0  0  0  0  0  0
   -9.2910   18.4332  -16.8976 C   0  0  0  0  0  0  0  0  0  0  0  0
  -10.5703   19.1253  -16.4191 C   0  0  0  0  0  0  0  0  0  0  0  0
  -10.5174   19.2004  -14.9720 N   0  0  0  0  0  0  0  0  0  0  0  0
  -10.6833   17.9444  -14.3129 C   0  0  0  0  0  0  0  0  0  0  0  0
   -9.4522   20.0173  -14.4870 C   0  0  0  0  0  0  0  0  0  0  0  0
   -8.4382   20.2299  -15.6092 C   0  0  0  0  0  0  0  0  0  0  0  0
    0.0131   20.1926  -19.8147 C   0  0  0  0  0  0  0  0  0  0  0  0
   -0.6207   21.4362  -19.6204 O   0  0  0  0  0  0  0  0  0  0  0  0
 43 44  1  0  0  0
 44 24  1  0  0  0
 24 25  2  0  0  0
 25 26  1  0  0  0
 26 27  2  0  0  0
 27 28  1  0  0  0
 28 29  2  0  0  0
 29  1  1  0  0  0
  1  3  1  0  0  0
  3  4  2  0  0  0
  4  5  1  0  0  0
  5  6  2  0  0  0
  6  7  1  0  0  0
  6  8  1  0  0  0
  8 10  1  0  0  0
 10 12  1  0  0  0
 12 13  2  0  0  0
 13 14  1  0  0  0
 14 15  2  0  0  0
 15 16  1  0  0  0
 16 17  2  0  0  0
 17 18  1  0  0  0
 18 19  2  0  0  0
 18 20  2  0  0  0
 18 21  1  0  0  0
 21 22  1  0  0  0
 21 23  1  0  0  0
  8  9  2  0  0  0
 26 30  1  0  0  0
 30 31  1  0  0  0
 31 32  1  0  0  0
 32 33  1  0  0  0
 33 34  1  0  0  0
 34 35  1  0  0  0
 33 36  1  0  0  0
 36 37  1  0  0  0
 37 38  1  0  0  0
 38 39  1  0  0  0
 39 40  1  0  0  0
 39 41  1  0  0  0
 41 42  1  0  0  0
 29 24  1  0  0  0
  9  3  1  0  0  0
 35 30  1  0  0  0
 42 36  1  0  0  0
 17 12  1  0  0  0
  1  2  1  0  0  0
 10 11  1  0  0  0
M  END
> <minimizedAffinity>
-7.97202

> <CNNscore>
0.1814530939

> <CNNaffinity>
7.0072669983

> <CNN_VS>
1.2714903355

> <CNNaffinity_variance>
0.0735240057

$$$$
[H]c1nc(N([H])c2c([H])c([H])c(N3C([H])([H])C([H])([H])C([H])(N4C([H])([H])C([H])([H])N(C([H])([H])[H])C([H])([H])C4([H])[H])C([H])([H])C3([H])[H])c([H])c2OC([H])([H])[H])nc(N([H])c2c([H])c([H])c([H])c([H])c2S(=O)(=O)C([H])(C([H])([H])[H])C([H])([H])[H])c1Cl


 44 48  0  0  0  0  0  0  0  0999 V2000
   -0.9135   21.1929  -22.8861 N   0  0  0  0  0  0  0  0  0  0  0  0
   -0.2634   20.3854  -22.5755 H   0  0  0  0  0  0  0  0  0  0  0  0
   -0.7333   21.6657  -24.2130 C   0  0  0  0  0  0  0  0  0  0  0  0
    0.4103   21.6649  -24.9024 N   0  0  0  0  0  0  0  0  0  0  0  0
    0.5100   22.1263  -26.1552 C   0  0  0  0  0  0  0  0  0  0  0  0
   -0.6007   22.6315  -26.7895 C   0  0  0  0  0  0  0  0  0  0  0  0
   -0.4888   23.2425  -28.4372 Cl  0  0  0  0  0  0  0  0  0  0  0  0
   -1.8212   22.6437  -26.0832 C   0  0  0  0  0  0  0  0  0  0  0  0
   -1.8181   22.1615  -24.8388 N   0  0  0  0  0  0  0  0  0  0  0  0
   -2.9396   23.1625  -26.7537 N   0  0  0  0  0  0  0  0  0  0  0  0
   -3.1909   22.6473  -27.6606 H   0  0  0  0  0  0  0  0  0  0  0  0
   -3.7916   24.2356  -26.4522 C   0  0  0  0  0  0  0  0  0  0  0  0
   -3.9814   24.6188  -25.1414 C   0  0  0  0  0  0  0  0  0  0  0  0
   -4.8302   25.6869  -24.8238 C   0  0  0  0  0  0  0  0  0  0  0  0
   -5.4696   26.3462  -25.8305 C   0  0  0  0  0  0  0  0  0  0  0  0
   -5.2780   25.9614  -27.1382 C   0  0  0  0  0  0  0  0  0  0  0  0
   -4.4536   24.9206  -27.4772 C   0  0  0  0  0  0  0  0  0  0  0  0
   -4.2247   24.4544  -29.1113 S   0  0  0  0  0  0  0  0  0  0  0  0
   -4.2371   22.9506  -29.2227 O   0  0  0  0  0  0  0  0  0  0  0  0
   -2.9496   24.9512  -29.7333 O   0  0  0  0  0  0  0  0  0  0  0  0
   -5.5353   25.0275  -30.1754 C   0  0  0  0  0  0  0  0  0  0  0  0
   -5.2059   26.3663  -30.7514 C   0  0  0  0  0  0  0  0  0  0  0  0
   -5.9944   24.0028  -31.1583 C   0  0  0  0  0  0  0  0  0  0  0  0
   -1.4647   21.4724  -20.5644 C   0  0  0  0  0  0  0  0  0  0  0  0
   -2.3062   21.8778  -19.5448 C   0  0  0  0  0  0  0  0  0  0  0  0
   -3.5310   22.4537  -19.7994 C   0  0  0  0  0  0  0  0  0  0  0  0
   -3.8696   22.6030  -21.1223 C   0  0  0  0  0  0  0  0  0  0  0  0
   -3.0428   22.2039  -22.1772 C   0  0  0  0  0  0  0  0  0  0  0  0
   -1.8235   21.6305  -21.9173 C   0  0  0  0  0  0  0  0  0  0  0  0
   -4.3873   22.8749  -18.7341 N   0  0  0  0  0  0  0  0  0  0  0  0
   -5.6674   23.4014  -19.0632 C   0  0  0  0  0  0  0  0  0  0  0  0
   -6.6513   23.4967  -17.9312 C   0  0  0  0  0  0  0  0  0  0  0  0
   -6.0730   24.0010  -16.6520 C   0  0  0  0  0  0  0  0  0  0  0  0
   -4.5582   23.9579  -16.6294 C   0  0  0  0  0  0  0  0  0  0  0  0
   -3.9863   22.7848  -17.3506 C   0  0  0  0  0  0  0  0  0  0  0  0
   -6.5673   23.4521  -15.4528 N   0  0  0  0  0  0  0  0  0  0  0  0
   -7.5145   22.4180  -15.5047 C   0  0  0  0  0  0  0  0  0  0  0  0
   -8.1761   22.2585  -14.1330 C   0  0  0  0  0  0  0  0  0  0  0  0
   -7.1303   22.3055  -13.1297 N   0  0  0  0  0  0  0  0  0  0  0  0
   -6.2875   21.1529  -13.1063 C   0  0  0  0  0  0  0  0  0  0  0  0
   -6.4589   23.5637  -13.0718 C   0  0  0  0  0  0  0  0  0  0  0  0
   -6.7517   24.3429  -14.3523 C   0  0  0  0  0  0  0  0  0  0  0  0
    0.7137   21.6789  -19.5596 C   0  0  0  0  0  0  0  0  0  0  0  0
   -0.2454   20.8996  -20.2371 O   0  0  0  0  0  0  0  0  0  0  0  0
 43 44  1  0  0  0
 44 24  1  0  0  0
 24 25  2  0  0  0
 25 26  1  0  0  0
 26 27  2  0  0  0
 27 28  1  0  0  0
 28 29  2  0  0  0
 29  1  1  0  0  0
  1  3  1  0  0  0
  3  4  2  0  0  0
  4  5  1  0  0  0
  5  6  2  0  0  0
  6  7  1  0  0  0
  6  8  1  0  0  0
  8 10  1  0  0  0
 10 12  1  0  0  0
 12 13  2  0  0  0
 13 14  1  0  0  0
 14 15  2  0  0  0
 15 16  1  0  0  0
 16 17  2  0  0  0
 17 18  1  0  0  0
 18 19  2  0  0  0
 18 20  2  0  0  0
 18 21  1  0  0  0
 21 22  1  0  0  0
 21 23  1  0  0  0
  8  9  2  0  0  0
 26 30  1  0  0  0
 30 31  1  0  0  0
 31 32  1  0  0  0
 32 33  1  0  0  0
 33 34  1  0  0  0
 34 35  1  0  0  0
 33 36  1  0  0  0
 36 37  1  0  0  0
 37 38  1  0  0  0
 38 39  1  0  0  0
 39 40  1  0  0  0
 39 41  1  0  0  0
 41 42  1  0  0  0
 29 24  1  0  0  0
  9  3  1  0  0  0
 35 30  1  0  0  0
 42 36  1  0  0  0
 17 12  1  0  0  0
  1  2  1  0  0  0
 10 11  1  0  0  0
M  END
> <minimizedAffinity>
-8.59024

> <CNNscore>
0.1760630310

> <CNNaffinity>
7.0464067459

> <CNN_VS>
1.2406116724

> <CNNaffinity_variance>
0.3664059043

$$$$
[H]c1nc(N([H])c2c([H])c([H])c(N3C([H])([H])C([H])([H])C([H])(N4C([H])([H])C([H])([H])N(C([H])([H])[H])C([H])([H])C4([H])[H])C([H])([H])C3([H])[H])c([H])c2OC([H])([H])[H])nc(N([H])c2c([H])c([H])c([H])c([H])c2S(=O)(=O)C([H])(C([H])([H])[H])C([H])([H])[H])c1Cl


 44 48  0  0  0  0  0  0  0  0999 V2000
   -6.0043   23.7274  -20.4661 N   0  0  0  0  0  0  0  0  0  0  0  0
   -5.0170   24.1303  -20.2816 H   0  0  0  0  0  0  0  0  0  0  0  0
   -6.5833   24.0422  -21.7240 C   0  0  0  0  0  0  0  0  0  0  0  0
   -7.5807   24.9033  -21.9401 N   0  0  0  0  0  0  0  0  0  0  0  0
   -8.0797   25.1549  -23.1567 C   0  0  0  0  0  0  0  0  0  0  0  0
   -7.5614   24.5116  -24.2561 C   0  0  0  0  0  0  0  0  0  0  0  0
   -8.2048   24.8300  -25.8640 Cl  0  0  0  0  0  0  0  0  0  0  0  0
   -6.5071   23.5969  -24.0550 C   0  0  0  0  0  0  0  0  0  0  0  0
   -6.0793   23.4149  -22.8041 N   0  0  0  0  0  0  0  0  0  0  0  0
   -5.9949   22.9556  -25.1933 N   0  0  0  0  0  0  0  0  0  0  0  0
   -6.7419   22.6164  -25.8846 H   0  0  0  0  0  0  0  0  0  0  0  0
   -4.6792   22.6770  -25.5929 C   0  0  0  0  0  0  0  0  0  0  0  0
   -3.8510   21.9390  -24.7740 C   0  0  0  0  0  0  0  0  0  0  0  0
   -2.5343   21.6539  -25.1578 C   0  0  0  0  0  0  0  0  0  0  0  0
   -2.0790   22.1167  -26.3558 C   0  0  0  0  0  0  0  0  0  0  0  0
   -2.9083   22.8530  -27.1714 C   0  0  0  0  0  0  0  0  0  0  0  0
   -4.2003   23.1464  -26.8210 C   0  0  0  0  0  0  0  0  0  0  0  0
   -5.2209   24.0640  -27.8488 S   0  0  0  0  0  0  0  0  0  0  0  0
   -5.3831   25.4588  -27.2989 O   0  0  0  0  0  0  0  0  0  0  0  0
   -6.5940   23.4859  -28.0488 O   0  0  0  0  0  0  0  0  0  0  0  0
   -4.5403   24.2665  -29.4841 C   0  0  0  0  0  0  0  0  0  0  0  0
   -5.5579   23.9395  -30.5282 C   0  0  0  0  0  0  0  0  0  0  0  0
   -3.8217   25.5606  -29.6730 C   0  0  0  0  0  0  0  0  0  0  0  0
   -5.6564   22.1356  -18.7006 C   0  0  0  0  0  0  0  0  0  0  0  0
   -6.1027   21.3467  -17.6562 C   0  0  0  0  0  0  0  0  0  0  0  0
   -7.4252   21.3290  -17.2727 C   0  0  0  0  0  0  0  0  0  0  0  0
   -8.2758   22.1387  -17.9853 C   0  0  0  0  0  0  0  0  0  0  0  0
   -7.8579   22.9481  -19.0463 C   0  0  0  0  0  0  0  0  0  0  0  0
   -6.5387   22.9615  -19.4240 C   0  0  0  0  0  0  0  0  0  0  0  0
   -7.8704   20.5134  -16.1855 N   0  0  0  0  0  0  0  0  0  0  0  0
   -8.1495   21.1407  -14.9394 C   0  0  0  0  0  0  0  0  0  0  0  0
   -8.9365   20.3247  -13.9528 C   0  0  0  0  0  0  0  0  0  0  0  0
   -8.5157   18.8967  -13.8585 C   0  0  0  0  0  0  0  0  0  0  0  0
   -7.6523   18.4557  -15.0235 C   0  0  0  0  0  0  0  0  0  0  0  0
   -8.0358   19.0859  -16.3193 C   0  0  0  0  0  0  0  0  0  0  0  0
   -9.5209   17.9347  -13.6402 N   0  0  0  0  0  0  0  0  0  0  0  0
  -10.8559   18.2506  -13.9356 C   0  0  0  0  0  0  0  0  0  0  0  0
  -11.7842   17.2308  -13.2699 C   0  0  0  0  0  0  0  0  0  0  0  0
  -11.2282   15.9114  -13.4993 N   0  0  0  0  0  0  0  0  0  0  0  0
  -11.3307   15.4583  -14.8496 C   0  0  0  0  0  0  0  0  0  0  0  0
   -9.9588   15.7170  -12.8764 C   0  0  0  0  0  0  0  0  0  0  0  0
   -9.3723   17.0781  -12.5076 C   0  0  0  0  0  0  0  0  0  0  0  0
   -3.6000   20.8971  -18.8882 C   0  0  0  0  0  0  0  0  0  0  0  0
   -4.3111   22.1051  -19.0339 O   0  0  0  0  0  0  0  0  0  0  0  0
 43 44  1  0  0  0
 44 24  1  0  0  0
 24 25  2  0  0  0
 25 26  1  0  0  0
 26 27  2  0  0  0
 27 28  1  0  0  0
 28 29  2  0  0  0
 29  1  1  0  0  0
  1  3  1  0  0  0
  3  4  2  0  0  0
  4  5  1  0  0  0
  5  6  2  0  0  0
  6  7  1  0  0  0
  6  8  1  0  0  0
  8 10  1  0  0  0
 10 12  1  0  0  0
 12 13  2  0  0  0
 13 14  1  0  0  0
 14 15  2  0  0  0
 15 16  1  0  0  0
 16 17  2  0  0  0
 17 18  1  0  0  0
 18 19  2  0  0  0
 18 20  2  0  0  0
 18 21  1  0  0  0
 21 22  1  0  0  0
 21 23  1  0  0  0
  8  9  2  0  0  0
 26 30  1  0  0  0
 30 31  1  0  0  0
 31 32  1  0  0  0
 32 33  1  0  0  0
 33 34  1  0  0  0
 34 35  1  0  0  0
 33 36  1  0  0  0
 36 37  1  0  0  0
 37 38  1  0  0  0
 38 39  1  0  0  0
 39 40  1  0  0  0
 39 41  1  0  0  0
 41 42  1  0  0  0
 29 24  1  0  0  0
  9  3  1  0  0  0
 35 30  1  0  0  0
 42 36  1  0  0  0
 17 12  1  0  0  0
  1  2  1  0  0  0
 10 11  1  0  0  0
M  END
> <minimizedAffinity>
-7.55553

> <CNNscore>
0.1526064873

> <CNNaffinity>
6.4123907089

> <CNN_VS>
0.9785724282

> <CNNaffinity_variance>
0.2005413026

$$$$
[H]c1nc(N([H])c2c([H])c([H])c(N3C([H])([H])C([H])([H])C([H])(N4C([H])([H])C([H])([H])N(C([H])([H])[H])C([H])([H])C4([H])[H])C([H])([H])C3([H])[H])c([H])c2OC([H])([H])[H])nc(N([H])c2c([H])c([H])c([H])c([H])c2S(=O)(=O)C([H])(C([H])([H])[H])C([H])([H])[H])c1Cl


 44 48  0  0  0  0  0  0  0  0999 V2000
   -1.5002   23.1320  -21.6372 N   0  0  0  0  0  0  0  0  0  0  0  0
   -1.1002   24.0431  -21.2118 H   0  0  0  0  0  0  0  0  0  0  0  0
   -1.1154   22.8440  -22.9735 C   0  0  0  0  0  0  0  0  0  0  0  0
    0.1299   22.6367  -23.4087 N   0  0  0  0  0  0  0  0  0  0  0  0
    0.4232   22.3673  -24.6870 C   0  0  0  0  0  0  0  0  0  0  0  0
   -0.5844   22.2940  -25.6201 C   0  0  0  0  0  0  0  0  0  0  0  0
   -0.2177   21.9406  -27.3057 Cl  0  0  0  0  0  0  0  0  0  0  0  0
   -1.9088   22.5091  -25.1862 C   0  0  0  0  0  0  0  0  0  0  0  0
   -2.0984   22.7711  -23.8914 N   0  0  0  0  0  0  0  0  0  0  0  0
   -2.9182   22.4267  -26.1576 N   0  0  0  0  0  0  0  0  0  0  0  0
   -3.4100   21.4745  -26.2061 H   0  0  0  0  0  0  0  0  0  0  0  0
   -3.4028   23.3667  -27.0797 C   0  0  0  0  0  0  0  0  0  0  0  0
   -2.9136   23.3843  -28.3687 C   0  0  0  0  0  0  0  0  0  0  0  0
   -3.3858   24.3175  -29.3006 C   0  0  0  0  0  0  0  0  0  0  0  0
   -4.3389   25.2124  -28.9165 C   0  0  0  0  0  0  0  0  0  0  0  0
   -4.8254   25.1922  -27.6289 C   0  0  0  0  0  0  0  0  0  0  0  0
   -4.3816   24.2905  -26.6973 C   0  0  0  0  0  0  0  0  0  0  0  0
   -4.9989   24.2778  -25.0976 S   0  0  0  0  0  0  0  0  0  0  0  0
   -4.0447   24.9919  -24.1736 O   0  0  0  0  0  0  0  0  0  0  0  0
   -5.2485   22.9078  -24.5318 O   0  0  0  0  0  0  0  0  0  0  0  0
   -6.5487   25.1475  -24.9562 C   0  0  0  0  0  0  0  0  0  0  0  0
   -6.3285   26.6250  -24.9220 C   0  0  0  0  0  0  0  0  0  0  0  0
   -7.5851   24.6765  -25.9210 C   0  0  0  0  0  0  0  0  0  0  0  0
   -3.6724   22.8074  -20.6635 C   0  0  0  0  0  0  0  0  0  0  0  0
   -4.5603   22.1336  -19.8451 C   0  0  0  0  0  0  0  0  0  0  0  0
   -4.1806   21.0299  -19.1142 C   0  0  0  0  0  0  0  0  0  0  0  0
   -2.8710   20.6359  -19.2439 C   0  0  0  0  0  0  0  0  0  0  0  0
   -1.9476   21.2943  -20.0619 C   0  0  0  0  0  0  0  0  0  0  0  0
   -2.3318   22.3937  -20.7877 C   0  0  0  0  0  0  0  0  0  0  0  0
   -5.1124   20.3390  -18.2777 N   0  0  0  0  0  0  0  0  0  0  0  0
   -4.6917   19.9471  -16.9763 C   0  0  0  0  0  0  0  0  0  0  0  0
   -5.7836   19.5519  -16.0222 C   0  0  0  0  0  0  0  0  0  0  0  0
   -6.8488   18.6980  -16.6232 C   0  0  0  0  0  0  0  0  0  0  0  0
   -6.8316   18.7089  -18.1387 C   0  0  0  0  0  0  0  0  0  0  0  0
   -6.4510   20.0285  -18.7192 C   0  0  0  0  0  0  0  0  0  0  0  0
   -8.1699   18.8940  -16.1763 N   0  0  0  0  0  0  0  0  0  0  0  0
   -9.2369   18.3695  -16.9219 C   0  0  0  0  0  0  0  0  0  0  0  0
  -10.5470   19.0229  -16.4729 C   0  0  0  0  0  0  0  0  0  0  0  0
  -10.5519   19.0528  -15.0232 N   0  0  0  0  0  0  0  0  0  0  0  0
  -10.7191   17.7738  -14.4106 C   0  0  0  0  0  0  0  0  0  0  0  0
   -9.5222   19.8729  -14.4714 C   0  0  0  0  0  0  0  0  0  0  0  0
   -8.4696   20.1393  -15.5455 C   0  0  0  0  0  0  0  0  0  0  0  0
   -5.4681   24.3052  -21.2377 C   0  0  0  0  0  0  0  0  0  0  0  0
   -4.1216   23.9114  -21.3715 O   0  0  0  0  0  0  0  0  0  0  0  0
 43 44  1  0  0  0
 44 24  1  0  0  0
 24 25  2  0  0  0
 25 26  1  0  0  0
 26 27  2  0  0  0
 27 28  1  0  0  0
 28 29  2  0  0  0
 29  1  1  0  0  0
  1  3  1  0  0  0
  3  4  2  0  0  0
  4  5  1  0  0  0
  5  6  2  0  0  0
  6  7  1  0  0  0
  6  8  1  0  0  0
  8 10  1  0  0  0
 10 12  1  0  0  0
 12 13  2  0  0  0
 13 14  1  0  0  0
 14 15  2  0  0  0
 15 16  1  0  0  0
 16 17  2  0  0  0
 17 18  1  0  0  0
 18 19  2  0  0  0
 18 20  2  0  0  0
 18 21  1  0  0  0
 21 22  1  0  0  0
 21 23  1  0  0  0
  8  9  2  0  0  0
 26 30  1  0  0  0
 30 31  1  0  0  0
 31 32  1  0  0  0
 32 33  1  0  0  0
 33 34  1  0  0  0
 34 35  1  0  0  0
 33 36  1  0  0  0
 36 37  1  0  0  0
 37 38  1  0  0  0
 38 39  1  0  0  0
 39 40  1  0  0  0
 39 41  1  0  0  0
 41 42  1  0  0  0
 29 24  1  0  0  0
  9  3  1  0  0  0
 35 30  1  0  0  0
 42 36  1  0  0  0
 17 12  1  0  0  0
  1  2  1  0  0  0
 10 11  1  0  0  0
M  END
> <minimizedAffinity>
-7.53518

> <CNNscore>
0.1444964260

> <CNNaffinity>
6.6890311241

> <CNN_VS>
0.9665411115

> <CNNaffinity_variance>
0.1800174713

$$$$
[H]c1nc(N([H])c2c([H])c([H])c(N3C([H])([H])C([H])([H])C([H])(N4C([H])([H])C([H])([H])N(C([H])([H])[H])C([H])([H])C4([H])[H])C([H])([H])C3([H])[H])c([H])c2OC([H])([H])[H])nc(N([H])c2c([H])c([H])c([H])c([H])c2S(=O)(=O)C([H])(C([H])([H])[H])C([H])([H])[H])c1Cl


 44 48  0  0  0  0  0  0  0  0999 V2000
   -1.3640   22.8669  -22.6299 N   0  0  0  0  0  0  0  0  0  0  0  0
   -0.5799   23.1416  -21.9364 H   0  0  0  0  0  0  0  0  0  0  0  0
   -1.0005   22.8298  -24.0022 C   0  0  0  0  0  0  0  0  0  0  0  0
    0.2417   22.7652  -24.4879 N   0  0  0  0  0  0  0  0  0  0  0  0
    0.5144   22.7318  -25.7982 C   0  0  0  0  0  0  0  0  0  0  0  0
   -0.5123   22.7641  -26.7126 C   0  0  0  0  0  0  0  0  0  0  0  0
   -0.1728   22.7207  -28.4399 Cl  0  0  0  0  0  0  0  0  0  0  0  0
   -1.8340   22.8323  -26.2255 C   0  0  0  0  0  0  0  0  0  0  0  0
   -2.0023   22.8612  -24.9019 N   0  0  0  0  0  0  0  0  0  0  0  0
   -2.8631   22.8621  -27.1791 N   0  0  0  0  0  0  0  0  0  0  0  0
   -3.3684   21.9256  -27.3152 H   0  0  0  0  0  0  0  0  0  0  0  0
   -3.3530   23.8977  -27.9891 C   0  0  0  0  0  0  0  0  0  0  0  0
   -2.8357   24.0888  -29.2528 C   0  0  0  0  0  0  0  0  0  0  0  0
   -3.3128   25.1193  -30.0730 C   0  0  0  0  0  0  0  0  0  0  0  0
   -4.2990   25.9349  -29.6051 C   0  0  0  0  0  0  0  0  0  0  0  0
   -4.8136   25.7415  -28.3431 C   0  0  0  0  0  0  0  0  0  0  0  0
   -4.3657   24.7416  -27.5199 C   0  0  0  0  0  0  0  0  0  0  0  0
   -5.0181   24.5133  -25.9507 S   0  0  0  0  0  0  0  0  0  0  0  0
   -4.0555   25.0350  -24.9138 O   0  0  0  0  0  0  0  0  0  0  0  0
   -5.3373   23.0857  -25.6051 O   0  0  0  0  0  0  0  0  0  0  0  0
   -6.5329   25.4198  -25.7019 C   0  0  0  0  0  0  0  0  0  0  0  0
   -7.7199   24.5259  -25.8591 C   0  0  0  0  0  0  0  0  0  0  0  0
   -6.5254   26.2640  -24.4713 C   0  0  0  0  0  0  0  0  0  0  0  0
   -2.6337   21.7114  -20.9493 C   0  0  0  0  0  0  0  0  0  0  0  0
   -3.8194   21.3887  -20.3150 C   0  0  0  0  0  0  0  0  0  0  0  0
   -5.0266   21.9120  -20.7214 C   0  0  0  0  0  0  0  0  0  0  0  0
   -4.9870   22.7722  -21.7917 C   0  0  0  0  0  0  0  0  0  0  0  0
   -3.8063   23.1194  -22.4557 C   0  0  0  0  0  0  0  0  0  0  0  0
   -2.6063   22.5946  -22.0462 C   0  0  0  0  0  0  0  0  0  0  0  0
   -6.2438   21.5746  -20.0505 N   0  0  0  0  0  0  0  0  0  0  0  0
   -6.2218   20.5143  -19.1021 C   0  0  0  0  0  0  0  0  0  0  0  0
   -7.4069   20.4292  -18.1817 C   0  0  0  0  0  0  0  0  0  0  0  0
   -8.7229   20.6506  -18.8484 C   0  0  0  0  0  0  0  0  0  0  0  0
   -8.5932   21.2847  -20.2188 C   0  0  0  0  0  0  0  0  0  0  0  0
   -7.4798   22.2719  -20.3138 C   0  0  0  0  0  0  0  0  0  0  0  0
   -9.7164   21.3312  -18.1181 N   0  0  0  0  0  0  0  0  0  0  0  0
  -10.7247   22.0257  -18.8040 C   0  0  0  0  0  0  0  0  0  0  0  0
  -11.4356   22.9814  -17.8417 C   0  0  0  0  0  0  0  0  0  0  0  0
  -11.6881   22.2605  -16.6091 N   0  0  0  0  0  0  0  0  0  0  0  0
  -12.6982   21.2564  -16.7131 C   0  0  0  0  0  0  0  0  0  0  0  0
  -10.4959   21.8702  -15.9283 C   0  0  0  0  0  0  0  0  0  0  0  0
   -9.3189   21.9566  -16.8977 C   0  0  0  0  0  0  0  0  0  0  0  0
   -1.3710   20.7492  -19.1390 C   0  0  0  0  0  0  0  0  0  0  0  0
   -1.4540   21.1482  -20.4881 O   0  0  0  0  0  0  0  0  0  0  0  0
 43 44  1  0  0  0
 44 24  1  0  0  0
 24 25  2  0  0  0
 25 26  1  0  0  0
 26 27  2  0  0  0
 27 28  1  0  0  0
 28 29  2  0  0  0
 29  1  1  0  0  0
  1  3  1  0  0  0
  3  4  2  0  0  0
  4  5  1  0  0  0
  5  6  2  0  0  0
  6  7  1  0  0  0
  6  8  1  0  0  0
  8 10  1  0  0  0
 10 12  1  0  0  0
 12 13  2  0  0  0
 13 14  1  0  0  0
 14 15  2  0  0  0
 15 16  1  0  0  0
 16 17  2  0  0  0
 17 18  1  0  0  0
 18 19  2  0  0  0
 18 20  2  0  0  0
 18 21  1  0  0  0
 21 22  1  0  0  0
 21 23  1  0  0  0
  8  9  2  0  0  0
 26 30  1  0  0  0
 30 31  1  0  0  0
 31 32  1  0  0  0
 32 33  1  0  0  0
 33 34  1  0  0  0
 34 35  1  0  0  0
 33 36  1  0  0  0
 36 37  1  0  0  0
 37 38  1  0  0  0
 38 39  1  0  0  0
 39 40  1  0  0  0
 39 41  1  0  0  0
 41 42  1  0  0  0
 29 24  1  0  0  0
  9  3  1  0  0  0
 35 30  1  0  0  0
 42 36  1  0  0  0
 17 12  1  0  0  0
  1  2  1  0  0  0
 10 11  1  0  0  0
M  END
> <minimizedAffinity>
-7.77730

> <CNNscore>
0.1204794720

> <CNNaffinity>
6.9607696533

> <CNN_VS>
0.8386298418

> <CNNaffinity_variance>
0.1995489597

$$$$
[H]c1nc(N([H])c2c([H])c([H])c(N3C([H])([H])C([H])([H])C([H])(N4C([H])([H])C([H])([H])N(C([H])([H])[H])C([H])([H])C4([H])[H])C([H])([H])C3([H])[H])c([H])c2OC([H])([H])[H])nc(N([H])c2c([H])c([H])c([H])c([H])c2S(=O)(=O)C([H])(C([H])([H])[H])C([H])([H])[H])c1Cl


 44 48  0  0  0  0  0  0  0  0999 V2000
   -5.4352   23.8417  -20.6804 N   0  0  0  0  0  0  0  0  0  0  0  0
   -4.5135   24.3912  -20.5404 H   0  0  0  0  0  0  0  0  0  0  0  0
   -6.1412   24.1011  -21.8849 C   0  0  0  0  0  0  0  0  0  0  0  0
   -7.2047   24.8972  -22.0203 N   0  0  0  0  0  0  0  0  0  0  0  0
   -7.8237   25.0990  -23.1902 C   0  0  0  0  0  0  0  0  0  0  0  0
   -7.3661   24.4707  -24.3246 C   0  0  0  0  0  0  0  0  0  0  0  0
   -8.1673   24.7242  -25.8720 Cl  0  0  0  0  0  0  0  0  0  0  0  0
   -6.2441   23.6243  -24.2087 C   0  0  0  0  0  0  0  0  0  0  0  0
   -5.6971   23.4881  -22.9990 N   0  0  0  0  0  0  0  0  0  0  0  0
   -5.7961   22.9968  -25.3813 N   0  0  0  0  0  0  0  0  0  0  0  0
   -6.5805   22.6617  -26.0320 H   0  0  0  0  0  0  0  0  0  0  0  0
   -4.5047   22.7277  -25.8590 C   0  0  0  0  0  0  0  0  0  0  0  0
   -3.6306   21.9784  -25.1002 C   0  0  0  0  0  0  0  0  0  0  0  0
   -2.3372   21.7026  -25.5623 C   0  0  0  0  0  0  0  0  0  0  0  0
   -1.9509   22.1859  -26.7764 C   0  0  0  0  0  0  0  0  0  0  0  0
   -2.8259   22.9335  -27.5316 C   0  0  0  0  0  0  0  0  0  0  0  0
   -4.0964   23.2183  -27.1042 C   0  0  0  0  0  0  0  0  0  0  0  0
   -5.1747   24.1501  -28.0577 S   0  0  0  0  0  0  0  0  0  0  0  0
   -5.3512   25.5169  -27.4453 O   0  0  0  0  0  0  0  0  0  0  0  0
   -6.5395   23.5455  -28.2343 O   0  0  0  0  0  0  0  0  0  0  0  0
   -4.5572   24.4361  -29.7055 C   0  0  0  0  0  0  0  0  0  0  0  0
   -5.6342   24.2296  -30.7205 C   0  0  0  0  0  0  0  0  0  0  0  0
   -3.7859   25.7066  -29.8394 C   0  0  0  0  0  0  0  0  0  0  0  0
   -4.7543   22.6134  -18.7312 C   0  0  0  0  0  0  0  0  0  0  0  0
   -5.0005   21.7537  -17.6764 C   0  0  0  0  0  0  0  0  0  0  0  0
   -6.2443   21.2021  -17.4638 C   0  0  0  0  0  0  0  0  0  0  0  0
   -7.2263   21.5537  -18.3577 C   0  0  0  0  0  0  0  0  0  0  0  0
   -7.0113   22.4195  -19.4346 C   0  0  0  0  0  0  0  0  0  0  0  0
   -5.7697   22.9660  -19.6414 C   0  0  0  0  0  0  0  0  0  0  0  0
   -6.4854   20.3203  -16.3639 N   0  0  0  0  0  0  0  0  0  0  0  0
   -5.6242   19.2006  -16.1933 C   0  0  0  0  0  0  0  0  0  0  0  0
   -5.6890   18.5176  -14.8561 C   0  0  0  0  0  0  0  0  0  0  0  0
   -7.0700   18.3370  -14.3219 C   0  0  0  0  0  0  0  0  0  0  0  0
   -8.0962   19.1987  -15.0300 C   0  0  0  0  0  0  0  0  0  0  0  0
   -7.5716   20.5335  -15.4377 C   0  0  0  0  0  0  0  0  0  0  0  0
   -7.2505   18.4558  -12.9301 N   0  0  0  0  0  0  0  0  0  0  0  0
   -6.2713   19.1003  -12.1586 C   0  0  0  0  0  0  0  0  0  0  0  0
   -6.4853   18.7713  -10.6785 C   0  0  0  0  0  0  0  0  0  0  0  0
   -7.9026   18.8959  -10.3984 N   0  0  0  0  0  0  0  0  0  0  0  0
   -8.3850   20.2399  -10.4003 C   0  0  0  0  0  0  0  0  0  0  0  0
   -8.7038   17.9503  -11.1064 C   0  0  0  0  0  0  0  0  0  0  0  0
   -7.8856   17.3684  -12.2573 C   0  0  0  0  0  0  0  0  0  0  0  0
   -2.3721   22.3500  -18.4999 C   0  0  0  0  0  0  0  0  0  0  0  0
   -3.4784   23.1327  -18.8865 O   0  0  0  0  0  0  0  0  0  0  0  0
 43 44  1  0  0  0
 44 24  1  0  0  0
 24 25  2  0  0  0
 25 26  1  0  0  0
 26 27  2  0  0  0
 27 28  1  0  0  0
 28 29  2  0  0  0
 29  1  1  0  0  0
  1  3  1  0  0  0
  3  4  2  0  0  0
  4  5  1  0  0  0
  5  6  2  0  0  0
  6  7  1  0  0  0
  6  8  1  0  0  0
  8 10  1  0  0  0
 10 12  1  0  0  0
 12 13  2  0  0  0
 13 14  1  0  0  0
 14 15  2  0  0  0
 15 16  1  0  0  0
 16 17  2  0  0  0
 17 18  1  0  0  0
 18 19  2  0  0  0
 18 20  2  0  0  0
 18 21  1  0  0  0
 21 22  1  0  0  0
 21 23  1  0  0  0
  8  9  2  0  0  0
 26 30  1  0  0  0
 30 31  1  0  0  0
 31 32  1  0  0  0
 32 33  1  0  0  0
 33 34  1  0  0  0
 34 35  1  0  0  0
 33 36  1  0  0  0
 36 37  1  0  0  0
 37 38  1  0  0  0
 38 39  1  0  0  0
 39 40  1  0  0  0
 39 41  1  0  0  0
 41 42  1  0  0  0
 29 24  1  0  0  0
  9  3  1  0  0  0
 35 30  1  0  0  0
 42 36  1  0  0  0
 17 12  1  0  0  0
  1  2  1  0  0  0
 10 11  1  0  0  0
M  END
> <minimizedAffinity>
-7.56819

> <CNNscore>
0.1176225692

> <CNNaffinity>
6.3256225586

> <CNN_VS>
0.7440359592

> <CNNaffinity_variance>
0.2573780417

$$$$
[H]Oc1c([H])c([H])c(C([H])([H])[C@@]2([H])C(=O)N([H])[C@@]([H])([C@@]([H])(C([H])([H])[H])C([H])([H])C([H])([H])[H])C(=O)N([H])[C@@]([H])(C([H])([H])c3c([H])c([H])c([H])c([H])c3[H])C(=O)N3C([H])([H])C([H])([H])C([H])([H])[C@@]3([H])C(=O)N([H])[C@@]([H])(C([H])([H])c3c([H])nc([H])n3[H])C(=O)N([H])[C@@]([H])(C([H])([H])c3c([H])nc([H])n3[H])C(=O)N2[H])c([H])c1[H]


 66 71  0  0  0  0  0  0  0  0999 V2000
   -1.8512   19.6533  -17.1697 C   0  0  0  0  0  0  0  0  0  0  0  0
   -2.2852   19.0026  -15.9120 N   0  0  0  0  0  0  0  0  0  0  0  0
   -1.9998   19.4376  -14.6231 C   0  0  0  0  0  0  0  0  0  0  0  0
   -1.9503   18.5413  -13.7061 O   0  0  0  0  0  0  0  0  0  0  0  0
   -1.7442   20.8606  -14.2122 C   0  0  0  0  0  0  0  0  0  0  0  0
   -2.8440   21.7376  -14.3779 N   0  0  0  0  0  0  0  0  0  0  0  0
   -4.0738   21.9132  -13.7627 C   0  0  0  0  0  0  0  0  0  0  0  0
   -4.3942   23.1675  -13.5549 O   0  0  0  0  0  0  0  0  0  0  0  0
   -5.1220   21.0159  -13.2806 C   0  0  0  0  0  0  0  0  0  0  0  0
   -5.2569   19.7376  -13.8832 N   0  0  0  0  0  0  0  0  0  0  0  0
   -5.9256   19.3807  -15.0703 C   0  0  0  0  0  0  0  0  0  0  0  0
   -5.7338   18.2195  -15.5853 O   0  0  0  0  0  0  0  0  0  0  0  0
   -6.8811   20.2384  -15.8381 C   0  0  0  0  0  0  0  0  0  0  0  0
   -6.7012   19.9261  -17.2448 N   0  0  0  0  0  0  0  0  0  0  0  0
   -6.7387   20.8605  -18.2999 C   0  0  0  0  0  0  0  0  0  0  0  0
   -6.9969   20.4022  -19.4455 O   0  0  0  0  0  0  0  0  0  0  0  0
   -6.5099   22.2528  -18.1479 C   0  0  0  0  0  0  0  0  0  0  0  0
   -7.2518   23.0837  -19.2443 C   0  0  0  0  0  0  0  0  0  0  0  0
   -6.8385   24.4671  -18.7721 C   0  0  0  0  0  0  0  0  0  0  0  0
   -5.6705   24.2677  -17.8455 C   0  0  0  0  0  0  0  0  0  0  0  0
   -5.2347   22.8776  -18.2391 N   0  0  0  0  0  0  0  0  0  0  0  0
   -3.9503   22.4661  -18.5511 C   0  0  0  0  0  0  0  0  0  0  0  0
   -3.0332   23.1602  -17.9064 O   0  0  0  0  0  0  0  0  0  0  0  0
   -3.3704   21.4510  -19.4224 C   0  0  0  0  0  0  0  0  0  0  0  0
   -3.5251   20.0740  -19.1075 N   0  0  0  0  0  0  0  0  0  0  0  0
   -2.8356   19.2711  -18.1973 C   0  0  0  0  0  0  0  0  0  0  0  0
   -3.0683   18.0015  -18.2289 O   0  0  0  0  0  0  0  0  0  0  0  0
   -2.8689   18.1158  -15.9960 H   0  0  0  0  0  0  0  0  0  0  0  0
   -2.6688   22.4517  -15.1915 H   0  0  0  0  0  0  0  0  0  0  0  0
   -4.7968   18.9270  -13.3740 H   0  0  0  0  0  0  0  0  0  0  0  0
   -6.5330   18.8846  -17.4210 H   0  0  0  0  0  0  0  0  0  0  0  0
   -4.2822   19.5752  -19.6758 H   0  0  0  0  0  0  0  0  0  0  0  0
   -0.4812   19.1364  -17.5089 C   0  0  0  0  0  0  0  0  0  0  0  0
   -0.3631   18.6135  -18.9345 C   0  0  0  0  0  0  0  0  0  0  0  0
    0.5302   21.4415  -17.2032 C   0  0  0  0  0  0  0  0  0  0  0  0
    0.6738   19.9675  -17.1047 C   0  0  0  0  0  0  0  0  0  0  0  0
   -1.0316   20.8561  -12.8983 C   0  0  0  0  0  0  0  0  0  0  0  0
   -0.0631   21.9388  -12.6897 C   0  0  0  0  0  0  0  0  0  0  0  0
    0.0474   22.5873  -11.5013 C   0  0  0  0  0  0  0  0  0  0  0  0
    0.9431   23.6193  -11.2748 C   0  0  0  0  0  0  0  0  0  0  0  0
    1.7612   24.0006  -12.3164 C   0  0  0  0  0  0  0  0  0  0  0  0
    2.6619   25.0252  -12.1183 O   0  0  0  0  0  0  0  0  0  0  0  0
    1.6894   23.3694  -13.5539 C   0  0  0  0  0  0  0  0  0  0  0  0
    0.7772   22.3486  -13.7186 C   0  0  0  0  0  0  0  0  0  0  0  0
    2.7410   25.5059  -11.2347 H   0  0  0  0  0  0  0  0  0  0  0  0
   -5.0909   20.8453  -11.7652 C   0  0  0  0  0  0  0  0  0  0  0  0
   -5.1629   19.4017  -11.3798 C   0  0  0  0  0  0  0  0  0  0  0  0
   -4.0925   18.5755  -11.0804 C   0  0  0  0  0  0  0  0  0  0  0  0
   -4.5594   17.3582  -10.7905 N   0  0  0  0  0  0  0  0  0  0  0  0
   -5.8929   17.3597  -10.8898 C   0  0  0  0  0  0  0  0  0  0  0  0
   -6.2411   18.6176  -11.2506 N   0  0  0  0  0  0  0  0  0  0  0  0
   -7.2398   18.8830  -11.3983 H   0  0  0  0  0  0  0  0  0  0  0  0
   -8.3188   19.9086  -15.4303 C   0  0  0  0  0  0  0  0  0  0  0  0
   -8.6647   20.4639  -14.1031 C   0  0  0  0  0  0  0  0  0  0  0  0
   -9.1389   19.7871  -13.0064 C   0  0  0  0  0  0  0  0  0  0  0  0
   -9.3163   20.6888  -12.0086 N   0  0  0  0  0  0  0  0  0  0  0  0
   -8.9732   21.8976  -12.4376 C   0  0  0  0  0  0  0  0  0  0  0  0
   -8.5756   21.7712  -13.7097 N   0  0  0  0  0  0  0  0  0  0  0  0
   -8.2393   22.5268  -14.3451 H   0  0  0  0  0  0  0  0  0  0  0  0
   -3.6502   21.6705  -20.9201 C   0  0  0  0  0  0  0  0  0  0  0  0
   -2.4281   21.6222  -21.7226 C   0  0  0  0  0  0  0  0  0  0  0  0
   -2.4270   21.6861  -23.0919 C   0  0  0  0  0  0  0  0  0  0  0  0
   -1.2129   21.6449  -23.7865 C   0  0  0  0  0  0  0  0  0  0  0  0
   -0.0164   21.5400  -23.1044 C   0  0  0  0  0  0  0  0  0  0  0  0
   -0.0079   21.4758  -21.7456 C   0  0  0  0  0  0  0  0  0  0  0  0
   -1.2170   21.5179  -21.0791 C   0  0  0  0  0  0  0  0  0  0  0  0
 35 36  1  0  0  0
 36 33  1  0  0  0
 33 34  1  0  0  0
 33  1  1  0  0  0
  1  2  1  0  0  0
  2  3  1  0  0  0
  3  4  2  0  0  0
  3  5  1  0  0  0
  5 37  1  0  0  0
 37 38  1  0  0  0
 38 39  2  0  0  0
 39 40  1  0  0  0
 40 41  2  0  0  0
 41 42  1  0  0  0
 41 43  1  0  0  0
 43 44  2  0  0  0
  5  6  1  0  0  0
  6  7  1  0  0  0
  7  8  2  0  0  0
  7  9  1  0  0  0
  9 46  1  0  0  0
 46 47  1  0  0  0
 47 48  2  0  0  0
 48 49  1  0  0  0
 49 50  2  0  0  0
 50 51  1  0  0  0
  9 10  1  0  0  0
 10 11  1  0  0  0
 11 12  2  0  0  0
 11 13  1  0  0  0
 13 53  1  0  0  0
 53 54  1  0  0  0
 54 55  2  0  0  0
 55 56  1  0  0  0
 56 57  2  0  0  0
 57 58  1  0  0  0
 13 14  1  0  0  0
 14 15  1  0  0  0
 15 16  2  0  0  0
 15 17  1  0  0  0
 17 18  1  0  0  0
 18 19  1  0  0  0
 19 20  1  0  0  0
 20 21  1  0  0  0
 21 22  1  0  0  0
 22 23  2  0  0  0
 22 24  1  0  0  0
 24 60  1  0  0  0
 60 61  1  0  0  0
 61 62  2  0  0  0
 62 63  1  0  0  0
 63 64  2  0  0  0
 64 65  1  0  0  0
 65 66  2  0  0  0
 24 25  1  0  0  0
 25 26  1  0  0  0
 26 27  2  0  0  0
 26  1  1  0  0  0
 44 38  1  0  0  0
 51 47  1  0  0  0
 58 54  1  0  0  0
 21 17  1  0  0  0
 66 61  1  0  0  0
  2 28  1  0  0  0
 42 45  1  0  0  0
  6 29  1  0  0  0
 51 52  1  0  0  0
 10 30  1  0  0  0
 58 59  1  0  0  0
 14 31  1  0  0  0
 25 32  1  0  0  0
M  END
> <minimizedAffinity>
-5.82685

> <CNNscore>
0.3372585177

> <CNNaffinity>
6.7829871178

> <CNN_VS>
2.2876200676

> <CNNaffinity_variance>
0.9426530004

$$$$
[H]Oc1c([H])c([H])c(C([H])([H])[C@@]2([H])C(=O)N([H])[C@@]([H])([C@@]([H])(C([H])([H])[H])C([H])([H])C([H])([H])[H])C(=O)N([H])[C@@]([H])(C([H])([H])c3c([H])c([H])c([H])c([H])c3[H])C(=O)N3C([H])([H])C([H])([H])C([H])([H])[C@@]3([H])C(=O)N([H])[C@@]([H])(C([H])([H])c3c([H])nc([H])n3[H])C(=O)N([H])[C@@]([H])(C([H])([H])c3c([H])nc([H])n3[H])C(=O)N2[H])c([H])c1[H]


 66 71  0  0  0  0  0  0  0  0999 V2000
   -8.2047   22.5198  -18.9684 C   0  0  0  0  0  0  0  0  0  0  0  0
   -8.8721   22.8445  -17.6868 N   0  0  0  0  0  0  0  0  0  0  0  0
   -9.6983   21.9991  -16.9556 C   0  0  0  0  0  0  0  0  0  0  0  0
  -10.5958   22.5543  -16.2254 O   0  0  0  0  0  0  0  0  0  0  0  0
   -9.6326   20.4976  -16.9467 C   0  0  0  0  0  0  0  0  0  0  0  0
   -8.4349   19.9545  -16.4208 N   0  0  0  0  0  0  0  0  0  0  0  0
   -7.8557   19.8618  -15.1647 C   0  0  0  0  0  0  0  0  0  0  0  0
   -7.3119   18.6961  -14.9106 O   0  0  0  0  0  0  0  0  0  0  0  0
   -7.7017   20.7721  -14.0316 C   0  0  0  0  0  0  0  0  0  0  0  0
   -7.6891   22.1705  -14.2761 N   0  0  0  0  0  0  0  0  0  0  0  0
   -6.6205   22.9917  -14.6848 C   0  0  0  0  0  0  0  0  0  0  0  0
   -6.8550   24.1878  -15.0908 O   0  0  0  0  0  0  0  0  0  0  0  0
   -5.1726   22.6150  -14.7008 C   0  0  0  0  0  0  0  0  0  0  0  0
   -4.5686   23.2849  -15.8387 N   0  0  0  0  0  0  0  0  0  0  0  0
   -3.5837   22.7326  -16.6830 C   0  0  0  0  0  0  0  0  0  0  0  0
   -2.8711   23.5518  -17.3235 O   0  0  0  0  0  0  0  0  0  0  0  0
   -3.3543   21.3417  -16.8463 C   0  0  0  0  0  0  0  0  0  0  0  0
   -1.8731   21.0431  -17.2458 C   0  0  0  0  0  0  0  0  0  0  0  0
   -1.9716   19.5278  -17.2922 C   0  0  0  0  0  0  0  0  0  0  0  0
   -3.4381   19.1999  -17.3578 C   0  0  0  0  0  0  0  0  0  0  0  0
   -4.0010   20.5234  -17.8144 N   0  0  0  0  0  0  0  0  0  0  0  0
   -4.8835   20.7354  -18.8597 C   0  0  0  0  0  0  0  0  0  0  0  0
   -5.6888   19.7088  -19.0492 O   0  0  0  0  0  0  0  0  0  0  0  0
   -5.1334   21.8207  -19.8008 C   0  0  0  0  0  0  0  0  0  0  0  0
   -5.6906   23.0440  -19.3405 N   0  0  0  0  0  0  0  0  0  0  0  0
   -7.0128   23.3824  -19.0474 C   0  0  0  0  0  0  0  0  0  0  0  0
   -7.2688   24.6241  -18.8028 O   0  0  0  0  0  0  0  0  0  0  0  0
   -8.7102   23.8166  -17.2833 H   0  0  0  0  0  0  0  0  0  0  0  0
   -7.8248   19.4927  -17.2064 H   0  0  0  0  0  0  0  0  0  0  0  0
   -8.6084   22.6817  -14.1288 H   0  0  0  0  0  0  0  0  0  0  0  0
   -4.9473   24.2741  -15.9877 H   0  0  0  0  0  0  0  0  0  0  0  0
   -4.9783   23.8331  -19.2175 H   0  0  0  0  0  0  0  0  0  0  0  0
   -9.1693   22.8205  -20.0814 C   0  0  0  0  0  0  0  0  0  0  0  0
   -8.8613   22.0741  -21.3727 C   0  0  0  0  0  0  0  0  0  0  0  0
  -11.4677   23.8484  -20.3821 C   0  0  0  0  0  0  0  0  0  0  0  0
  -10.6100   22.8175  -19.7461 C   0  0  0  0  0  0  0  0  0  0  0  0
  -10.9350   19.9670  -16.4401 C   0  0  0  0  0  0  0  0  0  0  0  0
  -10.9118   18.5924  -15.9265 C   0  0  0  0  0  0  0  0  0  0  0  0
  -11.1565   18.3071  -14.6213 C   0  0  0  0  0  0  0  0  0  0  0  0
  -11.1323   17.0228  -14.1027 C   0  0  0  0  0  0  0  0  0  0  0  0
  -10.8442   15.9869  -14.9649 C   0  0  0  0  0  0  0  0  0  0  0  0
  -10.8134   14.6987  -14.4751 O   0  0  0  0  0  0  0  0  0  0  0  0
  -10.5865   16.2237  -16.3112 C   0  0  0  0  0  0  0  0  0  0  0  0
  -10.6249   17.5240  -16.7684 C   0  0  0  0  0  0  0  0  0  0  0  0
  -10.9945   14.4897  -13.5047 H   0  0  0  0  0  0  0  0  0  0  0  0
   -8.6914   20.4772  -12.9091 C   0  0  0  0  0  0  0  0  0  0  0  0
   -7.9896   20.2944  -11.6007 C   0  0  0  0  0  0  0  0  0  0  0  0
   -6.6607   19.9486  -11.4209 C   0  0  0  0  0  0  0  0  0  0  0  0
   -6.4105   19.8771  -10.1109 N   0  0  0  0  0  0  0  0  0  0  0  0
   -7.5256   20.1628   -9.4304 C   0  0  0  0  0  0  0  0  0  0  0  0
   -8.4782   20.4148  -10.3594 N   0  0  0  0  0  0  0  0  0  0  0  0
   -9.4535   20.6634  -10.0829 H   0  0  0  0  0  0  0  0  0  0  0  0
   -4.4955   23.0978  -13.4161 C   0  0  0  0  0  0  0  0  0  0  0  0
   -3.8493   21.9920  -12.6753 C   0  0  0  0  0  0  0  0  0  0  0  0
   -3.4449   20.7748  -13.1660 C   0  0  0  0  0  0  0  0  0  0  0  0
   -2.9021   20.0743  -12.1390 N   0  0  0  0  0  0  0  0  0  0  0  0
   -2.9516   20.8033  -11.0304 C   0  0  0  0  0  0  0  0  0  0  0  0
   -3.5256   21.9707  -11.3461 N   0  0  0  0  0  0  0  0  0  0  0  0
   -3.7174   22.7739  -10.7090 H   0  0  0  0  0  0  0  0  0  0  0  0
   -3.9580   22.1159  -20.7499 C   0  0  0  0  0  0  0  0  0  0  0  0
   -4.4104   22.4660  -22.0963 C   0  0  0  0  0  0  0  0  0  0  0  0
   -3.9395   23.5523  -22.7869 C   0  0  0  0  0  0  0  0  0  0  0  0
   -4.4153   23.8128  -24.0769 C   0  0  0  0  0  0  0  0  0  0  0  0
   -5.3551   22.9851  -24.6595 C   0  0  0  0  0  0  0  0  0  0  0  0
   -5.8282   21.9048  -23.9816 C   0  0  0  0  0  0  0  0  0  0  0  0
   -5.3458   21.6655  -22.7096 C   0  0  0  0  0  0  0  0  0  0  0  0
 35 36  1  0  0  0
 36 33  1  0  0  0
 33 34  1  0  0  0
 33  1  1  0  0  0
  1  2  1  0  0  0
  2  3  1  0  0  0
  3  4  2  0  0  0
  3  5  1  0  0  0
  5 37  1  0  0  0
 37 38  1  0  0  0
 38 39  2  0  0  0
 39 40  1  0  0  0
 40 41  2  0  0  0
 41 42  1  0  0  0
 41 43  1  0  0  0
 43 44  2  0  0  0
  5  6  1  0  0  0
  6  7  1  0  0  0
  7  8  2  0  0  0
  7  9  1  0  0  0
  9 46  1  0  0  0
 46 47  1  0  0  0
 47 48  2  0  0  0
 48 49  1  0  0  0
 49 50  2  0  0  0
 50 51  1  0  0  0
  9 10  1  0  0  0
 10 11  1  0  0  0
 11 12  2  0  0  0
 11 13  1  0  0  0
 13 53  1  0  0  0
 53 54  1  0  0  0
 54 55  2  0  0  0
 55 56  1  0  0  0
 56 57  2  0  0  0
 57 58  1  0  0  0
 13 14  1  0  0  0
 14 15  1  0  0  0
 15 16  2  0  0  0
 15 17  1  0  0  0
 17 18  1  0  0  0
 18 19  1  0  0  0
 19 20  1  0  0  0
 20 21  1  0  0  0
 21 22  1  0  0  0
 22 23  2  0  0  0
 22 24  1  0  0  0
 24 60  1  0  0  0
 60 61  1  0  0  0
 61 62  2  0  0  0
 62 63  1  0  0  0
 63 64  2  0  0  0
 64 65  1  0  0  0
 65 66  2  0  0  0
 24 25  1  0  0  0
 25 26  1  0  0  0
 26 27  2  0  0  0
 26  1  1  0  0  0
 44 38  1  0  0  0
 51 47  1  0  0  0
 58 54  1  0  0  0
 21 17  1  0  0  0
 66 61  1  0  0  0
  2 28  1  0  0  0
 42 45  1  0  0  0
  6 29  1  0  0  0
 51 52  1  0  0  0
 10 30  1  0  0  0
 58 59  1  0  0  0
 14 31  1  0  0  0
 25 32  1  0  0  0
M  END
> <minimizedAffinity>
-5.73944

> <CNNscore>
0.3282441497

> <CNNaffinity>
6.8629822731

> <CNN_VS>
2.2527337074

> <CNNaffinity_variance>
0.4480767250

$$$$
[H]Oc1c([H])c([H])c(C([H])([H])[C@@]2([H])C(=O)N([H])[C@@]([H])([C@@]([H])(C([H])([H])[H])C([H])([H])C([H])([H])[H])C(=O)N([H])[C@@]([H])(C([H])([H])c3c([H])c([H])c([H])c([H])c3[H])C(=O)N3C([H])([H])C([H])([H])C([H])([H])[C@@]3([H])C(=O)N([H])[C@@]([H])(C([H])([H])c3c([H])nc([H])n3[H])C(=O)N([H])[C@@]([H])(C([H])([H])c3c([H])nc([H])n3[H])C(=O)N2[H])c([H])c1[H]


 66 71  0  0  0  0  0  0  0  0999 V2000
   -2.1806   21.0595  -18.4837 C   0  0  0  0  0  0  0  0  0  0  0  0
   -2.9239   22.1844  -17.8710 N   0  0  0  0  0  0  0  0  0  0  0  0
   -4.1966   22.6161  -18.2258 C   0  0  0  0  0  0  0  0  0  0  0  0
   -4.4650   23.8551  -18.0273 O   0  0  0  0  0  0  0  0  0  0  0  0
   -5.2806   21.7614  -18.8203 C   0  0  0  0  0  0  0  0  0  0  0  0
   -5.7523   20.7235  -17.9799 N   0  0  0  0  0  0  0  0  0  0  0  0
   -6.5072   20.6532  -16.8193 C   0  0  0  0  0  0  0  0  0  0  0  0
   -7.4003   19.6933  -16.8188 O   0  0  0  0  0  0  0  0  0  0  0  0
   -6.5463   21.4084  -15.5685 C   0  0  0  0  0  0  0  0  0  0  0  0
   -5.3671   22.0672  -15.1316 N   0  0  0  0  0  0  0  0  0  0  0  0
   -4.2678   21.5449  -14.4229 C   0  0  0  0  0  0  0  0  0  0  0  0
   -3.1857   22.2309  -14.3295 O   0  0  0  0  0  0  0  0  0  0  0  0
   -4.2115   20.2194  -13.7313 C   0  0  0  0  0  0  0  0  0  0  0  0
   -2.8516   19.7268  -13.8603 N   0  0  0  0  0  0  0  0  0  0  0  0
   -2.4876   18.3830  -14.0833 C   0  0  0  0  0  0  0  0  0  0  0  0
   -1.3181   18.0557  -13.7455 O   0  0  0  0  0  0  0  0  0  0  0  0
   -3.3431   17.4030  -14.6502 C   0  0  0  0  0  0  0  0  0  0  0  0
   -2.9735   15.9634  -14.1665 C   0  0  0  0  0  0  0  0  0  0  0  0
   -4.0680   15.2093  -14.9022 C   0  0  0  0  0  0  0  0  0  0  0  0
   -4.5883   16.1428  -15.9607 C   0  0  0  0  0  0  0  0  0  0  0  0
   -3.4532   17.1336  -16.0432 N   0  0  0  0  0  0  0  0  0  0  0  0
   -2.8155   17.5737  -17.1903 C   0  0  0  0  0  0  0  0  0  0  0  0
   -3.6176   17.5792  -18.2367 O   0  0  0  0  0  0  0  0  0  0  0  0
   -1.4699   18.0303  -17.5175 C   0  0  0  0  0  0  0  0  0  0  0  0
   -1.0016   19.2743  -17.0151 N   0  0  0  0  0  0  0  0  0  0  0  0
   -1.2381   20.5762  -17.4595 C   0  0  0  0  0  0  0  0  0  0  0  0
   -0.5497   21.5242  -16.9167 O   0  0  0  0  0  0  0  0  0  0  0  0
   -2.4426   22.7189  -17.0857 H   0  0  0  0  0  0  0  0  0  0  0  0
   -5.4436   19.7377  -18.3477 H   0  0  0  0  0  0  0  0  0  0  0  0
   -5.2939   23.1016  -15.3615 H   0  0  0  0  0  0  0  0  0  0  0  0
   -2.1188   20.5001  -13.7661 H   0  0  0  0  0  0  0  0  0  0  0  0
   -0.3497   19.1903  -16.1707 H   0  0  0  0  0  0  0  0  0  0  0  0
   -1.4526   21.5877  -19.6880 C   0  0  0  0  0  0  0  0  0  0  0  0
   -1.0025   23.0352  -19.5412 C   0  0  0  0  0  0  0  0  0  0  0  0
   -0.3725   20.6077  -21.7623 C   0  0  0  0  0  0  0  0  0  0  0  0
   -0.4124   20.7205  -20.2829 C   0  0  0  0  0  0  0  0  0  0  0  0
   -6.2836   22.6535  -19.4779 C   0  0  0  0  0  0  0  0  0  0  0  0
   -6.1998   22.7452  -20.9402 C   0  0  0  0  0  0  0  0  0  0  0  0
   -5.6328   23.8104  -21.5638 C   0  0  0  0  0  0  0  0  0  0  0  0
   -5.5471   23.9325  -22.9410 C   0  0  0  0  0  0  0  0  0  0  0  0
   -6.0672   22.9139  -23.7101 C   0  0  0  0  0  0  0  0  0  0  0  0
   -5.9954   23.0099  -25.0834 O   0  0  0  0  0  0  0  0  0  0  0  0
   -6.6584   21.8003  -23.1223 C   0  0  0  0  0  0  0  0  0  0  0  0
   -6.7143   21.7360  -21.7461 C   0  0  0  0  0  0  0  0  0  0  0  0
   -5.5745   23.8030  -25.5440 H   0  0  0  0  0  0  0  0  0  0  0  0
   -7.7085   22.3949  -15.5200 C   0  0  0  0  0  0  0  0  0  0  0  0
   -8.1788   22.6114  -14.1165 C   0  0  0  0  0  0  0  0  0  0  0  0
   -8.1231   23.7975  -13.4037 C   0  0  0  0  0  0  0  0  0  0  0  0
   -8.6324   23.5897  -12.1867 N   0  0  0  0  0  0  0  0  0  0  0  0
   -9.0175   22.3137  -12.0793 C   0  0  0  0  0  0  0  0  0  0  0  0
   -8.7318   21.7338  -13.2692 N   0  0  0  0  0  0  0  0  0  0  0  0
   -8.9363   20.7253  -13.4445 H   0  0  0  0  0  0  0  0  0  0  0  0
   -4.5444   20.3925  -12.2477 C   0  0  0  0  0  0  0  0  0  0  0  0
   -5.8547   19.8018  -11.8962 C   0  0  0  0  0  0  0  0  0  0  0  0
   -6.6769   19.0450  -12.6945 C   0  0  0  0  0  0  0  0  0  0  0  0
   -7.7715   18.7141  -11.9650 N   0  0  0  0  0  0  0  0  0  0  0  0
   -7.6659   19.2326  -10.7472 C   0  0  0  0  0  0  0  0  0  0  0  0
   -6.5040   19.8956  -10.6956 N   0  0  0  0  0  0  0  0  0  0  0  0
   -6.1102   20.4191   -9.8841 H   0  0  0  0  0  0  0  0  0  0  0  0
   -0.3790   16.9594  -17.3370 C   0  0  0  0  0  0  0  0  0  0  0  0
    0.3912   16.7445  -18.5620 C   0  0  0  0  0  0  0  0  0  0  0  0
    1.6492   16.2003  -18.5712 C   0  0  0  0  0  0  0  0  0  0  0  0
    2.3160   16.0168  -19.7878 C   0  0  0  0  0  0  0  0  0  0  0  0
    1.7175   16.3795  -20.9786 C   0  0  0  0  0  0  0  0  0  0  0  0
    0.4693   16.9203  -20.9791 C   0  0  0  0  0  0  0  0  0  0  0  0
   -0.1714   17.0932  -19.7677 C   0  0  0  0  0  0  0  0  0  0  0  0
 35 36  1  0  0  0
 36 33  1  0  0  0
 33 34  1  0  0  0
 33  1  1  0  0  0
  1  2  1  0  0  0
  2  3  1  0  0  0
  3  4  2  0  0  0
  3  5  1  0  0  0
  5 37  1  0  0  0
 37 38  1  0  0  0
 38 39  2  0  0  0
 39 40  1  0  0  0
 40 41  2  0  0  0
 41 42  1  0  0  0
 41 43  1  0  0  0
 43 44  2  0  0  0
  5  6  1  0  0  0
  6  7  1  0  0  0
  7  8  2  0  0  0
  7  9  1  0  0  0
  9 46  1  0  0  0
 46 47  1  0  0  0
 47 48  2  0  0  0
 48 49  1  0  0  0
 49 50  2  0  0  0
 50 51  1  0  0  0
  9 10  1  0  0  0
 10 11  1  0  0  0
 11 12  2  0  0  0
 11 13  1  0  0  0
 13 53  1  0  0  0
 53 54  1  0  0  0
 54 55  2  0  0  0
 55 56  1  0  0  0
 56 57  2  0  0  0
 57 58  1  0  0  0
 13 14  1  0  0  0
 14 15  1  0  0  0
 15 16  2  0  0  0
 15 17  1  0  0  0
 17 18  1  0  0  0
 18 19  1  0  0  0
 19 20  1  0  0  0
 20 21  1  0  0  0
 21 22  1  0  0  0
 22 23  2  0  0  0
 22 24  1  0  0  0
 24 60  1  0  0  0
 60 61  1  0  0  0
 61 62  2  0  0  0
 62 63  1  0  0  0
 63 64  2  0  0  0
 64 65  1  0  0  0
 65 66  2  0  0  0
 24 25  1  0  0  0
 25 26  1  0  0  0
 26 27  2  0  0  0
 26  1  1  0  0  0
 44 38  1  0  0  0
 51 47  1  0  0  0
 58 54  1  0  0  0
 21 17  1  0  0  0
 66 61  1  0  0  0
  2 28  1  0  0  0
 42 45  1  0  0  0
  6 29  1  0  0  0
 51 52  1  0  0  0
 10 30  1  0  0  0
 58 59  1  0  0  0
 14 31  1  0  0  0
 25 32  1  0  0  0
M  END
> <minimizedAffinity>
-5.43196

> <CNNscore>
0.3161210716

> <CNNaffinity>
6.6485037804

> <CNN_VS>
2.1017322540

> <CNNaffinity_variance>
0.8480952382

$$$$
[H]Oc1c([H])c([H])c(C([H])([H])[C@@]2([H])C(=O)N([H])[C@@]([H])([C@@]([H])(C([H])([H])[H])C([H])([H])C([H])([H])[H])C(=O)N([H])[C@@]([H])(C([H])([H])c3c([H])c([H])c([H])c([H])c3[H])C(=O)N3C([H])([H])C([H])([H])C([H])([H])[C@@]3([H])C(=O)N([H])[C@@]([H])(C([H])([H])c3c([H])nc([H])n3[H])C(=O)N([H])[C@@]([H])(C([H])([H])c3c([H])nc([H])n3[H])C(=O)N2[H])c([H])c1[H]


 66 71  0  0  0  0  0  0  0  0999 V2000
   -2.6315   19.9489  -17.2130 C   0  0  0  0  0  0  0  0  0  0  0  0
   -3.0474   19.4888  -15.8681 N   0  0  0  0  0  0  0  0  0  0  0  0
   -2.7567   20.1145  -14.6614 C   0  0  0  0  0  0  0  0  0  0  0  0
   -2.6891   19.3658  -13.6215 O   0  0  0  0  0  0  0  0  0  0  0  0
   -2.5147   21.5855  -14.4701 C   0  0  0  0  0  0  0  0  0  0  0  0
   -3.6261   22.4163  -14.7540 N   0  0  0  0  0  0  0  0  0  0  0  0
   -4.8528   22.6689  -14.1598 C   0  0  0  0  0  0  0  0  0  0  0  0
   -5.1864   23.9367  -14.1385 O   0  0  0  0  0  0  0  0  0  0  0  0
   -5.8863   21.8427  -13.5389 C   0  0  0  0  0  0  0  0  0  0  0  0
   -6.0110   20.4874  -13.9426 N   0  0  0  0  0  0  0  0  0  0  0  0
   -6.6850   19.9501  -15.0565 C   0  0  0  0  0  0  0  0  0  0  0  0
   -6.4837   18.7272  -15.3942 O   0  0  0  0  0  0  0  0  0  0  0  0
   -7.6569   20.6734  -15.9343 C   0  0  0  0  0  0  0  0  0  0  0  0
   -7.4848   20.1564  -17.2803 N   0  0  0  0  0  0  0  0  0  0  0  0
   -7.5419   20.9223  -18.4627 C   0  0  0  0  0  0  0  0  0  0  0  0
   -7.8040   20.2953  -19.5244 O   0  0  0  0  0  0  0  0  0  0  0  0
   -7.3285   22.3239  -18.5225 C   0  0  0  0  0  0  0  0  0  0  0  0
   -8.0891   22.9739  -19.7233 C   0  0  0  0  0  0  0  0  0  0  0  0
   -7.6884   24.4166  -19.4670 C   0  0  0  0  0  0  0  0  0  0  0  0
   -6.5106   24.3701  -18.5325 C   0  0  0  0  0  0  0  0  0  0  0  0
   -6.0616   22.9416  -18.7185 N   0  0  0  0  0  0  0  0  0  0  0  0
   -4.7750   22.5016  -18.9781 C   0  0  0  0  0  0  0  0  0  0  0  0
   -3.8609   23.2938  -18.4533 O   0  0  0  0  0  0  0  0  0  0  0  0
   -4.1902   21.3738  -19.6938 C   0  0  0  0  0  0  0  0  0  0  0  0
   -4.3259   20.0578  -19.1754 N   0  0  0  0  0  0  0  0  0  0  0  0
   -3.6196   19.4072  -18.1623 C   0  0  0  0  0  0  0  0  0  0  0  0
   -3.8374   18.1447  -18.0017 O   0  0  0  0  0  0  0  0  0  0  0  0
   -3.6212   18.5934  -15.8130 H   0  0  0  0  0  0  0  0  0  0  0  0
   -3.4660   23.0026  -15.6668 H   0  0  0  0  0  0  0  0  0  0  0  0
   -5.5372   19.7668  -13.3226 H   0  0  0  0  0  0  0  0  0  0  0  0
   -7.3057   19.1021  -17.3008 H   0  0  0  0  0  0  0  0  0  0  0  0
   -5.0817   19.4717  -19.6554 H   0  0  0  0  0  0  0  0  0  0  0  0
   -1.2582   19.4016  -17.4847 C   0  0  0  0  0  0  0  0  0  0  0  0
   -0.9744   18.0864  -16.7711 C   0  0  0  0  0  0  0  0  0  0  0  0
   -0.2967   18.1245  -19.4531 C   0  0  0  0  0  0  0  0  0  0  0  0
   -0.7958   19.4038  -18.8898 C   0  0  0  0  0  0  0  0  0  0  0  0
   -1.7914   21.7848  -13.1773 C   0  0  0  0  0  0  0  0  0  0  0  0
   -0.3415   21.9884  -13.2778 C   0  0  0  0  0  0  0  0  0  0  0  0
    0.4162   22.3161  -12.1992 C   0  0  0  0  0  0  0  0  0  0  0  0
    1.7842   22.5251  -12.2619 C   0  0  0  0  0  0  0  0  0  0  0  0
    2.3994   22.3907  -13.4879 C   0  0  0  0  0  0  0  0  0  0  0  0
    3.7599   22.5933  -13.5787 O   0  0  0  0  0  0  0  0  0  0  0  0
    1.6702   22.0560  -14.6243 C   0  0  0  0  0  0  0  0  0  0  0  0
    0.3111   21.8608  -14.4986 C   0  0  0  0  0  0  0  0  0  0  0  0
    4.3202   22.8378  -12.7759 H   0  0  0  0  0  0  0  0  0  0  0  0
   -5.8409   21.9007  -12.0154 C   0  0  0  0  0  0  0  0  0  0  0  0
   -6.7167   22.9925  -11.4873 C   0  0  0  0  0  0  0  0  0  0  0  0
   -7.0533   23.2087  -10.1615 C   0  0  0  0  0  0  0  0  0  0  0  0
   -7.8558   24.2741  -10.0919 N   0  0  0  0  0  0  0  0  0  0  0  0
   -8.0551   24.7599  -11.3217 C   0  0  0  0  0  0  0  0  0  0  0  0
   -7.3502   23.9627  -12.1591 N   0  0  0  0  0  0  0  0  0  0  0  0
   -7.3423   24.1302  -13.1894 H   0  0  0  0  0  0  0  0  0  0  0  0
   -9.0873   20.3932  -15.4677 C   0  0  0  0  0  0  0  0  0  0  0  0
   -9.1772   20.2463  -13.9982 C   0  0  0  0  0  0  0  0  0  0  0  0
   -9.1377   19.0856  -13.2654 C   0  0  0  0  0  0  0  0  0  0  0  0
   -9.2516   19.4192  -11.9555 N   0  0  0  0  0  0  0  0  0  0  0  0
   -9.3607   20.7376  -11.8418 C   0  0  0  0  0  0  0  0  0  0  0  0
   -9.3164   21.2493  -13.0781 N   0  0  0  0  0  0  0  0  0  0  0  0
   -9.3744   22.2549  -13.3487 H   0  0  0  0  0  0  0  0  0  0  0  0
   -4.4848   21.3643  -21.2047 C   0  0  0  0  0  0  0  0  0  0  0  0
   -4.1926   22.6531  -21.8320 C   0  0  0  0  0  0  0  0  0  0  0  0
   -5.1668   23.5314  -22.2300 C   0  0  0  0  0  0  0  0  0  0  0  0
   -4.8041   24.7509  -22.8129 C   0  0  0  0  0  0  0  0  0  0  0  0
   -3.4736   25.0764  -22.9907 C   0  0  0  0  0  0  0  0  0  0  0  0
   -2.5001   24.2109  -22.5989 C   0  0  0  0  0  0  0  0  0  0  0  0
   -2.8792   23.0126  -22.0259 C   0  0  0  0  0  0  0  0  0  0  0  0
 35 36  1  0  0  0
 36 33  1  0  0  0
 33 34  1  0  0  0
 33  1  1  0  0  0
  1  2  1  0  0  0
  2  3  1  0  0  0
  3  4  2  0  0  0
  3  5  1  0  0  0
  5 37  1  0  0  0
 37 38  1  0  0  0
 38 39  2  0  0  0
 39 40  1  0  0  0
 40 41  2  0  0  0
 41 42  1  0  0  0
 41 43  1  0  0  0
 43 44  2  0  0  0
  5  6  1  0  0  0
  6  7  1  0  0  0
  7  8  2  0  0  0
  7  9  1  0  0  0
  9 46  1  0  0  0
 46 47  1  0  0  0
 47 48  2  0  0  0
 48 49  1  0  0  0
 49 50  2  0  0  0
 50 51  1  0  0  0
  9 10  1  0  0  0
 10 11  1  0  0  0
 11 12  2  0  0  0
 11 13  1  0  0  0
 13 53  1  0  0  0
 53 54  1  0  0  0
 54 55  2  0  0  0
 55 56  1  0  0  0
 56 57  2  0  0  0
 57 58  1  0  0  0
 13 14  1  0  0  0
 14 15  1  0  0  0
 15 16  2  0  0  0
 15 17  1  0  0  0
 17 18  1  0  0  0
 18 19  1  0  0  0
 19 20  1  0  0  0
 20 21  1  0  0  0
 21 22  1  0  0  0
 22 23  2  0  0  0
 22 24  1  0  0  0
 24 60  1  0  0  0
 60 61  1  0  0  0
 61 62  2  0  0  0
 62 63  1  0  0  0
 63 64  2  0  0  0
 64 65  1  0  0  0
 65 66  2  0  0  0
 24 25  1  0  0  0
 25 26  1  0  0  0
 26 27  2  0  0  0
 26  1  1  0  0  0
 44 38  1  0  0  0
 51 47  1  0  0  0
 58 54  1  0  0  0
 21 17  1  0  0  0
 66 61  1  0  0  0
  2 28  1  0  0  0
 42 45  1  0  0  0
  6 29  1  0  0  0
 51 52  1  0  0  0
 10 30  1  0  0  0
 58 59  1  0  0  0
 14 31  1  0  0  0
 25 32  1  0  0  0
M  END
> <minimizedAffinity>
-6.23460

> <CNNscore>
0.2138973325

> <CNNaffinity>
6.7099967003

> <CNN_VS>
1.4352504015

> <CNNaffinity_variance>
0.7562674284

$$$$
[H]Oc1c([H])c([H])c(C([H])([H])[C@@]2([H])C(=O)N([H])[C@@]([H])([C@@]([H])(C([H])([H])[H])C([H])([H])C([H])([H])[H])C(=O)N([H])[C@@]([H])(C([H])([H])c3c([H])c([H])c([H])c([H])c3[H])C(=O)N3C([H])([H])C([H])([H])C([H])([H])[C@@]3([H])C(=O)N([H])[C@@]([H])(C([H])([H])c3c([H])nc([H])n3[H])C(=O)N([H])[C@@]([H])(C([H])([H])c3c([H])nc([H])n3[H])C(=O)N2[H])c([H])c1[H]


 66 71  0  0  0  0  0  0  0  0999 V2000
   -3.3128   21.4626  -19.4227 C   0  0  0  0  0  0  0  0  0  0  0  0
   -2.9367   20.0784  -19.0539 N   0  0  0  0  0  0  0  0  0  0  0  0
   -1.7759   19.6924  -18.3940 C   0  0  0  0  0  0  0  0  0  0  0  0
   -1.3406   18.5087  -18.6306 O   0  0  0  0  0  0  0  0  0  0  0  0
   -0.9891   20.5381  -17.4324 C   0  0  0  0  0  0  0  0  0  0  0  0
   -1.6749   20.8866  -16.2432 N   0  0  0  0  0  0  0  0  0  0  0  0
   -2.0976   20.2121  -15.1082 C   0  0  0  0  0  0  0  0  0  0  0  0
   -1.8940   20.8657  -13.9900 O   0  0  0  0  0  0  0  0  0  0  0  0
   -2.7306   18.9195  -14.8539 C   0  0  0  0  0  0  0  0  0  0  0  0
   -3.5255   18.3359  -15.8752 N   0  0  0  0  0  0  0  0  0  0  0  0
   -4.8724   18.5835  -16.2040 C   0  0  0  0  0  0  0  0  0  0  0  0
   -5.3498   18.1410  -17.3115 O   0  0  0  0  0  0  0  0  0  0  0  0
   -5.8607   19.3380  -15.3718 C   0  0  0  0  0  0  0  0  0  0  0  0
   -6.7409   20.0428  -16.2867 N   0  0  0  0  0  0  0  0  0  0  0  0
   -7.2506   21.3427  -16.0908 C   0  0  0  0  0  0  0  0  0  0  0  0
   -8.3023   21.6333  -16.7221 O   0  0  0  0  0  0  0  0  0  0  0  0
   -6.6620   22.3165  -15.2429 C   0  0  0  0  0  0  0  0  0  0  0  0
   -7.7233   23.3272  -14.6995 C   0  0  0  0  0  0  0  0  0  0  0  0
   -6.7930   24.1611  -13.8352 C   0  0  0  0  0  0  0  0  0  0  0  0
   -5.3948   23.8492  -14.2938 C   0  0  0  0  0  0  0  0  0  0  0  0
   -5.6718   23.2530  -15.6520 N   0  0  0  0  0  0  0  0  0  0  0  0
   -5.0637   23.5920  -16.8485 C   0  0  0  0  0  0  0  0  0  0  0  0
   -3.8222   24.0025  -16.6790 O   0  0  0  0  0  0  0  0  0  0  0  0
   -5.4684   23.6052  -18.2493 C   0  0  0  0  0  0  0  0  0  0  0  0
   -5.6904   22.3804  -18.9346 N   0  0  0  0  0  0  0  0  0  0  0  0
   -4.7837   21.4863  -19.5061 C   0  0  0  0  0  0  0  0  0  0  0  0
   -5.2663   20.5241  -20.2192 O   0  0  0  0  0  0  0  0  0  0  0  0
   -3.6139   19.3003  -19.3188 H   0  0  0  0  0  0  0  0  0  0  0  0
   -1.9245   21.9542  -16.2221 H   0  0  0  0  0  0  0  0  0  0  0  0
   -3.0499   17.6042  -16.4807 H   0  0  0  0  0  0  0  0  0  0  0  0
   -6.9819   19.4689  -17.1565 H   0  0  0  0  0  0  0  0  0  0  0  0
   -6.7220   22.1165  -19.0407 H   0  0  0  0  0  0  0  0  0  0  0  0
   -2.6867   21.7729  -20.7535 C   0  0  0  0  0  0  0  0  0  0  0  0
   -3.2731   23.0049  -21.4301 C   0  0  0  0  0  0  0  0  0  0  0  0
   -0.6063   20.7891  -21.8183 C   0  0  0  0  0  0  0  0  0  0  0  0
   -1.2106   21.7215  -20.8342 C   0  0  0  0  0  0  0  0  0  0  0  0
    0.3890   19.9707  -17.3168 C   0  0  0  0  0  0  0  0  0  0  0  0
    1.3483   20.4012  -18.3407 C   0  0  0  0  0  0  0  0  0  0  0  0
    1.7665   21.6897  -18.4394 C   0  0  0  0  0  0  0  0  0  0  0  0
    2.6622   22.1305  -19.3997 C   0  0  0  0  0  0  0  0  0  0  0  0
    3.1492   21.2050  -20.2974 C   0  0  0  0  0  0  0  0  0  0  0  0
    4.0419   21.6167  -21.2637 O   0  0  0  0  0  0  0  0  0  0  0  0
    2.7540   19.8724  -20.2404 C   0  0  0  0  0  0  0  0  0  0  0  0
    1.8593   19.4941  -19.2618 C   0  0  0  0  0  0  0  0  0  0  0  0
    4.3501   22.5748  -21.3354 H   0  0  0  0  0  0  0  0  0  0  0  0
   -1.7412   17.8770  -14.3435 C   0  0  0  0  0  0  0  0  0  0  0  0
   -2.1216   17.3884  -12.9817 C   0  0  0  0  0  0  0  0  0  0  0  0
   -1.2839   17.2734  -11.8849 C   0  0  0  0  0  0  0  0  0  0  0  0
   -1.9890   16.7961  -10.8560 N   0  0  0  0  0  0  0  0  0  0  0  0
   -3.2539   16.5953  -11.2405 C   0  0  0  0  0  0  0  0  0  0  0  0
   -3.3135   16.9637  -12.5423 N   0  0  0  0  0  0  0  0  0  0  0  0
   -4.2033   16.8993  -13.0843 H   0  0  0  0  0  0  0  0  0  0  0  0
   -6.6869   18.3609  -14.5323 C   0  0  0  0  0  0  0  0  0  0  0  0
   -7.9283   17.9436  -15.2209 C   0  0  0  0  0  0  0  0  0  0  0  0
   -9.2140   18.3440  -14.9519 C   0  0  0  0  0  0  0  0  0  0  0  0
  -10.0355   17.7140  -15.8283 N   0  0  0  0  0  0  0  0  0  0  0  0
   -9.3162   16.9385  -16.6309 C   0  0  0  0  0  0  0  0  0  0  0  0
   -8.0340   17.0713  -16.2696 N   0  0  0  0  0  0  0  0  0  0  0  0
   -7.2054   16.6016  -16.6945 H   0  0  0  0  0  0  0  0  0  0  0  0
   -6.6112   24.5865  -18.5665 C   0  0  0  0  0  0  0  0  0  0  0  0
   -6.9955   24.5484  -19.9775 C   0  0  0  0  0  0  0  0  0  0  0  0
   -8.1814   24.0204  -20.4178 C   0  0  0  0  0  0  0  0  0  0  0  0
   -8.4799   24.0321  -21.7849 C   0  0  0  0  0  0  0  0  0  0  0  0
   -7.5900   24.5705  -22.6938 C   0  0  0  0  0  0  0  0  0  0  0  0
   -6.4107   25.0965  -22.2659 C   0  0  0  0  0  0  0  0  0  0  0  0
   -6.1352   25.0750  -20.9126 C   0  0  0  0  0  0  0  0  0  0  0  0
 35 36  1  0  0  0
 36 33  1  0  0  0
 33 34  1  0  0  0
 33  1  1  0  0  0
  1  2  1  0  0  0
  2  3  1  0  0  0
  3  4  2  0  0  0
  3  5  1  0  0  0
  5 37  1  0  0  0
 37 38  1  0  0  0
 38 39  2  0  0  0
 39 40  1  0  0  0
 40 41  2  0  0  0
 41 42  1  0  0  0
 41 43  1  0  0  0
 43 44  2  0  0  0
  5  6  1  0  0  0
  6  7  1  0  0  0
  7  8  2  0  0  0
  7  9  1  0  0  0
  9 46  1  0  0  0
 46 47  1  0  0  0
 47 48  2  0  0  0
 48 49  1  0  0  0
 49 50  2  0  0  0
 50 51  1  0  0  0
  9 10  1  0  0  0
 10 11  1  0  0  0
 11 12  2  0  0  0
 11 13  1  0  0  0
 13 53  1  0  0  0
 53 54  1  0  0  0
 54 55  2  0  0  0
 55 56  1  0  0  0
 56 57  2  0  0  0
 57 58  1  0  0  0
 13 14  1  0  0  0
 14 15  1  0  0  0
 15 16  2  0  0  0
 15 17  1  0  0  0
 17 18  1  0  0  0
 18 19  1  0  0  0
 19 20  1  0  0  0
 20 21  1  0  0  0
 21 22  1  0  0  0
 22 23  2  0  0  0
 22 24  1  0  0  0
 24 60  1  0  0  0
 60 61  1  0  0  0
 61 62  2  0  0  0
 62 63  1  0  0  0
 63 64  2  0  0  0
 64 65  1  0  0  0
 65 66  2  0  0  0
 24 25  1  0  0  0
 25 26  1  0  0  0
 26 27  2  0  0  0
 26  1  1  0  0  0
 44 38  1  0  0  0
 51 47  1  0  0  0
 58 54  1  0  0  0
 21 17  1  0  0  0
 66 61  1  0  0  0
  2 28  1  0  0  0
 42 45  1  0  0  0
  6 29  1  0  0  0
 51 52  1  0  0  0
 10 30  1  0  0  0
 58 59  1  0  0  0
 14 31  1  0  0  0
 25 32  1  0  0  0
M  END
> <minimizedAffinity>
-5.69694

> <CNNscore>
0.2071811855

> <CNNaffinity>
6.3940963745

> <CNN_VS>
1.3247364759

> <CNNaffinity_variance>
0.9733909369

$$$$
[H]Oc1c([H])c([H])c(C([H])([H])[C@@]2([H])C(=O)N([H])[C@@]([H])([C@@]([H])(C([H])([H])[H])C([H])([H])C([H])([H])[H])C(=O)N([H])[C@@]([H])(C([H])([H])c3c([H])c([H])c([H])c([H])c3[H])C(=O)N3C([H])([H])C([H])([H])C([H])([H])[C@@]3([H])C(=O)N([H])[C@@]([H])(C([H])([H])c3c([H])nc([H])n3[H])C(=O)N([H])[C@@]([H])(C([H])([H])c3c([H])nc([H])n3[H])C(=O)N2[H])c([H])c1[H]


 66 71  0  0  0  0  0  0  0  0999 V2000
   -0.4083   20.0503  -19.5065 C   0  0  0  0  0  0  0  0  0  0  0  0
   -0.8781   21.3956  -19.1026 N   0  0  0  0  0  0  0  0  0  0  0  0
   -2.0321   22.0290  -19.5487 C   0  0  0  0  0  0  0  0  0  0  0  0
   -2.0208   23.3121  -19.5629 O   0  0  0  0  0  0  0  0  0  0  0  0
   -3.2863   21.3443  -20.0149 C   0  0  0  0  0  0  0  0  0  0  0  0
   -3.9582   20.5877  -19.0239 N   0  0  0  0  0  0  0  0  0  0  0  0
   -4.6903   20.8764  -17.8826 C   0  0  0  0  0  0  0  0  0  0  0  0
   -5.7709   20.1474  -17.7410 O   0  0  0  0  0  0  0  0  0  0  0  0
   -4.5425   21.8182  -16.7747 C   0  0  0  0  0  0  0  0  0  0  0  0
   -3.2409   22.2677  -16.4298 N   0  0  0  0  0  0  0  0  0  0  0  0
   -2.2696   21.6433  -15.6232 C   0  0  0  0  0  0  0  0  0  0  0  0
   -1.0626   22.0832  -15.6233 O   0  0  0  0  0  0  0  0  0  0  0  0
   -2.4915   20.4705  -14.7212 C   0  0  0  0  0  0  0  0  0  0  0  0
   -1.2739   19.6794  -14.7404 N   0  0  0  0  0  0  0  0  0  0  0  0
   -1.2152   18.2707  -14.7312 C   0  0  0  0  0  0  0  0  0  0  0  0
   -0.1394   17.7573  -14.3212 O   0  0  0  0  0  0  0  0  0  0  0  0
   -2.2733   17.4203  -15.1450 C   0  0  0  0  0  0  0  0  0  0  0  0
   -2.2178   16.0352  -14.4230 C   0  0  0  0  0  0  0  0  0  0  0  0
   -3.4627   15.4263  -15.0453 C   0  0  0  0  0  0  0  0  0  0  0  0
   -3.7853   16.2623  -16.2534 C   0  0  0  0  0  0  0  0  0  0  0  0
   -2.4632   16.9547  -16.4762 N   0  0  0  0  0  0  0  0  0  0  0  0
   -1.7647   17.0495  -17.6676 C   0  0  0  0  0  0  0  0  0  0  0  0
   -2.5643   17.0562  -18.7160 O   0  0  0  0  0  0  0  0  0  0  0  0
   -0.3578   17.1418  -18.0394 C   0  0  0  0  0  0  0  0  0  0  0  0
    0.3786   18.3196  -17.7404 N   0  0  0  0  0  0  0  0  0  0  0  0
    0.4238   19.5499  -18.3983 C   0  0  0  0  0  0  0  0  0  0  0  0
    1.3113   20.4018  -18.0062 O   0  0  0  0  0  0  0  0  0  0  0  0
   -0.2785   21.9349  -18.4072 H   0  0  0  0  0  0  0  0  0  0  0  0
   -3.8780   19.5114  -19.2177 H   0  0  0  0  0  0  0  0  0  0  0  0
   -2.9481   23.2087  -16.8259 H   0  0  0  0  0  0  0  0  0  0  0  0
   -0.3888   20.2794  -14.7610 H   0  0  0  0  0  0  0  0  0  0  0  0
    1.0110   18.2367  -16.8811 H   0  0  0  0  0  0  0  0  0  0  0  0
    0.3965   20.2008  -20.7671 C   0  0  0  0  0  0  0  0  0  0  0  0
    1.4862   19.1483  -20.9233 C   0  0  0  0  0  0  0  0  0  0  0  0
    0.0188   21.6385  -22.8213 C   0  0  0  0  0  0  0  0  0  0  0  0
   -0.3502   20.4446  -22.0204 C   0  0  0  0  0  0  0  0  0  0  0  0
   -4.0820   22.3119  -20.8303 C   0  0  0  0  0  0  0  0  0  0  0  0
   -3.7464   22.3768  -22.2574 C   0  0  0  0  0  0  0  0  0  0  0  0
   -3.2652   23.5090  -22.8333 C   0  0  0  0  0  0  0  0  0  0  0  0
   -2.9485   23.6066  -24.1784 C   0  0  0  0  0  0  0  0  0  0  0  0
   -3.1348   22.4904  -24.9651 C   0  0  0  0  0  0  0  0  0  0  0  0
   -2.8278   22.5599  -26.3072 O   0  0  0  0  0  0  0  0  0  0  0  0
   -3.6244   21.3053  -24.4257 C   0  0  0  0  0  0  0  0  0  0  0  0
   -3.9219   21.2699  -23.0798 C   0  0  0  0  0  0  0  0  0  0  0  0
   -2.4715   23.4027  -26.7326 H   0  0  0  0  0  0  0  0  0  0  0  0
   -5.4610   23.0281  -16.9126 C   0  0  0  0  0  0  0  0  0  0  0  0
   -6.5987   22.9594  -15.9437 C   0  0  0  0  0  0  0  0  0  0  0  0
   -6.8398   23.8305  -14.8945 C   0  0  0  0  0  0  0  0  0  0  0  0
   -7.9445   23.4360  -14.2559 N   0  0  0  0  0  0  0  0  0  0  0  0
   -8.4321   22.3411  -14.8488 C   0  0  0  0  0  0  0  0  0  0  0  0
   -7.5952   22.0669  -15.8775 N   0  0  0  0  0  0  0  0  0  0  0  0
   -7.7557   21.2475  -16.5040 H   0  0  0  0  0  0  0  0  0  0  0  0
   -2.7532   20.9549  -13.2933 C   0  0  0  0  0  0  0  0  0  0  0  0
   -1.4990   21.2167  -12.5532 C   0  0  0  0  0  0  0  0  0  0  0  0
   -0.9196   20.4401  -11.5800 C   0  0  0  0  0  0  0  0  0  0  0  0
    0.2189   21.0596  -11.1798 N   0  0  0  0  0  0  0  0  0  0  0  0
    0.3725   22.1884  -11.8618 C   0  0  0  0  0  0  0  0  0  0  0  0
   -0.6668   22.2927  -12.6993 N   0  0  0  0  0  0  0  0  0  0  0  0
   -0.8558   23.0600  -13.3800 H   0  0  0  0  0  0  0  0  0  0  0  0
    0.4766   15.9041  -17.6633 C   0  0  0  0  0  0  0  0  0  0  0  0
   -0.2152   14.6550  -17.9810 C   0  0  0  0  0  0  0  0  0  0  0  0
   -0.6981   13.8008  -17.0239 C   0  0  0  0  0  0  0  0  0  0  0  0
   -1.3592   12.6295  -17.4105 C   0  0  0  0  0  0  0  0  0  0  0  0
   -1.5287   12.3270  -18.7475 C   0  0  0  0  0  0  0  0  0  0  0  0
   -1.0526   13.1688  -19.7042 C   0  0  0  0  0  0  0  0  0  0  0  0
   -0.4031   14.3194  -19.3015 C   0  0  0  0  0  0  0  0  0  0  0  0
 35 36  1  0  0  0
 36 33  1  0  0  0
 33 34  1  0  0  0
 33  1  1  0  0  0
  1  2  1  0  0  0
  2  3  1  0  0  0
  3  4  2  0  0  0
  3  5  1  0  0  0
  5 37  1  0  0  0
 37 38  1  0  0  0
 38 39  2  0  0  0
 39 40  1  0  0  0
 40 41  2  0  0  0
 41 42  1  0  0  0
 41 43  1  0  0  0
 43 44  2  0  0  0
  5  6  1  0  0  0
  6  7  1  0  0  0
  7  8  2  0  0  0
  7  9  1  0  0  0
  9 46  1  0  0  0
 46 47  1  0  0  0
 47 48  2  0  0  0
 48 49  1  0  0  0
 49 50  2  0  0  0
 50 51  1  0  0  0
  9 10  1  0  0  0
 10 11  1  0  0  0
 11 12  2  0  0  0
 11 13  1  0  0  0
 13 53  1  0  0  0
 53 54  1  0  0  0
 54 55  2  0  0  0
 55 56  1  0  0  0
 56 57  2  0  0  0
 57 58  1  0  0  0
 13 14  1  0  0  0
 14 15  1  0  0  0
 15 16  2  0  0  0
 15 17  1  0  0  0
 17 18  1  0  0  0
 18 19  1  0  0  0
 19 20  1  0  0  0
 20 21  1  0  0  0
 21 22  1  0  0  0
 22 23  2  0  0  0
 22 24  1  0  0  0
 24 60  1  0  0  0
 60 61  1  0  0  0
 61 62  2  0  0  0
 62 63  1  0  0  0
 63 64  2  0  0  0
 64 65  1  0  0  0
 65 66  2  0  0  0
 24 25  1  0  0  0
 25 26  1  0  0  0
 26 27  2  0  0  0
 26  1  1  0  0  0
 44 38  1  0  0  0
 51 47  1  0  0  0
 58 54  1  0  0  0
 21 17  1  0  0  0
 66 61  1  0  0  0
  2 28  1  0  0  0
 42 45  1  0  0  0
  6 29  1  0  0  0
 51 52  1  0  0  0
 10 30  1  0  0  0
 58 59  1  0  0  0
 14 31  1  0  0  0
 25 32  1  0  0  0
M  END
> <minimizedAffinity>
-5.65603

> <CNNscore>
0.2033845186

> <CNNaffinity>
6.6498184204

> <CNN_VS>
1.3524701595

> <CNNaffinity_variance>
0.8112066388

$$$$
[H]Oc1c([H])c([H])c(C([H])([H])[C@@]2([H])C(=O)N([H])[C@@]([H])([C@@]([H])(C([H])([H])[H])C([H])([H])C([H])([H])[H])C(=O)N([H])[C@@]([H])(C([H])([H])c3c([H])c([H])c([H])c([H])c3[H])C(=O)N3C([H])([H])C([H])([H])C([H])([H])[C@@]3([H])C(=O)N([H])[C@@]([H])(C([H])([H])c3c([H])nc([H])n3[H])C(=O)N([H])[C@@]([H])(C([H])([H])c3c([H])nc([H])n3[H])C(=O)N2[H])c([H])c1[H]


 66 71  0  0  0  0  0  0  0  0999 V2000
    1.5137   20.4099  -19.3318 C   0  0  0  0  0  0  0  0  0  0  0  0
    0.8896   21.6587  -18.8375 N   0  0  0  0  0  0  0  0  0  0  0  0
   -0.0584   22.4226  -19.5082 C   0  0  0  0  0  0  0  0  0  0  0  0
   -0.0847   23.6779  -19.2432 O   0  0  0  0  0  0  0  0  0  0  0  0
   -1.0504   21.9082  -20.5134 C   0  0  0  0  0  0  0  0  0  0  0  0
   -1.9990   20.9896  -20.0012 N   0  0  0  0  0  0  0  0  0  0  0  0
   -3.0901   21.0624  -19.1492 C   0  0  0  0  0  0  0  0  0  0  0  0
   -4.1285   20.3685  -19.5485 O   0  0  0  0  0  0  0  0  0  0  0  0
   -3.3661   21.7412  -17.8845 C   0  0  0  0  0  0  0  0  0  0  0  0
   -2.2799   22.0495  -17.0240 N   0  0  0  0  0  0  0  0  0  0  0  0
   -1.6285   21.2263  -16.0850 C   0  0  0  0  0  0  0  0  0  0  0  0
   -0.5113   21.6024  -15.5745 O   0  0  0  0  0  0  0  0  0  0  0  0
   -2.1108   19.9002  -15.5877 C   0  0  0  0  0  0  0  0  0  0  0  0
   -0.9369   19.0780  -15.3540 N   0  0  0  0  0  0  0  0  0  0  0  0
   -0.8392   17.6981  -15.6262 C   0  0  0  0  0  0  0  0  0  0  0  0
    0.0440   17.0625  -14.9898 O   0  0  0  0  0  0  0  0  0  0  0  0
   -1.6600   17.0021  -16.5512 C   0  0  0  0  0  0  0  0  0  0  0  0
   -1.8131   15.4946  -16.1681 C   0  0  0  0  0  0  0  0  0  0  0  0
   -2.7447   15.0867  -17.2966 C   0  0  0  0  0  0  0  0  0  0  0  0
   -2.6558   16.1727  -18.3335 C   0  0  0  0  0  0  0  0  0  0  0  0
   -1.3617   16.8375  -17.9329 N   0  0  0  0  0  0  0  0  0  0  0  0
   -0.2972   17.1511  -18.7604 C   0  0  0  0  0  0  0  0  0  0  0  0
   -0.6838   17.4147  -19.9931 O   0  0  0  0  0  0  0  0  0  0  0  0
    1.1475   17.2576  -18.5948 C   0  0  0  0  0  0  0  0  0  0  0  0
    1.6960   18.3117  -17.8157 N   0  0  0  0  0  0  0  0  0  0  0  0
    1.9263   19.6501  -18.1387 C   0  0  0  0  0  0  0  0  0  0  0  0
    2.5947   20.3597  -17.2920 O   0  0  0  0  0  0  0  0  0  0  0  0
    1.1932   22.0117  -17.8797 H   0  0  0  0  0  0  0  0  0  0  0  0
   -1.8216   19.9761  -20.3805 H   0  0  0  0  0  0  0  0  0  0  0  0
   -1.8989   23.0391  -17.0839 H   0  0  0  0  0  0  0  0  0  0  0  0
   -0.1195   19.6291  -14.9391 H   0  0  0  0  0  0  0  0  0  0  0  0
    1.9939   18.0211  -16.8299 H   0  0  0  0  0  0  0  0  0  0  0  0
    2.7001   20.7878  -20.1739 C   0  0  0  0  0  0  0  0  0  0  0  0
    2.4301   20.7216  -21.6713 C   0  0  0  0  0  0  0  0  0  0  0  0
    4.9099   21.8614  -19.5463 C   0  0  0  0  0  0  0  0  0  0  0  0
    3.4506   21.9997  -19.7788 C   0  0  0  0  0  0  0  0  0  0  0  0
   -1.5454   23.0605  -21.3265 C   0  0  0  0  0  0  0  0  0  0  0  0
   -1.6152   22.8404  -22.7758 C   0  0  0  0  0  0  0  0  0  0  0  0
   -2.6997   23.2045  -23.5082 C   0  0  0  0  0  0  0  0  0  0  0  0
   -2.8015   23.0017  -24.8747 C   0  0  0  0  0  0  0  0  0  0  0  0
   -1.7410   22.3984  -25.5157 C   0  0  0  0  0  0  0  0  0  0  0  0
   -1.8160   22.1845  -26.8755 O   0  0  0  0  0  0  0  0  0  0  0  0
   -0.6061   22.0065  -24.8132 C   0  0  0  0  0  0  0  0  0  0  0  0
   -0.5637   22.2347  -23.4540 C   0  0  0  0  0  0  0  0  0  0  0  0
   -2.6234   22.4550  -27.4169 H   0  0  0  0  0  0  0  0  0  0  0  0
   -4.2188   22.9923  -18.0691 C   0  0  0  0  0  0  0  0  0  0  0  0
   -5.6222   22.7665  -17.6030 C   0  0  0  0  0  0  0  0  0  0  0  0
   -6.2940   23.4918  -16.6332 C   0  0  0  0  0  0  0  0  0  0  0  0
   -7.5218   22.9852  -16.4936 N   0  0  0  0  0  0  0  0  0  0  0  0
   -7.6755   21.9574  -17.3351 C   0  0  0  0  0  0  0  0  0  0  0  0
   -6.5035   21.8408  -18.0034 N   0  0  0  0  0  0  0  0  0  0  0  0
   -6.3623   21.1011  -18.7263 H   0  0  0  0  0  0  0  0  0  0  0  0
   -2.8666   20.0828  -14.2696 C   0  0  0  0  0  0  0  0  0  0  0  0
   -1.9617   20.0640  -13.0991 C   0  0  0  0  0  0  0  0  0  0  0  0
   -1.7547   19.0355  -12.2130 C   0  0  0  0  0  0  0  0  0  0  0  0
   -0.8424   19.4531  -11.3002 N   0  0  0  0  0  0  0  0  0  0  0  0
   -0.4730   20.6973  -11.5801 C   0  0  0  0  0  0  0  0  0  0  0  0
   -1.1479   21.0775  -12.6720 N   0  0  0  0  0  0  0  0  0  0  0  0
   -1.0939   21.9975  -13.1604 H   0  0  0  0  0  0  0  0  0  0  0  0
    1.8398   15.9327  -18.2274 C   0  0  0  0  0  0  0  0  0  0  0  0
    3.0097   15.6705  -19.0656 C   0  0  0  0  0  0  0  0  0  0  0  0
    3.0520   15.9576  -20.4052 C   0  0  0  0  0  0  0  0  0  0  0  0
    4.2146   15.6865  -21.1356 C   0  0  0  0  0  0  0  0  0  0  0  0
    5.3188   15.1321  -20.5183 C   0  0  0  0  0  0  0  0  0  0  0  0
    5.2858   14.8437  -19.1893 C   0  0  0  0  0  0  0  0  0  0  0  0
    4.1288   15.1188  -18.4867 C   0  0  0  0  0  0  0  0  0  0  0  0
 35 36  1  0  0  0
 36 33  1  0  0  0
 33 34  1  0  0  0
 33  1  1  0  0  0
  1  2  1  0  0  0
  2  3  1  0  0  0
  3  4  2  0  0  0
  3  5  1  0  0  0
  5 37  1  0  0  0
 37 38  1  0  0  0
 38 39  2  0  0  0
 39 40  1  0  0  0
 40 41  2  0  0  0
 41 42  1  0  0  0
 41 43  1  0  0  0
 43 44  2  0  0  0
  5  6  1  0  0  0
  6  7  1  0  0  0
  7  8  2  0  0  0
  7  9  1  0  0  0
  9 46  1  0  0  0
 46 47  1  0  0  0
 47 48  2  0  0  0
 48 49  1  0  0  0
 49 50  2  0  0  0
 50 51  1  0  0  0
  9 10  1  0  0  0
 10 11  1  0  0  0
 11 12  2  0  0  0
 11 13  1  0  0  0
 13 53  1  0  0  0
 53 54  1  0  0  0
 54 55  2  0  0  0
 55 56  1  0  0  0
 56 57  2  0  0  0
 57 58  1  0  0  0
 13 14  1  0  0  0
 14 15  1  0  0  0
 15 16  2  0  0  0
 15 17  1  0  0  0
 17 18  1  0  0  0
 18 19  1  0  0  0
 19 20  1  0  0  0
 20 21  1  0  0  0
 21 22  1  0  0  0
 22 23  2  0  0  0
 22 24  1  0  0  0
 24 60  1  0  0  0
 60 61  1  0  0  0
 61 62  2  0  0  0
 62 63  1  0  0  0
 63 64  2  0  0  0
 64 65  1  0  0  0
 65 66  2  0  0  0
 24 25  1  0  0  0
 25 26  1  0  0  0
 26 27  2  0  0  0
 26  1  1  0  0  0
 44 38  1  0  0  0
 51 47  1  0  0  0
 58 54  1  0  0  0
 21 17  1  0  0  0
 66 61  1  0  0  0
  2 28  1  0  0  0
 42 45  1  0  0  0
  6 29  1  0  0  0
 51 52  1  0  0  0
 10 30  1  0  0  0
 58 59  1  0  0  0
 14 31  1  0  0  0
 25 32  1  0  0  0
M  END
> <minimizedAffinity>
-6.50508

> <CNNscore>
0.1952721775

> <CNNaffinity>
6.9208908081

> <CNN_VS>
1.3514574766

> <CNNaffinity_variance>
1.1558258533

$$$$
[H]Oc1c([H])c([H])c(C([H])([H])[C@@]2([H])C(=O)N([H])[C@@]([H])([C@@]([H])(C([H])([H])[H])C([H])([H])C([H])([H])[H])C(=O)N([H])[C@@]([H])(C([H])([H])c3c([H])c([H])c([H])c([H])c3[H])C(=O)N3C([H])([H])C([H])([H])C([H])([H])[C@@]3([H])C(=O)N([H])[C@@]([H])(C([H])([H])c3c([H])nc([H])n3[H])C(=O)N([H])[C@@]([H])(C([H])([H])c3c([H])nc([H])n3[H])C(=O)N2[H])c([H])c1[H]


 66 71  0  0  0  0  0  0  0  0999 V2000
    1.1648   20.7865  -18.9519 C   0  0  0  0  0  0  0  0  0  0  0  0
    0.4117   21.9979  -18.5533 N   0  0  0  0  0  0  0  0  0  0  0  0
   -0.4806   22.7071  -19.3487 C   0  0  0  0  0  0  0  0  0  0  0  0
   -0.6120   23.9589  -19.0986 O   0  0  0  0  0  0  0  0  0  0  0  0
   -1.3006   22.1377  -20.4723 C   0  0  0  0  0  0  0  0  0  0  0  0
   -2.2556   21.1668  -20.0832 N   0  0  0  0  0  0  0  0  0  0  0  0
   -3.4521   21.1777  -19.3830 C   0  0  0  0  0  0  0  0  0  0  0  0
   -4.3880   20.4262  -19.9108 O   0  0  0  0  0  0  0  0  0  0  0  0
   -3.9304   21.8394  -18.1708 C   0  0  0  0  0  0  0  0  0  0  0  0
   -2.9865   22.2085  -17.1767 N   0  0  0  0  0  0  0  0  0  0  0  0
   -2.4197   21.4232  -16.1541 C   0  0  0  0  0  0  0  0  0  0  0  0
   -1.4026   21.8618  -15.5033 O   0  0  0  0  0  0  0  0  0  0  0  0
   -2.8884   20.0719  -15.7152 C   0  0  0  0  0  0  0  0  0  0  0  0
   -1.7114   19.3173  -15.3227 N   0  0  0  0  0  0  0  0  0  0  0  0
   -1.5014   17.9452  -15.5696 C   0  0  0  0  0  0  0  0  0  0  0  0
   -0.6757   17.3604  -14.8177 O   0  0  0  0  0  0  0  0  0  0  0  0
   -2.1524   17.2041  -16.5898 C   0  0  0  0  0  0  0  0  0  0  0  0
   -2.2700   15.6902  -16.2192 C   0  0  0  0  0  0  0  0  0  0  0  0
   -3.0200   15.2306  -17.4578 C   0  0  0  0  0  0  0  0  0  0  0  0
   -2.8559   16.3202  -18.4818 C   0  0  0  0  0  0  0  0  0  0  0  0
   -1.6655   17.0569  -17.9188 N   0  0  0  0  0  0  0  0  0  0  0  0
   -0.5202   17.4304  -18.6008 C   0  0  0  0  0  0  0  0  0  0  0  0
   -0.7547   17.6720  -19.8756 O   0  0  0  0  0  0  0  0  0  0  0  0
    0.8817   17.6184  -18.2469 C   0  0  0  0  0  0  0  0  0  0  0  0
    1.2625   18.7017  -17.4099 N   0  0  0  0  0  0  0  0  0  0  0  0
    1.4580   20.0510  -17.7093 C   0  0  0  0  0  0  0  0  0  0  0  0
    1.9678   20.7971  -16.7870 O   0  0  0  0  0  0  0  0  0  0  0  0
    0.5659   22.3673  -17.5665 H   0  0  0  0  0  0  0  0  0  0  0  0
   -1.9731   20.1651  -20.4284 H   0  0  0  0  0  0  0  0  0  0  0  0
   -2.6569   23.2180  -17.1931 H   0  0  0  0  0  0  0  0  0  0  0  0
   -0.9882   19.9136  -14.8075 H   0  0  0  0  0  0  0  0  0  0  0  0
    1.4433   18.4281  -16.3913 H   0  0  0  0  0  0  0  0  0  0  0  0
    2.4290   21.2311  -19.6328 C   0  0  0  0  0  0  0  0  0  0  0  0
    2.3887   21.0842  -21.1481 C   0  0  0  0  0  0  0  0  0  0  0  0
    4.4372   22.5164  -18.7698 C   0  0  0  0  0  0  0  0  0  0  0  0
    3.0154   22.5169  -19.1960 C   0  0  0  0  0  0  0  0  0  0  0  0
   -1.7477   23.2604  -21.3520 C   0  0  0  0  0  0  0  0  0  0  0  0
   -1.8008   22.9678  -22.7891 C   0  0  0  0  0  0  0  0  0  0  0  0
   -2.8363   23.3734  -23.5689 C   0  0  0  0  0  0  0  0  0  0  0  0
   -2.9219   23.1050  -24.9252 C   0  0  0  0  0  0  0  0  0  0  0  0
   -1.8971   22.3883  -25.5044 C   0  0  0  0  0  0  0  0  0  0  0  0
   -1.9570   22.1070  -26.8526 O   0  0  0  0  0  0  0  0  0  0  0  0
   -0.8129   21.9493  -24.7516 C   0  0  0  0  0  0  0  0  0  0  0  0
   -0.7843   22.2472  -23.4056 C   0  0  0  0  0  0  0  0  0  0  0  0
   -2.7281   22.4087  -27.4293 H   0  0  0  0  0  0  0  0  0  0  0  0
   -4.8200   23.0404  -18.4754 C   0  0  0  0  0  0  0  0  0  0  0  0
   -6.0891   22.6197  -19.1464 C   0  0  0  0  0  0  0  0  0  0  0  0
   -7.2016   22.0694  -18.5319 C   0  0  0  0  0  0  0  0  0  0  0  0
   -8.1267   21.8228  -19.4631 N   0  0  0  0  0  0  0  0  0  0  0  0
   -7.6594   22.1910  -20.6606 C   0  0  0  0  0  0  0  0  0  0  0  0
   -6.4133   22.6753  -20.4447 N   0  0  0  0  0  0  0  0  0  0  0  0
   -5.8253   23.0303  -21.2308 H   0  0  0  0  0  0  0  0  0  0  0  0
   -3.8208   20.2111  -14.5097 C   0  0  0  0  0  0  0  0  0  0  0  0
   -5.2468   20.2201  -14.9041 C   0  0  0  0  0  0  0  0  0  0  0  0
   -6.1526   21.2421  -14.7594 C   0  0  0  0  0  0  0  0  0  0  0  0
   -7.3398   20.8164  -15.2587 N   0  0  0  0  0  0  0  0  0  0  0  0
   -7.2118   19.5734  -15.7075 C   0  0  0  0  0  0  0  0  0  0  0  0
   -5.9430   19.2021  -15.4965 N   0  0  0  0  0  0  0  0  0  0  0  0
   -5.5049   18.2854  -15.7321 H   0  0  0  0  0  0  0  0  0  0  0  0
    1.5926   16.3347  -17.7818 C   0  0  0  0  0  0  0  0  0  0  0  0
    2.6763   15.9461  -18.6843 C   0  0  0  0  0  0  0  0  0  0  0  0
    2.6730   16.2289  -20.0255 C   0  0  0  0  0  0  0  0  0  0  0  0
    3.7546   15.8321  -20.8200 C   0  0  0  0  0  0  0  0  0  0  0  0
    4.8245   15.1582  -20.2643 C   0  0  0  0  0  0  0  0  0  0  0  0
    4.8363   14.8732  -18.9342 C   0  0  0  0  0  0  0  0  0  0  0  0
    3.7591   15.2733  -18.1678 C   0  0  0  0  0  0  0  0  0  0  0  0
 35 36  1  0  0  0
 36 33  1  0  0  0
 33 34  1  0  0  0
 33  1  1  0  0  0
  1  2  1  0  0  0
  2  3  1  0  0  0
  3  4  2  0  0  0
  3  5  1  0  0  0
  5 37  1  0  0  0
 37 38  1  0  0  0
 38 39  2  0  0  0
 39 40  1  0  0  0
 40 41  2  0  0  0
 41 42  1  0  0  0
 41 43  1  0  0  0
 43 44  2  0  0  0
  5  6  1  0  0  0
  6  7  1  0  0  0
  7  8  2  0  0  0
  7  9  1  0  0  0
  9 46  1  0  0  0
 46 47  1  0  0  0
 47 48  2  0  0  0
 48 49  1  0  0  0
 49 50  2  0  0  0
 50 51  1  0  0  0
  9 10  1  0  0  0
 10 11  1  0  0  0
 11 12  2  0  0  0
 11 13  1  0  0  0
 13 53  1  0  0  0
 53 54  1  0  0  0
 54 55  2  0  0  0
 55 56  1  0  0  0
 56 57  2  0  0  0
 57 58  1  0  0  0
 13 14  1  0  0  0
 14 15  1  0  0  0
 15 16  2  0  0  0
 15 17  1  0  0  0
 17 18  1  0  0  0
 18 19  1  0  0  0
 19 20  1  0  0  0
 20 21  1  0  0  0
 21 22  1  0  0  0
 22 23  2  0  0  0
 22 24  1  0  0  0
 24 60  1  0  0  0
 60 61  1  0  0  0
 61 62  2  0  0  0
 62 63  1  0  0  0
 63 64  2  0  0  0
 64 65  1  0  0  0
 65 66  2  0  0  0
 24 25  1  0  0  0
 25 26  1  0  0  0
 26 27  2  0  0  0
 26  1  1  0  0  0
 44 38  1  0  0  0
 51 47  1  0  0  0
 58 54  1  0  0  0
 21 17  1  0  0  0
 66 61  1  0  0  0
  2 28  1  0  0  0
 42 45  1  0  0  0
  6 29  1  0  0  0
 51 52  1  0  0  0
 10 30  1  0  0  0
 58 59  1  0  0  0
 14 31  1  0  0  0
 25 32  1  0  0  0
M  END
> <minimizedAffinity>
-6.48655

> <CNNscore>
0.1897358149

> <CNNaffinity>
6.7107591629

> <CNN_VS>
1.2732713223

> <CNNaffinity_variance>
1.0558683872

$$$$
[H]Oc1c([H])c([H])c(C([H])([H])[C@@]2([H])C(=O)N([H])[C@@]([H])([C@@]([H])(C([H])([H])[H])C([H])([H])C([H])([H])[H])C(=O)N([H])[C@@]([H])(C([H])([H])c3c([H])c([H])c([H])c([H])c3[H])C(=O)N3C([H])([H])C([H])([H])C([H])([H])[C@@]3([H])C(=O)N([H])[C@@]([H])(C([H])([H])c3c([H])nc([H])n3[H])C(=O)N([H])[C@@]([H])(C([H])([H])c3c([H])nc([H])n3[H])C(=O)N2[H])c([H])c1[H]


 66 71  0  0  0  0  0  0  0  0999 V2000
   -2.8699   22.0265  -19.0340 C   0  0  0  0  0  0  0  0  0  0  0  0
   -2.9704   23.0863  -20.0636 N   0  0  0  0  0  0  0  0  0  0  0  0
   -3.0010   22.8922  -21.4396 C   0  0  0  0  0  0  0  0  0  0  0  0
   -2.5457   23.8442  -22.1698 O   0  0  0  0  0  0  0  0  0  0  0  0
   -3.5179   21.6689  -22.1433 C   0  0  0  0  0  0  0  0  0  0  0  0
   -4.9015   21.4199  -21.9714 N   0  0  0  0  0  0  0  0  0  0  0  0
   -6.0772   22.0124  -22.4056 C   0  0  0  0  0  0  0  0  0  0  0  0
   -6.9963   21.1598  -22.7897 O   0  0  0  0  0  0  0  0  0  0  0  0
   -6.5483   23.3894  -22.5399 C   0  0  0  0  0  0  0  0  0  0  0  0
   -5.9921   24.3866  -21.6964 N   0  0  0  0  0  0  0  0  0  0  0  0
   -6.3358   24.7241  -20.3729 C   0  0  0  0  0  0  0  0  0  0  0  0
   -5.5611   25.4863  -19.6879 O   0  0  0  0  0  0  0  0  0  0  0  0
   -7.5589   24.2772  -19.6363 C   0  0  0  0  0  0  0  0  0  0  0  0
   -7.1842   24.1154  -18.2428 N   0  0  0  0  0  0  0  0  0  0  0  0
   -7.6422   23.0923  -17.3876 C   0  0  0  0  0  0  0  0  0  0  0  0
   -7.5828   23.3274  -16.1505 O   0  0  0  0  0  0  0  0  0  0  0  0
   -8.1553   21.8455  -17.8303 C   0  0  0  0  0  0  0  0  0  0  0  0
   -9.1663   21.2391  -16.8040 C   0  0  0  0  0  0  0  0  0  0  0  0
   -9.5300   19.9878  -17.5849 C   0  0  0  0  0  0  0  0  0  0  0  0
   -8.4634   19.8159  -18.6315 C   0  0  0  0  0  0  0  0  0  0  0  0
   -7.3681   20.6826  -18.0603 N   0  0  0  0  0  0  0  0  0  0  0  0
   -6.0395   20.3355  -17.8849 C   0  0  0  0  0  0  0  0  0  0  0  0
   -5.6282   19.4638  -18.7847 O   0  0  0  0  0  0  0  0  0  0  0  0
   -4.9885   20.7019  -16.9431 C   0  0  0  0  0  0  0  0  0  0  0  0
   -4.4398   22.0124  -16.9678 N   0  0  0  0  0  0  0  0  0  0  0  0
   -3.4799   22.5757  -17.8103 C   0  0  0  0  0  0  0  0  0  0  0  0
   -3.0375   23.7501  -17.5066 O   0  0  0  0  0  0  0  0  0  0  0  0
   -3.0216   24.0946  -19.7247 H   0  0  0  0  0  0  0  0  0  0  0  0
   -5.0756   20.5381  -21.3431 H   0  0  0  0  0  0  0  0  0  0  0  0
   -5.2084   24.9705  -22.1122 H   0  0  0  0  0  0  0  0  0  0  0  0
   -6.5052   24.8695  -17.9048 H   0  0  0  0  0  0  0  0  0  0  0  0
   -4.8152   22.6609  -16.2038 H   0  0  0  0  0  0  0  0  0  0  0  0
   -1.4130   21.7204  -18.8261 C   0  0  0  0  0  0  0  0  0  0  0  0
   -1.0307   20.2946  -19.2008 C   0  0  0  0  0  0  0  0  0  0  0  0
    1.0056   22.4090  -19.1509 C   0  0  0  0  0  0  0  0  0  0  0  0
   -0.4368   22.7219  -19.3075 C   0  0  0  0  0  0  0  0  0  0  0  0
   -2.9592   21.6452  -23.5295 C   0  0  0  0  0  0  0  0  0  0  0  0
   -1.4958   21.6018  -23.6312 C   0  0  0  0  0  0  0  0  0  0  0  0
   -0.7159   21.1593  -22.6109 C   0  0  0  0  0  0  0  0  0  0  0  0
    0.6674   21.1152  -22.6707 C   0  0  0  0  0  0  0  0  0  0  0  0
    1.2746   21.5448  -23.8310 C   0  0  0  0  0  0  0  0  0  0  0  0
    2.6500   21.5118  -23.9174 O   0  0  0  0  0  0  0  0  0  0  0  0
    0.5227   22.0071  -24.9062 C   0  0  0  0  0  0  0  0  0  0  0  0
   -0.8508   22.0274  -24.7867 C   0  0  0  0  0  0  0  0  0  0  0  0
    3.2270   21.1835  -23.1574 H   0  0  0  0  0  0  0  0  0  0  0  0
   -6.5020   23.8827  -23.9825 C   0  0  0  0  0  0  0  0  0  0  0  0
   -5.6027   25.0700  -24.1217 C   0  0  0  0  0  0  0  0  0  0  0  0
   -5.9829   26.3528  -24.4793 C   0  0  0  0  0  0  0  0  0  0  0  0
   -4.8974   27.1306  -24.5008 N   0  0  0  0  0  0  0  0  0  0  0  0
   -3.8246   26.4035  -24.1711 C   0  0  0  0  0  0  0  0  0  0  0  0
   -4.2776   25.1478  -23.9434 N   0  0  0  0  0  0  0  0  0  0  0  0
   -3.6280   24.3780  -23.6693 H   0  0  0  0  0  0  0  0  0  0  0  0
   -8.6493   25.3458  -19.7424 C   0  0  0  0  0  0  0  0  0  0  0  0
   -9.3568   25.2954  -21.0409 C   0  0  0  0  0  0  0  0  0  0  0  0
  -10.5453   24.6696  -21.3268 C   0  0  0  0  0  0  0  0  0  0  0  0
  -10.8202   24.8829  -22.6379 N   0  0  0  0  0  0  0  0  0  0  0  0
   -9.8538   25.6142  -23.1801 C   0  0  0  0  0  0  0  0  0  0  0  0
   -8.9595   25.8701  -22.2172 N   0  0  0  0  0  0  0  0  0  0  0  0
   -8.0780   26.4208  -22.3031 H   0  0  0  0  0  0  0  0  0  0  0  0
   -5.2747   20.2916  -15.4874 C   0  0  0  0  0  0  0  0  0  0  0  0
   -4.5371   21.1128  -14.5274 C   0  0  0  0  0  0  0  0  0  0  0  0
   -3.1921   20.9762  -14.3011 C   0  0  0  0  0  0  0  0  0  0  0  0
   -2.5574   21.8095  -13.3731 C   0  0  0  0  0  0  0  0  0  0  0  0
   -3.2746   22.7675  -12.6834 C   0  0  0  0  0  0  0  0  0  0  0  0
   -4.6098   22.9101  -12.9014 C   0  0  0  0  0  0  0  0  0  0  0  0
   -5.2170   22.0777  -13.8213 C   0  0  0  0  0  0  0  0  0  0  0  0
 35 36  1  0  0  0
 36 33  1  0  0  0
 33 34  1  0  0  0
 33  1  1  0  0  0
  1  2  1  0  0  0
  2  3  1  0  0  0
  3  4  2  0  0  0
  3  5  1  0  0  0
  5 37  1  0  0  0
 37 38  1  0  0  0
 38 39  2  0  0  0
 39 40  1  0  0  0
 40 41  2  0  0  0
 41 42  1  0  0  0
 41 43  1  0  0  0
 43 44  2  0  0  0
  5  6  1  0  0  0
  6  7  1  0  0  0
  7  8  2  0  0  0
  7  9  1  0  0  0
  9 46  1  0  0  0
 46 47  1  0  0  0
 47 48  2  0  0  0
 48 49  1  0  0  0
 49 50  2  0  0  0
 50 51  1  0  0  0
  9 10  1  0  0  0
 10 11  1  0  0  0
 11 12  2  0  0  0
 11 13  1  0  0  0
 13 53  1  0  0  0
 53 54  1  0  0  0
 54 55  2  0  0  0
 55 56  1  0  0  0
 56 57  2  0  0  0
 57 58  1  0  0  0
 13 14  1  0  0  0
 14 15  1  0  0  0
 15 16  2  0  0  0
 15 17  1  0  0  0
 17 18  1  0  0  0
 18 19  1  0  0  0
 19 20  1  0  0  0
 20 21  1  0  0  0
 21 22  1  0  0  0
 22 23  2  0  0  0
 22 24  1  0  0  0
 24 60  1  0  0  0
 60 61  1  0  0  0
 61 62  2  0  0  0
 62 63  1  0  0  0
 63 64  2  0  0  0
 64 65  1  0  0  0
 65 66  2  0  0  0
 24 25  1  0  0  0
 25 26  1  0  0  0
 26 27  2  0  0  0
 26  1  1  0  0  0
 44 38  1  0  0  0
 51 47  1  0  0  0
 58 54  1  0  0  0
 21 17  1  0  0  0
 66 61  1  0  0  0
  2 28  1  0  0  0
 42 45  1  0  0  0
  6 29  1  0  0  0
 51 52  1  0  0  0
 10 30  1  0  0  0
 58 59  1  0  0  0
 14 31  1  0  0  0
 25 32  1  0  0  0
M  END
> <minimizedAffinity>
-7.60159

> <CNNscore>
0.1843594760

> <CNNaffinity>
6.8418450356

> <CNN_VS>
1.2613589764

> <CNNaffinity_variance>
1.4912568331

$$$$
[H]c1nc(N([H])c2c([H])c([H])c(Cl)c(OC([H])([H])[H])c2[H])nc(N([H])c2c([H])c([H])c([H])c([H])c2S(=O)(=O)C([H])(C([H])([H])[H])C([H])([H])[H])c1Cl


 32 34  0  0  0  0  0  0  0  0999 V2000
    0.0777   22.3123  -26.2251 C   0  0  0  0  0  0  0  0  0  0  0  0
    0.4691   22.7966  -27.4466 N   0  0  0  0  0  0  0  0  0  0  0  0
   -0.3806   23.1780  -28.3822 C   0  0  0  0  0  0  0  0  0  0  0  0
   -1.7332   23.0999  -28.1555 C   0  0  0  0  0  0  0  0  0  0  0  0
   -2.9057   23.5921  -29.3476 Cl  0  0  0  0  0  0  0  0  0  0  0  0
   -2.1923   22.6083  -26.9145 C   0  0  0  0  0  0  0  0  0  0  0  0
   -1.2318   22.2478  -26.0336 N   0  0  0  0  0  0  0  0  0  0  0  0
    1.1081   21.9257  -25.3400 N   0  0  0  0  0  0  0  0  0  0  0  0
    2.1188   21.8862  -25.7557 H   0  0  0  0  0  0  0  0  0  0  0  0
   -0.3503   21.3222  -22.0002 C   0  0  0  0  0  0  0  0  0  0  0  0
   -0.1815   21.6653  -23.3181 C   0  0  0  0  0  0  0  0  0  0  0  0
    1.0331   21.5821  -23.9851 C   0  0  0  0  0  0  0  0  0  0  0  0
    2.1118   21.1352  -23.2902 C   0  0  0  0  0  0  0  0  0  0  0  0
    1.9976   20.7700  -21.9398 C   0  0  0  0  0  0  0  0  0  0  0  0
    0.7675   20.8640  -21.2970 C   0  0  0  0  0  0  0  0  0  0  0  0
    0.5872   20.4194  -19.6242 Cl  0  0  0  0  0  0  0  0  0  0  0  0
   -2.1313   22.5628  -20.8066 C   0  0  0  0  0  0  0  0  0  0  0  0
   -1.5450   21.3958  -21.3118 O   0  0  0  0  0  0  0  0  0  0  0  0
   -3.5718   22.5662  -26.7121 N   0  0  0  0  0  0  0  0  0  0  0  0
   -4.1617   22.7288  -27.5873 H   0  0  0  0  0  0  0  0  0  0  0  0
   -4.2975   22.3369  -25.5450 C   0  0  0  0  0  0  0  0  0  0  0  0
   -3.8813   21.5033  -24.5164 C   0  0  0  0  0  0  0  0  0  0  0  0
   -4.6622   21.3002  -23.3834 C   0  0  0  0  0  0  0  0  0  0  0  0
   -5.8858   21.9343  -23.2632 C   0  0  0  0  0  0  0  0  0  0  0  0
   -6.3305   22.7686  -24.2674 C   0  0  0  0  0  0  0  0  0  0  0  0
   -5.5437   22.9669  -25.3965 C   0  0  0  0  0  0  0  0  0  0  0  0
   -6.1285   23.9974  -26.6598 S   0  0  0  0  0  0  0  0  0  0  0  0
   -7.4917   24.5954  -26.3498 O   0  0  0  0  0  0  0  0  0  0  0  0
   -6.2116   23.3600  -27.9984 O   0  0  0  0  0  0  0  0  0  0  0  0
   -5.0561   25.4301  -26.8668 C   0  0  0  0  0  0  0  0  0  0  0  0
   -5.1771   26.0674  -28.1978 C   0  0  0  0  0  0  0  0  0  0  0  0
   -5.5150   26.4729  -25.8249 C   0  0  0  0  0  0  0  0  0  0  0  0
 17 18  1  0  0  0
 18 10  1  0  0  0
 10 11  2  0  0  0
 11 12  1  0  0  0
 12  8  1  0  0  0
  8  1  1  0  0  0
  1  2  2  0  0  0
  2  3  1  0  0  0
  3  4  2  0  0  0
  4  5  1  0  0  0
  4  6  1  0  0  0
  6 19  1  0  0  0
 19 21  1  0  0  0
 21 22  2  0  0  0
 22 23  1  0  0  0
 23 24  2  0  0  0
 24 25  1  0  0  0
 25 26  2  0  0  0
 26 27  1  0  0  0
 27 28  2  0  0  0
 27 29  2  0  0  0
 27 30  1  0  0  0
 30 31  1  0  0  0
 30 32  1  0  0  0
  6  7  2  0  0  0
 12 13  2  0  0  0
 13 14  1  0  0  0
 14 15  2  0  0  0
 15 16  1  0  0  0
 15 10  1  0  0  0
  7  1  1  0  0  0
 26 21  1  0  0  0
  8  9  1  0  0  0
 19 20  1  0  0  0
M  END
> <minimizedAffinity>
-8.23892

> <CNNscore>
0.9626489282

> <CNNaffinity>
7.8965520859

> <CNN_VS>
7.6016073227

> <CNNaffinity_variance>
0.0635493994

$$$$
[H]c1nc(N([H])c2c([H])c([H])c(Cl)c(OC([H])([H])[H])c2[H])nc(N([H])c2c([H])c([H])c([H])c([H])c2S(=O)(=O)C([H])(C([H])([H])[H])C([H])([H])[H])c1Cl


 32 34  0  0  0  0  0  0  0  0999 V2000
    0.0899   22.2651  -26.0910 C   0  0  0  0  0  0  0  0  0  0  0  0
    0.3651   22.5362  -27.4065 N   0  0  0  0  0  0  0  0  0  0  0  0
   -0.5537   22.9075  -28.2785 C   0  0  0  0  0  0  0  0  0  0  0  0
   -1.8627   23.0398  -27.8836 C   0  0  0  0  0  0  0  0  0  0  0  0
   -3.1212   23.5311  -28.9849 Cl  0  0  0  0  0  0  0  0  0  0  0  0
   -2.2028   22.7729  -26.5397 C   0  0  0  0  0  0  0  0  0  0  0  0
   -1.1799   22.4005  -25.7376 N   0  0  0  0  0  0  0  0  0  0  0  0
    1.1790   21.8582  -25.2893 N   0  0  0  0  0  0  0  0  0  0  0  0
    2.1458   21.7639  -25.7915 H   0  0  0  0  0  0  0  0  0  0  0  0
    0.0160   21.4543  -21.8065 C   0  0  0  0  0  0  0  0  0  0  0  0
    0.0797   21.7508  -23.1448 C   0  0  0  0  0  0  0  0  0  0  0  0
    1.2121   21.5545  -23.9232 C   0  0  0  0  0  0  0  0  0  0  0  0
    2.3165   21.0394  -23.3221 C   0  0  0  0  0  0  0  0  0  0  0  0
    2.3086   20.7174  -21.9560 C   0  0  0  0  0  0  0  0  0  0  0  0
    1.1591   20.9251  -21.2005 C   0  0  0  0  0  0  0  0  0  0  0  0
    1.1115   20.5369  -19.5048 Cl  0  0  0  0  0  0  0  0  0  0  0  0
   -1.4565   22.8315  -20.3675 C   0  0  0  0  0  0  0  0  0  0  0  0
   -1.0953   21.6401  -21.0084 O   0  0  0  0  0  0  0  0  0  0  0  0
   -3.5374   22.9411  -26.1705 N   0  0  0  0  0  0  0  0  0  0  0  0
   -4.1542   22.0793  -26.3017 H   0  0  0  0  0  0  0  0  0  0  0  0
   -4.1869   24.0584  -25.6497 C   0  0  0  0  0  0  0  0  0  0  0  0
   -4.1789   25.3139  -26.2412 C   0  0  0  0  0  0  0  0  0  0  0  0
   -4.8316   26.3961  -25.6601 C   0  0  0  0  0  0  0  0  0  0  0  0
   -5.5076   26.2357  -24.4638 C   0  0  0  0  0  0  0  0  0  0  0  0
   -5.5345   25.0017  -23.8482 C   0  0  0  0  0  0  0  0  0  0  0  0
   -4.8802   23.9249  -24.4359 C   0  0  0  0  0  0  0  0  0  0  0  0
   -4.9021   22.3884  -23.6367 S   0  0  0  0  0  0  0  0  0  0  0  0
   -3.5155   21.9158  -23.2289 O   0  0  0  0  0  0  0  0  0  0  0  0
   -5.5418   21.2919  -24.4072 O   0  0  0  0  0  0  0  0  0  0  0  0
   -5.8083   22.4866  -22.0829 C   0  0  0  0  0  0  0  0  0  0  0  0
   -7.1124   21.7863  -22.1178 C   0  0  0  0  0  0  0  0  0  0  0  0
   -4.9407   21.7703  -21.0256 C   0  0  0  0  0  0  0  0  0  0  0  0
 17 18  1  0  0  0
 18 10  1  0  0  0
 10 11  2  0  0  0
 11 12  1  0  0  0
 12  8  1  0  0  0
  8  1  1  0  0  0
  1  2  2  0  0  0
  2  3  1  0  0  0
  3  4  2  0  0  0
  4  5  1  0  0  0
  4  6  1  0  0  0
  6 19  1  0  0  0
 19 21  1  0  0  0
 21 22  2  0  0  0
 22 23  1  0  0  0
 23 24  2  0  0  0
 24 25  1  0  0  0
 25 26  2  0  0  0
 26 27  1  0  0  0
 27 28  2  0  0  0
 27 29  2  0  0  0
 27 30  1  0  0  0
 30 31  1  0  0  0
 30 32  1  0  0  0
  6  7  2  0  0  0
 12 13  2  0  0  0
 13 14  1  0  0  0
 14 15  2  0  0  0
 15 16  1  0  0  0
 15 10  1  0  0  0
  7  1  1  0  0  0
 26 21  1  0  0  0
  8  9  1  0  0  0
 19 20  1  0  0  0
M  END
> <minimizedAffinity>
-7.74350

> <CNNscore>
0.9207251668

> <CNNaffinity>
7.5926017761

> <CNN_VS>
6.9906997681

> <CNNaffinity_variance>
0.0306479093

$$$$
[H]c1nc(N([H])c2c([H])c([H])c(Cl)c(OC([H])([H])[H])c2[H])nc(N([H])c2c([H])c([H])c([H])c([H])c2S(=O)(=O)C([H])(C([H])([H])[H])C([H])([H])[H])c1Cl


 32 34  0  0  0  0  0  0  0  0999 V2000
   -1.9368   22.7186  -26.4335 C   0  0  0  0  0  0  0  0  0  0  0  0
   -1.8431   22.8005  -27.7988 N   0  0  0  0  0  0  0  0  0  0  0  0
   -2.8910   22.9259  -28.5919 C   0  0  0  0  0  0  0  0  0  0  0  0
   -4.1551   22.9806  -28.0572 C   0  0  0  0  0  0  0  0  0  0  0  0
   -5.5779   23.1504  -29.0497 Cl  0  0  0  0  0  0  0  0  0  0  0  0
   -4.3102   22.9005  -26.6564 C   0  0  0  0  0  0  0  0  0  0  0  0
   -3.1672   22.7739  -25.9451 N   0  0  0  0  0  0  0  0  0  0  0  0
   -0.7243   22.5650  -25.7259 N   0  0  0  0  0  0  0  0  0  0  0  0
    0.1776   22.9422  -26.2160 H   0  0  0  0  0  0  0  0  0  0  0  0
    1.1192   21.2582  -22.8036 C   0  0  0  0  0  0  0  0  0  0  0  0
    0.8048   21.7839  -24.0316 C   0  0  0  0  0  0  0  0  0  0  0  0
   -0.4959   21.9962  -24.4674 C   0  0  0  0  0  0  0  0  0  0  0  0
   -1.5110   21.6639  -23.6275 C   0  0  0  0  0  0  0  0  0  0  0  0
   -1.2484   21.1225  -22.3594 C   0  0  0  0  0  0  0  0  0  0  0  0
    0.0655   20.9206  -21.9494 C   0  0  0  0  0  0  0  0  0  0  0  0
    0.4298   20.2527  -20.3843 Cl  0  0  0  0  0  0  0  0  0  0  0  0
    3.2240   19.9569  -22.6950 C   0  0  0  0  0  0  0  0  0  0  0  0
    2.4024   21.0353  -22.3450 O   0  0  0  0  0  0  0  0  0  0  0  0
   -5.6068   22.9837  -26.1491 N   0  0  0  0  0  0  0  0  0  0  0  0
   -6.3686   23.1424  -26.8805 H   0  0  0  0  0  0  0  0  0  0  0  0
   -6.0610   22.8835  -24.8356 C   0  0  0  0  0  0  0  0  0  0  0  0
   -6.2421   21.6847  -24.1601 C   0  0  0  0  0  0  0  0  0  0  0  0
   -6.7182   21.6506  -22.8536 C   0  0  0  0  0  0  0  0  0  0  0  0
   -7.0254   22.8293  -22.1978 C   0  0  0  0  0  0  0  0  0  0  0  0
   -6.8585   24.0383  -22.8402 C   0  0  0  0  0  0  0  0  0  0  0  0
   -6.3814   24.0640  -24.1458 C   0  0  0  0  0  0  0  0  0  0  0  0
   -6.2021   25.5892  -24.9469 S   0  0  0  0  0  0  0  0  0  0  0  0
   -6.8375   26.7372  -24.1787 O   0  0  0  0  0  0  0  0  0  0  0  0
   -6.7280   25.6320  -26.3349 O   0  0  0  0  0  0  0  0  0  0  0  0
   -4.4646   26.0492  -25.0686 C   0  0  0  0  0  0  0  0  0  0  0  0
   -4.2516   27.5068  -25.2178 C   0  0  0  0  0  0  0  0  0  0  0  0
   -3.8083   25.6324  -23.7347 C   0  0  0  0  0  0  0  0  0  0  0  0
 17 18  1  0  0  0
 18 10  1  0  0  0
 10 11  2  0  0  0
 11 12  1  0  0  0
 12  8  1  0  0  0
  8  1  1  0  0  0
  1  2  2  0  0  0
  2  3  1  0  0  0
  3  4  2  0  0  0
  4  5  1  0  0  0
  4  6  1  0  0  0
  6 19  1  0  0  0
 19 21  1  0  0  0
 21 22  2  0  0  0
 22 23  1  0  0  0
 23 24  2  0  0  0
 24 25  1  0  0  0
 25 26  2  0  0  0
 26 27  1  0  0  0
 27 28  2  0  0  0
 27 29  2  0  0  0
 27 30  1  0  0  0
 30 31  1  0  0  0
 30 32  1  0  0  0
  6  7  2  0  0  0
 12 13  2  0  0  0
 13 14  1  0  0  0
 14 15  2  0  0  0
 15 16  1  0  0  0
 15 10  1  0  0  0
  7  1  1  0  0  0
 26 21  1  0  0  0
  8  9  1  0  0  0
 19 20  1  0  0  0
M  END
> <minimizedAffinity>
-8.44966

> <CNNscore>
0.5878453255

> <CNNaffinity>
7.3466444016

> <CNN_VS>
4.3186907768

> <CNNaffinity_variance>
0.1235048622

$$$$
[H]c1nc(N([H])c2c([H])c([H])c(Cl)c(OC([H])([H])[H])c2[H])nc(N([H])c2c([H])c([H])c([H])c([H])c2S(=O)(=O)C([H])(C([H])([H])[H])C([H])([H])[H])c1Cl


 32 34  0  0  0  0  0  0  0  0999 V2000
   -1.7962   22.5235  -26.0169 C   0  0  0  0  0  0  0  0  0  0  0  0
   -1.5727   22.7094  -27.3568 N   0  0  0  0  0  0  0  0  0  0  0  0
   -2.5372   22.9391  -28.2283 C   0  0  0  0  0  0  0  0  0  0  0  0
   -3.8433   23.0020  -27.8075 C   0  0  0  0  0  0  0  0  0  0  0  0
   -5.1609   23.3067  -28.9072 Cl  0  0  0  0  0  0  0  0  0  0  0  0
   -4.1311   22.8175  -26.4379 C   0  0  0  0  0  0  0  0  0  0  0  0
   -3.0644   22.5891  -25.6389 N   0  0  0  0  0  0  0  0  0  0  0  0
   -0.6607   22.2658  -25.2176 N   0  0  0  0  0  0  0  0  0  0  0  0
    0.2897   22.1453  -25.7449 H   0  0  0  0  0  0  0  0  0  0  0  0
   -1.4800   22.6916  -21.6409 C   0  0  0  0  0  0  0  0  0  0  0  0
   -1.4853   22.7817  -23.0102 C   0  0  0  0  0  0  0  0  0  0  0  0
   -0.5628   22.1421  -23.8267 C   0  0  0  0  0  0  0  0  0  0  0  0
    0.3968   21.3856  -23.2324 C   0  0  0  0  0  0  0  0  0  0  0  0
    0.4503   21.2575  -21.8358 C   0  0  0  0  0  0  0  0  0  0  0  0
   -0.4875   21.9102  -21.0424 C   0  0  0  0  0  0  0  0  0  0  0  0
   -0.4533   21.7741  -19.3078 Cl  0  0  0  0  0  0  0  0  0  0  0  0
   -3.7342   22.9796  -20.6552 C   0  0  0  0  0  0  0  0  0  0  0  0
   -2.3835   23.3172  -20.8048 O   0  0  0  0  0  0  0  0  0  0  0  0
   -5.4661   22.9121  -26.0448 N   0  0  0  0  0  0  0  0  0  0  0  0
   -6.1623   23.0555  -26.8416 H   0  0  0  0  0  0  0  0  0  0  0  0
   -6.0308   22.8404  -24.7730 C   0  0  0  0  0  0  0  0  0  0  0  0
   -6.2563   21.6574  -24.0832 C   0  0  0  0  0  0  0  0  0  0  0  0
   -6.8430   21.6511  -22.8220 C   0  0  0  0  0  0  0  0  0  0  0  0
   -7.2185   22.8424  -22.2273 C   0  0  0  0  0  0  0  0  0  0  0  0
   -7.0099   24.0363  -22.8856 C   0  0  0  0  0  0  0  0  0  0  0  0
   -6.4223   24.0341  -24.1456 C   0  0  0  0  0  0  0  0  0  0  0  0
   -6.1912   25.5401  -24.9695 S   0  0  0  0  0  0  0  0  0  0  0  0
   -6.8578   26.7086  -24.2607 O   0  0  0  0  0  0  0  0  0  0  0  0
   -6.6440   25.5550  -26.3836 O   0  0  0  0  0  0  0  0  0  0  0  0
   -4.4466   25.9874  -25.0106 C   0  0  0  0  0  0  0  0  0  0  0  0
   -4.2161   27.4381  -25.1965 C   0  0  0  0  0  0  0  0  0  0  0  0
   -3.8673   25.6127  -23.6294 C   0  0  0  0  0  0  0  0  0  0  0  0
 17 18  1  0  0  0
 18 10  1  0  0  0
 10 11  2  0  0  0
 11 12  1  0  0  0
 12  8  1  0  0  0
  8  1  1  0  0  0
  1  2  2  0  0  0
  2  3  1  0  0  0
  3  4  2  0  0  0
  4  5  1  0  0  0
  4  6  1  0  0  0
  6 19  1  0  0  0
 19 21  1  0  0  0
 21 22  2  0  0  0
 22 23  1  0  0  0
 23 24  2  0  0  0
 24 25  1  0  0  0
 25 26  2  0  0  0
 26 27  1  0  0  0
 27 28  2  0  0  0
 27 29  2  0  0  0
 27 30  1  0  0  0
 30 31  1  0  0  0
 30 32  1  0  0  0
  6  7  2  0  0  0
 12 13  2  0  0  0
 13 14  1  0  0  0
 14 15  2  0  0  0
 15 16  1  0  0  0
 15 10  1  0  0  0
  7  1  1  0  0  0
 26 21  1  0  0  0
  8  9  1  0  0  0
 19 20  1  0  0  0
M  END
> <minimizedAffinity>
-8.21185

> <CNNscore>
0.4326117039

> <CNNaffinity>
7.1697602272

> <CNN_VS>
3.1017222404

> <CNNaffinity_variance>
0.1832782924

$$$$
[H]c1nc(N([H])c2c([H])c([H])c(Cl)c(OC([H])([H])[H])c2[H])nc(N([H])c2c([H])c([H])c([H])c([H])c2S(=O)(=O)C([H])(C([H])([H])[H])C([H])([H])[H])c1Cl


 32 34  0  0  0  0  0  0  0  0999 V2000
   -0.2650   21.8311  -24.1984 C   0  0  0  0  0  0  0  0  0  0  0  0
    0.6236   21.9787  -25.2320 N   0  0  0  0  0  0  0  0  0  0  0  0
    0.2617   22.3024  -26.4596 C   0  0  0  0  0  0  0  0  0  0  0  0
   -1.0641   22.5098  -26.7532 C   0  0  0  0  0  0  0  0  0  0  0  0
   -1.6055   22.9440  -28.3520 Cl  0  0  0  0  0  0  0  0  0  0  0  0
   -2.0227   22.3709  -25.7263 C   0  0  0  0  0  0  0  0  0  0  0  0
   -1.5363   22.0368  -24.5097 N   0  0  0  0  0  0  0  0  0  0  0  0
    0.2773   21.4604  -22.9482 N   0  0  0  0  0  0  0  0  0  0  0  0
    1.2876   21.0420  -22.9595 H   0  0  0  0  0  0  0  0  0  0  0  0
   -0.8165   20.4459  -19.5689 C   0  0  0  0  0  0  0  0  0  0  0  0
   -0.3068   20.4379  -20.8429 C   0  0  0  0  0  0  0  0  0  0  0  0
   -0.2897   21.5514  -21.6716 C   0  0  0  0  0  0  0  0  0  0  0  0
   -0.8073   22.7117  -21.1898 C   0  0  0  0  0  0  0  0  0  0  0  0
   -1.3421   22.7782  -19.8938 C   0  0  0  0  0  0  0  0  0  0  0  0
   -1.3460   21.6460  -19.0856 C   0  0  0  0  0  0  0  0  0  0  0  0
   -1.9993   21.6905  -17.4733 Cl  0  0  0  0  0  0  0  0  0  0  0  0
   -0.3747   18.0706  -19.0224 C   0  0  0  0  0  0  0  0  0  0  0  0
   -0.8476   19.3543  -18.7238 O   0  0  0  0  0  0  0  0  0  0  0  0
   -3.3561   22.6127  -26.0569 N   0  0  0  0  0  0  0  0  0  0  0  0
   -3.5221   22.9244  -27.0647 H   0  0  0  0  0  0  0  0  0  0  0  0
   -4.5049   22.5022  -25.2762 C   0  0  0  0  0  0  0  0  0  0  0  0
   -4.7709   21.4412  -24.4220 C   0  0  0  0  0  0  0  0  0  0  0  0
   -5.9476   21.3795  -23.6829 C   0  0  0  0  0  0  0  0  0  0  0  0
   -6.8867   22.3896  -23.7910 C   0  0  0  0  0  0  0  0  0  0  0  0
   -6.6548   23.4582  -24.6316 C   0  0  0  0  0  0  0  0  0  0  0  0
   -5.4758   23.5127  -25.3665 C   0  0  0  0  0  0  0  0  0  0  0  0
   -5.2120   24.8486  -26.4369 S   0  0  0  0  0  0  0  0  0  0  0  0
   -6.5052   25.5168  -26.8763 O   0  0  0  0  0  0  0  0  0  0  0  0
   -4.4352   24.5254  -27.6605 O   0  0  0  0  0  0  0  0  0  0  0  0
   -4.2968   26.1618  -25.6102 C   0  0  0  0  0  0  0  0  0  0  0  0
   -5.0270   27.4490  -25.5659 C   0  0  0  0  0  0  0  0  0  0  0  0
   -4.1016   25.7042  -24.1486 C   0  0  0  0  0  0  0  0  0  0  0  0
 17 18  1  0  0  0
 18 10  1  0  0  0
 10 11  2  0  0  0
 11 12  1  0  0  0
 12  8  1  0  0  0
  8  1  1  0  0  0
  1  2  2  0  0  0
  2  3  1  0  0  0
  3  4  2  0  0  0
  4  5  1  0  0  0
  4  6  1  0  0  0
  6 19  1  0  0  0
 19 21  1  0  0  0
 21 22  2  0  0  0
 22 23  1  0  0  0
 23 24  2  0  0  0
 24 25  1  0  0  0
 25 26  2  0  0  0
 26 27  1  0  0  0
 27 28  2  0  0  0
 27 29  2  0  0  0
 27 30  1  0  0  0
 30 31  1  0  0  0
 30 32  1  0  0  0
  6  7  2  0  0  0
 12 13  2  0  0  0
 13 14  1  0  0  0
 14 15  2  0  0  0
 15 16  1  0  0  0
 15 10  1  0  0  0
  7  1  1  0  0  0
 26 21  1  0  0  0
  8  9  1  0  0  0
 19 20  1  0  0  0
M  END
> <minimizedAffinity>
-7.18721

> <CNNscore>
0.3443009853

> <CNNaffinity>
7.1500473022

> <CNN_VS>
2.4617683887

> <CNNaffinity_variance>
0.0968394279

$$$$
[H]c1nc(N([H])c2c([H])c([H])c(Cl)c(OC([H])([H])[H])c2[H])nc(N([H])c2c([H])c([H])c([H])c([H])c2S(=O)(=O)C([H])(C([H])([H])[H])C([H])([H])[H])c1Cl


 32 34  0  0  0  0  0  0  0  0999 V2000
   -1.1382   21.6416  -23.6218 C   0  0  0  0  0  0  0  0  0  0  0  0
    0.0745   21.5684  -24.2573 N   0  0  0  0  0  0  0  0  0  0  0  0
    0.2709   21.9817  -25.4956 C   0  0  0  0  0  0  0  0  0  0  0  0
   -0.7695   22.5180  -26.2145 C   0  0  0  0  0  0  0  0  0  0  0  0
   -0.5737   23.0860  -27.8507 Cl  0  0  0  0  0  0  0  0  0  0  0  0
   -2.0408   22.6172  -25.6090 C   0  0  0  0  0  0  0  0  0  0  0  0
   -2.1235   22.1626  -24.3382 N   0  0  0  0  0  0  0  0  0  0  0  0
   -1.1912   21.1374  -22.3037 N   0  0  0  0  0  0  0  0  0  0  0  0
   -1.8588   20.2882  -22.1328 H   0  0  0  0  0  0  0  0  0  0  0  0
    1.5269   21.4700  -19.8245 C   0  0  0  0  0  0  0  0  0  0  0  0
    0.7727   21.0843  -20.9041 C   0  0  0  0  0  0  0  0  0  0  0  0
   -0.5044   21.5638  -21.1610 C   0  0  0  0  0  0  0  0  0  0  0  0
   -1.0326   22.4654  -20.2924 C   0  0  0  0  0  0  0  0  0  0  0  0
   -0.3064   22.8959  -19.1711 C   0  0  0  0  0  0  0  0  0  0  0  0
    0.9716   22.3979  -18.9388 C   0  0  0  0  0  0  0  0  0  0  0  0
    1.9022   22.9089  -17.5600 Cl  0  0  0  0  0  0  0  0  0  0  0  0
    3.9832   21.4514  -20.1440 C   0  0  0  0  0  0  0  0  0  0  0  0
    2.7980   21.0090  -19.5439 O   0  0  0  0  0  0  0  0  0  0  0  0
   -3.0666   23.1890  -26.3617 N   0  0  0  0  0  0  0  0  0  0  0  0
   -3.3269   22.6552  -27.2492 H   0  0  0  0  0  0  0  0  0  0  0  0
   -3.8087   24.3451  -26.1289 C   0  0  0  0  0  0  0  0  0  0  0  0
   -3.9658   24.9357  -24.8828 C   0  0  0  0  0  0  0  0  0  0  0  0
   -4.7372   26.0806  -24.7125 C   0  0  0  0  0  0  0  0  0  0  0  0
   -5.3714   26.6560  -25.7990 C   0  0  0  0  0  0  0  0  0  0  0  0
   -5.2375   26.0940  -27.0514 C   0  0  0  0  0  0  0  0  0  0  0  0
   -4.4641   24.9501  -27.2135 C   0  0  0  0  0  0  0  0  0  0  0  0
   -4.3274   24.2423  -28.7884 S   0  0  0  0  0  0  0  0  0  0  0  0
   -4.7998   22.7976  -28.8288 O   0  0  0  0  0  0  0  0  0  0  0  0
   -2.9650   24.2861  -29.3775 O   0  0  0  0  0  0  0  0  0  0  0  0
   -5.3962   25.0880  -29.9665 C   0  0  0  0  0  0  0  0  0  0  0  0
   -4.6959   26.1279  -30.7541 C   0  0  0  0  0  0  0  0  0  0  0  0
   -5.8792   24.0150  -30.9660 C   0  0  0  0  0  0  0  0  0  0  0  0
 17 18  1  0  0  0
 18 10  1  0  0  0
 10 11  2  0  0  0
 11 12  1  0  0  0
 12  8  1  0  0  0
  8  1  1  0  0  0
  1  2  2  0  0  0
  2  3  1  0  0  0
  3  4  2  0  0  0
  4  5  1  0  0  0
  4  6  1  0  0  0
  6 19  1  0  0  0
 19 21  1  0  0  0
 21 22  2  0  0  0
 22 23  1  0  0  0
 23 24  2  0  0  0
 24 25  1  0  0  0
 25 26  2  0  0  0
 26 27  1  0  0  0
 27 28  2  0  0  0
 27 29  2  0  0  0
 27 30  1  0  0  0
 30 31  1  0  0  0
 30 32  1  0  0  0
  6  7  2  0  0  0
 12 13  2  0  0  0
 13 14  1  0  0  0
 14 15  2  0  0  0
 15 16  1  0  0  0
 15 10  1  0  0  0
  7  1  1  0  0  0
 26 21  1  0  0  0
  8  9  1  0  0  0
 19 20  1  0  0  0
M  END
> <minimizedAffinity>
-8.04645

> <CNNscore>
0.2843651175

> <CNNaffinity>
6.7591910362

> <CNN_VS>
1.9220781326

> <CNNaffinity_variance>
0.2488308698

$$$$
[H]c1nc(N([H])c2c([H])c([H])c(Cl)c(OC([H])([H])[H])c2[H])nc(N([H])c2c([H])c([H])c([H])c([H])c2S(=O)(=O)C([H])(C([H])([H])[H])C([H])([H])[H])c1Cl


 32 34  0  0  0  0  0  0  0  0999 V2000
   -0.7326   21.5505  -23.9602 C   0  0  0  0  0  0  0  0  0  0  0  0
    0.4349   21.5984  -24.6775 N   0  0  0  0  0  0  0  0  0  0  0  0
    0.5080   22.0508  -25.9155 C   0  0  0  0  0  0  0  0  0  0  0  0
   -0.6230   22.5049  -26.5493 C   0  0  0  0  0  0  0  0  0  0  0  0
   -0.5919   23.1187  -28.1803 Cl  0  0  0  0  0  0  0  0  0  0  0  0
   -1.8531   22.4782  -25.8574 C   0  0  0  0  0  0  0  0  0  0  0  0
   -1.8072   21.9944  -24.5956 N   0  0  0  0  0  0  0  0  0  0  0  0
   -0.6495   21.0190  -22.6544 N   0  0  0  0  0  0  0  0  0  0  0  0
   -1.4783   20.3818  -22.3336 H   0  0  0  0  0  0  0  0  0  0  0  0
    0.9533   21.9182  -19.4500 C   0  0  0  0  0  0  0  0  0  0  0  0
    0.0409   21.7463  -20.4605 C   0  0  0  0  0  0  0  0  0  0  0  0
    0.3521   21.1830  -21.6904 C   0  0  0  0  0  0  0  0  0  0  0  0
    1.6328   20.7806  -21.9006 C   0  0  0  0  0  0  0  0  0  0  0  0
    2.6081   20.9318  -20.9026 C   0  0  0  0  0  0  0  0  0  0  0  0
    2.2672   21.5000  -19.6794 C   0  0  0  0  0  0  0  0  0  0  0  0
    3.4488   21.7026  -18.4180 Cl  0  0  0  0  0  0  0  0  0  0  0  0
   -0.0212   21.8529  -17.1736 C   0  0  0  0  0  0  0  0  0  0  0  0
    0.6722   22.4759  -18.2185 O   0  0  0  0  0  0  0  0  0  0  0  0
   -2.9750   22.9696  -26.5249 N   0  0  0  0  0  0  0  0  0  0  0  0
   -2.8120   23.2367  -27.5459 H   0  0  0  0  0  0  0  0  0  0  0  0
   -4.2771   23.1579  -26.0660 C   0  0  0  0  0  0  0  0  0  0  0  0
   -4.6632   23.0390  -24.7382 C   0  0  0  0  0  0  0  0  0  0  0  0
   -5.9853   23.2203  -24.3460 C   0  0  0  0  0  0  0  0  0  0  0  0
   -6.9514   23.5245  -25.2882 C   0  0  0  0  0  0  0  0  0  0  0  0
   -6.6025   23.6487  -26.6168 C   0  0  0  0  0  0  0  0  0  0  0  0
   -5.2786   23.4668  -27.0007 C   0  0  0  0  0  0  0  0  0  0  0  0
   -4.8619   23.6008  -28.6765 S   0  0  0  0  0  0  0  0  0  0  0  0
   -6.0756   23.5580  -29.5914 O   0  0  0  0  0  0  0  0  0  0  0  0
   -3.8959   22.5838  -29.1639 O   0  0  0  0  0  0  0  0  0  0  0  0
   -4.1054   25.1986  -29.0233 C   0  0  0  0  0  0  0  0  0  0  0  0
   -4.3813   25.6951  -30.3906 C   0  0  0  0  0  0  0  0  0  0  0  0
   -4.7425   26.2054  -28.0415 C   0  0  0  0  0  0  0  0  0  0  0  0
 17 18  1  0  0  0
 18 10  1  0  0  0
 10 11  2  0  0  0
 11 12  1  0  0  0
 12  8  1  0  0  0
  8  1  1  0  0  0
  1  2  2  0  0  0
  2  3  1  0  0  0
  3  4  2  0  0  0
  4  5  1  0  0  0
  4  6  1  0  0  0
  6 19  1  0  0  0
 19 21  1  0  0  0
 21 22  2  0  0  0
 22 23  1  0  0  0
 23 24  2  0  0  0
 24 25  1  0  0  0
 25 26  2  0  0  0
 26 27  1  0  0  0
 27 28  2  0  0  0
 27 29  2  0  0  0
 27 30  1  0  0  0
 30 31  1  0  0  0
 30 32  1  0  0  0
  6  7  2  0  0  0
 12 13  2  0  0  0
 13 14  1  0  0  0
 14 15  2  0  0  0
 15 16  1  0  0  0
 15 10  1  0  0  0
  7  1  1  0  0  0
 26 21  1  0  0  0
  8  9  1  0  0  0
 19 20  1  0  0  0
M  END
> <minimizedAffinity>
-7.59873

> <CNNscore>
0.2693294585

> <CNNaffinity>
6.9726867676

> <CNN_VS>
1.8779499531

> <CNNaffinity_variance>
0.0776314884

$$$$
[H]c1nc(N([H])c2c([H])c([H])c(Cl)c(OC([H])([H])[H])c2[H])nc(N([H])c2c([H])c([H])c([H])c([H])c2S(=O)(=O)C([H])(C([H])([H])[H])C([H])([H])[H])c1Cl


 32 34  0  0  0  0  0  0  0  0999 V2000
   -0.7282   21.7146  -24.2748 C   0  0  0  0  0  0  0  0  0  0  0  0
    0.4356   21.7057  -24.9995 N   0  0  0  0  0  0  0  0  0  0  0  0
    0.5231   22.1560  -26.2374 C   0  0  0  0  0  0  0  0  0  0  0  0
   -0.5879   22.6668  -26.8632 C   0  0  0  0  0  0  0  0  0  0  0  0
   -0.5367   23.2811  -28.4935 Cl  0  0  0  0  0  0  0  0  0  0  0  0
   -1.8134   22.7000  -26.1634 C   0  0  0  0  0  0  0  0  0  0  0  0
   -1.7835   22.2123  -24.9025 N   0  0  0  0  0  0  0  0  0  0  0  0
   -0.6633   21.1773  -22.9703 N   0  0  0  0  0  0  0  0  0  0  0  0
    0.0455   20.3593  -22.8145 H   0  0  0  0  0  0  0  0  0  0  0  0
   -3.1901   22.8434  -20.8526 C   0  0  0  0  0  0  0  0  0  0  0  0
   -2.4203   22.4530  -21.9194 C   0  0  0  0  0  0  0  0  0  0  0  0
   -1.3784   21.5408  -21.8231 C   0  0  0  0  0  0  0  0  0  0  0  0
   -1.1100   21.0072  -20.6027 C   0  0  0  0  0  0  0  0  0  0  0  0
   -1.8649   21.3700  -19.4764 C   0  0  0  0  0  0  0  0  0  0  0  0
   -2.9033   22.2870  -19.6028 C   0  0  0  0  0  0  0  0  0  0  0  0
   -3.8615   22.7600  -18.2293 Cl  0  0  0  0  0  0  0  0  0  0  0  0
   -5.4703   23.5317  -21.5330 C   0  0  0  0  0  0  0  0  0  0  0  0
   -4.2307   23.7487  -20.9189 O   0  0  0  0  0  0  0  0  0  0  0  0
   -2.9138   23.2476  -26.8229 N   0  0  0  0  0  0  0  0  0  0  0  0
   -3.1514   22.7925  -27.7593 H   0  0  0  0  0  0  0  0  0  0  0  0
   -3.7547   24.2919  -26.4436 C   0  0  0  0  0  0  0  0  0  0  0  0
   -3.9519   24.7000  -25.1319 C   0  0  0  0  0  0  0  0  0  0  0  0
   -4.8216   25.7385  -24.8160 C   0  0  0  0  0  0  0  0  0  0  0  0
   -5.5160   26.3895  -25.8200 C   0  0  0  0  0  0  0  0  0  0  0  0
   -5.3446   26.0084  -27.1344 C   0  0  0  0  0  0  0  0  0  0  0  0
   -4.4729   24.9699  -27.4419 C   0  0  0  0  0  0  0  0  0  0  0  0
   -4.2888   24.4867  -29.0950 S   0  0  0  0  0  0  0  0  0  0  0  0
   -4.3600   22.9792  -29.2803 O   0  0  0  0  0  0  0  0  0  0  0  0
   -3.0437   24.9615  -29.7502 O   0  0  0  0  0  0  0  0  0  0  0  0
   -5.6422   25.1185  -30.1023 C   0  0  0  0  0  0  0  0  0  0  0  0
   -5.2877   26.3367  -30.8655 C   0  0  0  0  0  0  0  0  0  0  0  0
   -5.9675   24.0184  -31.1356 C   0  0  0  0  0  0  0  0  0  0  0  0
 17 18  1  0  0  0
 18 10  1  0  0  0
 10 11  2  0  0  0
 11 12  1  0  0  0
 12  8  1  0  0  0
  8  1  1  0  0  0
  1  2  2  0  0  0
  2  3  1  0  0  0
  3  4  2  0  0  0
  4  5  1  0  0  0
  4  6  1  0  0  0
  6 19  1  0  0  0
 19 21  1  0  0  0
 21 22  2  0  0  0
 22 23  1  0  0  0
 23 24  2  0  0  0
 24 25  1  0  0  0
 25 26  2  0  0  0
 26 27  1  0  0  0
 27 28  2  0  0  0
 27 29  2  0  0  0
 27 30  1  0  0  0
 30 31  1  0  0  0
 30 32  1  0  0  0
  6  7  2  0  0  0
 12 13  2  0  0  0
 13 14  1  0  0  0
 14 15  2  0  0  0
 15 16  1  0  0  0
 15 10  1  0  0  0
  7  1  1  0  0  0
 26 21  1  0  0  0
  8  9  1  0  0  0
 19 20  1  0  0  0
M  END
> <minimizedAffinity>
-8.11969

> <CNNscore>
0.2306168973

> <CNNaffinity>
6.9145674706

> <CNN_VS>
1.5946160555

> <CNNaffinity_variance>
0.3744483888

$$$$
[H]c1nc(N([H])c2c([H])c([H])c(Cl)c(OC([H])([H])[H])c2[H])nc(N([H])c2c([H])c([H])c([H])c([H])c2S(=O)(=O)C([H])(C([H])([H])[H])C([H])([H])[H])c1Cl


 32 34  0  0  0  0  0  0  0  0999 V2000
   -2.0133   21.9679  -24.9534 C   0  0  0  0  0  0  0  0  0  0  0  0
   -0.9439   21.8119  -25.7971 N   0  0  0  0  0  0  0  0  0  0  0  0
    0.2985   21.6674  -25.3749 C   0  0  0  0  0  0  0  0  0  0  0  0
    0.5715   21.6683  -24.0286 C   0  0  0  0  0  0  0  0  0  0  0  0
    2.1889   21.4769  -23.4078 Cl  0  0  0  0  0  0  0  0  0  0  0  0
   -0.4924   21.8257  -23.1143 C   0  0  0  0  0  0  0  0  0  0  0  0
   -1.7212   21.9652  -23.6610 N   0  0  0  0  0  0  0  0  0  0  0  0
   -3.2776   22.1326  -25.5609 N   0  0  0  0  0  0  0  0  0  0  0  0
   -4.0708   21.4580  -25.2268 H   0  0  0  0  0  0  0  0  0  0  0  0
   -4.4418   25.2964  -27.0711 C   0  0  0  0  0  0  0  0  0  0  0  0
   -4.0609   24.3301  -26.1742 C   0  0  0  0  0  0  0  0  0  0  0  0
   -3.6797   23.0469  -26.5416 C   0  0  0  0  0  0  0  0  0  0  0  0
   -3.6852   22.7351  -27.8641 C   0  0  0  0  0  0  0  0  0  0  0  0
   -4.0655   23.6839  -28.8260 C   0  0  0  0  0  0  0  0  0  0  0  0
   -4.4431   24.9624  -28.4285 C   0  0  0  0  0  0  0  0  0  0  0  0
   -4.9197   26.1653  -29.5922 Cl  0  0  0  0  0  0  0  0  0  0  0  0
   -5.3111   26.9903  -25.4866 C   0  0  0  0  0  0  0  0  0  0  0  0
   -4.8265   26.5790  -26.7343 O   0  0  0  0  0  0  0  0  0  0  0  0
   -0.1794   21.7976  -21.7553 N   0  0  0  0  0  0  0  0  0  0  0  0
    0.2708   22.6890  -21.3771 H   0  0  0  0  0  0  0  0  0  0  0  0
   -0.3712   20.7878  -20.8145 C   0  0  0  0  0  0  0  0  0  0  0  0
    0.1868   19.5202  -20.9031 C   0  0  0  0  0  0  0  0  0  0  0  0
   -0.0594   18.5480  -19.9393 C   0  0  0  0  0  0  0  0  0  0  0  0
   -0.8787   18.8333  -18.8617 C   0  0  0  0  0  0  0  0  0  0  0  0
   -1.4506   20.0828  -18.7434 C   0  0  0  0  0  0  0  0  0  0  0  0
   -1.1989   21.0493  -19.7106 C   0  0  0  0  0  0  0  0  0  0  0  0
   -1.9457   22.6049  -19.5606 S   0  0  0  0  0  0  0  0  0  0  0  0
   -1.1539   23.7078  -20.2454 O   0  0  0  0  0  0  0  0  0  0  0  0
   -2.2083   23.0404  -18.1655 O   0  0  0  0  0  0  0  0  0  0  0  0
   -3.5448   22.6312  -20.3897 C   0  0  0  0  0  0  0  0  0  0  0  0
   -3.8850   21.3510  -21.0512 C   0  0  0  0  0  0  0  0  0  0  0  0
   -4.6028   22.8649  -19.2899 C   0  0  0  0  0  0  0  0  0  0  0  0
 17 18  1  0  0  0
 18 10  1  0  0  0
 10 11  2  0  0  0
 11 12  1  0  0  0
 12  8  1  0  0  0
  8  1  1  0  0  0
  1  2  2  0  0  0
  2  3  1  0  0  0
  3  4  2  0  0  0
  4  5  1  0  0  0
  4  6  1  0  0  0
  6 19  1  0  0  0
 19 21  1  0  0  0
 21 22  2  0  0  0
 22 23  1  0  0  0
 23 24  2  0  0  0
 24 25  1  0  0  0
 25 26  2  0  0  0
 26 27  1  0  0  0
 27 28  2  0  0  0
 27 29  2  0  0  0
 27 30  1  0  0  0
 30 31  1  0  0  0
 30 32  1  0  0  0
  6  7  2  0  0  0
 12 13  2  0  0  0
 13 14  1  0  0  0
 14 15  2  0  0  0
 15 16  1  0  0  0
 15 10  1  0  0  0
  7  1  1  0  0  0
 26 21  1  0  0  0
  8  9  1  0  0  0
 19 20  1  0  0  0
M  END
> <minimizedAffinity>
-6.91971

> <CNNscore>
0.2208731174

> <CNNaffinity>
6.9819016457

> <CNN_VS>
1.5421143770

> <CNNaffinity_variance>
0.2877000868

$$$$
[H]C1=C(C(=O)[O-])N2C(=O)/C(=C(\[H])c3sc4c(c3[H])C(=O)OC4([H])[H])[C@@]2([H])S1


 21 24  0  0  0  0  0  0  0  0999 V2000
   -3.4627   23.1940  -27.0263 C   0  0  0  0  0  0  0  0  0  0  0  0
   -4.1072   22.7479  -25.9787 C   0  0  0  0  0  0  0  0  0  0  0  0
   -2.9413   21.8250  -24.9950 S   0  0  0  0  0  0  0  0  0  0  0  0
   -1.6921   21.7491  -26.2728 C   0  0  0  0  0  0  0  0  0  0  0  0
   -2.1082   22.8747  -27.1052 N   0  0  0  0  0  0  0  0  0  0  0  0
   -0.7593   22.9526  -27.5066 C   0  0  0  0  0  0  0  0  0  0  0  0
   -0.0439   23.2789  -28.4837 O   0  0  0  0  0  0  0  0  0  0  0  0
   -0.4336   22.4259  -26.1490 C   0  0  0  0  0  0  0  0  0  0  0  0
    0.5860   22.6045  -25.3639 C   0  0  0  0  0  0  0  0  0  0  0  0
    0.6331   21.9374  -24.0614 C   0  0  0  0  0  0  0  0  0  0  0  0
    1.6483   21.1454  -23.5566 C   0  0  0  0  0  0  0  0  0  0  0  0
    1.5001   20.6627  -22.3130 C   0  0  0  0  0  0  0  0  0  0  0  0
    2.2597   19.8061  -21.3610 C   0  0  0  0  0  0  0  0  0  0  0  0
    3.3924   19.2613  -21.5494 O   0  0  0  0  0  0  0  0  0  0  0  0
    1.5399   19.6790  -20.2002 O   0  0  0  0  0  0  0  0  0  0  0  0
    0.3389   20.3705  -20.2669 C   0  0  0  0  0  0  0  0  0  0  0  0
    0.3611   20.9888  -21.6390 C   0  0  0  0  0  0  0  0  0  0  0  0
   -0.4767   21.9611  -22.7590 S   0  0  0  0  0  0  0  0  0  0  0  0
   -3.6626   24.2978  -29.2519 O   0  0  0  0  0  0  0  0  0  0  0  0
   -4.1937   23.9934  -28.0094 C   0  0  0  0  0  0  0  0  0  0  0  0
   -5.3306   24.4227  -27.7432 O   0  0  0  0  0  0  0  0  0  0  0  0
 19 20  1  0  0  0
 20 21  2  0  0  0
 20  1  1  0  0  0
  1  2  2  0  0  0
  2  3  1  0  0  0
  3  4  1  0  0  0
  4  5  1  0  0  0
  5  6  1  0  0  0
  6  7  2  0  0  0
  6  8  1  0  0  0
  8  9  2  0  0  0
  9 10  1  0  0  0
 10 11  2  0  0  0
 11 12  1  0  0  0
 12 13  1  0  0  0
 13 14  2  0  0  0
 13 15  1  0  0  0
 15 16  1  0  0  0
 16 17  1  0  0  0
 17 18  1  0  0  0
  5  1  1  0  0  0
 18 10  1  0  0  0
  8  4  1  0  0  0
 17 12  2  0  0  0
M  CHG 1  19  -1
M  END
> <minimizedAffinity>
-6.40177

> <CNNscore>
0.5430475473

> <CNNaffinity>
5.6077203751

> <CNN_VS>
3.0452587605

> <CNNaffinity_variance>
0.1508878767

$$$$
[H]C1=C(C(=O)[O-])N2C(=O)/C(=C(\[H])c3sc4c(c3[H])C(=O)OC4([H])[H])[C@@]2([H])S1


 21 24  0  0  0  0  0  0  0  0999 V2000
   -3.5388   23.1688  -27.7401 C   0  0  0  0  0  0  0  0  0  0  0  0
   -4.4156   22.9578  -26.7922 C   0  0  0  0  0  0  0  0  0  0  0  0
   -3.5471   22.2098  -25.4266 S   0  0  0  0  0  0  0  0  0  0  0  0
   -2.0707   21.8449  -26.3680 C   0  0  0  0  0  0  0  0  0  0  0  0
   -2.2239   22.7976  -27.4643 N   0  0  0  0  0  0  0  0  0  0  0  0
   -0.8192   22.7524  -27.5724 C   0  0  0  0  0  0  0  0  0  0  0  0
    0.1036   22.8577  -28.4153 O   0  0  0  0  0  0  0  0  0  0  0  0
   -0.8188   22.4927  -26.1030 C   0  0  0  0  0  0  0  0  0  0  0  0
    0.0277   22.7898  -25.1634 C   0  0  0  0  0  0  0  0  0  0  0  0
   -0.2426   22.3905  -23.7810 C   0  0  0  0  0  0  0  0  0  0  0  0
   -1.2091   22.8970  -22.9312 C   0  0  0  0  0  0  0  0  0  0  0  0
   -1.3085   22.3528  -21.7083 C   0  0  0  0  0  0  0  0  0  0  0  0
   -2.1362   22.5289  -20.4831 C   0  0  0  0  0  0  0  0  0  0  0  0
   -3.0768   23.3640  -20.3017 O   0  0  0  0  0  0  0  0  0  0  0  0
   -1.7283   21.6268  -19.5335 O   0  0  0  0  0  0  0  0  0  0  0  0
   -0.6810   20.8413  -19.9931 C   0  0  0  0  0  0  0  0  0  0  0  0
   -0.4508   21.3411  -21.3940 C   0  0  0  0  0  0  0  0  0  0  0  0
    0.4753   21.1747  -22.8140 S   0  0  0  0  0  0  0  0  0  0  0  0
   -3.5403   25.0236  -29.4048 O   0  0  0  0  0  0  0  0  0  0  0  0
   -3.9918   23.7821  -28.9884 C   0  0  0  0  0  0  0  0  0  0  0  0
   -4.8073   23.1872  -29.7157 O   0  0  0  0  0  0  0  0  0  0  0  0
 19 20  1  0  0  0
 20 21  2  0  0  0
 20  1  1  0  0  0
  1  2  2  0  0  0
  2  3  1  0  0  0
  3  4  1  0  0  0
  4  5  1  0  0  0
  5  6  1  0  0  0
  6  7  2  0  0  0
  6  8  1  0  0  0
  8  9  2  0  0  0
  9 10  1  0  0  0
 10 11  2  0  0  0
 11 12  1  0  0  0
 12 13  1  0  0  0
 13 14  2  0  0  0
 13 15  1  0  0  0
 15 16  1  0  0  0
 16 17  1  0  0  0
 17 18  1  0  0  0
  5  1  1  0  0  0
 18 10  1  0  0  0
  8  4  1  0  0  0
 17 12  2  0  0  0
M  CHG 1  19  -1
M  END
> <minimizedAffinity>
-6.76688

> <CNNscore>
0.5176191926

> <CNNaffinity>
5.6541261673

> <CNN_VS>
2.9266841412

> <CNNaffinity_variance>
0.1273482293

$$$$
[H]C1=C(C(=O)[O-])N2C(=O)/C(=C(\[H])c3sc4c(c3[H])C(=O)OC4([H])[H])[C@@]2([H])S1


 21 24  0  0  0  0  0  0  0  0999 V2000
   -7.8486   24.7677  -22.3061 C   0  0  0  0  0  0  0  0  0  0  0  0
   -6.9857   25.6586  -22.7228 C   0  0  0  0  0  0  0  0  0  0  0  0
   -5.4431   24.8092  -23.0018 S   0  0  0  0  0  0  0  0  0  0  0  0
   -5.9350   23.3173  -22.1467 C   0  0  0  0  0  0  0  0  0  0  0  0
   -7.3877   23.4562  -22.2042 N   0  0  0  0  0  0  0  0  0  0  0  0
   -7.4295   22.0498  -22.1183 C   0  0  0  0  0  0  0  0  0  0  0  0
   -8.1438   21.1144  -21.6852 O   0  0  0  0  0  0  0  0  0  0  0  0
   -6.1198   22.0716  -22.8331 C   0  0  0  0  0  0  0  0  0  0  0  0
   -5.5629   21.2407  -23.6621 C   0  0  0  0  0  0  0  0  0  0  0  0
   -4.2368   21.5313  -24.2103 C   0  0  0  0  0  0  0  0  0  0  0  0
   -3.9254   21.9237  -25.4994 C   0  0  0  0  0  0  0  0  0  0  0  0
   -2.6372   22.1779  -25.7777 C   0  0  0  0  0  0  0  0  0  0  0  0
   -1.8217   22.6054  -26.9479 C   0  0  0  0  0  0  0  0  0  0  0  0
   -2.2343   22.8638  -28.1218 O   0  0  0  0  0  0  0  0  0  0  0  0
   -0.5053   22.6871  -26.5708 O   0  0  0  0  0  0  0  0  0  0  0  0
   -0.3351   22.3457  -25.2367 C   0  0  0  0  0  0  0  0  0  0  0  0
   -1.7311   22.0316  -24.7699 C   0  0  0  0  0  0  0  0  0  0  0  0
   -2.6999   21.5411  -23.4575 S   0  0  0  0  0  0  0  0  0  0  0  0
  -10.1148   25.5453  -22.9923 O   0  0  0  0  0  0  0  0  0  0  0  0
   -9.2112   25.2031  -22.0000 C   0  0  0  0  0  0  0  0  0  0  0  0
   -9.5926   25.2743  -20.8179 O   0  0  0  0  0  0  0  0  0  0  0  0
 19 20  1  0  0  0
 20 21  2  0  0  0
 20  1  1  0  0  0
  1  2  2  0  0  0
  2  3  1  0  0  0
  3  4  1  0  0  0
  4  5  1  0  0  0
  5  6  1  0  0  0
  6  7  2  0  0  0
  6  8  1  0  0  0
  8  9  2  0  0  0
  9 10  1  0  0  0
 10 11  2  0  0  0
 11 12  1  0  0  0
 12 13  1  0  0  0
 13 14  2  0  0  0
 13 15  1  0  0  0
 15 16  1  0  0  0
 16 17  1  0  0  0
 17 18  1  0  0  0
  5  1  1  0  0  0
 18 10  1  0  0  0
  8  4  1  0  0  0
 17 12  2  0  0  0
M  CHG 1  19  -1
M  END
> <minimizedAffinity>
-6.83728

> <CNNscore>
0.4497214556

> <CNNaffinity>
5.2196359634

> <CNN_VS>
2.3473823071

> <CNNaffinity_variance>
0.3867370188

$$$$
[H]C1=C(C(=O)[O-])N2C(=O)/C(=C(\[H])c3sc4c(c3[H])C(=O)OC4([H])[H])[C@@]2([H])S1


 21 24  0  0  0  0  0  0  0  0999 V2000
   -3.1991   23.2745  -22.5211 C   0  0  0  0  0  0  0  0  0  0  0  0
   -2.5146   22.7061  -23.4804 C   0  0  0  0  0  0  0  0  0  0  0  0
   -3.5195   22.7645  -24.9520 S   0  0  0  0  0  0  0  0  0  0  0  0
   -5.0211   23.2165  -24.0918 C   0  0  0  0  0  0  0  0  0  0  0  0
   -4.4565   23.7690  -22.8635 N   0  0  0  0  0  0  0  0  0  0  0  0
   -5.6373   24.5341  -22.7785 C   0  0  0  0  0  0  0  0  0  0  0  0
   -6.4096   25.0559  -21.9394 O   0  0  0  0  0  0  0  0  0  0  0  0
   -5.6457   24.4953  -24.2701 C   0  0  0  0  0  0  0  0  0  0  0  0
   -6.0759   25.3345  -25.1637 C   0  0  0  0  0  0  0  0  0  0  0  0
   -5.9518   25.0161  -26.5873 C   0  0  0  0  0  0  0  0  0  0  0  0
   -5.8286   25.9029  -27.6415 C   0  0  0  0  0  0  0  0  0  0  0  0
   -5.6866   25.3885  -28.8730 C   0  0  0  0  0  0  0  0  0  0  0  0
   -5.5270   25.8851  -30.2677 C   0  0  0  0  0  0  0  0  0  0  0  0
   -5.4827   27.0948  -30.6549 O   0  0  0  0  0  0  0  0  0  0  0  0
   -5.4291   24.8122  -31.1169 O   0  0  0  0  0  0  0  0  0  0  0  0
   -5.5138   23.6094  -30.4304 C   0  0  0  0  0  0  0  0  0  0  0  0
   -5.6735   24.0309  -28.9944 C   0  0  0  0  0  0  0  0  0  0  0  0
   -5.8612   23.5048  -27.3851 S   0  0  0  0  0  0  0  0  0  0  0  0
   -1.2927   23.7816  -20.9980 O   0  0  0  0  0  0  0  0  0  0  0  0
   -2.5985   23.3618  -21.1901 C   0  0  0  0  0  0  0  0  0  0  0  0
   -3.2637   23.0557  -20.1843 O   0  0  0  0  0  0  0  0  0  0  0  0
 19 20  1  0  0  0
 20 21  2  0  0  0
 20  1  1  0  0  0
  1  2  2  0  0  0
  2  3  1  0  0  0
  3  4  1  0  0  0
  4  5  1  0  0  0
  5  6  1  0  0  0
  6  7  2  0  0  0
  6  8  1  0  0  0
  8  9  2  0  0  0
  9 10  1  0  0  0
 10 11  2  0  0  0
 11 12  1  0  0  0
 12 13  1  0  0  0
 13 14  2  0  0  0
 13 15  1  0  0  0
 15 16  1  0  0  0
 16 17  1  0  0  0
 17 18  1  0  0  0
  5  1  1  0  0  0
 18 10  1  0  0  0
  8  4  1  0  0  0
 17 12  2  0  0  0
M  CHG 1  19  -1
M  END
> <minimizedAffinity>
-7.14123

> <CNNscore>
0.3137106001

> <CNNaffinity>
5.7699980736

> <CNN_VS>
1.8101096153

> <CNNaffinity_variance>
0.5862011909

$$$$
[H]C1=C(C(=O)[O-])N2C(=O)/C(=C(\[H])c3sc4c(c3[H])C(=O)OC4([H])[H])[C@@]2([H])S1


 21 24  0  0  0  0  0  0  0  0999 V2000
   -6.7015   24.8039  -22.8404 C   0  0  0  0  0  0  0  0  0  0  0  0
   -7.7676   24.7136  -23.5936 C   0  0  0  0  0  0  0  0  0  0  0  0
   -7.2620   25.0603  -25.2678 S   0  0  0  0  0  0  0  0  0  0  0  0
   -5.6617   25.7150  -24.8100 C   0  0  0  0  0  0  0  0  0  0  0  0
   -5.5068   25.1125  -23.4887 N   0  0  0  0  0  0  0  0  0  0  0  0
   -4.1185   25.2207  -23.7078 C   0  0  0  0  0  0  0  0  0  0  0  0
   -3.0381   25.3834  -23.0920 O   0  0  0  0  0  0  0  0  0  0  0  0
   -4.4392   25.0490  -25.1550 C   0  0  0  0  0  0  0  0  0  0  0  0
   -3.7792   24.5160  -26.1389 C   0  0  0  0  0  0  0  0  0  0  0  0
   -4.3581   24.4964  -27.4836 C   0  0  0  0  0  0  0  0  0  0  0  0
   -4.6386   25.5799  -28.2961 C   0  0  0  0  0  0  0  0  0  0  0  0
   -5.1345   25.3288  -29.5178 C   0  0  0  0  0  0  0  0  0  0  0  0
   -5.5812   26.1003  -30.7104 C   0  0  0  0  0  0  0  0  0  0  0  0
   -5.5902   27.3632  -30.8525 O   0  0  0  0  0  0  0  0  0  0  0  0
   -6.0002   25.2243  -31.6795 O   0  0  0  0  0  0  0  0  0  0  0  0
   -5.8886   23.9070  -31.2585 C   0  0  0  0  0  0  0  0  0  0  0  0
   -5.3245   24.0253  -29.8681 C   0  0  0  0  0  0  0  0  0  0  0  0
   -4.8070   23.1811  -28.4821 S   0  0  0  0  0  0  0  0  0  0  0  0
   -5.8426   24.9055  -20.5030 O   0  0  0  0  0  0  0  0  0  0  0  0
   -6.8372   24.5627  -21.4040 C   0  0  0  0  0  0  0  0  0  0  0  0
   -7.8707   24.0354  -20.9549 O   0  0  0  0  0  0  0  0  0  0  0  0
 19 20  1  0  0  0
 20 21  2  0  0  0
 20  1  1  0  0  0
  1  2  2  0  0  0
  2  3  1  0  0  0
  3  4  1  0  0  0
  4  5  1  0  0  0
  5  6  1  0  0  0
  6  7  2  0  0  0
  6  8  1  0  0  0
  8  9  2  0  0  0
  9 10  1  0  0  0
 10 11  2  0  0  0
 11 12  1  0  0  0
 12 13  1  0  0  0
 13 14  2  0  0  0
 13 15  1  0  0  0
 15 16  1  0  0  0
 16 17  1  0  0  0
 17 18  1  0  0  0
  5  1  1  0  0  0
 18 10  1  0  0  0
  8  4  1  0  0  0
 17 12  2  0  0  0
M  CHG 1  19  -1
M  END
> <minimizedAffinity>
-7.24016

> <CNNscore>
0.3080005348

> <CNNaffinity>
5.6282091141

> <CNN_VS>
1.7334914207

> <CNNaffinity_variance>
0.2479427159

$$$$
[H]C1=C(C(=O)[O-])N2C(=O)/C(=C(\[H])c3sc4c(c3[H])C(=O)OC4([H])[H])[C@@]2([H])S1


 21 24  0  0  0  0  0  0  0  0999 V2000
   -6.7818   25.3382  -22.8370 C   0  0  0  0  0  0  0  0  0  0  0  0
   -6.3357   26.0043  -23.8710 C   0  0  0  0  0  0  0  0  0  0  0  0
   -4.7220   25.3545  -24.2615 S   0  0  0  0  0  0  0  0  0  0  0  0
   -4.5475   24.4512  -22.7278 C   0  0  0  0  0  0  0  0  0  0  0  0
   -5.9498   24.3384  -22.3358 N   0  0  0  0  0  0  0  0  0  0  0  0
   -5.5607   23.1802  -21.6330 C   0  0  0  0  0  0  0  0  0  0  0  0
   -5.8520   22.5051  -20.6169 O   0  0  0  0  0  0  0  0  0  0  0  0
   -4.5171   23.0178  -22.6871 C   0  0  0  0  0  0  0  0  0  0  0  0
   -3.9515   21.9679  -23.2024 C   0  0  0  0  0  0  0  0  0  0  0  0
   -2.9319   22.1211  -24.2418 C   0  0  0  0  0  0  0  0  0  0  0  0
   -3.1311   22.3760  -25.5865 C   0  0  0  0  0  0  0  0  0  0  0  0
   -2.0434   22.5195  -26.3597 C   0  0  0  0  0  0  0  0  0  0  0  0
   -1.7309   22.7869  -27.7908 C   0  0  0  0  0  0  0  0  0  0  0  0
   -2.5570   22.9664  -28.7397 O   0  0  0  0  0  0  0  0  0  0  0  0
   -0.3691   22.8153  -27.9543 O   0  0  0  0  0  0  0  0  0  0  0  0
    0.2929   22.5834  -26.7572 C   0  0  0  0  0  0  0  0  0  0  0  0
   -0.8231   22.4043  -25.7633 C   0  0  0  0  0  0  0  0  0  0  0  0
   -1.2240   22.0970  -24.1365 S   0  0  0  0  0  0  0  0  0  0  0  0
   -8.2814   26.6657  -21.3537 O   0  0  0  0  0  0  0  0  0  0  0  0
   -8.1020   25.6746  -22.3044 C   0  0  0  0  0  0  0  0  0  0  0  0
   -9.1100   25.0651  -22.7048 O   0  0  0  0  0  0  0  0  0  0  0  0
 19 20  1  0  0  0
 20 21  2  0  0  0
 20  1  1  0  0  0
  1  2  2  0  0  0
  2  3  1  0  0  0
  3  4  1  0  0  0
  4  5  1  0  0  0
  5  6  1  0  0  0
  6  7  2  0  0  0
  6  8  1  0  0  0
  8  9  2  0  0  0
  9 10  1  0  0  0
 10 11  2  0  0  0
 11 12  1  0  0  0
 12 13  1  0  0  0
 13 14  2  0  0  0
 13 15  1  0  0  0
 15 16  1  0  0  0
 16 17  1  0  0  0
 17 18  1  0  0  0
  5  1  1  0  0  0
 18 10  1  0  0  0
  8  4  1  0  0  0
 17 12  2  0  0  0
M  CHG 1  19  -1
M  END
> <minimizedAffinity>
-6.74686

> <CNNscore>
0.2893493772

> <CNNaffinity>
5.2976021767

> <CNN_VS>
1.5328578949

> <CNNaffinity_variance>
0.4084457755

$$$$
[H]C1=C(C(=O)[O-])N2C(=O)/C(=C(\[H])c3sc4c(c3[H])C(=O)OC4([H])[H])[C@@]2([H])S1


 21 24  0  0  0  0  0  0  0  0999 V2000
   -0.4995   21.5701  -21.9642 C   0  0  0  0  0  0  0  0  0  0  0  0
   -1.5459   22.0239  -21.3230 C   0  0  0  0  0  0  0  0  0  0  0  0
   -2.5275   22.9400  -22.4960 S   0  0  0  0  0  0  0  0  0  0  0  0
   -1.2498   23.0028  -23.7460 C   0  0  0  0  0  0  0  0  0  0  0  0
   -0.4202   21.8785  -23.3211 N   0  0  0  0  0  0  0  0  0  0  0  0
   -0.0192   21.7890  -24.6695 C   0  0  0  0  0  0  0  0  0  0  0  0
    0.9569   21.4546  -25.3825 O   0  0  0  0  0  0  0  0  0  0  0  0
   -1.3756   22.3164  -24.9991 C   0  0  0  0  0  0  0  0  0  0  0  0
   -2.1614   22.1317  -26.0170 C   0  0  0  0  0  0  0  0  0  0  0  0
   -3.4622   22.8016  -26.0691 C   0  0  0  0  0  0  0  0  0  0  0  0
   -3.8266   23.8739  -26.8629 C   0  0  0  0  0  0  0  0  0  0  0  0
   -5.0939   24.3077  -26.7782 C   0  0  0  0  0  0  0  0  0  0  0  0
   -5.9424   25.3704  -27.3849 C   0  0  0  0  0  0  0  0  0  0  0  0
   -5.5955   26.2324  -28.2520 O   0  0  0  0  0  0  0  0  0  0  0  0
   -7.2065   25.2895  -26.8583 O   0  0  0  0  0  0  0  0  0  0  0  0
   -7.3074   24.2629  -25.9304 C   0  0  0  0  0  0  0  0  0  0  0  0
   -5.9286   23.6596  -25.9173 C   0  0  0  0  0  0  0  0  0  0  0  0
   -4.9229   22.4601  -25.2453 S   0  0  0  0  0  0  0  0  0  0  0  0
    1.7819   20.6094  -21.6754 O   0  0  0  0  0  0  0  0  0  0  0  0
    0.4818   20.7741  -21.2271 C   0  0  0  0  0  0  0  0  0  0  0  0
    0.1609   20.2196  -20.1606 O   0  0  0  0  0  0  0  0  0  0  0  0
 19 20  1  0  0  0
 20 21  2  0  0  0
 20  1  1  0  0  0
  1  2  2  0  0  0
  2  3  1  0  0  0
  3  4  1  0  0  0
  4  5  1  0  0  0
  5  6  1  0  0  0
  6  7  2  0  0  0
  6  8  1  0  0  0
  8  9  2  0  0  0
  9 10  1  0  0  0
 10 11  2  0  0  0
 11 12  1  0  0  0
 12 13  1  0  0  0
 13 14  2  0  0  0
 13 15  1  0  0  0
 15 16  1  0  0  0
 16 17  1  0  0  0
 17 18  1  0  0  0
  5  1  1  0  0  0
 18 10  1  0  0  0
  8  4  1  0  0  0
 17 12  2  0  0  0
M  CHG 1  19  -1
M  END
> <minimizedAffinity>
-7.04484

> <CNNscore>
0.2643699944

> <CNNaffinity>
5.4706048965

> <CNN_VS>
1.4462637901

> <CNNaffinity_variance>
0.6444147825

$$$$
[H]C1=C(C(=O)[O-])N2C(=O)/C(=C(\[H])c3sc4c(c3[H])C(=O)OC4([H])[H])[C@@]2([H])S1


 21 24  0  0  0  0  0  0  0  0999 V2000
    1.1606   21.1828  -22.7563 C   0  0  0  0  0  0  0  0  0  0  0  0
    0.5050   21.2815  -21.6283 C   0  0  0  0  0  0  0  0  0  0  0  0
   -1.0409   22.0947  -21.9857 S   0  0  0  0  0  0  0  0  0  0  0  0
   -0.5542   22.6329  -23.6204 C   0  0  0  0  0  0  0  0  0  0  0  0
    0.5267   21.6886  -23.8899 N   0  0  0  0  0  0  0  0  0  0  0  0
    0.2307   21.8868  -25.2538 C   0  0  0  0  0  0  0  0  0  0  0  0
    0.7740   21.8964  -26.3841 O   0  0  0  0  0  0  0  0  0  0  0  0
   -1.1741   22.1193  -24.8075 C   0  0  0  0  0  0  0  0  0  0  0  0
   -2.3201   21.8987  -25.3783 C   0  0  0  0  0  0  0  0  0  0  0  0
   -3.5624   22.2424  -24.6839 C   0  0  0  0  0  0  0  0  0  0  0  0
   -4.2731   23.4261  -24.7646 C   0  0  0  0  0  0  0  0  0  0  0  0
   -5.4170   23.5130  -24.0678 C   0  0  0  0  0  0  0  0  0  0  0  0
   -6.4926   24.5142  -23.8275 C   0  0  0  0  0  0  0  0  0  0  0  0
   -6.5737   25.6885  -24.3067 O   0  0  0  0  0  0  0  0  0  0  0  0
   -7.4272   23.9734  -22.9814 O   0  0  0  0  0  0  0  0  0  0  0  0
   -7.0886   22.6810  -22.6070 C   0  0  0  0  0  0  0  0  0  0  0  0
   -5.7944   22.4288  -23.3329 C   0  0  0  0  0  0  0  0  0  0  0  0
   -4.5417   21.3139  -23.6316 S   0  0  0  0  0  0  0  0  0  0  0  0
    2.8337   19.6061  -21.7939 O   0  0  0  0  0  0  0  0  0  0  0  0
    2.4776   20.5461  -22.7467 C   0  0  0  0  0  0  0  0  0  0  0  0
    3.3199   20.8422  -23.6132 O   0  0  0  0  0  0  0  0  0  0  0  0
 19 20  1  0  0  0
 20 21  2  0  0  0
 20  1  1  0  0  0
  1  2  2  0  0  0
  2  3  1  0  0  0
  3  4  1  0  0  0
  4  5  1  0  0  0
  5  6  1  0  0  0
  6  7  2  0  0  0
  6  8  1  0  0  0
  8  9  2  0  0  0
  9 10  1  0  0  0
 10 11  2  0  0  0
 11 12  1  0  0  0
 12 13  1  0  0  0
 13 14  2  0  0  0
 13 15  1  0  0  0
 15 16  1  0  0  0
 16 17  1  0  0  0
 17 18  1  0  0  0
  5  1  1  0  0  0
 18 10  1  0  0  0
  8  4  1  0  0  0
 17 12  2  0  0  0
M  CHG 1  19  -1
M  END
> <minimizedAffinity>
-6.34629

> <CNNscore>
0.2345065325

> <CNNaffinity>
5.0806155205

> <CNN_VS>
1.1914374828

> <CNNaffinity_variance>
0.3294546902

$$$$
[H]C1=C(C(=O)[O-])N2C(=O)/C(=C(\[H])c3sc4c(c3[H])C(=O)OC4([H])[H])[C@@]2([H])S1


 21 24  0  0  0  0  0  0  0  0999 V2000
   -8.9816   24.5264  -21.6213 C   0  0  0  0  0  0  0  0  0  0  0  0
   -8.7107   25.5062  -22.4450 C   0  0  0  0  0  0  0  0  0  0  0  0
   -7.2250   25.0611  -23.3244 S   0  0  0  0  0  0  0  0  0  0  0  0
   -6.8028   23.7085  -22.2331 C   0  0  0  0  0  0  0  0  0  0  0  0
   -8.1106   23.4384  -21.6419 N   0  0  0  0  0  0  0  0  0  0  0  0
   -7.6428   22.1235  -21.4439 C   0  0  0  0  0  0  0  0  0  0  0  0
   -7.7656   21.1450  -20.6691 O   0  0  0  0  0  0  0  0  0  0  0  0
   -6.8215   22.3426  -22.6704 C   0  0  0  0  0  0  0  0  0  0  0  0
   -6.4037   21.5347  -23.5980 C   0  0  0  0  0  0  0  0  0  0  0  0
   -5.5909   22.0463  -24.7031 C   0  0  0  0  0  0  0  0  0  0  0  0
   -6.0064   22.8365  -25.7593 C   0  0  0  0  0  0  0  0  0  0  0  0
   -5.0778   23.2274  -26.6461 C   0  0  0  0  0  0  0  0  0  0  0  0
   -5.0110   24.0383  -27.8932 C   0  0  0  0  0  0  0  0  0  0  0  0
   -5.9704   24.6302  -28.4800 O   0  0  0  0  0  0  0  0  0  0  0  0
   -3.7154   24.0621  -28.3433 O   0  0  0  0  0  0  0  0  0  0  0  0
   -2.8752   23.3296  -27.5171 C   0  0  0  0  0  0  0  0  0  0  0  0
   -3.7941   22.8178  -26.4404 C   0  0  0  0  0  0  0  0  0  0  0  0
   -3.9147   21.8952  -25.0136 S   0  0  0  0  0  0  0  0  0  0  0  0
  -10.1382   25.3031  -19.5549 O   0  0  0  0  0  0  0  0  0  0  0  0
  -10.1650   24.6362  -20.7685 C   0  0  0  0  0  0  0  0  0  0  0  0
  -11.2408   24.1231  -21.1252 O   0  0  0  0  0  0  0  0  0  0  0  0
 19 20  1  0  0  0
 20 21  2  0  0  0
 20  1  1  0  0  0
  1  2  2  0  0  0
  2  3  1  0  0  0
  3  4  1  0  0  0
  4  5  1  0  0  0
  5  6  1  0  0  0
  6  7  2  0  0  0
  6  8  1  0  0  0
  8  9  2  0  0  0
  9 10  1  0  0  0
 10 11  2  0  0  0
 11 12  1  0  0  0
 12 13  1  0  0  0
 13 14  2  0  0  0
 13 15  1  0  0  0
 15 16  1  0  0  0
 16 17  1  0  0  0
 17 18  1  0  0  0
  5  1  1  0  0  0
 18 10  1  0  0  0
  8  4  1  0  0  0
 17 12  2  0  0  0
M  CHG 1  19  -1
M  END
> <minimizedAffinity>
-6.79210

> <CNNscore>
0.2201825231

> <CNNaffinity>
5.0422258377

> <CNN_VS>
1.1102100611

> <CNNaffinity_variance>
0.2913120389

$$$$
[H]c1nc([H])c(Cl)c(N([H])C(=O)N([H])c2c([H])c(-c3c([H])c([H])c([H])c(-c4c([H])c([H])c([H])c(S(=O)(=O)C([H])([H])[H])c4[H])c3[H])nn(C([H])([H])C([H])([H])[H])c2=O)c1Cl


 39 42  0  0  0  0  0  0  0  0999 V2000
    1.1325   21.0857  -22.0814 N   0  0  0  0  0  0  0  0  0  0  0  0
    0.8728   21.4437  -23.2979 N   0  0  0  0  0  0  0  0  0  0  0  0
   -0.3595   21.6980  -23.7673 C   0  0  0  0  0  0  0  0  0  0  0  0
   -1.4258   21.5647  -22.8758 C   0  0  0  0  0  0  0  0  0  0  0  0
   -1.1646   21.1843  -21.5778 C   0  0  0  0  0  0  0  0  0  0  0  0
    0.1505   20.9437  -21.1901 C   0  0  0  0  0  0  0  0  0  0  0  0
    0.3651   20.5966  -19.9960 O   0  0  0  0  0  0  0  0  0  0  0  0
   -2.1656   21.0242  -20.6152 N   0  0  0  0  0  0  0  0  0  0  0  0
   -2.9434   22.0170  -20.0533 C   0  0  0  0  0  0  0  0  0  0  0  0
   -2.8702   23.2142  -20.3208 O   0  0  0  0  0  0  0  0  0  0  0  0
   -3.9342   21.6534  -19.0670 N   0  0  0  0  0  0  0  0  0  0  0  0
   -2.3683   20.0289  -20.2601 H   0  0  0  0  0  0  0  0  0  0  0  0
   -4.0555   20.6349  -18.7850 H   0  0  0  0  0  0  0  0  0  0  0  0
   -4.7326   22.6693  -18.4890 C   0  0  0  0  0  0  0  0  0  0  0  0
   -4.3866   23.1255  -17.2313 C   0  0  0  0  0  0  0  0  0  0  0  0
   -2.9968   22.4527  -16.3974 Cl  0  0  0  0  0  0  0  0  0  0  0  0
   -5.1458   24.1070  -16.6536 C   0  0  0  0  0  0  0  0  0  0  0  0
   -6.2146   24.6178  -17.3069 N   0  0  0  0  0  0  0  0  0  0  0  0
   -6.5719   24.1833  -18.5442 C   0  0  0  0  0  0  0  0  0  0  0  0
   -5.8384   23.1996  -19.1618 C   0  0  0  0  0  0  0  0  0  0  0  0
   -6.2620   22.6128  -20.7483 Cl  0  0  0  0  0  0  0  0  0  0  0  0
   -0.5678   22.0990  -25.1634 C   0  0  0  0  0  0  0  0  0  0  0  0
    0.3986   22.0999  -26.1285 C   0  0  0  0  0  0  0  0  0  0  0  0
    0.1545   22.4900  -27.4418 C   0  0  0  0  0  0  0  0  0  0  0  0
   -1.1356   22.8971  -27.7811 C   0  0  0  0  0  0  0  0  0  0  0  0
   -2.1196   22.9074  -26.8425 C   0  0  0  0  0  0  0  0  0  0  0  0
   -1.8331   22.5073  -25.5316 C   0  0  0  0  0  0  0  0  0  0  0  0
   -3.4700   23.3334  -27.1947 C   0  0  0  0  0  0  0  0  0  0  0  0
   -4.5296   23.0707  -26.3405 C   0  0  0  0  0  0  0  0  0  0  0  0
   -5.7979   23.4951  -26.7174 C   0  0  0  0  0  0  0  0  0  0  0  0
   -6.0163   24.1600  -27.9031 C   0  0  0  0  0  0  0  0  0  0  0  0
   -4.9561   24.4165  -28.7454 C   0  0  0  0  0  0  0  0  0  0  0  0
   -3.6882   24.0014  -28.3862 C   0  0  0  0  0  0  0  0  0  0  0  0
   -5.1386   25.2521  -30.2663 S   0  0  0  0  0  0  0  0  0  0  0  0
   -5.9492   24.2865  -31.4922 C   0  0  0  0  0  0  0  0  0  0  0  0
   -3.7486   25.6877  -30.7021 O   0  0  0  0  0  0  0  0  0  0  0  0
   -5.8898   26.5309  -29.9710 O   0  0  0  0  0  0  0  0  0  0  0  0
    3.3725   20.3112  -22.7405 C   0  0  0  0  0  0  0  0  0  0  0  0
    2.5029   20.8214  -21.6258 C   0  0  0  0  0  0  0  0  0  0  0  0
 38 39  1  0  0  0
 39  1  1  0  0  0
  1  2  1  0  0  0
  2  3  2  0  0  0
  3  4  1  0  0  0
  4  5  2  0  0  0
  5  8  1  0  0  0
  8  9  1  0  0  0
  9 10  2  0  0  0
  9 11  1  0  0  0
 11 14  1  0  0  0
 14 15  2  0  0  0
 15 16  1  0  0  0
 15 17  1  0  0  0
 17 18  2  0  0  0
 18 19  1  0  0  0
 19 20  2  0  0  0
 20 21  1  0  0  0
  5  6  1  0  0  0
  6  7  2  0  0  0
  3 22  1  0  0  0
 22 23  2  0  0  0
 23 24  1  0  0  0
 24 25  2  0  0  0
 25 26  1  0  0  0
 26 27  2  0  0  0
 26 28  1  0  0  0
 28 29  2  0  0  0
 29 30  1  0  0  0
 30 31  2  0  0  0
 31 32  1  0  0  0
 32 33  2  0  0  0
 32 34  1  0  0  0
 34 35  1  0  0  0
 34 36  2  0  0  0
 34 37  2  0  0  0
  6  1  1  0  0  0
 27 22  1  0  0  0
 33 28  1  0  0  0
 20 14  1  0  0  0
  8 12  1  0  0  0
 11 13  1  0  0  0
M  END
> <minimizedAffinity>
-10.82844

> <CNNscore>
0.1942650825

> <CNNaffinity>
6.8792619705

> <CNN_VS>
1.3364003897

> <CNNaffinity_variance>
0.1959473789

$$$$
[H]c1nc([H])c(Cl)c(N([H])C(=O)N([H])c2c([H])c(-c3c([H])c([H])c([H])c(-c4c([H])c([H])c([H])c(S(=O)(=O)C([H])([H])[H])c4[H])c3[H])nn(C([H])([H])C([H])([H])[H])c2=O)c1Cl


 39 42  0  0  0  0  0  0  0  0999 V2000
   -5.1451   24.2956  -28.2336 N   0  0  0  0  0  0  0  0  0  0  0  0
   -3.9951   23.7522  -27.9933 N   0  0  0  0  0  0  0  0  0  0  0  0
   -3.3985   23.7394  -26.7903 C   0  0  0  0  0  0  0  0  0  0  0  0
   -4.0717   24.3558  -25.7337 C   0  0  0  0  0  0  0  0  0  0  0  0
   -5.2967   24.9384  -25.9745 C   0  0  0  0  0  0  0  0  0  0  0  0
   -5.8295   24.8974  -27.2598 C   0  0  0  0  0  0  0  0  0  0  0  0
   -6.9529   25.4376  -27.4560 O   0  0  0  0  0  0  0  0  0  0  0  0
   -6.0438   25.5786  -24.9814 N   0  0  0  0  0  0  0  0  0  0  0  0
   -6.6500   24.9900  -23.8893 C   0  0  0  0  0  0  0  0  0  0  0  0
   -6.6231   23.7909  -23.6221 O   0  0  0  0  0  0  0  0  0  0  0  0
   -7.3841   25.8230  -22.9653 N   0  0  0  0  0  0  0  0  0  0  0  0
   -6.1727   26.6443  -25.0563 H   0  0  0  0  0  0  0  0  0  0  0  0
   -7.4506   26.8715  -23.1314 H   0  0  0  0  0  0  0  0  0  0  0  0
   -8.0069   25.2220  -21.8452 C   0  0  0  0  0  0  0  0  0  0  0  0
   -9.3717   25.0128  -21.9003 C   0  0  0  0  0  0  0  0  0  0  0  0
  -10.2824   25.4841  -23.3245 Cl  0  0  0  0  0  0  0  0  0  0  0  0
   -9.9943   24.4338  -20.8277 C   0  0  0  0  0  0  0  0  0  0  0  0
   -9.2811   24.0746  -19.7357 N   0  0  0  0  0  0  0  0  0  0  0  0
   -7.9383   24.2715  -19.6612 C   0  0  0  0  0  0  0  0  0  0  0  0
   -7.2724   24.8495  -20.7146 C   0  0  0  0  0  0  0  0  0  0  0  0
   -5.5508   25.1207  -20.6606 Cl  0  0  0  0  0  0  0  0  0  0  0  0
   -2.0907   23.1008  -26.6027 C   0  0  0  0  0  0  0  0  0  0  0  0
   -1.1735   22.8932  -27.5931 C   0  0  0  0  0  0  0  0  0  0  0  0
    0.0560   22.2815  -27.3681 C   0  0  0  0  0  0  0  0  0  0  0  0
    0.3590   21.8643  -26.0722 C   0  0  0  0  0  0  0  0  0  0  0  0
   -0.5336   22.0567  -25.0645 C   0  0  0  0  0  0  0  0  0  0  0  0
   -1.7604   22.6763  -25.3323 C   0  0  0  0  0  0  0  0  0  0  0  0
   -0.2194   21.6205  -23.7079 C   0  0  0  0  0  0  0  0  0  0  0  0
   -1.2144   21.5664  -22.7443 C   0  0  0  0  0  0  0  0  0  0  0  0
   -0.8687   21.1451  -21.4662 C   0  0  0  0  0  0  0  0  0  0  0  0
    0.4217   20.7869  -21.1461 C   0  0  0  0  0  0  0  0  0  0  0  0
    1.4036   20.8441  -22.1114 C   0  0  0  0  0  0  0  0  0  0  0  0
    1.0773   21.2609  -23.3876 C   0  0  0  0  0  0  0  0  0  0  0  0
    3.0641   20.4097  -21.7966 S   0  0  0  0  0  0  0  0  0  0  0  0
    3.2264   18.9099  -20.8933 C   0  0  0  0  0  0  0  0  0  0  0  0
    3.7014   21.5877  -21.0770 O   0  0  0  0  0  0  0  0  0  0  0  0
    3.7545   20.3341  -23.1399 O   0  0  0  0  0  0  0  0  0  0  0  0
   -5.1503   25.3269  -30.4670 C   0  0  0  0  0  0  0  0  0  0  0  0
   -5.7477   24.2774  -29.5723 C   0  0  0  0  0  0  0  0  0  0  0  0
 38 39  1  0  0  0
 39  1  1  0  0  0
  1  2  1  0  0  0
  2  3  2  0  0  0
  3  4  1  0  0  0
  4  5  2  0  0  0
  5  8  1  0  0  0
  8  9  1  0  0  0
  9 10  2  0  0  0
  9 11  1  0  0  0
 11 14  1  0  0  0
 14 15  2  0  0  0
 15 16  1  0  0  0
 15 17  1  0  0  0
 17 18  2  0  0  0
 18 19  1  0  0  0
 19 20  2  0  0  0
 20 21  1  0  0  0
  5  6  1  0  0  0
  6  7  2  0  0  0
  3 22  1  0  0  0
 22 23  2  0  0  0
 23 24  1  0  0  0
 24 25  2  0  0  0
 25 26  1  0  0  0
 26 27  2  0  0  0
 26 28  1  0  0  0
 28 29  2  0  0  0
 29 30  1  0  0  0
 30 31  2  0  0  0
 31 32  1  0  0  0
 32 33  2  0  0  0
 32 34  1  0  0  0
 34 35  1  0  0  0
 34 36  2  0  0  0
 34 37  2  0  0  0
  6  1  1  0  0  0
 27 22  1  0  0  0
 33 28  1  0  0  0
 20 14  1  0  0  0
  8 12  1  0  0  0
 11 13  1  0  0  0
M  END
> <minimizedAffinity>
-10.59250

> <CNNscore>
0.1889540255

> <CNNaffinity>
7.0934424400

> <CNN_VS>
1.3403345346

> <CNNaffinity_variance>
0.1548852623

$$$$
[H]c1nc([H])c(Cl)c(N([H])C(=O)N([H])c2c([H])c(-c3c([H])c([H])c([H])c(-c4c([H])c([H])c([H])c(S(=O)(=O)C([H])([H])[H])c4[H])c3[H])nn(C([H])([H])C([H])([H])[H])c2=O)c1Cl


 39 42  0  0  0  0  0  0  0  0999 V2000
   -5.8522   22.6439  -21.9906 N   0  0  0  0  0  0  0  0  0  0  0  0
   -4.7043   22.5200  -22.5758 N   0  0  0  0  0  0  0  0  0  0  0  0
   -3.6186   21.9703  -22.0079 C   0  0  0  0  0  0  0  0  0  0  0  0
   -3.7463   21.5038  -20.6981 C   0  0  0  0  0  0  0  0  0  0  0  0
   -4.9621   21.6290  -20.0626 C   0  0  0  0  0  0  0  0  0  0  0  0
   -6.0277   22.2149  -20.7400 C   0  0  0  0  0  0  0  0  0  0  0  0
   -7.1314   22.3185  -20.1373 O   0  0  0  0  0  0  0  0  0  0  0  0
   -5.1854   21.1927  -18.7533 N   0  0  0  0  0  0  0  0  0  0  0  0
   -4.7926   21.8237  -17.5896 C   0  0  0  0  0  0  0  0  0  0  0  0
   -4.1753   22.8846  -17.5299 O   0  0  0  0  0  0  0  0  0  0  0  0
   -5.1179   21.2142  -16.3210 N   0  0  0  0  0  0  0  0  0  0  0  0
   -5.7188   20.2686  -18.6144 H   0  0  0  0  0  0  0  0  0  0  0  0
   -5.6519   20.2946  -16.2939 H   0  0  0  0  0  0  0  0  0  0  0  0
   -4.7160   21.8587  -15.1266 C   0  0  0  0  0  0  0  0  0  0  0  0
   -5.6080   22.7304  -14.5316 C   0  0  0  0  0  0  0  0  0  0  0  0
   -7.1836   23.0122  -15.2513 Cl  0  0  0  0  0  0  0  0  0  0  0  0
   -5.2392   23.3650  -13.3762 C   0  0  0  0  0  0  0  0  0  0  0  0
   -4.0220   23.1390  -12.8311 N   0  0  0  0  0  0  0  0  0  0  0  0
   -3.1300   22.2858  -13.4002 C   0  0  0  0  0  0  0  0  0  0  0  0
   -3.4581   21.6273  -14.5603 C   0  0  0  0  0  0  0  0  0  0  0  0
   -2.3438   20.5246  -15.3238 Cl  0  0  0  0  0  0  0  0  0  0  0  0
   -2.3522   21.8684  -22.7422 C   0  0  0  0  0  0  0  0  0  0  0  0
   -1.1736   21.4290  -22.2098 C   0  0  0  0  0  0  0  0  0  0  0  0
    0.0048   21.3499  -22.9456 C   0  0  0  0  0  0  0  0  0  0  0  0
   -0.0253   21.7380  -24.2849 C   0  0  0  0  0  0  0  0  0  0  0  0
   -1.1834   22.1802  -24.8439 C   0  0  0  0  0  0  0  0  0  0  0  0
   -2.3480   22.2448  -24.0694 C   0  0  0  0  0  0  0  0  0  0  0  0
   -1.2174   22.5874  -26.2447 C   0  0  0  0  0  0  0  0  0  0  0  0
   -0.0681   22.5261  -27.0173 C   0  0  0  0  0  0  0  0  0  0  0  0
   -0.1480   22.9242  -28.3462 C   0  0  0  0  0  0  0  0  0  0  0  0
   -1.3276   23.3703  -28.8988 C   0  0  0  0  0  0  0  0  0  0  0  0
   -2.4646   23.4274  -28.1222 C   0  0  0  0  0  0  0  0  0  0  0  0
   -2.4031   23.0354  -26.7988 C   0  0  0  0  0  0  0  0  0  0  0  0
   -4.0018   23.9788  -28.7371 S   0  0  0  0  0  0  0  0  0  0  0  0
   -4.9022   22.7216  -29.5741 C   0  0  0  0  0  0  0  0  0  0  0  0
   -3.7179   25.1761  -29.6302 O   0  0  0  0  0  0  0  0  0  0  0  0
   -4.7696   24.5279  -27.5556 O   0  0  0  0  0  0  0  0  0  0  0  0
   -6.6926   23.6122  -24.0901 C   0  0  0  0  0  0  0  0  0  0  0  0
   -7.0050   23.2545  -22.6642 C   0  0  0  0  0  0  0  0  0  0  0  0
 38 39  1  0  0  0
 39  1  1  0  0  0
  1  2  1  0  0  0
  2  3  2  0  0  0
  3  4  1  0  0  0
  4  5  2  0  0  0
  5  8  1  0  0  0
  8  9  1  0  0  0
  9 10  2  0  0  0
  9 11  1  0  0  0
 11 14  1  0  0  0
 14 15  2  0  0  0
 15 16  1  0  0  0
 15 17  1  0  0  0
 17 18  2  0  0  0
 18 19  1  0  0  0
 19 20  2  0  0  0
 20 21  1  0  0  0
  5  6  1  0  0  0
  6  7  2  0  0  0
  3 22  1  0  0  0
 22 23  2  0  0  0
 23 24  1  0  0  0
 24 25  2  0  0  0
 25 26  1  0  0  0
 26 27  2  0  0  0
 26 28  1  0  0  0
 28 29  2  0  0  0
 29 30  1  0  0  0
 30 31  2  0  0  0
 31 32  1  0  0  0
 32 33  2  0  0  0
 32 34  1  0  0  0
 34 35  1  0  0  0
 34 36  2  0  0  0
 34 37  2  0  0  0
  6  1  1  0  0  0
 27 22  1  0  0  0
 33 28  1  0  0  0
 20 14  1  0  0  0
  8 12  1  0  0  0
 11 13  1  0  0  0
M  END
> <minimizedAffinity>
-8.50210

> <CNNscore>
0.1568225920

> <CNNaffinity>
6.6965422630

> <CNN_VS>
1.0501691103

> <CNNaffinity_variance>
0.0074920328

$$$$
[H]c1nc([H])c(Cl)c(N([H])C(=O)N([H])c2c([H])c(-c3c([H])c([H])c([H])c(-c4c([H])c([H])c([H])c(S(=O)(=O)C([H])([H])[H])c4[H])c3[H])nn(C([H])([H])C([H])([H])[H])c2=O)c1Cl


 39 42  0  0  0  0  0  0  0  0999 V2000
   -4.3978   21.9501  -21.0796 N   0  0  0  0  0  0  0  0  0  0  0  0
   -3.4303   21.8785  -21.9365 N   0  0  0  0  0  0  0  0  0  0  0  0
   -2.1271   21.8893  -21.6123 C   0  0  0  0  0  0  0  0  0  0  0  0
   -1.8039   21.9840  -20.2572 C   0  0  0  0  0  0  0  0  0  0  0  0
   -2.8232   22.0609  -19.3337 C   0  0  0  0  0  0  0  0  0  0  0  0
   -4.1438   22.0421  -19.7735 C   0  0  0  0  0  0  0  0  0  0  0  0
   -5.0602   22.1135  -18.9091 O   0  0  0  0  0  0  0  0  0  0  0  0
   -2.5980   22.1589  -17.9574 N   0  0  0  0  0  0  0  0  0  0  0  0
   -2.0567   21.1918  -17.1339 C   0  0  0  0  0  0  0  0  0  0  0  0
   -1.6849   20.0776  -17.4951 O   0  0  0  0  0  0  0  0  0  0  0  0
   -1.9006   21.4805  -15.7271 N   0  0  0  0  0  0  0  0  0  0  0  0
   -2.8677   23.0779  -17.4670 H   0  0  0  0  0  0  0  0  0  0  0  0
   -2.2001   22.4255  -15.3414 H   0  0  0  0  0  0  0  0  0  0  0  0
   -1.3465   20.4906  -14.8806 C   0  0  0  0  0  0  0  0  0  0  0  0
   -2.2131   19.6034  -14.2710 C   0  0  0  0  0  0  0  0  0  0  0  0
   -3.9412   19.7189  -14.5536 Cl  0  0  0  0  0  0  0  0  0  0  0  0
   -1.6983   18.6387  -13.4476 C   0  0  0  0  0  0  0  0  0  0  0  0
   -0.3642   18.5599  -13.2381 N   0  0  0  0  0  0  0  0  0  0  0  0
    0.5052   19.4224  -13.8278 C   0  0  0  0  0  0  0  0  0  0  0  0
    0.0325   20.4063  -14.6617 C   0  0  0  0  0  0  0  0  0  0  0  0
    1.1126   21.5338  -15.4382 Cl  0  0  0  0  0  0  0  0  0  0  0  0
   -1.0907   21.8047  -22.6476 C   0  0  0  0  0  0  0  0  0  0  0  0
    0.1877   21.3713  -22.4397 C   0  0  0  0  0  0  0  0  0  0  0  0
    1.1387   21.3087  -23.4536 C   0  0  0  0  0  0  0  0  0  0  0  0
    0.7638   21.7078  -24.7364 C   0  0  0  0  0  0  0  0  0  0  0  0
   -0.5017   22.1444  -24.9754 C   0  0  0  0  0  0  0  0  0  0  0  0
   -1.4293   22.1923  -23.9276 C   0  0  0  0  0  0  0  0  0  0  0  0
   -0.8963   22.5630  -26.3163 C   0  0  0  0  0  0  0  0  0  0  0  0
    0.0549   22.6860  -27.3171 C   0  0  0  0  0  0  0  0  0  0  0  0
   -0.3672   23.0876  -28.5786 C   0  0  0  0  0  0  0  0  0  0  0  0
   -1.6897   23.3606  -28.8468 C   0  0  0  0  0  0  0  0  0  0  0  0
   -2.6276   23.2353  -27.8449 C   0  0  0  0  0  0  0  0  0  0  0  0
   -2.2254   22.8370  -26.5846 C   0  0  0  0  0  0  0  0  0  0  0  0
   -4.3241   23.5598  -28.0932 S   0  0  0  0  0  0  0  0  0  0  0  0
   -4.9711   22.7893  -29.5353 C   0  0  0  0  0  0  0  0  0  0  0  0
   -4.4859   25.0713  -28.1255 O   0  0  0  0  0  0  0  0  0  0  0  0
   -5.0406   23.1025  -26.8424 O   0  0  0  0  0  0  0  0  0  0  0  0
   -5.9450   21.8744  -22.9907 C   0  0  0  0  0  0  0  0  0  0  0  0
   -5.8057   21.9335  -21.4954 C   0  0  0  0  0  0  0  0  0  0  0  0
 38 39  1  0  0  0
 39  1  1  0  0  0
  1  2  1  0  0  0
  2  3  2  0  0  0
  3  4  1  0  0  0
  4  5  2  0  0  0
  5  8  1  0  0  0
  8  9  1  0  0  0
  9 10  2  0  0  0
  9 11  1  0  0  0
 11 14  1  0  0  0
 14 15  2  0  0  0
 15 16  1  0  0  0
 15 17  1  0  0  0
 17 18  2  0  0  0
 18 19  1  0  0  0
 19 20  2  0  0  0
 20 21  1  0  0  0
  5  6  1  0  0  0
  6  7  2  0  0  0
  3 22  1  0  0  0
 22 23  2  0  0  0
 23 24  1  0  0  0
 24 25  2  0  0  0
 25 26  1  0  0  0
 26 27  2  0  0  0
 26 28  1  0  0  0
 28 29  2  0  0  0
 29 30  1  0  0  0
 30 31  2  0  0  0
 31 32  1  0  0  0
 32 33  2  0  0  0
 32 34  1  0  0  0
 34 35  1  0  0  0
 34 36  2  0  0  0
 34 37  2  0  0  0
  6  1  1  0  0  0
 27 22  1  0  0  0
 33 28  1  0  0  0
 20 14  1  0  0  0
  8 12  1  0  0  0
 11 13  1  0  0  0
M  END
> <minimizedAffinity>
-8.03677

> <CNNscore>
0.1512594819

> <CNNaffinity>
6.6508255005

> <CNN_VS>
1.0060003996

> <CNNaffinity_variance>
0.0720292181

$$$$
[H]c1nc([H])c(Cl)c(N([H])C(=O)N([H])c2c([H])c(-c3c([H])c([H])c([H])c(-c4c([H])c([H])c([H])c(S(=O)(=O)C([H])([H])[H])c4[H])c3[H])nn(C([H])([H])C([H])([H])[H])c2=O)c1Cl


 39 42  0  0  0  0  0  0  0  0999 V2000
   -2.9543   21.6897  -20.1888 N   0  0  0  0  0  0  0  0  0  0  0  0
   -3.4871   22.1177  -21.2881 N   0  0  0  0  0  0  0  0  0  0  0  0
   -4.8083   22.1611  -21.5242 C   0  0  0  0  0  0  0  0  0  0  0  0
   -5.6565   21.7125  -20.5098 C   0  0  0  0  0  0  0  0  0  0  0  0
   -5.1036   21.2540  -19.3343 C   0  0  0  0  0  0  0  0  0  0  0  0
   -3.7192   21.2500  -19.1887 C   0  0  0  0  0  0  0  0  0  0  0  0
   -3.2361   20.8257  -18.1030 O   0  0  0  0  0  0  0  0  0  0  0  0
   -5.8710   20.7849  -18.2640 N   0  0  0  0  0  0  0  0  0  0  0  0
   -6.2870   21.5055  -17.1621 C   0  0  0  0  0  0  0  0  0  0  0  0
   -6.0394   22.6909  -16.9533 O   0  0  0  0  0  0  0  0  0  0  0  0
   -7.0798   20.8423  -16.1530 N   0  0  0  0  0  0  0  0  0  0  0  0
   -6.1819   19.7549  -18.2804 H   0  0  0  0  0  0  0  0  0  0  0  0
   -7.3343   19.8157  -16.2659 H   0  0  0  0  0  0  0  0  0  0  0  0
   -7.5071   21.5785  -15.0221 C   0  0  0  0  0  0  0  0  0  0  0  0
   -8.7917   22.0878  -15.0308 C   0  0  0  0  0  0  0  0  0  0  0  0
   -9.8419   21.8163  -16.4103 Cl  0  0  0  0  0  0  0  0  0  0  0  0
   -9.2250   22.8037  -13.9476 C   0  0  0  0  0  0  0  0  0  0  0  0
   -8.4059   23.0058  -12.8901 N   0  0  0  0  0  0  0  0  0  0  0  0
   -7.1392   22.5137  -12.8614 C   0  0  0  0  0  0  0  0  0  0  0  0
   -6.6627   21.7894  -13.9270 C   0  0  0  0  0  0  0  0  0  0  0  0
   -5.0443   21.1404  -13.9318 Cl  0  0  0  0  0  0  0  0  0  0  0  0
   -5.3313   22.6615  -22.8008 C   0  0  0  0  0  0  0  0  0  0  0  0
   -6.5911   23.1538  -22.9898 C   0  0  0  0  0  0  0  0  0  0  0  0
   -7.0443   23.6174  -24.2210 C   0  0  0  0  0  0  0  0  0  0  0  0
   -6.1689   23.5746  -25.3059 C   0  0  0  0  0  0  0  0  0  0  0  0
   -4.9080   23.0899  -25.1498 C   0  0  0  0  0  0  0  0  0  0  0  0
   -4.4902   22.6328  -23.8940 C   0  0  0  0  0  0  0  0  0  0  0  0
   -3.9903   23.0434  -26.2834 C   0  0  0  0  0  0  0  0  0  0  0  0
   -4.4666   23.2131  -27.5741 C   0  0  0  0  0  0  0  0  0  0  0  0
   -3.5559   23.1610  -28.6223 C   0  0  0  0  0  0  0  0  0  0  0  0
   -2.2132   22.9477  -28.4051 C   0  0  0  0  0  0  0  0  0  0  0  0
   -1.7498   22.7803  -27.1180 C   0  0  0  0  0  0  0  0  0  0  0  0
   -2.6415   22.8291  -26.0638 C   0  0  0  0  0  0  0  0  0  0  0  0
   -0.0667   22.5053  -26.7484 S   0  0  0  0  0  0  0  0  0  0  0  0
    0.2046   22.0273  -25.0781 C   0  0  0  0  0  0  0  0  0  0  0  0
    0.6804   23.7787  -27.1120 O   0  0  0  0  0  0  0  0  0  0  0  0
    0.4248   21.4560  -27.7200 O   0  0  0  0  0  0  0  0  0  0  0  0
   -0.9547   23.0374  -19.7019 C   0  0  0  0  0  0  0  0  0  0  0  0
   -1.5000   21.6666  -19.9887 C   0  0  0  0  0  0  0  0  0  0  0  0
 38 39  1  0  0  0
 39  1  1  0  0  0
  1  2  1  0  0  0
  2  3  2  0  0  0
  3  4  1  0  0  0
  4  5  2  0  0  0
  5  8  1  0  0  0
  8  9  1  0  0  0
  9 10  2  0  0  0
  9 11  1  0  0  0
 11 14  1  0  0  0
 14 15  2  0  0  0
 15 16  1  0  0  0
 15 17  1  0  0  0
 17 18  2  0  0  0
 18 19  1  0  0  0
 19 20  2  0  0  0
 20 21  1  0  0  0
  5  6  1  0  0  0
  6  7  2  0  0  0
  3 22  1  0  0  0
 22 23  2  0  0  0
 23 24  1  0  0  0
 24 25  2  0  0  0
 25 26  1  0  0  0
 26 27  2  0  0  0
 26 28  1  0  0  0
 28 29  2  0  0  0
 29 30  1  0  0  0
 30 31  2  0  0  0
 31 32  1  0  0  0
 32 33  2  0  0  0
 32 34  1  0  0  0
 34 35  1  0  0  0
 34 36  2  0  0  0
 34 37  2  0  0  0
  6  1  1  0  0  0
 27 22  1  0  0  0
 33 28  1  0  0  0
 20 14  1  0  0  0
  8 12  1  0  0  0
 11 13  1  0  0  0
M  END
> <minimizedAffinity>
-7.64991

> <CNNscore>
0.1415270418

> <CNNaffinity>
6.4468269348

> <CNN_VS>
0.9124003649

> <CNNaffinity_variance>
0.1389079094

$$$$
[H]c1nc([H])c(Cl)c(N([H])C(=O)N([H])c2c([H])c(-c3c([H])c([H])c([H])c(-c4c([H])c([H])c([H])c(S(=O)(=O)C([H])([H])[H])c4[H])c3[H])nn(C([H])([H])C([H])([H])[H])c2=O)c1Cl


 39 42  0  0  0  0  0  0  0  0999 V2000
    0.6633   21.4133  -23.0442 N   0  0  0  0  0  0  0  0  0  0  0  0
    0.6975   21.2210  -21.7646 N   0  0  0  0  0  0  0  0  0  0  0  0
   -0.3838   21.2206  -20.9683 C   0  0  0  0  0  0  0  0  0  0  0  0
   -1.6239   21.4431  -21.5701 C   0  0  0  0  0  0  0  0  0  0  0  0
   -1.6757   21.6493  -22.9312 C   0  0  0  0  0  0  0  0  0  0  0  0
   -0.4951   21.6304  -23.6684 C   0  0  0  0  0  0  0  0  0  0  0  0
   -0.5677   21.8217  -24.9135 O   0  0  0  0  0  0  0  0  0  0  0  0
   -2.8692   21.8806  -23.6214 N   0  0  0  0  0  0  0  0  0  0  0  0
   -3.6917   22.9842  -23.5107 C   0  0  0  0  0  0  0  0  0  0  0  0
   -3.4935   23.9473  -22.7737 O   0  0  0  0  0  0  0  0  0  0  0  0
   -4.8917   23.0437  -24.3128 N   0  0  0  0  0  0  0  0  0  0  0  0
   -3.2011   21.1315  -24.3188 H   0  0  0  0  0  0  0  0  0  0  0  0
   -5.1291   22.2460  -24.9752 H   0  0  0  0  0  0  0  0  0  0  0  0
   -5.7368   24.1736  -24.2009 C   0  0  0  0  0  0  0  0  0  0  0  0
   -6.8030   24.0983  -23.3250 C   0  0  0  0  0  0  0  0  0  0  0  0
   -7.0795   22.6387  -22.3909 Cl  0  0  0  0  0  0  0  0  0  0  0  0
   -7.6334   25.1795  -23.2020 C   0  0  0  0  0  0  0  0  0  0  0  0
   -7.4094   26.2992  -23.9274 N   0  0  0  0  0  0  0  0  0  0  0  0
   -6.3668   26.3939  -24.7942 C   0  0  0  0  0  0  0  0  0  0  0  0
   -5.5080   25.3329  -24.9495 C   0  0  0  0  0  0  0  0  0  0  0  0
   -4.1583   25.4118  -26.0507 Cl  0  0  0  0  0  0  0  0  0  0  0  0
   -0.2578   20.9947  -19.5238 C   0  0  0  0  0  0  0  0  0  0  0  0
   -1.0005   20.1020  -18.8049 C   0  0  0  0  0  0  0  0  0  0  0  0
   -0.8464   19.9220  -17.4337 C   0  0  0  0  0  0  0  0  0  0  0  0
    0.1100   20.6901  -16.7700 C   0  0  0  0  0  0  0  0  0  0  0  0
    0.8652   21.5877  -17.4579 C   0  0  0  0  0  0  0  0  0  0  0  0
    0.6794   21.7388  -18.8375 C   0  0  0  0  0  0  0  0  0  0  0  0
    1.8661   22.3929  -16.7658 C   0  0  0  0  0  0  0  0  0  0  0  0
    2.7634   23.1634  -17.4888 C   0  0  0  0  0  0  0  0  0  0  0  0
    3.6989   23.9140  -16.7871 C   0  0  0  0  0  0  0  0  0  0  0  0
    3.7490   23.9058  -15.4112 C   0  0  0  0  0  0  0  0  0  0  0  0
    2.8524   23.1365  -14.7017 C   0  0  0  0  0  0  0  0  0  0  0  0
    1.9154   22.3839  -15.3834 C   0  0  0  0  0  0  0  0  0  0  0  0
    2.8418   23.0646  -12.9583 S   0  0  0  0  0  0  0  0  0  0  0  0
    2.1916   24.5174  -12.2109 C   0  0  0  0  0  0  0  0  0  0  0  0
    4.2689   22.7794  -12.5180 O   0  0  0  0  0  0  0  0  0  0  0  0
    2.0478   21.8345  -12.5798 O   0  0  0  0  0  0  0  0  0  0  0  0
    3.0346   20.7653  -23.1399 C   0  0  0  0  0  0  0  0  0  0  0  0
    1.8815   21.4021  -23.8636 C   0  0  0  0  0  0  0  0  0  0  0  0
 38 39  1  0  0  0
 39  1  1  0  0  0
  1  2  1  0  0  0
  2  3  2  0  0  0
  3  4  1  0  0  0
  4  5  2  0  0  0
  5  8  1  0  0  0
  8  9  1  0  0  0
  9 10  2  0  0  0
  9 11  1  0  0  0
 11 14  1  0  0  0
 14 15  2  0  0  0
 15 16  1  0  0  0
 15 17  1  0  0  0
 17 18  2  0  0  0
 18 19  1  0  0  0
 19 20  2  0  0  0
 20 21  1  0  0  0
  5  6  1  0  0  0
  6  7  2  0  0  0
  3 22  1  0  0  0
 22 23  2  0  0  0
 23 24  1  0  0  0
 24 25  2  0  0  0
 25 26  1  0  0  0
 26 27  2  0  0  0
 26 28  1  0  0  0
 28 29  2  0  0  0
 29 30  1  0  0  0
 30 31  2  0  0  0
 31 32  1  0  0  0
 32 33  2  0  0  0
 32 34  1  0  0  0
 34 35  1  0  0  0
 34 36  2  0  0  0
 34 37  2  0  0  0
  6  1  1  0  0  0
 27 22  1  0  0  0
 33 28  1  0  0  0
 20 14  1  0  0  0
  8 12  1  0  0  0
 11 13  1  0  0  0
M  END
> <minimizedAffinity>
-7.84724

> <CNNscore>
0.1272111684

> <CNNaffinity>
6.3272147179

> <CNN_VS>
0.8048923612

> <CNNaffinity_variance>
0.0385858901

$$$$
[H]c1nc([H])c(Cl)c(N([H])C(=O)N([H])c2c([H])c(-c3c([H])c([H])c([H])c(-c4c([H])c([H])c([H])c(S(=O)(=O)C([H])([H])[H])c4[H])c3[H])nn(C([H])([H])C([H])([H])[H])c2=O)c1Cl


 39 42  0  0  0  0  0  0  0  0999 V2000
    1.0386   21.0958  -22.1254 N   0  0  0  0  0  0  0  0  0  0  0  0
    0.8327   21.4443  -23.3549 N   0  0  0  0  0  0  0  0  0  0  0  0
   -0.3773   21.6989  -23.8789 C   0  0  0  0  0  0  0  0  0  0  0  0
   -1.4813   21.5773  -23.0328 C   0  0  0  0  0  0  0  0  0  0  0  0
   -1.2774   21.2072  -21.7216 C   0  0  0  0  0  0  0  0  0  0  0  0
    0.0189   20.9651  -21.2758 C   0  0  0  0  0  0  0  0  0  0  0  0
    0.1807   20.6276  -20.0708 O   0  0  0  0  0  0  0  0  0  0  0  0
   -2.3194   21.0590  -20.8014 N   0  0  0  0  0  0  0  0  0  0  0  0
   -3.0457   22.0677  -20.2002 C   0  0  0  0  0  0  0  0  0  0  0  0
   -2.8811   23.2710  -20.3879 O   0  0  0  0  0  0  0  0  0  0  0  0
   -4.0923   21.7148  -19.2692 N   0  0  0  0  0  0  0  0  0  0  0  0
   -2.6022   20.0605  -20.5171 H   0  0  0  0  0  0  0  0  0  0  0  0
   -4.2930   20.6920  -19.0569 H   0  0  0  0  0  0  0  0  0  0  0  0
   -4.8381   22.7470  -18.6511 C   0  0  0  0  0  0  0  0  0  0  0  0
   -4.4762   23.1289  -17.3733 C   0  0  0  0  0  0  0  0  0  0  0  0
   -3.1307   22.3458  -16.5634 Cl  0  0  0  0  0  0  0  0  0  0  0  0
   -5.1847   24.1246  -16.7568 C   0  0  0  0  0  0  0  0  0  0  0  0
   -6.2197   24.7208  -17.3920 N   0  0  0  0  0  0  0  0  0  0  0  0
   -6.5919   24.3602  -18.6485 C   0  0  0  0  0  0  0  0  0  0  0  0
   -5.9088   23.3654  -19.3050 C   0  0  0  0  0  0  0  0  0  0  0  0
   -6.3531   22.8716  -20.9173 Cl  0  0  0  0  0  0  0  0  0  0  0  0
   -0.5240   22.0887  -25.2859 C   0  0  0  0  0  0  0  0  0  0  0  0
    0.5006   22.1682  -26.1855 C   0  0  0  0  0  0  0  0  0  0  0  0
    0.3137   22.5439  -27.5123 C   0  0  0  0  0  0  0  0  0  0  0  0
   -0.9790   22.8517  -27.9359 C   0  0  0  0  0  0  0  0  0  0  0  0
   -2.0202   22.7820  -27.0640 C   0  0  0  0  0  0  0  0  0  0  0  0
   -1.7903   22.3996  -25.7368 C   0  0  0  0  0  0  0  0  0  0  0  0
   -3.3736   23.1041  -27.5045 C   0  0  0  0  0  0  0  0  0  0  0  0
   -3.7453   22.8987  -28.8240 C   0  0  0  0  0  0  0  0  0  0  0  0
   -5.0444   23.2199  -29.1980 C   0  0  0  0  0  0  0  0  0  0  0  0
   -5.9523   23.7294  -28.2969 C   0  0  0  0  0  0  0  0  0  0  0  0
   -5.5728   23.9298  -26.9873 C   0  0  0  0  0  0  0  0  0  0  0  0
   -4.2848   23.6158  -26.5983 C   0  0  0  0  0  0  0  0  0  0  0  0
   -6.6551   24.5704  -25.7777 S   0  0  0  0  0  0  0  0  0  0  0  0
   -6.1731   26.1557  -25.1893 C   0  0  0  0  0  0  0  0  0  0  0  0
   -6.7318   23.5404  -24.6618 O   0  0  0  0  0  0  0  0  0  0  0  0
   -8.0333   24.5970  -26.3995 O   0  0  0  0  0  0  0  0  0  0  0  0
    3.3271   20.3997  -22.7002 C   0  0  0  0  0  0  0  0  0  0  0  0
    2.3873   20.8304  -21.6093 C   0  0  0  0  0  0  0  0  0  0  0  0
 38 39  1  0  0  0
 39  1  1  0  0  0
  1  2  1  0  0  0
  2  3  2  0  0  0
  3  4  1  0  0  0
  4  5  2  0  0  0
  5  8  1  0  0  0
  8  9  1  0  0  0
  9 10  2  0  0  0
  9 11  1  0  0  0
 11 14  1  0  0  0
 14 15  2  0  0  0
 15 16  1  0  0  0
 15 17  1  0  0  0
 17 18  2  0  0  0
 18 19  1  0  0  0
 19 20  2  0  0  0
 20 21  1  0  0  0
  5  6  1  0  0  0
  6  7  2  0  0  0
  3 22  1  0  0  0
 22 23  2  0  0  0
 23 24  1  0  0  0
 24 25  2  0  0  0
 25 26  1  0  0  0
 26 27  2  0  0  0
 26 28  1  0  0  0
 28 29  2  0  0  0
 29 30  1  0  0  0
 30 31  2  0  0  0
 31 32  1  0  0  0
 32 33  2  0  0  0
 32 34  1  0  0  0
 34 35  1  0  0  0
 34 36  2  0  0  0
 34 37  2  0  0  0
  6  1  1  0  0  0
 27 22  1  0  0  0
 33 28  1  0  0  0
 20 14  1  0  0  0
  8 12  1  0  0  0
 11 13  1  0  0  0
M  END
> <minimizedAffinity>
-11.15993

> <CNNscore>
0.1199170351

> <CNNaffinity>
6.6443758011

> <CNN_VS>
0.7967738509

> <CNNaffinity_variance>
0.3980505168

$$$$
[H]c1nc([H])c(Cl)c(N([H])C(=O)N([H])c2c([H])c(-c3c([H])c([H])c([H])c(-c4c([H])c([H])c([H])c(S(=O)(=O)C([H])([H])[H])c4[H])c3[H])nn(C([H])([H])C([H])([H])[H])c2=O)c1Cl


 39 42  0  0  0  0  0  0  0  0999 V2000
   -2.2427   21.5130  -20.9399 N   0  0  0  0  0  0  0  0  0  0  0  0
   -2.0780   21.7261  -22.2060 N   0  0  0  0  0  0  0  0  0  0  0  0
   -0.8892   21.7075  -22.8302 C   0  0  0  0  0  0  0  0  0  0  0  0
    0.2394   21.4390  -22.0532 C   0  0  0  0  0  0  0  0  0  0  0  0
    0.0795   21.2102  -20.7041 C   0  0  0  0  0  0  0  0  0  0  0  0
   -1.1980   21.2522  -20.1528 C   0  0  0  0  0  0  0  0  0  0  0  0
   -1.3194   21.0393  -18.9150 O   0  0  0  0  0  0  0  0  0  0  0  0
    1.1486   20.9345  -19.8466 N   0  0  0  0  0  0  0  0  0  0  0  0
    1.9097   21.8504  -19.1478 C   0  0  0  0  0  0  0  0  0  0  0  0
    1.7581   23.0696  -19.1761 O   0  0  0  0  0  0  0  0  0  0  0  0
    2.9801   21.3701  -18.3050 N   0  0  0  0  0  0  0  0  0  0  0  0
    1.4249   19.9048  -19.7009 H   0  0  0  0  0  0  0  0  0  0  0  0
    3.1709   20.3264  -18.2299 H   0  0  0  0  0  0  0  0  0  0  0  0
    3.7622   22.3070  -17.5879 C   0  0  0  0  0  0  0  0  0  0  0  0
    3.2681   22.7745  -16.3851 C   0  0  0  0  0  0  0  0  0  0  0  0
    1.7187   22.2094  -15.7853 Cl  0  0  0  0  0  0  0  0  0  0  0  0
    4.0080   23.6817  -15.6758 C   0  0  0  0  0  0  0  0  0  0  0  0
    5.2011   24.1093  -16.1486 N   0  0  0  0  0  0  0  0  0  0  0  0
    5.7052   23.6621  -17.3290 C   0  0  0  0  0  0  0  0  0  0  0  0
    4.9963   22.7512  -18.0740 C   0  0  0  0  0  0  0  0  0  0  0  0
    5.6058   22.1517  -19.5938 Cl  0  0  0  0  0  0  0  0  0  0  0  0
   -0.7895   21.9606  -24.2722 C   0  0  0  0  0  0  0  0  0  0  0  0
    0.3484   21.8166  -25.0138 C   0  0  0  0  0  0  0  0  0  0  0  0
    0.3959   22.0694  -26.3814 C   0  0  0  0  0  0  0  0  0  0  0  0
   -0.7728   22.4881  -27.0168 C   0  0  0  0  0  0  0  0  0  0  0  0
   -1.9219   22.6410  -26.3058 C   0  0  0  0  0  0  0  0  0  0  0  0
   -1.9282   22.3763  -24.9309 C   0  0  0  0  0  0  0  0  0  0  0  0
   -3.1459   23.0796  -26.9681 C   0  0  0  0  0  0  0  0  0  0  0  0
   -3.2900   22.9295  -28.3386 C   0  0  0  0  0  0  0  0  0  0  0  0
   -4.4728   23.3616  -28.9259 C   0  0  0  0  0  0  0  0  0  0  0  0
   -5.4858   23.9260  -28.1836 C   0  0  0  0  0  0  0  0  0  0  0  0
   -5.3327   24.0707  -26.8216 C   0  0  0  0  0  0  0  0  0  0  0  0
   -4.1629   23.6465  -26.2212 C   0  0  0  0  0  0  0  0  0  0  0  0
   -6.5621   24.7741  -25.8024 S   0  0  0  0  0  0  0  0  0  0  0  0
   -6.1163   26.3541  -25.1723 C   0  0  0  0  0  0  0  0  0  0  0  0
   -6.8466   23.7716  -24.6952 O   0  0  0  0  0  0  0  0  0  0  0  0
   -7.8273   24.8352  -26.6283 O   0  0  0  0  0  0  0  0  0  0  0  0
   -4.6470   21.8835  -21.3059 C   0  0  0  0  0  0  0  0  0  0  0  0
   -3.5700   21.5464  -20.3133 C   0  0  0  0  0  0  0  0  0  0  0  0
 38 39  1  0  0  0
 39  1  1  0  0  0
  1  2  1  0  0  0
  2  3  2  0  0  0
  3  4  1  0  0  0
  4  5  2  0  0  0
  5  8  1  0  0  0
  8  9  1  0  0  0
  9 10  2  0  0  0
  9 11  1  0  0  0
 11 14  1  0  0  0
 14 15  2  0  0  0
 15 16  1  0  0  0
 15 17  1  0  0  0
 17 18  2  0  0  0
 18 19  1  0  0  0
 19 20  2  0  0  0
 20 21  1  0  0  0
  5  6  1  0  0  0
  6  7  2  0  0  0
  3 22  1  0  0  0
 22 23  2  0  0  0
 23 24  1  0  0  0
 24 25  2  0  0  0
 25 26  1  0  0  0
 26 27  2  0  0  0
 26 28  1  0  0  0
 28 29  2  0  0  0
 29 30  1  0  0  0
 30 31  2  0  0  0
 31 32  1  0  0  0
 32 33  2  0  0  0
 32 34  1  0  0  0
 34 35  1  0  0  0
 34 36  2  0  0  0
 34 37  2  0  0  0
  6  1  1  0  0  0
 27 22  1  0  0  0
 33 28  1  0  0  0
 20 14  1  0  0  0
  8 12  1  0  0  0
 11 13  1  0  0  0
M  END
> <minimizedAffinity>
-9.88635

> <CNNscore>
0.1085155308

> <CNNaffinity>
6.6237640381

> <CNN_VS>
0.7187812924

> <CNNaffinity_variance>
0.0654958934

$$$$
[H]c1nc([H])c(Cl)c(N([H])C(=O)N([H])c2c([H])c(-c3c([H])c([H])c([H])c(-c4c([H])c([H])c([H])c(S(=O)(=O)C([H])([H])[H])c4[H])c3[H])nn(C([H])([H])C([H])([H])[H])c2=O)c1Cl


 39 42  0  0  0  0  0  0  0  0999 V2000
   -5.1638   23.7771  -21.4291 N   0  0  0  0  0  0  0  0  0  0  0  0
   -4.1035   23.4484  -22.0949 N   0  0  0  0  0  0  0  0  0  0  0  0
   -3.1824   22.5690  -21.6688 C   0  0  0  0  0  0  0  0  0  0  0  0
   -3.3911   21.9742  -20.4229 C   0  0  0  0  0  0  0  0  0  0  0  0
   -4.5153   22.3144  -19.7030 C   0  0  0  0  0  0  0  0  0  0  0  0
   -5.4106   23.2385  -20.2342 C   0  0  0  0  0  0  0  0  0  0  0  0
   -6.4331   23.5342  -19.5565 O   0  0  0  0  0  0  0  0  0  0  0  0
   -4.8086   21.7729  -18.4480 N   0  0  0  0  0  0  0  0  0  0  0  0
   -5.5802   20.6586  -18.1844 C   0  0  0  0  0  0  0  0  0  0  0  0
   -6.1361   19.9626  -19.0309 O   0  0  0  0  0  0  0  0  0  0  0  0
   -5.7702   20.2498  -16.8119 N   0  0  0  0  0  0  0  0  0  0  0  0
   -4.3991   22.2608  -17.5807 H   0  0  0  0  0  0  0  0  0  0  0  0
   -5.3187   20.8041  -16.0243 H   0  0  0  0  0  0  0  0  0  0  0  0
   -6.5612   19.1082  -16.5389 C   0  0  0  0  0  0  0  0  0  0  0  0
   -7.9062   19.2999  -16.2864 C   0  0  0  0  0  0  0  0  0  0  0  0
   -8.5896   20.9161  -16.3105 Cl  0  0  0  0  0  0  0  0  0  0  0  0
   -8.6893   18.2094  -16.0192 C   0  0  0  0  0  0  0  0  0  0  0  0
   -8.1506   16.9686  -16.0040 N   0  0  0  0  0  0  0  0  0  0  0  0
   -6.8305   16.7583  -16.2496 C   0  0  0  0  0  0  0  0  0  0  0  0
   -6.0074   17.8238  -16.5224 C   0  0  0  0  0  0  0  0  0  0  0  0
   -4.3082   17.5989  -16.8427 Cl  0  0  0  0  0  0  0  0  0  0  0  0
   -2.0060   22.2519  -22.4866 C   0  0  0  0  0  0  0  0  0  0  0  0
   -0.8523   21.6950  -22.0130 C   0  0  0  0  0  0  0  0  0  0  0  0
    0.2400   21.4121  -22.8274 C   0  0  0  0  0  0  0  0  0  0  0  0
    0.1464   21.7129  -24.1860 C   0  0  0  0  0  0  0  0  0  0  0  0
   -0.9889   22.2680  -24.6880 C   0  0  0  0  0  0  0  0  0  0  0  0
   -2.0662   22.5374  -23.8350 C   0  0  0  0  0  0  0  0  0  0  0  0
   -1.0891   22.5843  -26.1090 C   0  0  0  0  0  0  0  0  0  0  0  0
    0.0440   22.5753  -26.9074 C   0  0  0  0  0  0  0  0  0  0  0  0
   -0.0996   22.8829  -28.2548 C   0  0  0  0  0  0  0  0  0  0  0  0
   -1.3255   23.1908  -28.8007 C   0  0  0  0  0  0  0  0  0  0  0  0
   -2.4460   23.1969  -27.9984 C   0  0  0  0  0  0  0  0  0  0  0  0
   -2.3214   22.8934  -26.6562 C   0  0  0  0  0  0  0  0  0  0  0  0
   -4.0386   23.5747  -28.6029 S   0  0  0  0  0  0  0  0  0  0  0  0
   -4.1371   25.1671  -29.3422 C   0  0  0  0  0  0  0  0  0  0  0  0
   -5.0031   23.4197  -27.4378 O   0  0  0  0  0  0  0  0  0  0  0  0
   -4.4032   22.4787  -29.5789 O   0  0  0  0  0  0  0  0  0  0  0  0
   -6.7572   24.2794  -23.2349 C   0  0  0  0  0  0  0  0  0  0  0  0
   -6.1368   24.7464  -21.9481 C   0  0  0  0  0  0  0  0  0  0  0  0
 38 39  1  0  0  0
 39  1  1  0  0  0
  1  2  1  0  0  0
  2  3  2  0  0  0
  3  4  1  0  0  0
  4  5  2  0  0  0
  5  8  1  0  0  0
  8  9  1  0  0  0
  9 10  2  0  0  0
  9 11  1  0  0  0
 11 14  1  0  0  0
 14 15  2  0  0  0
 15 16  1  0  0  0
 15 17  1  0  0  0
 17 18  2  0  0  0
 18 19  1  0  0  0
 19 20  2  0  0  0
 20 21  1  0  0  0
  5  6  1  0  0  0
  6  7  2  0  0  0
  3 22  1  0  0  0
 22 23  2  0  0  0
 23 24  1  0  0  0
 24 25  2  0  0  0
 25 26  1  0  0  0
 26 27  2  0  0  0
 26 28  1  0  0  0
 28 29  2  0  0  0
 29 30  1  0  0  0
 30 31  2  0  0  0
 31 32  1  0  0  0
 32 33  2  0  0  0
 32 34  1  0  0  0
 34 35  1  0  0  0
 34 36  2  0  0  0
 34 37  2  0  0  0
  6  1  1  0  0  0
 27 22  1  0  0  0
 33 28  1  0  0  0
 20 14  1  0  0  0
  8 12  1  0  0  0
 11 13  1  0  0  0
M  END
> <minimizedAffinity>
-8.21266

> <CNNscore>
0.1062979177

> <CNNaffinity>
6.5053186417

> <CNN_VS>
0.6915017962

> <CNNaffinity_variance>
0.0647084564

$$$$
[H]c1nc(C([H])([H])[H])c(-c2c([H])c(N3C([H])([H])C([H])([H])OC([H])([H])C3([H])[H])c(=O)n(C([H])([H])[H])c2[H])c([H])c1N([H])C(=O)c1c([H])c([H])c([H])c(C(F)(F)F)c1[H]


 35 38  0  0  0  0  0  0  0  0999 V2000
   -0.2719   23.3369  -28.3448 C   0  0  0  0  0  0  0  0  0  0  0  0
   -0.4938   22.6717  -27.0091 C   0  0  0  0  0  0  0  0  0  0  0  0
    0.6273   22.2555  -26.3515 N   0  0  0  0  0  0  0  0  0  0  0  0
    0.5224   21.7349  -25.1172 C   0  0  0  0  0  0  0  0  0  0  0  0
   -0.7240   21.5991  -24.4700 C   0  0  0  0  0  0  0  0  0  0  0  0
   -1.8269   22.0103  -25.1296 C   0  0  0  0  0  0  0  0  0  0  0  0
   -1.7304   22.5600  -26.4272 C   0  0  0  0  0  0  0  0  0  0  0  0
   -2.9239   23.0356  -27.1335 C   0  0  0  0  0  0  0  0  0  0  0  0
   -3.7667   23.9243  -26.4700 C   0  0  0  0  0  0  0  0  0  0  0  0
   -4.9609   24.2863  -27.0925 C   0  0  0  0  0  0  0  0  0  0  0  0
   -5.2210   23.7503  -28.3243 C   0  0  0  0  0  0  0  0  0  0  0  0
   -6.3318   24.1089  -28.8799 O   0  0  0  0  0  0  0  0  0  0  0  0
   -4.4040   22.8931  -28.9749 N   0  0  0  0  0  0  0  0  0  0  0  0
   -4.8306   22.4385  -30.2860 C   0  0  0  0  0  0  0  0  0  0  0  0
   -3.2643   22.5462  -28.3724 C   0  0  0  0  0  0  0  0  0  0  0  0
   -5.8587   25.0824  -26.3627 N   0  0  0  0  0  0  0  0  0  0  0  0
   -5.6958   26.4960  -26.1912 C   0  0  0  0  0  0  0  0  0  0  0  0
   -6.0321   26.9338  -24.7676 C   0  0  0  0  0  0  0  0  0  0  0  0
   -6.4540   25.9149  -23.9731 O   0  0  0  0  0  0  0  0  0  0  0  0
   -7.4977   25.1773  -24.5052 C   0  0  0  0  0  0  0  0  0  0  0  0
   -7.0437   24.4662  -25.7718 C   0  0  0  0  0  0  0  0  0  0  0  0
   -0.5984   21.2031  -23.0751 N   0  0  0  0  0  0  0  0  0  0  0  0
   -0.9023   22.2593  -22.1793 C   0  0  0  0  0  0  0  0  0  0  0  0
   -1.2775   23.3782  -22.7726 O   0  0  0  0  0  0  0  0  0  0  0  0
   -0.3319   20.2867  -22.7864 H   0  0  0  0  0  0  0  0  0  0  0  0
   -0.8590   22.2987  -20.7596 C   0  0  0  0  0  0  0  0  0  0  0  0
   -2.1000   22.3878  -20.0604 C   0  0  0  0  0  0  0  0  0  0  0  0
   -2.1185   22.5144  -18.7152 C   0  0  0  0  0  0  0  0  0  0  0  0
   -0.9867   22.5667  -17.9540 C   0  0  0  0  0  0  0  0  0  0  0  0
    0.2543   22.4786  -18.6013 C   0  0  0  0  0  0  0  0  0  0  0  0
    0.2617   22.3496  -19.9934 C   0  0  0  0  0  0  0  0  0  0  0  0
    1.4969   22.5018  -17.8293 C   0  0  0  0  0  0  0  0  0  0  0  0
    1.2850   22.3159  -16.4873 F   0  0  0  0  0  0  0  0  0  0  0  0
    2.3541   21.4959  -18.2761 F   0  0  0  0  0  0  0  0  0  0  0  0
    2.0925   23.7299  -18.0163 F   0  0  0  0  0  0  0  0  0  0  0  0
  1  2  1  0  0  0
  2  3  2  0  0  0
  3  4  1  0  0  0
  4  5  2  0  0  0
  5 22  1  0  0  0
 22 23  1  0  0  0
 23 24  2  0  0  0
 23 26  1  0  0  0
 26 27  2  0  0  0
 27 28  1  0  0  0
 28 29  2  0  0  0
 29 30  1  0  0  0
 30 31  2  0  0  0
 30 32  1  0  0  0
 32 33  1  0  0  0
 32 34  1  0  0  0
 32 35  1  0  0  0
  5  6  1  0  0  0
  6  7  2  0  0  0
  7  8  1  0  0  0
  8  9  1  0  0  0
  9 10  2  0  0  0
 10 16  1  0  0  0
 16 17  1  0  0  0
 17 18  1  0  0  0
 18 19  1  0  0  0
 19 20  1  0  0  0
 20 21  1  0  0  0
 10 11  1  0  0  0
 11 12  2  0  0  0
 11 13  1  0  0  0
 13 14  1  0  0  0
 13 15  1  0  0  0
  7  2  1  0  0  0
 15  8  2  0  0  0
 31 26  1  0  0  0
 21 16  1  0  0  0
 22 25  1  0  0  0
M  END
> <minimizedAffinity>
-9.06905

> <CNNscore>
0.7833147049

> <CNNaffinity>
7.3915009499

> <CNN_VS>
5.7898712158

> <CNNaffinity_variance>
0.1423632205

$$$$
[H]c1nc(C([H])([H])[H])c(-c2c([H])c(N3C([H])([H])C([H])([H])OC([H])([H])C3([H])[H])c(=O)n(C([H])([H])[H])c2[H])c([H])c1N([H])C(=O)c1c([H])c([H])c([H])c(C(F)(F)F)c1[H]


 35 38  0  0  0  0  0  0  0  0999 V2000
   -1.0497   23.3241  -28.8408 C   0  0  0  0  0  0  0  0  0  0  0  0
   -0.7603   22.7908  -27.4596 C   0  0  0  0  0  0  0  0  0  0  0  0
    0.5335   22.4333  -27.2126 N   0  0  0  0  0  0  0  0  0  0  0  0
    0.8917   22.0335  -25.9807 C   0  0  0  0  0  0  0  0  0  0  0  0
   -0.0367   21.9668  -24.9203 C   0  0  0  0  0  0  0  0  0  0  0  0
   -1.3140   22.3189  -25.1754 C   0  0  0  0  0  0  0  0  0  0  0  0
   -1.7036   22.7416  -26.4657 C   0  0  0  0  0  0  0  0  0  0  0  0
   -3.0840   23.1538  -26.7376 C   0  0  0  0  0  0  0  0  0  0  0  0
   -3.8915   23.4930  -25.6544 C   0  0  0  0  0  0  0  0  0  0  0  0
   -5.2358   23.7716  -25.8988 C   0  0  0  0  0  0  0  0  0  0  0  0
   -5.6715   23.7034  -27.1941 C   0  0  0  0  0  0  0  0  0  0  0  0
   -6.9203   23.9731  -27.3912 O   0  0  0  0  0  0  0  0  0  0  0  0
   -4.8911   23.3813  -28.2490 N   0  0  0  0  0  0  0  0  0  0  0  0
   -5.5175   23.3768  -29.5586 C   0  0  0  0  0  0  0  0  0  0  0  0
   -3.6060   23.1110  -28.0087 C   0  0  0  0  0  0  0  0  0  0  0  0
   -6.0666   23.9897  -24.7876 N   0  0  0  0  0  0  0  0  0  0  0  0
   -6.5018   25.2913  -24.3747 C   0  0  0  0  0  0  0  0  0  0  0  0
   -6.4640   25.4430  -22.8558 C   0  0  0  0  0  0  0  0  0  0  0  0
   -6.0721   24.3141  -22.2084 O   0  0  0  0  0  0  0  0  0  0  0  0
   -6.7899   23.1831  -22.5578 C   0  0  0  0  0  0  0  0  0  0  0  0
   -6.5530   22.8446  -24.0226 C   0  0  0  0  0  0  0  0  0  0  0  0
    0.5903   21.7051  -23.6333 N   0  0  0  0  0  0  0  0  0  0  0  0
   -0.3293   21.2249  -22.6667 C   0  0  0  0  0  0  0  0  0  0  0  0
   -1.5588   21.0686  -23.1234 O   0  0  0  0  0  0  0  0  0  0  0  0
    1.5616   21.8454  -23.4570 H   0  0  0  0  0  0  0  0  0  0  0  0
   -0.1335   20.8969  -21.2981 C   0  0  0  0  0  0  0  0  0  0  0  0
   -0.4421   21.8953  -20.3261 C   0  0  0  0  0  0  0  0  0  0  0  0
   -0.1963   21.6723  -19.0162 C   0  0  0  0  0  0  0  0  0  0  0  0
    0.3495   20.5133  -18.5451 C   0  0  0  0  0  0  0  0  0  0  0  0
    0.6643   19.5042  -19.4667 C   0  0  0  0  0  0  0  0  0  0  0  0
    0.4074   19.7462  -20.8195 C   0  0  0  0  0  0  0  0  0  0  0  0
    1.2255   18.2322  -19.0111 C   0  0  0  0  0  0  0  0  0  0  0  0
    2.5330   18.3472  -18.6141 F   0  0  0  0  0  0  0  0  0  0  0  0
    0.4866   17.7444  -17.9330 F   0  0  0  0  0  0  0  0  0  0  0  0
    1.1586   17.3375  -20.0566 F   0  0  0  0  0  0  0  0  0  0  0  0
  1  2  1  0  0  0
  2  3  2  0  0  0
  3  4  1  0  0  0
  4  5  2  0  0  0
  5 22  1  0  0  0
 22 23  1  0  0  0
 23 24  2  0  0  0
 23 26  1  0  0  0
 26 27  2  0  0  0
 27 28  1  0  0  0
 28 29  2  0  0  0
 29 30  1  0  0  0
 30 31  2  0  0  0
 30 32  1  0  0  0
 32 33  1  0  0  0
 32 34  1  0  0  0
 32 35  1  0  0  0
  5  6  1  0  0  0
  6  7  2  0  0  0
  7  8  1  0  0  0
  8  9  1  0  0  0
  9 10  2  0  0  0
 10 16  1  0  0  0
 16 17  1  0  0  0
 17 18  1  0  0  0
 18 19  1  0  0  0
 19 20  1  0  0  0
 20 21  1  0  0  0
 10 11  1  0  0  0
 11 12  2  0  0  0
 11 13  1  0  0  0
 13 14  1  0  0  0
 13 15  1  0  0  0
  7  2  1  0  0  0
 15  8  2  0  0  0
 31 26  1  0  0  0
 21 16  1  0  0  0
 22 25  1  0  0  0
M  END
> <minimizedAffinity>
-8.61217

> <CNNscore>
0.7742228508

> <CNNaffinity>
7.3601312637

> <CNN_VS>
5.6983819008

> <CNNaffinity_variance>
0.2196996957

$$$$
[H]c1nc(C([H])([H])[H])c(-c2c([H])c(N3C([H])([H])C([H])([H])OC([H])([H])C3([H])[H])c(=O)n(C([H])([H])[H])c2[H])c([H])c1N([H])C(=O)c1c([H])c([H])c([H])c(C(F)(F)F)c1[H]


 35 38  0  0  0  0  0  0  0  0999 V2000
   -1.1735   23.2868  -28.7597 C   0  0  0  0  0  0  0  0  0  0  0  0
   -0.8085   22.7914  -27.3823 C   0  0  0  0  0  0  0  0  0  0  0  0
    0.5030   22.4674  -27.1883 N   0  0  0  0  0  0  0  0  0  0  0  0
    0.9266   22.1035  -25.9661 C   0  0  0  0  0  0  0  0  0  0  0  0
    0.0500   22.0411  -24.8623 C   0  0  0  0  0  0  0  0  0  0  0  0
   -1.2453   22.3599  -25.0650 C   0  0  0  0  0  0  0  0  0  0  0  0
   -1.7035   22.7447  -26.3445 C   0  0  0  0  0  0  0  0  0  0  0  0
   -3.1039   23.1211  -26.5604 C   0  0  0  0  0  0  0  0  0  0  0  0
   -3.8811   23.4205  -25.4438 C   0  0  0  0  0  0  0  0  0  0  0  0
   -5.2407   23.6638  -25.6358 C   0  0  0  0  0  0  0  0  0  0  0  0
   -5.7206   23.6027  -26.9157 C   0  0  0  0  0  0  0  0  0  0  0  0
   -6.9829   23.8392  -27.0639 O   0  0  0  0  0  0  0  0  0  0  0  0
   -4.9700   23.3192  -28.0027 N   0  0  0  0  0  0  0  0  0  0  0  0
   -5.6428   23.3164  -29.2891 C   0  0  0  0  0  0  0  0  0  0  0  0
   -3.6699   23.0824  -27.8127 C   0  0  0  0  0  0  0  0  0  0  0  0
   -6.0367   23.8411  -24.4924 N   0  0  0  0  0  0  0  0  0  0  0  0
   -6.5147   25.1204  -24.0577 C   0  0  0  0  0  0  0  0  0  0  0  0
   -6.4250   25.2703  -22.5409 C   0  0  0  0  0  0  0  0  0  0  0  0
   -5.9568   24.1591  -21.9137 O   0  0  0  0  0  0  0  0  0  0  0  0
   -6.6351   22.9972  -22.2395 C   0  0  0  0  0  0  0  0  0  0  0  0
   -6.4401   22.6732  -23.7137 C   0  0  0  0  0  0  0  0  0  0  0  0
    0.7417   21.8222  -23.6006 N   0  0  0  0  0  0  0  0  0  0  0  0
   -0.1037   21.2721  -22.6040 C   0  0  0  0  0  0  0  0  0  0  0  0
   -1.3343   21.0267  -23.0165 O   0  0  0  0  0  0  0  0  0  0  0  0
    1.7058   22.0335  -23.4590 H   0  0  0  0  0  0  0  0  0  0  0  0
    0.1660   20.9549  -21.2455 C   0  0  0  0  0  0  0  0  0  0  0  0
    0.9155   19.7704  -20.9772 C   0  0  0  0  0  0  0  0  0  0  0  0
    1.1302   19.3717  -19.7040 C   0  0  0  0  0  0  0  0  0  0  0  0
    0.6581   20.0513  -18.6185 C   0  0  0  0  0  0  0  0  0  0  0  0
   -0.0803   21.2232  -18.8377 C   0  0  0  0  0  0  0  0  0  0  0  0
   -0.2978   21.6256  -20.1589 C   0  0  0  0  0  0  0  0  0  0  0  0
   -0.5853   22.0040  -17.7081 C   0  0  0  0  0  0  0  0  0  0  0  0
   -1.6527   21.4044  -17.0905 F   0  0  0  0  0  0  0  0  0  0  0  0
    0.4231   22.1768  -16.7597 F   0  0  0  0  0  0  0  0  0  0  0  0
   -0.9843   23.2339  -18.1840 F   0  0  0  0  0  0  0  0  0  0  0  0
  1  2  1  0  0  0
  2  3  2  0  0  0
  3  4  1  0  0  0
  4  5  2  0  0  0
  5 22  1  0  0  0
 22 23  1  0  0  0
 23 24  2  0  0  0
 23 26  1  0  0  0
 26 27  2  0  0  0
 27 28  1  0  0  0
 28 29  2  0  0  0
 29 30  1  0  0  0
 30 31  2  0  0  0
 30 32  1  0  0  0
 32 33  1  0  0  0
 32 34  1  0  0  0
 32 35  1  0  0  0
  5  6  1  0  0  0
  6  7  2  0  0  0
  7  8  1  0  0  0
  8  9  1  0  0  0
  9 10  2  0  0  0
 10 16  1  0  0  0
 16 17  1  0  0  0
 17 18  1  0  0  0
 18 19  1  0  0  0
 19 20  1  0  0  0
 20 21  1  0  0  0
 10 11  1  0  0  0
 11 12  2  0  0  0
 11 13  1  0  0  0
 13 14  1  0  0  0
 13 15  1  0  0  0
  7  2  1  0  0  0
 15  8  2  0  0  0
 31 26  1  0  0  0
 21 16  1  0  0  0
 22 25  1  0  0  0
M  END
> <minimizedAffinity>
-8.89115

> <CNNscore>
0.6828241348

> <CNNaffinity>
7.2464852333

> <CNN_VS>
4.9480748177

> <CNNaffinity_variance>
0.1569203436

$$$$
[H]c1nc(C([H])([H])[H])c(-c2c([H])c(N3C([H])([H])C([H])([H])OC([H])([H])C3([H])[H])c(=O)n(C([H])([H])[H])c2[H])c([H])c1N([H])C(=O)c1c([H])c([H])c([H])c(C(F)(F)F)c1[H]


 35 38  0  0  0  0  0  0  0  0999 V2000
   -0.2392   23.2357  -28.2559 C   0  0  0  0  0  0  0  0  0  0  0  0
   -0.4820   22.6107  -26.9045 C   0  0  0  0  0  0  0  0  0  0  0  0
    0.6269   22.1909  -26.2287 N   0  0  0  0  0  0  0  0  0  0  0  0
    0.5044   21.7054  -24.9817 C   0  0  0  0  0  0  0  0  0  0  0  0
   -0.7483   21.6106  -24.3394 C   0  0  0  0  0  0  0  0  0  0  0  0
   -1.8391   22.0249  -25.0171 C   0  0  0  0  0  0  0  0  0  0  0  0
   -1.7241   22.5379  -26.3282 C   0  0  0  0  0  0  0  0  0  0  0  0
   -2.9038   23.0171  -27.0548 C   0  0  0  0  0  0  0  0  0  0  0  0
   -3.7483   23.9183  -26.4105 C   0  0  0  0  0  0  0  0  0  0  0  0
   -4.9309   24.2846  -27.0523 C   0  0  0  0  0  0  0  0  0  0  0  0
   -5.1785   23.7401  -28.2830 C   0  0  0  0  0  0  0  0  0  0  0  0
   -6.2787   24.1030  -28.8567 O   0  0  0  0  0  0  0  0  0  0  0  0
   -4.3598   22.8708  -28.9150 N   0  0  0  0  0  0  0  0  0  0  0  0
   -4.7722   22.4084  -30.2279 C   0  0  0  0  0  0  0  0  0  0  0  0
   -3.2313   22.5199  -28.2940 C   0  0  0  0  0  0  0  0  0  0  0  0
   -5.8319   25.0943  -26.3416 N   0  0  0  0  0  0  0  0  0  0  0  0
   -5.6684   26.5104  -26.1938 C   0  0  0  0  0  0  0  0  0  0  0  0
   -6.0124   26.9732  -24.7800 C   0  0  0  0  0  0  0  0  0  0  0  0
   -6.4402   25.9687  -23.9704 O   0  0  0  0  0  0  0  0  0  0  0  0
   -7.4816   25.2231  -24.4957 C   0  0  0  0  0  0  0  0  0  0  0  0
   -7.0210   24.4896  -25.7471 C   0  0  0  0  0  0  0  0  0  0  0  0
   -0.6390   21.2495  -22.9338 N   0  0  0  0  0  0  0  0  0  0  0  0
   -1.1075   22.2721  -22.0704 C   0  0  0  0  0  0  0  0  0  0  0  0
   -1.5872   23.3302  -22.6989 O   0  0  0  0  0  0  0  0  0  0  0  0
   -0.2777   20.3755  -22.6179 H   0  0  0  0  0  0  0  0  0  0  0  0
   -1.1331   22.3336  -20.6511 C   0  0  0  0  0  0  0  0  0  0  0  0
    0.1031   22.1674  -19.9576 C   0  0  0  0  0  0  0  0  0  0  0  0
    0.1292   22.1310  -18.6071 C   0  0  0  0  0  0  0  0  0  0  0  0
   -0.9905   22.2449  -17.8349 C   0  0  0  0  0  0  0  0  0  0  0  0
   -2.2261   22.4136  -18.4765 C   0  0  0  0  0  0  0  0  0  0  0  0
   -2.2416   22.4481  -19.8741 C   0  0  0  0  0  0  0  0  0  0  0  0
   -3.4530   22.5684  -17.6946 C   0  0  0  0  0  0  0  0  0  0  0  0
   -3.4863   23.7489  -16.9977 F   0  0  0  0  0  0  0  0  0  0  0  0
   -4.5634   22.5317  -18.5383 F   0  0  0  0  0  0  0  0  0  0  0  0
   -3.5222   21.5244  -16.7982 F   0  0  0  0  0  0  0  0  0  0  0  0
  1  2  1  0  0  0
  2  3  2  0  0  0
  3  4  1  0  0  0
  4  5  2  0  0  0
  5 22  1  0  0  0
 22 23  1  0  0  0
 23 24  2  0  0  0
 23 26  1  0  0  0
 26 27  2  0  0  0
 27 28  1  0  0  0
 28 29  2  0  0  0
 29 30  1  0  0  0
 30 31  2  0  0  0
 30 32  1  0  0  0
 32 33  1  0  0  0
 32 34  1  0  0  0
 32 35  1  0  0  0
  5  6  1  0  0  0
  6  7  2  0  0  0
  7  8  1  0  0  0
  8  9  1  0  0  0
  9 10  2  0  0  0
 10 16  1  0  0  0
 16 17  1  0  0  0
 17 18  1  0  0  0
 18 19  1  0  0  0
 19 20  1  0  0  0
 20 21  1  0  0  0
 10 11  1  0  0  0
 11 12  2  0  0  0
 11 13  1  0  0  0
 13 14  1  0  0  0
 13 15  1  0  0  0
  7  2  1  0  0  0
 15  8  2  0  0  0
 31 26  1  0  0  0
 21 16  1  0  0  0
 22 25  1  0  0  0
M  END
> <minimizedAffinity>
-8.98178

> <CNNscore>
0.6392599344

> <CNNaffinity>
7.2733449936

> <CNN_VS>
4.6495580673

> <CNNaffinity_variance>
0.1775372773

$$$$
[H]c1nc(C([H])([H])[H])c(-c2c([H])c(N3C([H])([H])C([H])([H])OC([H])([H])C3([H])[H])c(=O)n(C([H])([H])[H])c2[H])c([H])c1N([H])C(=O)c1c([H])c([H])c([H])c(C(F)(F)F)c1[H]


 35 38  0  0  0  0  0  0  0  0999 V2000
   -0.9933   23.0158  -26.9656 C   0  0  0  0  0  0  0  0  0  0  0  0
   -1.1452   22.3252  -25.6330 C   0  0  0  0  0  0  0  0  0  0  0  0
    0.0011   21.8395  -25.0739 N   0  0  0  0  0  0  0  0  0  0  0  0
   -0.0351   21.2906  -23.8479 C   0  0  0  0  0  0  0  0  0  0  0  0
   -1.2339   21.1951  -23.1101 C   0  0  0  0  0  0  0  0  0  0  0  0
   -2.3624   21.6749  -23.6728 C   0  0  0  0  0  0  0  0  0  0  0  0
   -2.3381   22.2550  -24.9605 C   0  0  0  0  0  0  0  0  0  0  0  0
   -3.5572   22.8047  -25.5613 C   0  0  0  0  0  0  0  0  0  0  0  0
   -3.5831   22.9842  -26.9425 C   0  0  0  0  0  0  0  0  0  0  0  0
   -4.6938   23.6146  -27.5025 C   0  0  0  0  0  0  0  0  0  0  0  0
   -5.6938   24.0067  -26.6548 C   0  0  0  0  0  0  0  0  0  0  0  0
   -6.7135   24.5823  -27.2027 O   0  0  0  0  0  0  0  0  0  0  0  0
   -5.6766   23.8292  -25.3155 N   0  0  0  0  0  0  0  0  0  0  0  0
   -6.8347   24.2909  -24.5719 C   0  0  0  0  0  0  0  0  0  0  0  0
   -4.6088   23.2294  -24.7842 C   0  0  0  0  0  0  0  0  0  0  0  0
   -4.6537   23.9017  -28.8766 N   0  0  0  0  0  0  0  0  0  0  0  0
   -3.9717   25.0378  -29.4229 C   0  0  0  0  0  0  0  0  0  0  0  0
   -4.7794   25.6977  -30.5381 C   0  0  0  0  0  0  0  0  0  0  0  0
   -5.9463   25.0576  -30.8133 O   0  0  0  0  0  0  0  0  0  0  0  0
   -5.8035   23.7036  -31.0639 C   0  0  0  0  0  0  0  0  0  0  0  0
   -5.3009   22.9906  -29.8169 C   0  0  0  0  0  0  0  0  0  0  0  0
   -1.0223   20.7554  -21.7389 N   0  0  0  0  0  0  0  0  0  0  0  0
   -0.7069   21.8270  -20.8655 C   0  0  0  0  0  0  0  0  0  0  0  0
   -0.7053   23.0132  -21.4466 O   0  0  0  0  0  0  0  0  0  0  0  0
   -1.0966   19.8041  -21.4496 H   0  0  0  0  0  0  0  0  0  0  0  0
   -0.3903   21.8184  -19.4804 C   0  0  0  0  0  0  0  0  0  0  0  0
   -1.4047   21.3937  -18.5708 C   0  0  0  0  0  0  0  0  0  0  0  0
   -1.1915   21.4450  -17.2374 C   0  0  0  0  0  0  0  0  0  0  0  0
   -0.0278   21.8947  -16.6836 C   0  0  0  0  0  0  0  0  0  0  0  0
    0.9969   22.3181  -17.5423 C   0  0  0  0  0  0  0  0  0  0  0  0
    0.7649   22.2623  -18.9199 C   0  0  0  0  0  0  0  0  0  0  0  0
    2.2740   22.7830  -17.0007 C   0  0  0  0  0  0  0  0  0  0  0  0
    3.2788   21.8639  -17.1622 F   0  0  0  0  0  0  0  0  0  0  0  0
    2.6599   23.9631  -17.6366 F   0  0  0  0  0  0  0  0  0  0  0  0
    2.1052   23.0205  -15.6541 F   0  0  0  0  0  0  0  0  0  0  0  0
  1  2  1  0  0  0
  2  3  2  0  0  0
  3  4  1  0  0  0
  4  5  2  0  0  0
  5 22  1  0  0  0
 22 23  1  0  0  0
 23 24  2  0  0  0
 23 26  1  0  0  0
 26 27  2  0  0  0
 27 28  1  0  0  0
 28 29  2  0  0  0
 29 30  1  0  0  0
 30 31  2  0  0  0
 30 32  1  0  0  0
 32 33  1  0  0  0
 32 34  1  0  0  0
 32 35  1  0  0  0
  5  6  1  0  0  0
  6  7  2  0  0  0
  7  8  1  0  0  0
  8  9  1  0  0  0
  9 10  2  0  0  0
 10 16  1  0  0  0
 16 17  1  0  0  0
 17 18  1  0  0  0
 18 19  1  0  0  0
 19 20  1  0  0  0
 20 21  1  0  0  0
 10 11  1  0  0  0
 11 12  2  0  0  0
 11 13  1  0  0  0
 13 14  1  0  0  0
 13 15  1  0  0  0
  7  2  1  0  0  0
 15  8  2  0  0  0
 31 26  1  0  0  0
 21 16  1  0  0  0
 22 25  1  0  0  0
M  END
> <minimizedAffinity>
-9.02984

> <CNNscore>
0.3113510013

> <CNNaffinity>
6.9852972031

> <CNN_VS>
2.1748793125

> <CNNaffinity_variance>
0.4010663033

$$$$
[H]c1nc(C([H])([H])[H])c(-c2c([H])c(N3C([H])([H])C([H])([H])OC([H])([H])C3([H])[H])c(=O)n(C([H])([H])[H])c2[H])c([H])c1N([H])C(=O)c1c([H])c([H])c([H])c(C(F)(F)F)c1[H]


 35 38  0  0  0  0  0  0  0  0999 V2000
   -8.8865   21.2567  -19.6575 C   0  0  0  0  0  0  0  0  0  0  0  0
   -7.6614   21.5250  -20.4959 C   0  0  0  0  0  0  0  0  0  0  0  0
   -7.8881   21.9712  -21.7656 N   0  0  0  0  0  0  0  0  0  0  0  0
   -6.8508   22.3183  -22.5461 C   0  0  0  0  0  0  0  0  0  0  0  0
   -5.5173   22.2334  -22.0932 C   0  0  0  0  0  0  0  0  0  0  0  0
   -5.3032   21.7878  -20.8378 C   0  0  0  0  0  0  0  0  0  0  0  0
   -6.3847   21.4203  -20.0067 C   0  0  0  0  0  0  0  0  0  0  0  0
   -6.1564   20.9651  -18.6320 C   0  0  0  0  0  0  0  0  0  0  0  0
   -6.3908   21.8666  -17.5962 C   0  0  0  0  0  0  0  0  0  0  0  0
   -6.0631   21.4758  -16.2983 C   0  0  0  0  0  0  0  0  0  0  0  0
   -5.5410   20.2228  -16.1268 C   0  0  0  0  0  0  0  0  0  0  0  0
   -5.2531   19.8857  -14.9125 O   0  0  0  0  0  0  0  0  0  0  0  0
   -5.3177   19.3423  -17.1270 N   0  0  0  0  0  0  0  0  0  0  0  0
   -4.7751   18.0469  -16.7595 C   0  0  0  0  0  0  0  0  0  0  0  0
   -5.6288   19.7232  -18.3682 C   0  0  0  0  0  0  0  0  0  0  0  0
   -6.1866   22.4354  -15.2802 N   0  0  0  0  0  0  0  0  0  0  0  0
   -7.1652   22.3527  -14.2364 C   0  0  0  0  0  0  0  0  0  0  0  0
   -7.7859   23.7151  -13.9362 C   0  0  0  0  0  0  0  0  0  0  0  0
   -7.2612   24.7249  -14.6794 O   0  0  0  0  0  0  0  0  0  0  0  0
   -5.8803   24.8073  -14.6275 C   0  0  0  0  0  0  0  0  0  0  0  0
   -5.2581   23.5622  -15.2430 C   0  0  0  0  0  0  0  0  0  0  0  0
   -4.5664   22.8405  -23.0128 N   0  0  0  0  0  0  0  0  0  0  0  0
   -4.0522   21.9141  -23.9551 C   0  0  0  0  0  0  0  0  0  0  0  0
   -4.5584   20.6988  -23.8477 O   0  0  0  0  0  0  0  0  0  0  0  0
   -4.3113   23.8039  -22.9821 H   0  0  0  0  0  0  0  0  0  0  0  0
   -3.0833   22.0902  -24.9795 C   0  0  0  0  0  0  0  0  0  0  0  0
   -1.7145   21.8665  -24.6433 C   0  0  0  0  0  0  0  0  0  0  0  0
   -0.7412   22.1004  -25.5510 C   0  0  0  0  0  0  0  0  0  0  0  0
   -0.9906   22.5553  -26.8135 C   0  0  0  0  0  0  0  0  0  0  0  0
   -2.3230   22.7847  -27.1862 C   0  0  0  0  0  0  0  0  0  0  0  0
   -3.3218   22.5409  -26.2387 C   0  0  0  0  0  0  0  0  0  0  0  0
   -2.6467   23.2459  -28.5364 C   0  0  0  0  0  0  0  0  0  0  0  0
   -3.3297   22.3048  -29.2632 F   0  0  0  0  0  0  0  0  0  0  0  0
   -3.4321   24.3969  -28.4711 F   0  0  0  0  0  0  0  0  0  0  0  0
   -1.4650   23.5320  -29.1843 F   0  0  0  0  0  0  0  0  0  0  0  0
  1  2  1  0  0  0
  2  3  2  0  0  0
  3  4  1  0  0  0
  4  5  2  0  0  0
  5 22  1  0  0  0
 22 23  1  0  0  0
 23 24  2  0  0  0
 23 26  1  0  0  0
 26 27  2  0  0  0
 27 28  1  0  0  0
 28 29  2  0  0  0
 29 30  1  0  0  0
 30 31  2  0  0  0
 30 32  1  0  0  0
 32 33  1  0  0  0
 32 34  1  0  0  0
 32 35  1  0  0  0
  5  6  1  0  0  0
  6  7  2  0  0  0
  7  8  1  0  0  0
  8  9  1  0  0  0
  9 10  2  0  0  0
 10 16  1  0  0  0
 16 17  1  0  0  0
 17 18  1  0  0  0
 18 19  1  0  0  0
 19 20  1  0  0  0
 20 21  1  0  0  0
 10 11  1  0  0  0
 11 12  2  0  0  0
 11 13  1  0  0  0
 13 14  1  0  0  0
 13 15  1  0  0  0
  7  2  1  0  0  0
 15  8  2  0  0  0
 31 26  1  0  0  0
 21 16  1  0  0  0
 22 25  1  0  0  0
M  END
> <minimizedAffinity>
-8.02951

> <CNNscore>
0.2066913843

> <CNNaffinity>
5.8816437721

> <CNN_VS>
1.2156851292

> <CNNaffinity_variance>
0.0795204565

$$$$
[H]c1nc(C([H])([H])[H])c(-c2c([H])c(N3C([H])([H])C([H])([H])OC([H])([H])C3([H])[H])c(=O)n(C([H])([H])[H])c2[H])c([H])c1N([H])C(=O)c1c([H])c([H])c([H])c(C(F)(F)F)c1[H]


 35 38  0  0  0  0  0  0  0  0999 V2000
   -2.3724   23.1023  -17.5531 C   0  0  0  0  0  0  0  0  0  0  0  0
   -2.0242   22.4301  -18.8579 C   0  0  0  0  0  0  0  0  0  0  0  0
   -3.0398   22.3096  -19.7615 N   0  0  0  0  0  0  0  0  0  0  0  0
   -2.7912   21.8037  -20.9813 C   0  0  0  0  0  0  0  0  0  0  0  0
   -1.4996   21.3844  -21.3643 C   0  0  0  0  0  0  0  0  0  0  0  0
   -0.5029   21.5043  -20.4628 C   0  0  0  0  0  0  0  0  0  0  0  0
   -0.7505   22.0351  -19.1774 C   0  0  0  0  0  0  0  0  0  0  0  0
    0.3367   22.1948  -18.2070 C   0  0  0  0  0  0  0  0  0  0  0  0
    0.2568   21.4844  -17.0113 C   0  0  0  0  0  0  0  0  0  0  0  0
    1.2274   21.7235  -16.0389 C   0  0  0  0  0  0  0  0  0  0  0  0
    2.2043   22.6362  -16.3301 C   0  0  0  0  0  0  0  0  0  0  0  0
    3.0938   22.8323  -15.4127 O   0  0  0  0  0  0  0  0  0  0  0  0
    2.2900   23.3230  -17.4905 N   0  0  0  0  0  0  0  0  0  0  0  0
    3.4068   24.2390  -17.6363 C   0  0  0  0  0  0  0  0  0  0  0  0
    1.3557   23.0937  -18.4160 C   0  0  0  0  0  0  0  0  0  0  0  0
    1.0667   21.0962  -14.7927 N   0  0  0  0  0  0  0  0  0  0  0  0
    1.6153   19.8087  -14.4840 C   0  0  0  0  0  0  0  0  0  0  0  0
    0.6339   18.9545  -13.6847 C   0  0  0  0  0  0  0  0  0  0  0  0
   -0.5292   19.5948  -13.3941 O   0  0  0  0  0  0  0  0  0  0  0  0
   -0.3604   20.8258  -12.7837 C   0  0  0  0  0  0  0  0  0  0  0  0
    0.3396   21.7886  -13.7320 C   0  0  0  0  0  0  0  0  0  0  0  0
   -1.4057   21.0581  -22.7795 N   0  0  0  0  0  0  0  0  0  0  0  0
   -1.2811   22.2099  -23.5972 C   0  0  0  0  0  0  0  0  0  0  0  0
   -1.2329   23.3457  -22.9246 O   0  0  0  0  0  0  0  0  0  0  0  0
   -1.4231   20.1250  -23.1303 H   0  0  0  0  0  0  0  0  0  0  0  0
   -1.2078   22.3270  -25.0113 C   0  0  0  0  0  0  0  0  0  0  0  0
    0.0793   22.2247  -25.6194 C   0  0  0  0  0  0  0  0  0  0  0  0
    0.2230   22.4126  -26.9499 C   0  0  0  0  0  0  0  0  0  0  0  0
   -0.8199   22.7066  -27.7799 C   0  0  0  0  0  0  0  0  0  0  0  0
   -2.1028   22.8125  -27.2234 C   0  0  0  0  0  0  0  0  0  0  0  0
   -2.2397   22.6179  -25.8457 C   0  0  0  0  0  0  0  0  0  0  0  0
   -3.2588   23.0985  -28.0734 C   0  0  0  0  0  0  0  0  0  0  0  0
   -3.2833   24.3993  -28.5066 F   0  0  0  0  0  0  0  0  0  0  0  0
   -3.2427   22.2686  -29.1946 F   0  0  0  0  0  0  0  0  0  0  0  0
   -4.3988   22.8563  -27.3387 F   0  0  0  0  0  0  0  0  0  0  0  0
  1  2  1  0  0  0
  2  3  2  0  0  0
  3  4  1  0  0  0
  4  5  2  0  0  0
  5 22  1  0  0  0
 22 23  1  0  0  0
 23 24  2  0  0  0
 23 26  1  0  0  0
 26 27  2  0  0  0
 27 28  1  0  0  0
 28 29  2  0  0  0
 29 30  1  0  0  0
 30 31  2  0  0  0
 30 32  1  0  0  0
 32 33  1  0  0  0
 32 34  1  0  0  0
 32 35  1  0  0  0
  5  6  1  0  0  0
  6  7  2  0  0  0
  7  8  1  0  0  0
  8  9  1  0  0  0
  9 10  2  0  0  0
 10 16  1  0  0  0
 16 17  1  0  0  0
 17 18  1  0  0  0
 18 19  1  0  0  0
 19 20  1  0  0  0
 20 21  1  0  0  0
 10 11  1  0  0  0
 11 12  2  0  0  0
 11 13  1  0  0  0
 13 14  1  0  0  0
 13 15  1  0  0  0
  7  2  1  0  0  0
 15  8  2  0  0  0
 31 26  1  0  0  0
 21 16  1  0  0  0
 22 25  1  0  0  0
M  END
> <minimizedAffinity>
-7.81334

> <CNNscore>
0.2050842345

> <CNNaffinity>
5.7691564560

> <CNN_VS>
1.1831630468

> <CNNaffinity_variance>
0.0597550869

$$$$
[H]c1nc(C([H])([H])[H])c(-c2c([H])c(N3C([H])([H])C([H])([H])OC([H])([H])C3([H])[H])c(=O)n(C([H])([H])[H])c2[H])c([H])c1N([H])C(=O)c1c([H])c([H])c([H])c(C(F)(F)F)c1[H]


 35 38  0  0  0  0  0  0  0  0999 V2000
   -1.1237   23.1756  -27.1844 C   0  0  0  0  0  0  0  0  0  0  0  0
   -1.3977   22.5494  -25.8395 C   0  0  0  0  0  0  0  0  0  0  0  0
   -0.3469   21.9085  -25.2499 N   0  0  0  0  0  0  0  0  0  0  0  0
   -0.4834   21.4021  -24.0128 C   0  0  0  0  0  0  0  0  0  0  0  0
   -1.6928   21.5088  -23.2938 C   0  0  0  0  0  0  0  0  0  0  0  0
   -2.7268   22.1411  -23.8867 C   0  0  0  0  0  0  0  0  0  0  0  0
   -2.5965   22.6787  -25.1864 C   0  0  0  0  0  0  0  0  0  0  0  0
   -3.7088   23.3928  -25.8204 C   0  0  0  0  0  0  0  0  0  0  0  0
   -3.7568   23.4268  -27.2122 C   0  0  0  0  0  0  0  0  0  0  0  0
   -4.7455   24.2024  -27.8168 C   0  0  0  0  0  0  0  0  0  0  0  0
   -5.6135   24.8727  -26.9985 C   0  0  0  0  0  0  0  0  0  0  0  0
   -6.5232   25.5780  -27.5868 O   0  0  0  0  0  0  0  0  0  0  0  0
   -5.5753   24.8379  -25.6484 N   0  0  0  0  0  0  0  0  0  0  0  0
   -6.5890   25.5965  -24.9380 C   0  0  0  0  0  0  0  0  0  0  0  0
   -4.6239   24.0977  -25.0747 C   0  0  0  0  0  0  0  0  0  0  0  0
   -4.7075   24.3289  -29.2150 N   0  0  0  0  0  0  0  0  0  0  0  0
   -3.9261   25.3202  -29.8938 C   0  0  0  0  0  0  0  0  0  0  0  0
   -4.6875   25.9318  -31.0675 C   0  0  0  0  0  0  0  0  0  0  0  0
   -5.9194   25.3893  -31.2556 O   0  0  0  0  0  0  0  0  0  0  0  0
   -5.9208   24.0084  -31.3530 C   0  0  0  0  0  0  0  0  0  0  0  0
   -5.4652   23.3906  -30.0389 C   0  0  0  0  0  0  0  0  0  0  0  0
   -1.5697   21.0761  -21.9097 N   0  0  0  0  0  0  0  0  0  0  0  0
   -1.2286   22.1387  -21.0349 C   0  0  0  0  0  0  0  0  0  0  0  0
   -1.1287   23.3145  -21.6283 O   0  0  0  0  0  0  0  0  0  0  0  0
   -1.7148   20.1352  -21.6136 H   0  0  0  0  0  0  0  0  0  0  0  0
   -0.9751   22.1300  -19.6368 C   0  0  0  0  0  0  0  0  0  0  0  0
    0.3839   22.2118  -19.2087 C   0  0  0  0  0  0  0  0  0  0  0  0
    0.6932   22.1223  -17.8964 C   0  0  0  0  0  0  0  0  0  0  0  0
   -0.2431   21.9504  -16.9181 C   0  0  0  0  0  0  0  0  0  0  0  0
   -1.5913   21.8689  -17.2954 C   0  0  0  0  0  0  0  0  0  0  0  0
   -1.8997   21.9610  -18.6560 C   0  0  0  0  0  0  0  0  0  0  0  0
   -2.6366   21.7126  -16.2837 C   0  0  0  0  0  0  0  0  0  0  0  0
   -3.3982   20.5900  -16.4845 F   0  0  0  0  0  0  0  0  0  0  0  0
   -2.0627   21.6257  -15.0152 F   0  0  0  0  0  0  0  0  0  0  0  0
   -3.4562   22.8185  -16.3427 F   0  0  0  0  0  0  0  0  0  0  0  0
  1  2  1  0  0  0
  2  3  2  0  0  0
  3  4  1  0  0  0
  4  5  2  0  0  0
  5 22  1  0  0  0
 22 23  1  0  0  0
 23 24  2  0  0  0
 23 26  1  0  0  0
 26 27  2  0  0  0
 27 28  1  0  0  0
 28 29  2  0  0  0
 29 30  1  0  0  0
 30 31  2  0  0  0
 30 32  1  0  0  0
 32 33  1  0  0  0
 32 34  1  0  0  0
 32 35  1  0  0  0
  5  6  1  0  0  0
  6  7  2  0  0  0
  7  8  1  0  0  0
  8  9  1  0  0  0
  9 10  2  0  0  0
 10 16  1  0  0  0
 16 17  1  0  0  0
 17 18  1  0  0  0
 18 19  1  0  0  0
 19 20  1  0  0  0
 20 21  1  0  0  0
 10 11  1  0  0  0
 11 12  2  0  0  0
 11 13  1  0  0  0
 13 14  1  0  0  0
 13 15  1  0  0  0
  7  2  1  0  0  0
 15  8  2  0  0  0
 31 26  1  0  0  0
 21 16  1  0  0  0
 22 25  1  0  0  0
M  END
> <minimizedAffinity>
-8.75589

> <CNNscore>
0.2047744989

> <CNNaffinity>
6.8691582680

> <CNN_VS>
1.4066284895

> <CNNaffinity_variance>
0.4989368916

$$$$
[H]c1nc(C([H])([H])[H])c(-c2c([H])c(N3C([H])([H])C([H])([H])OC([H])([H])C3([H])[H])c(=O)n(C([H])([H])[H])c2[H])c([H])c1N([H])C(=O)c1c([H])c([H])c([H])c(C(F)(F)F)c1[H]


 35 38  0  0  0  0  0  0  0  0999 V2000
    2.5310   20.2653  -19.9522 C   0  0  0  0  0  0  0  0  0  0  0  0
    1.2865   21.0848  -20.1883 C   0  0  0  0  0  0  0  0  0  0  0  0
    0.5280   20.7287  -21.2655 N   0  0  0  0  0  0  0  0  0  0  0  0
   -0.6413   21.3503  -21.4930 C   0  0  0  0  0  0  0  0  0  0  0  0
   -1.1171   22.3743  -20.6469 C   0  0  0  0  0  0  0  0  0  0  0  0
   -0.3584   22.7216  -19.5865 C   0  0  0  0  0  0  0  0  0  0  0  0
    0.8725   22.0757  -19.3356 C   0  0  0  0  0  0  0  0  0  0  0  0
    1.6838   22.4301  -18.1671 C   0  0  0  0  0  0  0  0  0  0  0  0
    1.3849   21.8175  -16.9522 C   0  0  0  0  0  0  0  0  0  0  0  0
    2.0760   22.2384  -15.8165 C   0  0  0  0  0  0  0  0  0  0  0  0
    3.0140   23.2221  -15.9741 C   0  0  0  0  0  0  0  0  0  0  0  0
    3.6432   23.5872  -14.9055 O   0  0  0  0  0  0  0  0  0  0  0  0
    3.3123   23.8148  -17.1511 N   0  0  0  0  0  0  0  0  0  0  0  0
    4.3512   24.8287  -17.1368 C   0  0  0  0  0  0  0  0  0  0  0  0
    2.6443   23.4114  -18.2343 C   0  0  0  0  0  0  0  0  0  0  0  0
    1.6800   21.7038  -14.5797 N   0  0  0  0  0  0  0  0  0  0  0  0
    2.2366   20.5043  -14.0271 C   0  0  0  0  0  0  0  0  0  0  0  0
    1.1638   19.6295  -13.3828 C   0  0  0  0  0  0  0  0  0  0  0  0
   -0.0791   20.1779  -13.4245 O   0  0  0  0  0  0  0  0  0  0  0  0
   -0.1468   21.4656  -12.9208 C   0  0  0  0  0  0  0  0  0  0  0  0
    0.6792   22.4090  -13.7832 C   0  0  0  0  0  0  0  0  0  0  0  0
   -2.4832   22.7730  -20.9519 N   0  0  0  0  0  0  0  0  0  0  0  0
   -2.5526   23.7156  -22.0089 C   0  0  0  0  0  0  0  0  0  0  0  0
   -1.3811   24.0190  -22.5382 O   0  0  0  0  0  0  0  0  0  0  0  0
   -3.2799   22.4160  -20.4703 H   0  0  0  0  0  0  0  0  0  0  0  0
   -3.6749   24.3795  -22.5733 C   0  0  0  0  0  0  0  0  0  0  0  0
   -4.9726   23.9744  -22.1390 C   0  0  0  0  0  0  0  0  0  0  0  0
   -6.0789   24.5089  -22.7014 C   0  0  0  0  0  0  0  0  0  0  0  0
   -6.0347   25.4434  -23.6954 C   0  0  0  0  0  0  0  0  0  0  0  0
   -4.7789   25.8722  -24.1492 C   0  0  0  0  0  0  0  0  0  0  0  0
   -3.6411   25.3112  -23.5614 C   0  0  0  0  0  0  0  0  0  0  0  0
   -4.6759   26.8920  -25.1931 C   0  0  0  0  0  0  0  0  0  0  0  0
   -3.6544   27.7776  -24.9633 F   0  0  0  0  0  0  0  0  0  0  0  0
   -4.4545   26.2866  -26.4303 F   0  0  0  0  0  0  0  0  0  0  0  0
   -5.8643   27.5881  -25.2282 F   0  0  0  0  0  0  0  0  0  0  0  0
  1  2  1  0  0  0
  2  3  2  0  0  0
  3  4  1  0  0  0
  4  5  2  0  0  0
  5 22  1  0  0  0
 22 23  1  0  0  0
 23 24  2  0  0  0
 23 26  1  0  0  0
 26 27  2  0  0  0
 27 28  1  0  0  0
 28 29  2  0  0  0
 29 30  1  0  0  0
 30 31  2  0  0  0
 30 32  1  0  0  0
 32 33  1  0  0  0
 32 34  1  0  0  0
 32 35  1  0  0  0
  5  6  1  0  0  0
  6  7  2  0  0  0
  7  8  1  0  0  0
  8  9  1  0  0  0
  9 10  2  0  0  0
 10 16  1  0  0  0
 16 17  1  0  0  0
 17 18  1  0  0  0
 18 19  1  0  0  0
 19 20  1  0  0  0
 20 21  1  0  0  0
 10 11  1  0  0  0
 11 12  2  0  0  0
 11 13  1  0  0  0
 13 14  1  0  0  0
 13 15  1  0  0  0
  7  2  1  0  0  0
 15  8  2  0  0  0
 31 26  1  0  0  0
 21 16  1  0  0  0
 22 25  1  0  0  0
M  END
> <minimizedAffinity>
-7.68649

> <CNNscore>
0.1837424636

> <CNNaffinity>
5.5216240883

> <CNN_VS>
1.0145567656

> <CNNaffinity_variance>
0.1029738039

$$$$
[H]c1nc([H])c(Cl)c(N([H])C(=O)N([H])c2c([H])c(-c3c([H])c([H])c([H])c(-c4c([H])c([H])c(S(=O)(=O)C([H])([H])[H])c([H])c4[H])c3[H])nn(C([H])([H])C([H])([H])[H])c2=O)c1Cl


 39 42  0  0  0  0  0  0  0  0999 V2000
    0.8625   21.4855  -23.3326 N   0  0  0  0  0  0  0  0  0  0  0  0
    0.5690   21.4966  -22.0396 N   0  0  0  0  0  0  0  0  0  0  0  0
   -0.7094   21.5679  -21.6058 C   0  0  0  0  0  0  0  0  0  0  0  0
   -1.6999   21.6293  -22.5610 C   0  0  0  0  0  0  0  0  0  0  0  0
   -1.4260   21.6198  -23.9126 C   0  0  0  0  0  0  0  0  0  0  0  0
   -0.0764   21.5437  -24.2843 C   0  0  0  0  0  0  0  0  0  0  0  0
    0.2104   21.5325  -25.5021 O   0  0  0  0  0  0  0  0  0  0  0  0
   -2.3913   21.6760  -24.9449 N   0  0  0  0  0  0  0  0  0  0  0  0
   -3.1348   22.7728  -25.3935 C   0  0  0  0  0  0  0  0  0  0  0  0
   -3.0309   23.9095  -24.9095 O   0  0  0  0  0  0  0  0  0  0  0  0
   -4.0845   22.6310  -26.4707 N   0  0  0  0  0  0  0  0  0  0  0  0
   -2.6149   20.7651  -25.4866 H   0  0  0  0  0  0  0  0  0  0  0  0
   -4.1727   21.6726  -26.8769 H   0  0  0  0  0  0  0  0  0  0  0  0
   -4.8472   23.7207  -26.9465 C   0  0  0  0  0  0  0  0  0  0  0  0
   -5.9819   24.1017  -26.2962 C   0  0  0  0  0  0  0  0  0  0  0  0
   -6.5273   23.2786  -24.8793 Cl  0  0  0  0  0  0  0  0  0  0  0  0
   -6.7039   25.1679  -26.7863 C   0  0  0  0  0  0  0  0  0  0  0  0
   -6.2917   25.8192  -27.8890 N   0  0  0  0  0  0  0  0  0  0  0  0
   -5.1764   25.4653  -28.5507 C   0  0  0  0  0  0  0  0  0  0  0  0
   -4.4548   24.4045  -28.0662 C   0  0  0  0  0  0  0  0  0  0  0  0
   -3.0033   23.9382  -28.9220 Cl  0  0  0  0  0  0  0  0  0  0  0  0
   -1.0456   21.5802  -20.1996 C   0  0  0  0  0  0  0  0  0  0  0  0
   -2.4087   21.4331  -19.8855 C   0  0  0  0  0  0  0  0  0  0  0  0
   -2.8683   21.4310  -18.5897 C   0  0  0  0  0  0  0  0  0  0  0  0
   -1.9413   21.5800  -17.5779 C   0  0  0  0  0  0  0  0  0  0  0  0
   -0.5966   21.7278  -17.8217 C   0  0  0  0  0  0  0  0  0  0  0  0
   -0.1794   21.7234  -19.1540 C   0  0  0  0  0  0  0  0  0  0  0  0
    0.3814   21.8888  -16.7506 C   0  0  0  0  0  0  0  0  0  0  0  0
    0.1120   21.4890  -15.4562 C   0  0  0  0  0  0  0  0  0  0  0  0
    1.0301   21.6391  -14.4381 C   0  0  0  0  0  0  0  0  0  0  0  0
    2.2706   22.1989  -14.6613 C   0  0  0  0  0  0  0  0  0  0  0  0
    2.5462   22.6005  -15.9526 C   0  0  0  0  0  0  0  0  0  0  0  0
    1.6247   22.4487  -16.9690 C   0  0  0  0  0  0  0  0  0  0  0  0
    3.4337   22.3877  -13.3620 S   0  0  0  0  0  0  0  0  0  0  0  0
    3.4859   20.9446  -12.3293 C   0  0  0  0  0  0  0  0  0  0  0  0
    4.8233   22.6140  -13.8871 O   0  0  0  0  0  0  0  0  0  0  0  0
    3.0700   23.5594  -12.5067 O   0  0  0  0  0  0  0  0  0  0  0  0
    3.0453   20.7389  -22.6996 C   0  0  0  0  0  0  0  0  0  0  0  0
    2.2448   21.4084  -23.7858 C   0  0  0  0  0  0  0  0  0  0  0  0
 38 39  1  0  0  0
 39  1  1  0  0  0
  1  2  1  0  0  0
  2  3  2  0  0  0
  3  4  1  0  0  0
  4  5  2  0  0  0
  5  8  1  0  0  0
  8  9  1  0  0  0
  9 10  2  0  0  0
  9 11  1  0  0  0
 11 14  1  0  0  0
 14 15  2  0  0  0
 15 16  1  0  0  0
 15 17  1  0  0  0
 17 18  2  0  0  0
 18 19  1  0  0  0
 19 20  2  0  0  0
 20 21  1  0  0  0
  5  6  1  0  0  0
  6  7  2  0  0  0
  3 22  1  0  0  0
 22 23  2  0  0  0
 23 24  1  0  0  0
 24 25  2  0  0  0
 25 26  1  0  0  0
 26 27  2  0  0  0
 26 28  1  0  0  0
 28 29  2  0  0  0
 29 30  1  0  0  0
 30 31  2  0  0  0
 31 32  1  0  0  0
 32 33  2  0  0  0
 31 34  1  0  0  0
 34 35  1  0  0  0
 34 36  2  0  0  0
 34 37  2  0  0  0
  6  1  1  0  0  0
 27 22  1  0  0  0
 33 28  1  0  0  0
 20 14  1  0  0  0
  8 12  1  0  0  0
 11 13  1  0  0  0
M  END
> <minimizedAffinity>
-7.57849

> <CNNscore>
0.3032122850

> <CNNaffinity>
6.9575185776

> <CNN_VS>
2.1096050739

> <CNNaffinity_variance>
0.3753187358

$$$$
[H]c1nc([H])c(Cl)c(N([H])C(=O)N([H])c2c([H])c(-c3c([H])c([H])c([H])c(-c4c([H])c([H])c(S(=O)(=O)C([H])([H])[H])c([H])c4[H])c3[H])nn(C([H])([H])C([H])([H])[H])c2=O)c1Cl


 39 42  0  0  0  0  0  0  0  0999 V2000
   -2.3684   22.2872  -19.1689 N   0  0  0  0  0  0  0  0  0  0  0  0
   -1.1767   22.3888  -18.5964 N   0  0  0  0  0  0  0  0  0  0  0  0
   -0.0412   22.1068  -19.2736 C   0  0  0  0  0  0  0  0  0  0  0  0
   -0.1687   21.7079  -20.5859 C   0  0  0  0  0  0  0  0  0  0  0  0
   -1.3939   21.5927  -21.2084 C   0  0  0  0  0  0  0  0  0  0  0  0
   -2.5254   21.9027  -20.4410 C   0  0  0  0  0  0  0  0  0  0  0  0
   -3.6542   21.8100  -20.9726 O   0  0  0  0  0  0  0  0  0  0  0  0
   -1.5972   21.1938  -22.5501 N   0  0  0  0  0  0  0  0  0  0  0  0
   -1.9273   21.9793  -23.6598 C   0  0  0  0  0  0  0  0  0  0  0  0
   -2.0920   23.2066  -23.6002 O   0  0  0  0  0  0  0  0  0  0  0  0
   -2.0967   21.3832  -24.9630 N   0  0  0  0  0  0  0  0  0  0  0  0
   -1.4929   20.1435  -22.7931 H   0  0  0  0  0  0  0  0  0  0  0  0
   -1.9594   20.3488  -25.0119 H   0  0  0  0  0  0  0  0  0  0  0  0
   -2.4271   22.1512  -26.1017 C   0  0  0  0  0  0  0  0  0  0  0  0
   -3.7093   22.5647  -26.3036 C   0  0  0  0  0  0  0  0  0  0  0  0
   -4.9681   22.1728  -25.1880 Cl  0  0  0  0  0  0  0  0  0  0  0  0
   -3.9991   23.3114  -27.4245 C   0  0  0  0  0  0  0  0  0  0  0  0
   -3.0292   23.6247  -28.3026 N   0  0  0  0  0  0  0  0  0  0  0  0
   -1.7559   23.2304  -28.1290 C   0  0  0  0  0  0  0  0  0  0  0  0
   -1.4631   22.4869  -27.0144 C   0  0  0  0  0  0  0  0  0  0  0  0
    0.1909   21.9700  -26.7822 Cl  0  0  0  0  0  0  0  0  0  0  0  0
    1.2654   22.2135  -18.6638 C   0  0  0  0  0  0  0  0  0  0  0  0
    2.3666   22.1182  -19.5337 C   0  0  0  0  0  0  0  0  0  0  0  0
    3.6647   22.1987  -19.0878 C   0  0  0  0  0  0  0  0  0  0  0  0
    3.8703   22.3796  -17.7349 C   0  0  0  0  0  0  0  0  0  0  0  0
    2.8354   22.4799  -16.8357 C   0  0  0  0  0  0  0  0  0  0  0  0
    1.5356   22.3920  -17.3374 C   0  0  0  0  0  0  0  0  0  0  0  0
    3.0551   22.6676  -15.4053 C   0  0  0  0  0  0  0  0  0  0  0  0
    4.2952   22.4703  -14.8298 C   0  0  0  0  0  0  0  0  0  0  0  0
    4.5106   22.6440  -13.4787 C   0  0  0  0  0  0  0  0  0  0  0  0
    3.4938   23.0256  -12.6286 C   0  0  0  0  0  0  0  0  0  0  0  0
    2.2522   23.2244  -13.1973 C   0  0  0  0  0  0  0  0  0  0  0  0
    2.0403   23.0495  -14.5500 C   0  0  0  0  0  0  0  0  0  0  0  0
    3.7742   23.2441  -10.9110 S   0  0  0  0  0  0  0  0  0  0  0  0
    5.5028   23.1360  -10.5214 C   0  0  0  0  0  0  0  0  0  0  0  0
    3.2898   24.5841  -10.4339 O   0  0  0  0  0  0  0  0  0  0  0  0
    3.0542   22.1914  -10.1300 O   0  0  0  0  0  0  0  0  0  0  0  0
   -3.2895   22.3921  -16.9636 C   0  0  0  0  0  0  0  0  0  0  0  0
   -3.5838   22.5942  -18.4269 C   0  0  0  0  0  0  0  0  0  0  0  0
 38 39  1  0  0  0
 39  1  1  0  0  0
  1  2  1  0  0  0
  2  3  2  0  0  0
  3  4  1  0  0  0
  4  5  2  0  0  0
  5  8  1  0  0  0
  8  9  1  0  0  0
  9 10  2  0  0  0
  9 11  1  0  0  0
 11 14  1  0  0  0
 14 15  2  0  0  0
 15 16  1  0  0  0
 15 17  1  0  0  0
 17 18  2  0  0  0
 18 19  1  0  0  0
 19 20  2  0  0  0
 20 21  1  0  0  0
  5  6  1  0  0  0
  6  7  2  0  0  0
  3 22  1  0  0  0
 22 23  2  0  0  0
 23 24  1  0  0  0
 24 25  2  0  0  0
 25 26  1  0  0  0
 26 27  2  0  0  0
 26 28  1  0  0  0
 28 29  2  0  0  0
 29 30  1  0  0  0
 30 31  2  0  0  0
 31 32  1  0  0  0
 32 33  2  0  0  0
 31 34  1  0  0  0
 34 35  1  0  0  0
 34 36  2  0  0  0
 34 37  2  0  0  0
  6  1  1  0  0  0
 27 22  1  0  0  0
 33 28  1  0  0  0
 20 14  1  0  0  0
  8 12  1  0  0  0
 11 13  1  0  0  0
M  END
> <minimizedAffinity>
-7.47904

> <CNNscore>
0.2674089968

> <CNNaffinity>
6.5408616066

> <CNN_VS>
1.7490851879

> <CNNaffinity_variance>
0.1447652578

$$$$
[H]c1nc([H])c(Cl)c(N([H])C(=O)N([H])c2c([H])c(-c3c([H])c([H])c([H])c(-c4c([H])c([H])c(S(=O)(=O)C([H])([H])[H])c([H])c4[H])c3[H])nn(C([H])([H])C([H])([H])[H])c2=O)c1Cl


 39 42  0  0  0  0  0  0  0  0999 V2000
    0.8367   21.5205  -23.3322 N   0  0  0  0  0  0  0  0  0  0  0  0
    0.5922   21.5105  -22.0290 N   0  0  0  0  0  0  0  0  0  0  0  0
   -0.6701   21.5494  -21.5465 C   0  0  0  0  0  0  0  0  0  0  0  0
   -1.6972   21.6004  -22.4629 C   0  0  0  0  0  0  0  0  0  0  0  0
   -1.4745   21.6122  -23.8239 C   0  0  0  0  0  0  0  0  0  0  0  0
   -0.1387   21.5694  -24.2471 C   0  0  0  0  0  0  0  0  0  0  0  0
    0.1019   21.5783  -25.4749 O   0  0  0  0  0  0  0  0  0  0  0  0
   -2.4792   21.6595  -24.8184 N   0  0  0  0  0  0  0  0  0  0  0  0
   -3.1701   22.7691  -25.3170 C   0  0  0  0  0  0  0  0  0  0  0  0
   -2.9721   23.9277  -24.9229 O   0  0  0  0  0  0  0  0  0  0  0  0
   -4.1740   22.6150  -26.3422 N   0  0  0  0  0  0  0  0  0  0  0  0
   -2.7846   20.7295  -25.2819 H   0  0  0  0  0  0  0  0  0  0  0  0
   -4.3414   21.6382  -26.6725 H   0  0  0  0  0  0  0  0  0  0  0  0
   -4.8856   23.7169  -26.8666 C   0  0  0  0  0  0  0  0  0  0  0  0
   -6.0159   24.1618  -26.2500 C   0  0  0  0  0  0  0  0  0  0  0  0
   -6.6171   23.4066  -24.8179 Cl  0  0  0  0  0  0  0  0  0  0  0  0
   -6.6875   25.2381  -26.7872 C   0  0  0  0  0  0  0  0  0  0  0  0
   -6.2314   25.8368  -27.9023 N   0  0  0  0  0  0  0  0  0  0  0  0
   -5.1193   25.4194  -28.5315 C   0  0  0  0  0  0  0  0  0  0  0  0
   -4.4477   24.3483  -28.0001 C   0  0  0  0  0  0  0  0  0  0  0  0
   -3.0007   23.7994  -28.8135 Cl  0  0  0  0  0  0  0  0  0  0  0  0
   -0.9529   21.5383  -20.1287 C   0  0  0  0  0  0  0  0  0  0  0  0
    0.1594   21.4334  -19.2741 C   0  0  0  0  0  0  0  0  0  0  0  0
    0.0346   21.4074  -17.9052 C   0  0  0  0  0  0  0  0  0  0  0  0
   -1.2365   21.4884  -17.3731 C   0  0  0  0  0  0  0  0  0  0  0  0
   -2.3615   21.5925  -18.1562 C   0  0  0  0  0  0  0  0  0  0  0  0
   -2.1827   21.6149  -19.5405 C   0  0  0  0  0  0  0  0  0  0  0  0
   -3.7048   21.6744  -17.5917 C   0  0  0  0  0  0  0  0  0  0  0  0
   -4.6508   20.6956  -17.8254 C   0  0  0  0  0  0  0  0  0  0  0  0
   -5.9228   20.7664  -17.2970 C   0  0  0  0  0  0  0  0  0  0  0  0
   -6.3173   21.8237  -16.5041 C   0  0  0  0  0  0  0  0  0  0  0  0
   -5.3767   22.8052  -16.2666 C   0  0  0  0  0  0  0  0  0  0  0  0
   -4.1046   22.7309  -16.7973 C   0  0  0  0  0  0  0  0  0  0  0  0
   -7.9367   21.9083  -15.8356 S   0  0  0  0  0  0  0  0  0  0  0  0
   -7.9524   22.7896  -14.2946 C   0  0  0  0  0  0  0  0  0  0  0  0
   -8.8863   22.6112  -16.7641 O   0  0  0  0  0  0  0  0  0  0  0  0
   -8.4690   20.5323  -15.5905 O   0  0  0  0  0  0  0  0  0  0  0  0
    3.0149   20.6359  -22.8901 C   0  0  0  0  0  0  0  0  0  0  0  0
    2.2021   21.4783  -23.8380 C   0  0  0  0  0  0  0  0  0  0  0  0
 38 39  1  0  0  0
 39  1  1  0  0  0
  1  2  1  0  0  0
  2  3  2  0  0  0
  3  4  1  0  0  0
  4  5  2  0  0  0
  5  8  1  0  0  0
  8  9  1  0  0  0
  9 10  2  0  0  0
  9 11  1  0  0  0
 11 14  1  0  0  0
 14 15  2  0  0  0
 15 16  1  0  0  0
 15 17  1  0  0  0
 17 18  2  0  0  0
 18 19  1  0  0  0
 19 20  2  0  0  0
 20 21  1  0  0  0
  5  6  1  0  0  0
  6  7  2  0  0  0
  3 22  1  0  0  0
 22 23  2  0  0  0
 23 24  1  0  0  0
 24 25  2  0  0  0
 25 26  1  0  0  0
 26 27  2  0  0  0
 26 28  1  0  0  0
 28 29  2  0  0  0
 29 30  1  0  0  0
 30 31  2  0  0  0
 31 32  1  0  0  0
 32 33  2  0  0  0
 31 34  1  0  0  0
 34 35  1  0  0  0
 34 36  2  0  0  0
 34 37  2  0  0  0
  6  1  1  0  0  0
 27 22  1  0  0  0
 33 28  1  0  0  0
 20 14  1  0  0  0
  8 12  1  0  0  0
 11 13  1  0  0  0
M  END
> <minimizedAffinity>
-7.26173

> <CNNscore>
0.2499494553

> <CNNaffinity>
7.1036744118

> <CNN_VS>
1.7755595446

> <CNNaffinity_variance>
0.3071079552

$$$$
[H]c1nc([H])c(Cl)c(N([H])C(=O)N([H])c2c([H])c(-c3c([H])c([H])c([H])c(-c4c([H])c([H])c(S(=O)(=O)C([H])([H])[H])c([H])c4[H])c3[H])nn(C([H])([H])C([H])([H])[H])c2=O)c1Cl


 39 42  0  0  0  0  0  0  0  0999 V2000
   -1.3423   22.2836  -25.0485 N   0  0  0  0  0  0  0  0  0  0  0  0
   -2.2134   22.4336  -24.0601 N   0  0  0  0  0  0  0  0  0  0  0  0
   -1.8606   22.2321  -22.7707 C   0  0  0  0  0  0  0  0  0  0  0  0
   -0.5573   21.8631  -22.5208 C   0  0  0  0  0  0  0  0  0  0  0  0
    0.3712   21.6991  -23.5274 C   0  0  0  0  0  0  0  0  0  0  0  0
   -0.0699   21.9264  -24.8385 C   0  0  0  0  0  0  0  0  0  0  0  0
    0.7448   21.7875  -25.7778 O   0  0  0  0  0  0  0  0  0  0  0  0
    1.7232   21.3268  -23.3426 N   0  0  0  0  0  0  0  0  0  0  0  0
    2.2917   20.5623  -22.3181 C   0  0  0  0  0  0  0  0  0  0  0  0
    1.6351   20.0822  -21.3824 O   0  0  0  0  0  0  0  0  0  0  0  0
    3.7082   20.2876  -22.3001 N   0  0  0  0  0  0  0  0  0  0  0  0
    2.4502   21.6604  -24.0728 H   0  0  0  0  0  0  0  0  0  0  0  0
    4.2609   20.6938  -23.0879 H   0  0  0  0  0  0  0  0  0  0  0  0
    4.3097   19.5167  -21.2805 C   0  0  0  0  0  0  0  0  0  0  0  0
    4.8303   20.1226  -20.1770 C   0  0  0  0  0  0  0  0  0  0  0  0
    4.7755   21.8376  -19.9812 Cl  0  0  0  0  0  0  0  0  0  0  0  0
    5.4110   19.3427  -19.2010 C   0  0  0  0  0  0  0  0  0  0  0  0
    5.4612   18.0054  -19.3393 N   0  0  0  0  0  0  0  0  0  0  0  0
    4.9557   17.3808  -20.4170 C   0  0  0  0  0  0  0  0  0  0  0  0
    4.3768   18.1534  -21.3909 C   0  0  0  0  0  0  0  0  0  0  0  0
    3.7177   17.3480  -22.7957 Cl  0  0  0  0  0  0  0  0  0  0  0  0
   -2.7984   22.3923  -21.6820 C   0  0  0  0  0  0  0  0  0  0  0  0
   -2.5092   21.6813  -20.5033 C   0  0  0  0  0  0  0  0  0  0  0  0
   -3.3178   21.7394  -19.3928 C   0  0  0  0  0  0  0  0  0  0  0  0
   -4.4477   22.5295  -19.4600 C   0  0  0  0  0  0  0  0  0  0  0  0
   -4.7833   23.2474  -20.5832 C   0  0  0  0  0  0  0  0  0  0  0  0
   -3.9304   23.1557  -21.6847 C   0  0  0  0  0  0  0  0  0  0  0  0
   -5.9802   24.0793  -20.6534 C   0  0  0  0  0  0  0  0  0  0  0  0
   -6.9915   23.9757  -19.7184 C   0  0  0  0  0  0  0  0  0  0  0  0
   -8.1264   24.7570  -19.7785 C   0  0  0  0  0  0  0  0  0  0  0  0
   -8.3105   25.6866  -20.7805 C   0  0  0  0  0  0  0  0  0  0  0  0
   -7.3037   25.7953  -21.7180 C   0  0  0  0  0  0  0  0  0  0  0  0
   -6.1692   25.0115  -21.6546 C   0  0  0  0  0  0  0  0  0  0  0  0
   -9.7566   26.6769  -20.8518 S   0  0  0  0  0  0  0  0  0  0  0  0
  -11.1540   25.8273  -20.1611 C   0  0  0  0  0  0  0  0  0  0  0  0
   -9.5903   27.9608  -20.0891 O   0  0  0  0  0  0  0  0  0  0  0  0
  -10.0776   27.0244  -22.2706 O   0  0  0  0  0  0  0  0  0  0  0  0
   -3.2412   22.5579  -26.4775 C   0  0  0  0  0  0  0  0  0  0  0  0
   -1.7365   22.5040  -26.4334 C   0  0  0  0  0  0  0  0  0  0  0  0
 38 39  1  0  0  0
 39  1  1  0  0  0
  1  2  1  0  0  0
  2  3  2  0  0  0
  3  4  1  0  0  0
  4  5  2  0  0  0
  5  8  1  0  0  0
  8  9  1  0  0  0
  9 10  2  0  0  0
  9 11  1  0  0  0
 11 14  1  0  0  0
 14 15  2  0  0  0
 15 16  1  0  0  0
 15 17  1  0  0  0
 17 18  2  0  0  0
 18 19  1  0  0  0
 19 20  2  0  0  0
 20 21  1  0  0  0
  5  6  1  0  0  0
  6  7  2  0  0  0
  3 22  1  0  0  0
 22 23  2  0  0  0
 23 24  1  0  0  0
 24 25  2  0  0  0
 25 26  1  0  0  0
 26 27  2  0  0  0
 26 28  1  0  0  0
 28 29  2  0  0  0
 29 30  1  0  0  0
 30 31  2  0  0  0
 31 32  1  0  0  0
 32 33  2  0  0  0
 31 34  1  0  0  0
 34 35  1  0  0  0
 34 36  2  0  0  0
 34 37  2  0  0  0
  6  1  1  0  0  0
 27 22  1  0  0  0
 33 28  1  0  0  0
 20 14  1  0  0  0
  8 12  1  0  0  0
 11 13  1  0  0  0
M  END
> <minimizedAffinity>
-7.87029

> <CNNscore>
0.2239404470

> <CNNaffinity>
6.7663779259

> <CNN_VS>
1.5152657032

> <CNNaffinity_variance>
0.2245107591

$$$$
[H]c1nc([H])c(Cl)c(N([H])C(=O)N([H])c2c([H])c(-c3c([H])c([H])c([H])c(-c4c([H])c([H])c(S(=O)(=O)C([H])([H])[H])c([H])c4[H])c3[H])nn(C([H])([H])C([H])([H])[H])c2=O)c1Cl


 39 42  0  0  0  0  0  0  0  0999 V2000
   -6.9091   24.5847  -21.7082 N   0  0  0  0  0  0  0  0  0  0  0  0
   -6.6010   24.4101  -20.4303 N   0  0  0  0  0  0  0  0  0  0  0  0
   -5.6337   23.5464  -20.0483 C   0  0  0  0  0  0  0  0  0  0  0  0
   -4.9776   22.8512  -21.0400 C   0  0  0  0  0  0  0  0  0  0  0  0
   -5.2757   23.0112  -22.3770 C   0  0  0  0  0  0  0  0  0  0  0  0
   -6.2904   23.9249  -22.6943 C   0  0  0  0  0  0  0  0  0  0  0  0
   -6.5880   24.0966  -23.8974 O   0  0  0  0  0  0  0  0  0  0  0  0
   -4.6410   22.3348  -23.4449 N   0  0  0  0  0  0  0  0  0  0  0  0
   -3.5328   22.7315  -24.2011 C   0  0  0  0  0  0  0  0  0  0  0  0
   -2.9277   23.7974  -24.0146 O   0  0  0  0  0  0  0  0  0  0  0  0
   -3.0262   21.8969  -25.2637 N   0  0  0  0  0  0  0  0  0  0  0  0
   -5.0377   21.3744  -23.7502 H   0  0  0  0  0  0  0  0  0  0  0  0
   -3.5377   20.9997  -25.4213 H   0  0  0  0  0  0  0  0  0  0  0  0
   -1.9078   22.2699  -26.0419 C   0  0  0  0  0  0  0  0  0  0  0  0
   -2.0798   22.7680  -27.2981 C   0  0  0  0  0  0  0  0  0  0  0  0
   -3.6536   22.9629  -27.9819 Cl  0  0  0  0  0  0  0  0  0  0  0  0
   -0.9686   23.1215  -28.0318 C   0  0  0  0  0  0  0  0  0  0  0  0
    0.2640   22.9756  -27.5128 N   0  0  0  0  0  0  0  0  0  0  0  0
    0.4635   22.4870  -26.2765 C   0  0  0  0  0  0  0  0  0  0  0  0
   -0.6400   22.1338  -25.5427 C   0  0  0  0  0  0  0  0  0  0  0  0
   -0.3882   21.4970  -23.9340 Cl  0  0  0  0  0  0  0  0  0  0  0  0
   -5.2858   23.3455  -18.6594 C   0  0  0  0  0  0  0  0  0  0  0  0
   -4.1754   22.5188  -18.4105 C   0  0  0  0  0  0  0  0  0  0  0  0
   -3.7375   22.2398  -17.1375 C   0  0  0  0  0  0  0  0  0  0  0  0
   -4.4271   22.8018  -16.0821 C   0  0  0  0  0  0  0  0  0  0  0  0
   -5.5189   23.6174  -16.2616 C   0  0  0  0  0  0  0  0  0  0  0  0
   -5.9248   23.8707  -17.5731 C   0  0  0  0  0  0  0  0  0  0  0  0
   -6.2488   24.2078  -15.1442 C   0  0  0  0  0  0  0  0  0  0  0  0
   -5.9543   25.4721  -14.6724 C   0  0  0  0  0  0  0  0  0  0  0  0
   -6.6382   26.0363  -13.6160 C   0  0  0  0  0  0  0  0  0  0  0  0
   -7.6564   25.3638  -12.9733 C   0  0  0  0  0  0  0  0  0  0  0  0
   -7.9557   24.1000  -13.4399 C   0  0  0  0  0  0  0  0  0  0  0  0
   -7.2690   23.5384  -14.4975 C   0  0  0  0  0  0  0  0  0  0  0  0
   -8.5219   26.0867  -11.6299 S   0  0  0  0  0  0  0  0  0  0  0  0
   -7.4017   26.6923  -10.3929 C   0  0  0  0  0  0  0  0  0  0  0  0
   -9.3701   27.2453  -12.0728 O   0  0  0  0  0  0  0  0  0  0  0  0
   -9.4214   25.0780  -10.9896 O   0  0  0  0  0  0  0  0  0  0  0  0
   -8.3607   26.2971  -20.8816 C   0  0  0  0  0  0  0  0  0  0  0  0
   -7.9539   25.5189  -22.1054 C   0  0  0  0  0  0  0  0  0  0  0  0
 38 39  1  0  0  0
 39  1  1  0  0  0
  1  2  1  0  0  0
  2  3  2  0  0  0
  3  4  1  0  0  0
  4  5  2  0  0  0
  5  8  1  0  0  0
  8  9  1  0  0  0
  9 10  2  0  0  0
  9 11  1  0  0  0
 11 14  1  0  0  0
 14 15  2  0  0  0
 15 16  1  0  0  0
 15 17  1  0  0  0
 17 18  2  0  0  0
 18 19  1  0  0  0
 19 20  2  0  0  0
 20 21  1  0  0  0
  5  6  1  0  0  0
  6  7  2  0  0  0
  3 22  1  0  0  0
 22 23  2  0  0  0
 23 24  1  0  0  0
 24 25  2  0  0  0
 25 26  1  0  0  0
 26 27  2  0  0  0
 26 28  1  0  0  0
 28 29  2  0  0  0
 29 30  1  0  0  0
 30 31  2  0  0  0
 31 32  1  0  0  0
 32 33  2  0  0  0
 31 34  1  0  0  0
 34 35  1  0  0  0
 34 36  2  0  0  0
 34 37  2  0  0  0
  6  1  1  0  0  0
 27 22  1  0  0  0
 33 28  1  0  0  0
 20 14  1  0  0  0
  8 12  1  0  0  0
 11 13  1  0  0  0
M  END
> <minimizedAffinity>
-7.81612

> <CNNscore>
0.1990021169

> <CNNaffinity>
6.5026865005

> <CNN_VS>
1.2940484285

> <CNNaffinity_variance>
0.2309091836

$$$$
[H]c1nc([H])c(Cl)c(N([H])C(=O)N([H])c2c([H])c(-c3c([H])c([H])c([H])c(-c4c([H])c([H])c(S(=O)(=O)C([H])([H])[H])c([H])c4[H])c3[H])nn(C([H])([H])C([H])([H])[H])c2=O)c1Cl


 39 42  0  0  0  0  0  0  0  0999 V2000
   -6.6341   24.3803  -21.6593 N   0  0  0  0  0  0  0  0  0  0  0  0
   -6.2248   24.1009  -20.4293 N   0  0  0  0  0  0  0  0  0  0  0  0
   -5.2396   23.2043  -20.1991 C   0  0  0  0  0  0  0  0  0  0  0  0
   -4.6746   22.5888  -21.2943 C   0  0  0  0  0  0  0  0  0  0  0  0
   -5.0789   22.8585  -22.5850 C   0  0  0  0  0  0  0  0  0  0  0  0
   -6.1056   23.7999  -22.7430 C   0  0  0  0  0  0  0  0  0  0  0  0
   -6.4984   24.0702  -23.8997 O   0  0  0  0  0  0  0  0  0  0  0  0
   -4.5413   22.2681  -23.7525 N   0  0  0  0  0  0  0  0  0  0  0  0
   -3.4587   22.6902  -24.5317 C   0  0  0  0  0  0  0  0  0  0  0  0
   -2.7900   23.7024  -24.2764 O   0  0  0  0  0  0  0  0  0  0  0  0
   -3.0567   21.9479  -25.7020 N   0  0  0  0  0  0  0  0  0  0  0  0
   -5.0036   21.3635  -24.1279 H   0  0  0  0  0  0  0  0  0  0  0  0
   -3.6217   21.0961  -25.9173 H   0  0  0  0  0  0  0  0  0  0  0  0
   -1.9664   22.3483  -26.5061 C   0  0  0  0  0  0  0  0  0  0  0  0
   -0.6904   22.2239  -26.0456 C   0  0  0  0  0  0  0  0  0  0  0  0
   -0.3574   21.5780  -24.4789 Cl  0  0  0  0  0  0  0  0  0  0  0  0
    0.3509   22.6245  -26.8538 C   0  0  0  0  0  0  0  0  0  0  0  0
    0.1074   23.1296  -28.0768 N   0  0  0  0  0  0  0  0  0  0  0  0
   -1.1410   23.2637  -28.5569 C   0  0  0  0  0  0  0  0  0  0  0  0
   -2.1804   22.8662  -27.7555 C   0  0  0  0  0  0  0  0  0  0  0  0
   -3.8070   23.0383  -28.3731 Cl  0  0  0  0  0  0  0  0  0  0  0  0
   -4.7818   22.8894  -18.8643 C   0  0  0  0  0  0  0  0  0  0  0  0
   -3.8066   21.8808  -18.7639 C   0  0  0  0  0  0  0  0  0  0  0  0
   -3.2863   21.4792  -17.5562 C   0  0  0  0  0  0  0  0  0  0  0  0
   -3.7524   22.1015  -16.4158 C   0  0  0  0  0  0  0  0  0  0  0  0
   -4.7039   23.0931  -16.4497 C   0  0  0  0  0  0  0  0  0  0  0  0
   -5.2012   23.4658  -17.6998 C   0  0  0  0  0  0  0  0  0  0  0  0
   -5.1978   23.7473  -15.2424 C   0  0  0  0  0  0  0  0  0  0  0  0
   -5.8064   24.9865  -15.2861 C   0  0  0  0  0  0  0  0  0  0  0  0
   -6.2745   25.6121  -14.1496 C   0  0  0  0  0  0  0  0  0  0  0  0
   -6.1583   25.0296  -12.9049 C   0  0  0  0  0  0  0  0  0  0  0  0
   -5.5511   23.7913  -12.8543 C   0  0  0  0  0  0  0  0  0  0  0  0
   -5.0839   23.1681  -13.9939 C   0  0  0  0  0  0  0  0  0  0  0  0
   -6.7550   25.8308  -11.4632 S   0  0  0  0  0  0  0  0  0  0  0  0
   -8.4831   25.5085  -11.2154 C   0  0  0  0  0  0  0  0  0  0  0  0
   -6.0313   25.3693  -10.2298 O   0  0  0  0  0  0  0  0  0  0  0  0
   -6.5690   27.3103  -11.5776 O   0  0  0  0  0  0  0  0  0  0  0  0
   -9.0026   24.6908  -21.5295 C   0  0  0  0  0  0  0  0  0  0  0  0
   -7.6971   25.3487  -21.8925 C   0  0  0  0  0  0  0  0  0  0  0  0
 38 39  1  0  0  0
 39  1  1  0  0  0
  1  2  1  0  0  0
  2  3  2  0  0  0
  3  4  1  0  0  0
  4  5  2  0  0  0
  5  8  1  0  0  0
  8  9  1  0  0  0
  9 10  2  0  0  0
  9 11  1  0  0  0
 11 14  1  0  0  0
 14 15  2  0  0  0
 15 16  1  0  0  0
 15 17  1  0  0  0
 17 18  2  0  0  0
 18 19  1  0  0  0
 19 20  2  0  0  0
 20 21  1  0  0  0
  5  6  1  0  0  0
  6  7  2  0  0  0
  3 22  1  0  0  0
 22 23  2  0  0  0
 23 24  1  0  0  0
 24 25  2  0  0  0
 25 26  1  0  0  0
 26 27  2  0  0  0
 26 28  1  0  0  0
 28 29  2  0  0  0
 29 30  1  0  0  0
 30 31  2  0  0  0
 31 32  1  0  0  0
 32 33  2  0  0  0
 31 34  1  0  0  0
 34 35  1  0  0  0
 34 36  2  0  0  0
 34 37  2  0  0  0
  6  1  1  0  0  0
 27 22  1  0  0  0
 33 28  1  0  0  0
 20 14  1  0  0  0
  8 12  1  0  0  0
 11 13  1  0  0  0
M  END
> <minimizedAffinity>
-8.19169

> <CNNscore>
0.1875000447

> <CNNaffinity>
6.4726958275

> <CNN_VS>
1.2136307955

> <CNNaffinity_variance>
0.1939654499

$$$$
[H]c1nc([H])c(Cl)c(N([H])C(=O)N([H])c2c([H])c(-c3c([H])c([H])c([H])c(-c4c([H])c([H])c(S(=O)(=O)C([H])([H])[H])c([H])c4[H])c3[H])nn(C([H])([H])C([H])([H])[H])c2=O)c1Cl


 39 42  0  0  0  0  0  0  0  0999 V2000
   -0.3347   22.3537  -24.9692 N   0  0  0  0  0  0  0  0  0  0  0  0
   -1.6538   22.4822  -24.9255 N   0  0  0  0  0  0  0  0  0  0  0  0
   -2.3694   22.0644  -23.8573 C   0  0  0  0  0  0  0  0  0  0  0  0
   -1.6745   21.4975  -22.8118 C   0  0  0  0  0  0  0  0  0  0  0  0
   -0.3033   21.3502  -22.8283 C   0  0  0  0  0  0  0  0  0  0  0  0
    0.3687   21.8078  -23.9704 C   0  0  0  0  0  0  0  0  0  0  0  0
    1.6134   21.6909  -24.0208 O   0  0  0  0  0  0  0  0  0  0  0  0
    0.4725   20.7824  -21.7909 N   0  0  0  0  0  0  0  0  0  0  0  0
    0.6822   21.2555  -20.4911 C   0  0  0  0  0  0  0  0  0  0  0  0
    0.1778   22.3019  -20.0579 O   0  0  0  0  0  0  0  0  0  0  0  0
    1.5183   20.5290  -19.5662 N   0  0  0  0  0  0  0  0  0  0  0  0
    0.9925   19.8534  -21.9904 H   0  0  0  0  0  0  0  0  0  0  0  0
    1.9443   19.6483  -19.9325 H   0  0  0  0  0  0  0  0  0  0  0  0
    1.7460   20.9807  -18.2472 C   0  0  0  0  0  0  0  0  0  0  0  0
    0.8975   20.6251  -17.2426 C   0  0  0  0  0  0  0  0  0  0  0  0
   -0.4744   19.6181  -17.5368 Cl  0  0  0  0  0  0  0  0  0  0  0  0
    1.1467   21.0830  -15.9674 C   0  0  0  0  0  0  0  0  0  0  0  0
    2.2114   21.8681  -15.7225 N   0  0  0  0  0  0  0  0  0  0  0  0
    3.0652   22.2347  -16.6939 C   0  0  0  0  0  0  0  0  0  0  0  0
    2.8207   21.7810  -17.9648 C   0  0  0  0  0  0  0  0  0  0  0  0
    3.9266   22.2542  -19.2336 Cl  0  0  0  0  0  0  0  0  0  0  0  0
   -3.8076   22.1982  -23.7943 C   0  0  0  0  0  0  0  0  0  0  0  0
   -4.4629   22.4417  -25.0148 C   0  0  0  0  0  0  0  0  0  0  0  0
   -5.8268   22.5937  -25.0991 C   0  0  0  0  0  0  0  0  0  0  0  0
   -6.5582   22.5001  -23.9323 C   0  0  0  0  0  0  0  0  0  0  0  0
   -5.9751   22.2637  -22.7101 C   0  0  0  0  0  0  0  0  0  0  0  0
   -4.5872   22.1166  -22.6764 C   0  0  0  0  0  0  0  0  0  0  0  0
   -6.7499   22.1687  -21.4771 C   0  0  0  0  0  0  0  0  0  0  0  0
   -6.1742   22.3841  -20.2401 C   0  0  0  0  0  0  0  0  0  0  0  0
   -6.8991   22.2946  -19.0702 C   0  0  0  0  0  0  0  0  0  0  0  0
   -8.2428   21.9839  -19.0755 C   0  0  0  0  0  0  0  0  0  0  0  0
   -8.8242   21.7674  -20.3082 C   0  0  0  0  0  0  0  0  0  0  0  0
   -8.0955   21.8578  -21.4770 C   0  0  0  0  0  0  0  0  0  0  0  0
   -9.1590   21.8709  -17.5840 S   0  0  0  0  0  0  0  0  0  0  0  0
   -9.4998   20.1801  -17.1638 C   0  0  0  0  0  0  0  0  0  0  0  0
   -8.4174   22.4798  -16.4276 O   0  0  0  0  0  0  0  0  0  0  0  0
  -10.4638   22.5887  -17.7213 O   0  0  0  0  0  0  0  0  0  0  0  0
   -0.2104   22.2068  -27.3537 C   0  0  0  0  0  0  0  0  0  0  0  0
    0.4236   22.8084  -26.1269 C   0  0  0  0  0  0  0  0  0  0  0  0
 38 39  1  0  0  0
 39  1  1  0  0  0
  1  2  1  0  0  0
  2  3  2  0  0  0
  3  4  1  0  0  0
  4  5  2  0  0  0
  5  8  1  0  0  0
  8  9  1  0  0  0
  9 10  2  0  0  0
  9 11  1  0  0  0
 11 14  1  0  0  0
 14 15  2  0  0  0
 15 16  1  0  0  0
 15 17  1  0  0  0
 17 18  2  0  0  0
 18 19  1  0  0  0
 19 20  2  0  0  0
 20 21  1  0  0  0
  5  6  1  0  0  0
  6  7  2  0  0  0
  3 22  1  0  0  0
 22 23  2  0  0  0
 23 24  1  0  0  0
 24 25  2  0  0  0
 25 26  1  0  0  0
 26 27  2  0  0  0
 26 28  1  0  0  0
 28 29  2  0  0  0
 29 30  1  0  0  0
 30 31  2  0  0  0
 31 32  1  0  0  0
 32 33  2  0  0  0
 31 34  1  0  0  0
 34 35  1  0  0  0
 34 36  2  0  0  0
 34 37  2  0  0  0
  6  1  1  0  0  0
 27 22  1  0  0  0
 33 28  1  0  0  0
 20 14  1  0  0  0
  8 12  1  0  0  0
 11 13  1  0  0  0
M  END
> <minimizedAffinity>
-7.72065

> <CNNscore>
0.1873662472

> <CNNaffinity>
6.6421828270

> <CNN_VS>
1.2445209026

> <CNNaffinity_variance>
0.1326900870

$$$$
[H]c1nc([H])c(Cl)c(N([H])C(=O)N([H])c2c([H])c(-c3c([H])c([H])c([H])c(-c4c([H])c([H])c(S(=O)(=O)C([H])([H])[H])c([H])c4[H])c3[H])nn(C([H])([H])C([H])([H])[H])c2=O)c1Cl


 39 42  0  0  0  0  0  0  0  0999 V2000
   -5.2038   24.1871  -28.2089 N   0  0  0  0  0  0  0  0  0  0  0  0
   -4.0080   23.6500  -28.0092 N   0  0  0  0  0  0  0  0  0  0  0  0
   -3.4118   23.6838  -26.7964 C   0  0  0  0  0  0  0  0  0  0  0  0
   -4.0953   24.3000  -25.7715 C   0  0  0  0  0  0  0  0  0  0  0  0
   -5.3398   24.8675  -25.9484 C   0  0  0  0  0  0  0  0  0  0  0  0
   -5.8928   24.7922  -27.2343 C   0  0  0  0  0  0  0  0  0  0  0  0
   -7.0208   25.2960  -27.4324 O   0  0  0  0  0  0  0  0  0  0  0  0
   -6.0977   25.5107  -24.9421 N   0  0  0  0  0  0  0  0  0  0  0  0
   -6.7780   24.9453  -23.8582 C   0  0  0  0  0  0  0  0  0  0  0  0
   -6.8005   23.7271  -23.6292 O   0  0  0  0  0  0  0  0  0  0  0  0
   -7.5062   25.7748  -22.9287 N   0  0  0  0  0  0  0  0  0  0  0  0
   -6.1889   26.5892  -24.9809 H   0  0  0  0  0  0  0  0  0  0  0  0
   -7.4881   26.8010  -23.1234 H   0  0  0  0  0  0  0  0  0  0  0  0
   -8.1999   25.2326  -21.8240 C   0  0  0  0  0  0  0  0  0  0  0  0
   -9.5523   25.0761  -21.8710 C   0  0  0  0  0  0  0  0  0  0  0  0
  -10.4631   25.5275  -23.2672 Cl  0  0  0  0  0  0  0  0  0  0  0  0
  -10.1993   24.5452  -20.7767 C   0  0  0  0  0  0  0  0  0  0  0  0
   -9.5035   24.1888  -19.6818 N   0  0  0  0  0  0  0  0  0  0  0  0
   -8.1690   24.3318  -19.6075 C   0  0  0  0  0  0  0  0  0  0  0  0
   -7.5210   24.8598  -20.6947 C   0  0  0  0  0  0  0  0  0  0  0  0
   -5.7852   25.0493  -20.6052 Cl  0  0  0  0  0  0  0  0  0  0  0  0
   -2.1089   23.1021  -26.5626 C   0  0  0  0  0  0  0  0  0  0  0  0
   -1.2639   23.0007  -27.6825 C   0  0  0  0  0  0  0  0  0  0  0  0
   -0.0004   22.4643  -27.6036 C   0  0  0  0  0  0  0  0  0  0  0  0
    0.4327   22.0160  -26.3720 C   0  0  0  0  0  0  0  0  0  0  0  0
   -0.3466   22.0883  -25.2420 C   0  0  0  0  0  0  0  0  0  0  0  0
   -1.6218   22.6411  -25.3734 C   0  0  0  0  0  0  0  0  0  0  0  0
    0.1120   21.6105  -23.9415 C   0  0  0  0  0  0  0  0  0  0  0  0
    1.4491   21.3784  -23.6842 C   0  0  0  0  0  0  0  0  0  0  0  0
    1.8903   20.9255  -22.4585 C   0  0  0  0  0  0  0  0  0  0  0  0
    1.0147   20.6798  -21.4217 C   0  0  0  0  0  0  0  0  0  0  0  0
   -0.3228   20.9098  -21.6722 C   0  0  0  0  0  0  0  0  0  0  0  0
   -0.7608   21.3631  -22.9002 C   0  0  0  0  0  0  0  0  0  0  0  0
    1.5822   20.1031  -19.8654 S   0  0  0  0  0  0  0  0  0  0  0  0
    3.2436   19.4871  -19.9734 C   0  0  0  0  0  0  0  0  0  0  0  0
    1.5742   21.1931  -18.8311 O   0  0  0  0  0  0  0  0  0  0  0  0
    0.7062   18.9960  -19.3719 O   0  0  0  0  0  0  0  0  0  0  0  0
   -5.0399   25.0343  -30.4401 C   0  0  0  0  0  0  0  0  0  0  0  0
   -5.8343   24.1434  -29.5213 C   0  0  0  0  0  0  0  0  0  0  0  0
 38 39  1  0  0  0
 39  1  1  0  0  0
  1  2  1  0  0  0
  2  3  2  0  0  0
  3  4  1  0  0  0
  4  5  2  0  0  0
  5  8  1  0  0  0
  8  9  1  0  0  0
  9 10  2  0  0  0
  9 11  1  0  0  0
 11 14  1  0  0  0
 14 15  2  0  0  0
 15 16  1  0  0  0
 15 17  1  0  0  0
 17 18  2  0  0  0
 18 19  1  0  0  0
 19 20  2  0  0  0
 20 21  1  0  0  0
  5  6  1  0  0  0
  6  7  2  0  0  0
  3 22  1  0  0  0
 22 23  2  0  0  0
 23 24  1  0  0  0
 24 25  2  0  0  0
 25 26  1  0  0  0
 26 27  2  0  0  0
 26 28  1  0  0  0
 28 29  2  0  0  0
 29 30  1  0  0  0
 30 31  2  0  0  0
 31 32  1  0  0  0
 32 33  2  0  0  0
 31 34  1  0  0  0
 34 35  1  0  0  0
 34 36  2  0  0  0
 34 37  2  0  0  0
  6  1  1  0  0  0
 27 22  1  0  0  0
 33 28  1  0  0  0
 20 14  1  0  0  0
  8 12  1  0  0  0
 11 13  1  0  0  0
M  END
> <minimizedAffinity>
-10.18822

> <CNNscore>
0.1499623209

> <CNNaffinity>
6.9858484268

> <CNN_VS>
1.0476140976

> <CNNaffinity_variance>
0.1814934164

$$$$
[H]c1nc([H])c(Cl)c(N([H])C(=O)N([H])c2c([H])c(-c3c([H])c([H])c([H])c(-c4c([H])c([H])c(S(=O)(=O)C([H])([H])[H])c([H])c4[H])c3[H])nn(C([H])([H])C([H])([H])[H])c2=O)c1Cl


 39 42  0  0  0  0  0  0  0  0999 V2000
   -5.0892   24.8646  -28.0552 N   0  0  0  0  0  0  0  0  0  0  0  0
   -3.8671   24.3652  -27.9306 N   0  0  0  0  0  0  0  0  0  0  0  0
   -3.4931   23.6800  -26.8269 C   0  0  0  0  0  0  0  0  0  0  0  0
   -4.4324   23.5195  -25.8322 C   0  0  0  0  0  0  0  0  0  0  0  0
   -5.7107   24.0273  -25.9329 C   0  0  0  0  0  0  0  0  0  0  0  0
   -6.0236   24.7256  -27.1075 C   0  0  0  0  0  0  0  0  0  0  0  0
   -7.1743   25.2004  -27.2343 O   0  0  0  0  0  0  0  0  0  0  0  0
   -6.7238   23.8966  -24.9546 N   0  0  0  0  0  0  0  0  0  0  0  0
   -7.2035   24.8532  -24.0534 C   0  0  0  0  0  0  0  0  0  0  0  0
   -6.7711   26.0138  -23.9986 O   0  0  0  0  0  0  0  0  0  0  0  0
   -8.2532   24.5269  -23.1187 N   0  0  0  0  0  0  0  0  0  0  0  0
   -7.2210   22.9393  -24.8575 H   0  0  0  0  0  0  0  0  0  0  0  0
   -8.6158   23.5483  -23.1644 H   0  0  0  0  0  0  0  0  0  0  0  0
   -8.7593   25.4726  -22.1992 C   0  0  0  0  0  0  0  0  0  0  0  0
   -8.0320   25.8214  -21.1014 C   0  0  0  0  0  0  0  0  0  0  0  0
   -6.4793   25.1310  -20.7933 Cl  0  0  0  0  0  0  0  0  0  0  0  0
   -8.5541   26.7458  -20.2234 C   0  0  0  0  0  0  0  0  0  0  0  0
   -9.7623   27.2924  -20.4499 N   0  0  0  0  0  0  0  0  0  0  0  0
  -10.5017   26.9672  -21.5244 C   0  0  0  0  0  0  0  0  0  0  0  0
   -9.9857   26.0474  -22.4010 C   0  0  0  0  0  0  0  0  0  0  0  0
  -10.9420   25.6190  -23.8005 Cl  0  0  0  0  0  0  0  0  0  0  0  0
   -2.1649   23.1288  -26.6764 C   0  0  0  0  0  0  0  0  0  0  0  0
   -1.3914   23.0432  -27.8480 C   0  0  0  0  0  0  0  0  0  0  0  0
   -0.1135   22.5360  -27.8496 C   0  0  0  0  0  0  0  0  0  0  0  0
    0.4079   22.1014  -26.6477 C   0  0  0  0  0  0  0  0  0  0  0  0
   -0.2987   22.1593  -25.4700 C   0  0  0  0  0  0  0  0  0  0  0  0
   -1.5921   22.6825  -25.5202 C   0  0  0  0  0  0  0  0  0  0  0  0
    0.2531   21.6960  -24.2010 C   0  0  0  0  0  0  0  0  0  0  0  0
    1.6058   21.4689  -24.0379 C   0  0  0  0  0  0  0  0  0  0  0  0
    2.1350   21.0296  -22.8425 C   0  0  0  0  0  0  0  0  0  0  0  0
    1.3366   20.7933  -21.7430 C   0  0  0  0  0  0  0  0  0  0  0  0
   -0.0160   21.0184  -21.8992 C   0  0  0  0  0  0  0  0  0  0  0  0
   -0.5420   21.4580  -23.0973 C   0  0  0  0  0  0  0  0  0  0  0  0
    2.0157   20.2340  -20.2256 S   0  0  0  0  0  0  0  0  0  0  0  0
    3.0978   21.4499  -19.5168 C   0  0  0  0  0  0  0  0  0  0  0  0
    0.9463   19.9398  -19.2118 O   0  0  0  0  0  0  0  0  0  0  0  0
    2.8017   18.9799  -20.4402 O   0  0  0  0  0  0  0  0  0  0  0  0
   -4.2689   25.6963  -30.1429 C   0  0  0  0  0  0  0  0  0  0  0  0
   -5.4785   25.6011  -29.2503 C   0  0  0  0  0  0  0  0  0  0  0  0
 38 39  1  0  0  0
 39  1  1  0  0  0
  1  2  1  0  0  0
  2  3  2  0  0  0
  3  4  1  0  0  0
  4  5  2  0  0  0
  5  8  1  0  0  0
  8  9  1  0  0  0
  9 10  2  0  0  0
  9 11  1  0  0  0
 11 14  1  0  0  0
 14 15  2  0  0  0
 15 16  1  0  0  0
 15 17  1  0  0  0
 17 18  2  0  0  0
 18 19  1  0  0  0
 19 20  2  0  0  0
 20 21  1  0  0  0
  5  6  1  0  0  0
  6  7  2  0  0  0
  3 22  1  0  0  0
 22 23  2  0  0  0
 23 24  1  0  0  0
 24 25  2  0  0  0
 25 26  1  0  0  0
 26 27  2  0  0  0
 26 28  1  0  0  0
 28 29  2  0  0  0
 29 30  1  0  0  0
 30 31  2  0  0  0
 31 32  1  0  0  0
 32 33  2  0  0  0
 31 34  1  0  0  0
 34 35  1  0  0  0
 34 36  2  0  0  0
 34 37  2  0  0  0
  6  1  1  0  0  0
 27 22  1  0  0  0
 33 28  1  0  0  0
 20 14  1  0  0  0
  8 12  1  0  0  0
 11 13  1  0  0  0
M  END
> <minimizedAffinity>
-10.45029

> <CNNscore>
0.1154759154

> <CNNaffinity>
6.7188124657

> <CNN_VS>
0.7758610249

> <CNNaffinity_variance>
0.3311748505

$$$$
[H]N=C(N([H])[H])N([H])C([H])([H])C([H])([H])C([H])([H])[C@@]([H])(C(=O)c1nc2c([H])c([H])c([H])c([H])c2s1)N([H])C(=O)[C@@]([H])(N([H])C(=O)[C@@]([H])(N([H])C(=O)[C@@]([H])(N([H])C(=O)C([H])([H])[H])C([H])([H])C([H])([H])C([H])([H])N([H])C(=N[H])N([H])[H])C([H])([H])C([H])([H])C([H])([H])N([H])C(=N[H])N([H])[H])C([H])([H])C([H])([H])C([H])([H])N([H])C(=N[H])N([H])[H]


 76 77  0  0  0  0  0  0  0  0999 V2000
   -4.4791   23.9820  -24.0437 C   0  0  0  0  0  0  0  0  0  0  0  0
   -3.6128   23.0743  -24.7200 C   0  0  0  0  0  0  0  0  0  0  0  0
   -3.8024   21.7963  -24.5221 O   0  0  0  0  0  0  0  0  0  0  0  0
   -2.5412   23.3007  -25.6184 N   0  0  0  0  0  0  0  0  0  0  0  0
   -2.2891   24.2787  -25.8545 H   0  0  0  0  0  0  0  0  0  0  0  0
   -1.7679   22.2593  -26.2565 C   0  0  0  0  0  0  0  0  0  0  0  0
   -0.3158   22.3472  -26.0324 C   0  0  0  0  0  0  0  0  0  0  0  0
    0.4280   22.8319  -26.9040 O   0  0  0  0  0  0  0  0  0  0  0  0
    0.2942   21.8669  -24.7760 C   0  0  0  0  0  0  0  0  0  0  0  0
    1.5428   21.5526  -24.5120 N   0  0  0  0  0  0  0  0  0  0  0  0
    1.8872   21.1373  -23.3294 C   0  0  0  0  0  0  0  0  0  0  0  0
    3.1773   20.7695  -22.9220 C   0  0  0  0  0  0  0  0  0  0  0  0
    3.4403   20.3398  -21.6493 C   0  0  0  0  0  0  0  0  0  0  0  0
    2.4463   20.2514  -20.7141 C   0  0  0  0  0  0  0  0  0  0  0  0
    1.1698   20.6034  -21.0758 C   0  0  0  0  0  0  0  0  0  0  0  0
    0.8970   21.0449  -22.3831 C   0  0  0  0  0  0  0  0  0  0  0  0
   -0.4711   21.5641  -23.2625 S   0  0  0  0  0  0  0  0  0  0  0  0
   -2.0229   22.4378  -27.7535 C   0  0  0  0  0  0  0  0  0  0  0  0
   -2.8962   23.6355  -28.0524 C   0  0  0  0  0  0  0  0  0  0  0  0
   -3.9665   23.1529  -29.0075 C   0  0  0  0  0  0  0  0  0  0  0  0
   -5.2412   23.8069  -28.7803 N   0  0  0  0  0  0  0  0  0  0  0  0
   -5.7953   23.6381  -27.9115 H   0  0  0  0  0  0  0  0  0  0  0  0
   -5.7971   24.7138  -29.7232 C   0  0  0  0  0  0  0  0  0  0  0  0
   -5.5849   24.5170  -31.1227 N   0  0  0  0  0  0  0  0  0  0  0  0
   -6.5021   25.7330  -29.3697 N   0  0  0  0  0  0  0  0  0  0  0  0
   -6.3471   24.5064  -31.8322 H   0  0  0  0  0  0  0  0  0  0  0  0
   -4.6103   24.3772  -31.4512 H   0  0  0  0  0  0  0  0  0  0  0  0
   -6.6512   25.8681  -28.3364 H   0  0  0  0  0  0  0  0  0  0  0  0
   -6.0042   23.0441  -22.2260 C   0  0  0  0  0  0  0  0  0  0  0  0
   -7.0085   23.1650  -22.9400 O   0  0  0  0  0  0  0  0  0  0  0  0
   -4.7215   23.4147  -22.6552 N   0  0  0  0  0  0  0  0  0  0  0  0
   -3.9144   23.3042  -22.0220 H   0  0  0  0  0  0  0  0  0  0  0  0
   -6.1822   22.4763  -20.8659 C   0  0  0  0  0  0  0  0  0  0  0  0
   -4.1613   21.9879  -19.3988 C   0  0  0  0  0  0  0  0  0  0  0  0
   -4.2016   20.7342  -19.5541 O   0  0  0  0  0  0  0  0  0  0  0  0
   -5.0792   22.8369  -20.0014 N   0  0  0  0  0  0  0  0  0  0  0  0
   -4.9772   23.8861  -19.8178 H   0  0  0  0  0  0  0  0  0  0  0  0
   -3.0818   22.5261  -18.5368 C   0  0  0  0  0  0  0  0  0  0  0  0
   -4.5963   23.2676  -15.0815 C   0  0  0  0  0  0  0  0  0  0  0  0
   -4.2889   23.3846  -16.5152 C   0  0  0  0  0  0  0  0  0  0  0  0
   -4.8177   24.3215  -17.1685 O   0  0  0  0  0  0  0  0  0  0  0  0
   -3.4148   22.4507  -17.1185 N   0  0  0  0  0  0  0  0  0  0  0  0
   -2.9900   21.6876  -16.5609 H   0  0  0  0  0  0  0  0  0  0  0  0
   -1.8375   21.6502  -18.7278 C   0  0  0  0  0  0  0  0  0  0  0  0
   -0.6753   22.2487  -17.9840 C   0  0  0  0  0  0  0  0  0  0  0  0
   -0.1337   23.3929  -18.8457 C   0  0  0  0  0  0  0  0  0  0  0  0
    1.2918   23.2829  -19.0238 N   0  0  0  0  0  0  0  0  0  0  0  0
    1.6850   22.6220  -19.7129 H   0  0  0  0  0  0  0  0  0  0  0  0
    2.1570   24.0914  -18.2417 C   0  0  0  0  0  0  0  0  0  0  0  0
    2.7693   23.4885  -17.1080 N   0  0  0  0  0  0  0  0  0  0  0  0
    2.3961   25.3239  -18.5251 N   0  0  0  0  0  0  0  0  0  0  0  0
    2.7342   23.9062  -16.1569 H   0  0  0  0  0  0  0  0  0  0  0  0
    3.2937   22.5699  -17.1911 H   0  0  0  0  0  0  0  0  0  0  0  0
    3.0367   25.8990  -17.9345 H   0  0  0  0  0  0  0  0  0  0  0  0
   -7.4956   23.0852  -20.3475 C   0  0  0  0  0  0  0  0  0  0  0  0
   -7.2092   24.4691  -19.8204 C   0  0  0  0  0  0  0  0  0  0  0  0
   -8.0649   25.5085  -20.4866 C   0  0  0  0  0  0  0  0  0  0  0  0
   -9.1088   24.8823  -21.2457 N   0  0  0  0  0  0  0  0  0  0  0  0
   -9.1573   23.8453  -21.2824 H   0  0  0  0  0  0  0  0  0  0  0  0
  -10.0652   25.6642  -21.9369 C   0  0  0  0  0  0  0  0  0  0  0  0
  -11.4405   25.2758  -21.9215 N   0  0  0  0  0  0  0  0  0  0  0  0
   -9.7559   26.7335  -22.5937 N   0  0  0  0  0  0  0  0  0  0  0  0
  -11.9370   25.0770  -22.8139 H   0  0  0  0  0  0  0  0  0  0  0  0
  -11.9359   25.1953  -21.0150 H   0  0  0  0  0  0  0  0  0  0  0  0
   -8.7408   27.0081  -22.5962 H   0  0  0  0  0  0  0  0  0  0  0  0
   -4.3244   25.3980  -23.8075 C   0  0  0  0  0  0  0  0  0  0  0  0
   -4.3825   26.5071  -24.7386 C   0  0  0  0  0  0  0  0  0  0  0  0
   -5.7095   26.9582  -25.2101 C   0  0  0  0  0  0  0  0  0  0  0  0
   -6.1710   25.9994  -26.2165 N   0  0  0  0  0  0  0  0  0  0  0  0
   -5.7891   25.9517  -27.1862 H   0  0  0  0  0  0  0  0  0  0  0  0
   -7.1862   25.0741  -25.8982 C   0  0  0  0  0  0  0  0  0  0  0  0
   -8.0360   25.2539  -24.7864 N   0  0  0  0  0  0  0  0  0  0  0  0
   -7.3459   24.0318  -26.6478 N   0  0  0  0  0  0  0  0  0  0  0  0
   -7.7830   25.8876  -24.0004 H   0  0  0  0  0  0  0  0  0  0  0  0
   -8.9439   24.7482  -24.7328 H   0  0  0  0  0  0  0  0  0  0  0  0
   -6.7366   23.8757  -27.4731 H   0  0  0  0  0  0  0  0  0  0  0  0
 39 40  1  0  0  0
 40 41  2  0  0  0
 40 42  1  0  0  0
 42 38  1  0  0  0
 38 44  1  0  0  0
 44 45  1  0  0  0
 45 46  1  0  0  0
 46 47  1  0  0  0
 47 49  1  0  0  0
 49 50  1  0  0  0
 49 51  2  0  0  0
 38 34  1  0  0  0
 34 35  2  0  0  0
 34 36  1  0  0  0
 36 33  1  0  0  0
 33 55  1  0  0  0
 55 56  1  0  0  0
 56 57  1  0  0  0
 57 58  1  0  0  0
 58 60  1  0  0  0
 60 61  1  0  0  0
 60 62  2  0  0  0
 33 29  1  0  0  0
 29 30  2  0  0  0
 29 31  1  0  0  0
 31  1  1  0  0  0
  1 66  1  0  0  0
 66 67  1  0  0  0
 67 68  1  0  0  0
 68 69  1  0  0  0
 69 71  1  0  0  0
 71 72  1  0  0  0
 71 73  2  0  0  0
  1  2  1  0  0  0
  2  3  2  0  0  0
  2  4  1  0  0  0
  4  6  1  0  0  0
  6 18  1  0  0  0
 18 19  1  0  0  0
 19 20  1  0  0  0
 20 21  1  0  0  0
 21 23  1  0  0  0
 23 24  1  0  0  0
 23 25  2  0  0  0
  6  7  1  0  0  0
  7  8  2  0  0  0
  7  9  1  0  0  0
  9 10  2  0  0  0
 10 11  1  0  0  0
 11 12  2  0  0  0
 12 13  1  0  0  0
 13 14  2  0  0  0
 14 15  1  0  0  0
 15 16  2  0  0  0
 16 17  1  0  0  0
 17  9  1  0  0  0
 16 11  1  0  0  0
 42 43  1  0  0  0
 47 48  1  0  0  0
 50 52  1  0  0  0
 50 53  1  0  0  0
 51 54  1  0  0  0
 36 37  1  0  0  0
 58 59  1  0  0  0
 61 63  1  0  0  0
 61 64  1  0  0  0
 62 65  1  0  0  0
 31 32  1  0  0  0
 69 70  1  0  0  0
 72 74  1  0  0  0
 72 75  1  0  0  0
 73 76  1  0  0  0
  4  5  1  0  0  0
 21 22  1  0  0  0
 24 26  1  0  0  0
 24 27  1  0  0  0
 25 28  1  0  0  0
M  END
> <minimizedAffinity>
-7.27538

> <CNNscore>
0.3381586969

> <CNNaffinity>
7.6113357544

> <CNN_VS>
2.5738394260

> <CNNaffinity_variance>
0.2225445956

$$$$
[H]N=C(N([H])[H])N([H])C([H])([H])C([H])([H])C([H])([H])[C@@]([H])(C(=O)c1nc2c([H])c([H])c([H])c([H])c2s1)N([H])C(=O)[C@@]([H])(N([H])C(=O)[C@@]([H])(N([H])C(=O)[C@@]([H])(N([H])C(=O)C([H])([H])[H])C([H])([H])C([H])([H])C([H])([H])N([H])C(=N[H])N([H])[H])C([H])([H])C([H])([H])C([H])([H])N([H])C(=N[H])N([H])[H])C([H])([H])C([H])([H])C([H])([H])N([H])C(=N[H])N([H])[H]


 76 77  0  0  0  0  0  0  0  0999 V2000
   -2.4319   22.1984  -19.8926 C   0  0  0  0  0  0  0  0  0  0  0  0
   -3.2935   22.0325  -18.7692 C   0  0  0  0  0  0  0  0  0  0  0  0
   -2.7806   21.5120  -17.6854 O   0  0  0  0  0  0  0  0  0  0  0  0
   -4.6622   22.3493  -18.5879 N   0  0  0  0  0  0  0  0  0  0  0  0
   -5.1846   22.7672  -19.3804 H   0  0  0  0  0  0  0  0  0  0  0  0
   -5.3980   22.1484  -17.3599 C   0  0  0  0  0  0  0  0  0  0  0  0
   -6.5640   21.2582  -17.4806 C   0  0  0  0  0  0  0  0  0  0  0  0
   -7.7093   21.6852  -17.2493 O   0  0  0  0  0  0  0  0  0  0  0  0
   -6.4081   19.8442  -17.8775 C   0  0  0  0  0  0  0  0  0  0  0  0
   -5.3161   19.1399  -18.0744 N   0  0  0  0  0  0  0  0  0  0  0  0
   -5.3862   17.8920  -18.4318 C   0  0  0  0  0  0  0  0  0  0  0  0
   -4.3025   17.0363  -18.6752 C   0  0  0  0  0  0  0  0  0  0  0  0
   -4.4794   15.7323  -19.0521 C   0  0  0  0  0  0  0  0  0  0  0  0
   -5.7321   15.2057  -19.2074 C   0  0  0  0  0  0  0  0  0  0  0  0
   -6.8181   16.0131  -18.9774 C   0  0  0  0  0  0  0  0  0  0  0  0
   -6.6389   17.3535  -18.5905 C   0  0  0  0  0  0  0  0  0  0  0  0
   -7.6380   18.6854  -18.2135 S   0  0  0  0  0  0  0  0  0  0  0  0
   -5.9067   23.5371  -16.9716 C   0  0  0  0  0  0  0  0  0  0  0  0
   -5.3509   24.0066  -15.6460 C   0  0  0  0  0  0  0  0  0  0  0  0
   -4.9292   22.7608  -14.8971 C   0  0  0  0  0  0  0  0  0  0  0  0
   -3.9212   23.0388  -13.8918 N   0  0  0  0  0  0  0  0  0  0  0  0
   -3.9751   23.8851  -13.2826 H   0  0  0  0  0  0  0  0  0  0  0  0
   -2.8144   22.1723  -13.6802 C   0  0  0  0  0  0  0  0  0  0  0  0
   -2.4879   21.1724  -14.6476 N   0  0  0  0  0  0  0  0  0  0  0  0
   -2.0701   22.2448  -12.6307 N   0  0  0  0  0  0  0  0  0  0  0  0
   -1.5368   21.0390  -15.0503 H   0  0  0  0  0  0  0  0  0  0  0  0
   -3.2462   20.5398  -14.9672 H   0  0  0  0  0  0  0  0  0  0  0  0
   -2.3205   22.9846  -11.9249 H   0  0  0  0  0  0  0  0  0  0  0  0
   -3.4144   22.5188  -22.2253 C   0  0  0  0  0  0  0  0  0  0  0  0
   -2.9867   21.4216  -22.6078 O   0  0  0  0  0  0  0  0  0  0  0  0
   -3.2000   23.0037  -20.9270 N   0  0  0  0  0  0  0  0  0  0  0  0
   -3.5679   23.9286  -20.6552 H   0  0  0  0  0  0  0  0  0  0  0  0
   -4.1888   23.3383  -23.1911 C   0  0  0  0  0  0  0  0  0  0  0  0
   -3.8611   23.6628  -25.6935 C   0  0  0  0  0  0  0  0  0  0  0  0
   -3.9406   24.9238  -25.6615 O   0  0  0  0  0  0  0  0  0  0  0  0
   -3.9747   22.8861  -24.5489 N   0  0  0  0  0  0  0  0  0  0  0  0
   -3.8979   21.8248  -24.6616 H   0  0  0  0  0  0  0  0  0  0  0  0
   -3.6390   23.0347  -27.0180 C   0  0  0  0  0  0  0  0  0  0  0  0
   -4.0863   25.3288  -30.0707 C   0  0  0  0  0  0  0  0  0  0  0  0
   -4.3781   24.3268  -29.0342 C   0  0  0  0  0  0  0  0  0  0  0  0
   -5.5051   23.7664  -29.0405 O   0  0  0  0  0  0  0  0  0  0  0  0
   -3.3944   24.0201  -28.0654 N   0  0  0  0  0  0  0  0  0  0  0  0
   -2.4727   24.4933  -28.0799 H   0  0  0  0  0  0  0  0  0  0  0  0
   -2.3681   22.1805  -26.9337 C   0  0  0  0  0  0  0  0  0  0  0  0
   -1.2127   22.9264  -27.5426 C   0  0  0  0  0  0  0  0  0  0  0  0
    0.0648   22.1955  -27.1200 C   0  0  0  0  0  0  0  0  0  0  0  0
    0.7256   22.8815  -26.0390 N   0  0  0  0  0  0  0  0  0  0  0  0
    1.2043   23.7815  -26.2035 H   0  0  0  0  0  0  0  0  0  0  0  0
    0.7159   22.3095  -24.7403 C   0  0  0  0  0  0  0  0  0  0  0  0
   -0.3974   22.6019  -23.9045 N   0  0  0  0  0  0  0  0  0  0  0  0
    1.6639   21.5521  -24.3110 N   0  0  0  0  0  0  0  0  0  0  0  0
   -0.2977   22.9634  -22.9351 H   0  0  0  0  0  0  0  0  0  0  0  0
   -1.3920   22.4616  -24.2463 H   0  0  0  0  0  0  0  0  0  0  0  0
    1.6346   21.1425  -23.3511 H   0  0  0  0  0  0  0  0  0  0  0  0
   -5.6601   23.1500  -22.7853 C   0  0  0  0  0  0  0  0  0  0  0  0
   -6.3392   24.4968  -22.7995 C   0  0  0  0  0  0  0  0  0  0  0  0
   -7.4116   24.5704  -23.8486 C   0  0  0  0  0  0  0  0  0  0  0  0
   -8.3101   25.6529  -23.5674 N   0  0  0  0  0  0  0  0  0  0  0  0
   -8.0490   26.6165  -23.8543 H   0  0  0  0  0  0  0  0  0  0  0  0
   -9.5402   25.4153  -22.9083 C   0  0  0  0  0  0  0  0  0  0  0  0
   -9.5491   24.7358  -21.6511 N   0  0  0  0  0  0  0  0  0  0  0  0
  -10.6793   25.7887  -23.3914 N   0  0  0  0  0  0  0  0  0  0  0  0
  -10.0799   23.8478  -21.5412 H   0  0  0  0  0  0  0  0  0  0  0  0
   -9.0236   25.1364  -20.8530 H   0  0  0  0  0  0  0  0  0  0  0  0
  -10.6582   26.2881  -24.3167 H   0  0  0  0  0  0  0  0  0  0  0  0
   -1.0994   22.7506  -19.9563 C   0  0  0  0  0  0  0  0  0  0  0  0
   -0.2456   23.2422  -18.8933 C   0  0  0  0  0  0  0  0  0  0  0  0
    0.6456   22.2812  -18.2086 C   0  0  0  0  0  0  0  0  0  0  0  0
    1.6600   23.0542  -17.4882 N   0  0  0  0  0  0  0  0  0  0  0  0
    1.6542   23.1916  -16.4541 H   0  0  0  0  0  0  0  0  0  0  0  0
    2.7179   23.6630  -18.1940 C   0  0  0  0  0  0  0  0  0  0  0  0
    3.6055   22.9155  -18.9965 N   0  0  0  0  0  0  0  0  0  0  0  0
    2.8785   24.9438  -18.1065 N   0  0  0  0  0  0  0  0  0  0  0  0
    3.7139   21.8866  -18.8812 H   0  0  0  0  0  0  0  0  0  0  0  0
    4.1754   23.3873  -19.7282 H   0  0  0  0  0  0  0  0  0  0  0  0
    2.2390   25.5183  -17.5254 H   0  0  0  0  0  0  0  0  0  0  0  0
 39 40  1  0  0  0
 40 41  2  0  0  0
 40 42  1  0  0  0
 42 38  1  0  0  0
 38 44  1  0  0  0
 44 45  1  0  0  0
 45 46  1  0  0  0
 46 47  1  0  0  0
 47 49  1  0  0  0
 49 50  1  0  0  0
 49 51  2  0  0  0
 38 34  1  0  0  0
 34 35  2  0  0  0
 34 36  1  0  0  0
 36 33  1  0  0  0
 33 55  1  0  0  0
 55 56  1  0  0  0
 56 57  1  0  0  0
 57 58  1  0  0  0
 58 60  1  0  0  0
 60 61  1  0  0  0
 60 62  2  0  0  0
 33 29  1  0  0  0
 29 30  2  0  0  0
 29 31  1  0  0  0
 31  1  1  0  0  0
  1 66  1  0  0  0
 66 67  1  0  0  0
 67 68  1  0  0  0
 68 69  1  0  0  0
 69 71  1  0  0  0
 71 72  1  0  0  0
 71 73  2  0  0  0
  1  2  1  0  0  0
  2  3  2  0  0  0
  2  4  1  0  0  0
  4  6  1  0  0  0
  6 18  1  0  0  0
 18 19  1  0  0  0
 19 20  1  0  0  0
 20 21  1  0  0  0
 21 23  1  0  0  0
 23 24  1  0  0  0
 23 25  2  0  0  0
  6  7  1  0  0  0
  7  8  2  0  0  0
  7  9  1  0  0  0
  9 10  2  0  0  0
 10 11  1  0  0  0
 11 12  2  0  0  0
 12 13  1  0  0  0
 13 14  2  0  0  0
 14 15  1  0  0  0
 15 16  2  0  0  0
 16 17  1  0  0  0
 17  9  1  0  0  0
 16 11  1  0  0  0
 42 43  1  0  0  0
 47 48  1  0  0  0
 50 52  1  0  0  0
 50 53  1  0  0  0
 51 54  1  0  0  0
 36 37  1  0  0  0
 58 59  1  0  0  0
 61 63  1  0  0  0
 61 64  1  0  0  0
 62 65  1  0  0  0
 31 32  1  0  0  0
 69 70  1  0  0  0
 72 74  1  0  0  0
 72 75  1  0  0  0
 73 76  1  0  0  0
  4  5  1  0  0  0
 21 22  1  0  0  0
 24 26  1  0  0  0
 24 27  1  0  0  0
 25 28  1  0  0  0
M  END
> <minimizedAffinity>
-6.41928

> <CNNscore>
0.2570457160

> <CNNaffinity>
7.2434830666

> <CNN_VS>
1.8619062901

> <CNNaffinity_variance>
0.5001631379

$$$$
[H]N=C(N([H])[H])N([H])C([H])([H])C([H])([H])C([H])([H])[C@@]([H])(C(=O)c1nc2c([H])c([H])c([H])c([H])c2s1)N([H])C(=O)[C@@]([H])(N([H])C(=O)[C@@]([H])(N([H])C(=O)[C@@]([H])(N([H])C(=O)C([H])([H])[H])C([H])([H])C([H])([H])C([H])([H])N([H])C(=N[H])N([H])[H])C([H])([H])C([H])([H])C([H])([H])N([H])C(=N[H])N([H])[H])C([H])([H])C([H])([H])C([H])([H])N([H])C(=N[H])N([H])[H]


 76 77  0  0  0  0  0  0  0  0999 V2000
   -2.0831   22.2998  -22.9006 C   0  0  0  0  0  0  0  0  0  0  0  0
   -3.4759   22.4893  -22.6639 C   0  0  0  0  0  0  0  0  0  0  0  0
   -4.1826   21.4388  -22.3396 O   0  0  0  0  0  0  0  0  0  0  0  0
   -4.2789   23.6556  -22.7026 N   0  0  0  0  0  0  0  0  0  0  0  0
   -3.8326   24.5581  -22.9521 H   0  0  0  0  0  0  0  0  0  0  0  0
   -5.6922   23.6925  -22.4010 C   0  0  0  0  0  0  0  0  0  0  0  0
   -6.5470   24.1346  -23.5146 C   0  0  0  0  0  0  0  0  0  0  0  0
   -7.7598   24.3445  -23.3331 O   0  0  0  0  0  0  0  0  0  0  0  0
   -5.9932   24.3409  -24.8681 C   0  0  0  0  0  0  0  0  0  0  0  0
   -5.0909   23.6458  -25.5241 N   0  0  0  0  0  0  0  0  0  0  0  0
   -4.7250   23.9953  -26.7215 C   0  0  0  0  0  0  0  0  0  0  0  0
   -3.7759   23.3445  -27.5223 C   0  0  0  0  0  0  0  0  0  0  0  0
   -3.4548   23.7933  -28.7750 C   0  0  0  0  0  0  0  0  0  0  0  0
   -4.0527   24.9049  -29.3018 C   0  0  0  0  0  0  0  0  0  0  0  0
   -4.9877   25.5687  -28.5473 C   0  0  0  0  0  0  0  0  0  0  0  0
   -5.3190   25.1097  -27.2597 C   0  0  0  0  0  0  0  0  0  0  0  0
   -6.3699   25.5834  -26.0004 S   0  0  0  0  0  0  0  0  0  0  0  0
   -5.8292   24.7133  -21.2709 C   0  0  0  0  0  0  0  0  0  0  0  0
   -6.6427   24.1855  -20.1106 C   0  0  0  0  0  0  0  0  0  0  0  0
   -6.1404   22.7831  -19.8429 C   0  0  0  0  0  0  0  0  0  0  0  0
   -4.8085   22.7767  -19.2684 N   0  0  0  0  0  0  0  0  0  0  0  0
   -4.2560   23.6560  -19.1586 H   0  0  0  0  0  0  0  0  0  0  0  0
   -4.1909   21.5774  -18.8203 C   0  0  0  0  0  0  0  0  0  0  0  0
   -3.7528   21.4561  -17.4654 N   0  0  0  0  0  0  0  0  0  0  0  0
   -4.0008   20.5659  -19.5959 N   0  0  0  0  0  0  0  0  0  0  0  0
   -3.9992   20.6591  -16.8420 H   0  0  0  0  0  0  0  0  0  0  0  0
   -3.1510   22.2090  -17.0804 H   0  0  0  0  0  0  0  0  0  0  0  0
   -4.3270   20.6670  -20.5917 H   0  0  0  0  0  0  0  0  0  0  0  0
   -1.0989   22.4857  -20.5540 C   0  0  0  0  0  0  0  0  0  0  0  0
   -1.1907   23.7204  -20.5620 O   0  0  0  0  0  0  0  0  0  0  0  0
   -1.4963   21.6903  -21.6386 N   0  0  0  0  0  0  0  0  0  0  0  0
   -1.3929   20.6648  -21.5906 H   0  0  0  0  0  0  0  0  0  0  0  0
   -0.5499   21.8371  -19.3368 C   0  0  0  0  0  0  0  0  0  0  0  0
   -0.6658   19.3146  -19.0226 C   0  0  0  0  0  0  0  0  0  0  0  0
   -1.5726   19.3457  -18.1428 O   0  0  0  0  0  0  0  0  0  0  0  0
   -0.1610   20.4692  -19.6045 N   0  0  0  0  0  0  0  0  0  0  0  0
    0.6075   20.3569  -20.3406 H   0  0  0  0  0  0  0  0  0  0  0  0
   -0.1535   17.9801  -19.4160 C   0  0  0  0  0  0  0  0  0  0  0  0
   -2.5862   15.0038  -19.4942 C   0  0  0  0  0  0  0  0  0  0  0  0
   -1.4961   15.8932  -19.0650 C   0  0  0  0  0  0  0  0  0  0  0  0
   -0.8320   15.5795  -18.0428 O   0  0  0  0  0  0  0  0  0  0  0  0
   -1.2234   17.0676  -19.8043 N   0  0  0  0  0  0  0  0  0  0  0  0
   -1.7826   17.3056  -20.6435 H   0  0  0  0  0  0  0  0  0  0  0  0
    0.7275   18.1548  -20.6590 C   0  0  0  0  0  0  0  0  0  0  0  0
    1.6001   16.9429  -20.8383 C   0  0  0  0  0  0  0  0  0  0  0  0
    3.0280   17.4487  -21.0622 C   0  0  0  0  0  0  0  0  0  0  0  0
    3.1368   18.8543  -20.7653 N   0  0  0  0  0  0  0  0  0  0  0  0
    2.2914   19.4438  -20.7004 H   0  0  0  0  0  0  0  0  0  0  0  0
    4.4190   19.4274  -20.5628 C   0  0  0  0  0  0  0  0  0  0  0  0
    5.4457   18.5763  -20.0675 N   0  0  0  0  0  0  0  0  0  0  0  0
    4.6704   20.6653  -20.8101 N   0  0  0  0  0  0  0  0  0  0  0  0
    6.0284   18.8146  -19.2404 H   0  0  0  0  0  0  0  0  0  0  0  0
    5.6586   17.6461  -20.5312 H   0  0  0  0  0  0  0  0  0  0  0  0
    5.6222   21.0645  -20.6532 H   0  0  0  0  0  0  0  0  0  0  0  0
    0.6766   22.6814  -18.9527 C   0  0  0  0  0  0  0  0  0  0  0  0
    1.2397   22.1508  -17.6579 C   0  0  0  0  0  0  0  0  0  0  0  0
    2.7357   22.0268  -17.7089 C   0  0  0  0  0  0  0  0  0  0  0  0
    3.3003   22.2722  -16.4130 N   0  0  0  0  0  0  0  0  0  0  0  0
    3.6658   21.4730  -15.8592 H   0  0  0  0  0  0  0  0  0  0  0  0
    3.3624   23.5868  -15.8915 C   0  0  0  0  0  0  0  0  0  0  0  0
    3.8419   24.6521  -16.7147 N   0  0  0  0  0  0  0  0  0  0  0  0
    3.0002   23.8822  -14.6866 N   0  0  0  0  0  0  0  0  0  0  0  0
    4.6703   25.2080  -16.4194 H   0  0  0  0  0  0  0  0  0  0  0  0
    3.3567   24.8643  -17.6053 H   0  0  0  0  0  0  0  0  0  0  0  0
    2.6488   23.0891  -14.0920 H   0  0  0  0  0  0  0  0  0  0  0  0
   -1.4200   21.5806  -23.9626 C   0  0  0  0  0  0  0  0  0  0  0  0
   -0.7321   22.0817  -25.1357 C   0  0  0  0  0  0  0  0  0  0  0  0
    0.6825   21.7004  -25.3354 C   0  0  0  0  0  0  0  0  0  0  0  0
    1.4446   22.2139  -24.1948 N   0  0  0  0  0  0  0  0  0  0  0  0
    1.5061   23.2263  -23.9506 H   0  0  0  0  0  0  0  0  0  0  0  0
    2.1487   21.3247  -23.3572 C   0  0  0  0  0  0  0  0  0  0  0  0
    3.4218   20.8251  -23.7039 N   0  0  0  0  0  0  0  0  0  0  0  0
    1.6145   20.9581  -22.2374 N   0  0  0  0  0  0  0  0  0  0  0  0
    3.7681   20.8417  -24.6854 H   0  0  0  0  0  0  0  0  0  0  0  0
    4.0455   20.4256  -22.9730 H   0  0  0  0  0  0  0  0  0  0  0  0
    0.6804   21.3118  -21.9564 H   0  0  0  0  0  0  0  0  0  0  0  0
 39 40  1  0  0  0
 40 41  2  0  0  0
 40 42  1  0  0  0
 42 38  1  0  0  0
 38 44  1  0  0  0
 44 45  1  0  0  0
 45 46  1  0  0  0
 46 47  1  0  0  0
 47 49  1  0  0  0
 49 50  1  0  0  0
 49 51  2  0  0  0
 38 34  1  0  0  0
 34 35  2  0  0  0
 34 36  1  0  0  0
 36 33  1  0  0  0
 33 55  1  0  0  0
 55 56  1  0  0  0
 56 57  1  0  0  0
 57 58  1  0  0  0
 58 60  1  0  0  0
 60 61  1  0  0  0
 60 62  2  0  0  0
 33 29  1  0  0  0
 29 30  2  0  0  0
 29 31  1  0  0  0
 31  1  1  0  0  0
  1 66  1  0  0  0
 66 67  1  0  0  0
 67 68  1  0  0  0
 68 69  1  0  0  0
 69 71  1  0  0  0
 71 72  1  0  0  0
 71 73  2  0  0  0
  1  2  1  0  0  0
  2  3  2  0  0  0
  2  4  1  0  0  0
  4  6  1  0  0  0
  6 18  1  0  0  0
 18 19  1  0  0  0
 19 20  1  0  0  0
 20 21  1  0  0  0
 21 23  1  0  0  0
 23 24  1  0  0  0
 23 25  2  0  0  0
  6  7  1  0  0  0
  7  8  2  0  0  0
  7  9  1  0  0  0
  9 10  2  0  0  0
 10 11  1  0  0  0
 11 12  2  0  0  0
 12 13  1  0  0  0
 13 14  2  0  0  0
 14 15  1  0  0  0
 15 16  2  0  0  0
 16 17  1  0  0  0
 17  9  1  0  0  0
 16 11  1  0  0  0
 42 43  1  0  0  0
 47 48  1  0  0  0
 50 52  1  0  0  0
 50 53  1  0  0  0
 51 54  1  0  0  0
 36 37  1  0  0  0
 58 59  1  0  0  0
 61 63  1  0  0  0
 61 64  1  0  0  0
 62 65  1  0  0  0
 31 32  1  0  0  0
 69 70  1  0  0  0
 72 74  1  0  0  0
 72 75  1  0  0  0
 73 76  1  0  0  0
  4  5  1  0  0  0
 21 22  1  0  0  0
 24 26  1  0  0  0
 24 27  1  0  0  0
 25 28  1  0  0  0
M  END
> <minimizedAffinity>
-6.50186

> <CNNscore>
0.1965305954

> <CNNaffinity>
6.6083931923

> <CNN_VS>
1.2987514734

> <CNNaffinity_variance>
0.8467518091

$$$$
[H]N=C(N([H])[H])N([H])C([H])([H])C([H])([H])C([H])([H])[C@@]([H])(C(=O)c1nc2c([H])c([H])c([H])c([H])c2s1)N([H])C(=O)[C@@]([H])(N([H])C(=O)[C@@]([H])(N([H])C(=O)[C@@]([H])(N([H])C(=O)C([H])([H])[H])C([H])([H])C([H])([H])C([H])([H])N([H])C(=N[H])N([H])[H])C([H])([H])C([H])([H])C([H])([H])N([H])C(=N[H])N([H])[H])C([H])([H])C([H])([H])C([H])([H])N([H])C(=N[H])N([H])[H]


 76 77  0  0  0  0  0  0  0  0999 V2000
   -2.5985   21.7623  -20.1493 C   0  0  0  0  0  0  0  0  0  0  0  0
   -3.3437   20.9786  -19.2208 C   0  0  0  0  0  0  0  0  0  0  0  0
   -2.6905   20.4331  -18.2287 O   0  0  0  0  0  0  0  0  0  0  0  0
   -4.7250   20.6714  -19.1559 N   0  0  0  0  0  0  0  0  0  0  0  0
   -5.3522   21.0453  -19.8926 H   0  0  0  0  0  0  0  0  0  0  0  0
   -5.3442   19.8784  -18.1179 C   0  0  0  0  0  0  0  0  0  0  0  0
   -5.9949   18.6461  -18.5915 C   0  0  0  0  0  0  0  0  0  0  0  0
   -7.1864   18.6602  -18.9491 O   0  0  0  0  0  0  0  0  0  0  0  0
   -5.2571   17.3683  -18.6561 C   0  0  0  0  0  0  0  0  0  0  0  0
   -3.9878   17.1159  -18.4264 N   0  0  0  0  0  0  0  0  0  0  0  0
   -3.5191   15.9091  -18.5435 C   0  0  0  0  0  0  0  0  0  0  0  0
   -2.1920   15.5100  -18.3310 C   0  0  0  0  0  0  0  0  0  0  0  0
   -1.7932   14.2094  -18.4833 C   0  0  0  0  0  0  0  0  0  0  0  0
   -2.6814   13.2369  -18.8517 C   0  0  0  0  0  0  0  0  0  0  0  0
   -3.9903   13.5894  -19.0683 C   0  0  0  0  0  0  0  0  0  0  0  0
   -4.4023   14.9253  -18.9129 C   0  0  0  0  0  0  0  0  0  0  0  0
   -5.8561   15.8065  -19.0685 S   0  0  0  0  0  0  0  0  0  0  0  0
   -6.4256   20.7806  -17.5225 C   0  0  0  0  0  0  0  0  0  0  0  0
   -5.8838   21.7067  -16.4570 C   0  0  0  0  0  0  0  0  0  0  0  0
   -6.4808   23.0694  -16.7351 C   0  0  0  0  0  0  0  0  0  0  0  0
   -5.4666   24.0640  -17.0289 N   0  0  0  0  0  0  0  0  0  0  0  0
   -4.8601   23.9930  -17.8759 H   0  0  0  0  0  0  0  0  0  0  0  0
   -5.2513   25.1872  -16.1847 C   0  0  0  0  0  0  0  0  0  0  0  0
   -5.7688   25.1961  -14.8526 N   0  0  0  0  0  0  0  0  0  0  0  0
   -4.5948   26.2267  -16.5708 N   0  0  0  0  0  0  0  0  0  0  0  0
   -5.2011   25.4166  -14.0079 H   0  0  0  0  0  0  0  0  0  0  0  0
   -6.7730   24.9697  -14.7203 H   0  0  0  0  0  0  0  0  0  0  0  0
   -4.2189   26.2091  -17.5540 H   0  0  0  0  0  0  0  0  0  0  0  0
   -3.5497   21.9837  -22.5064 C   0  0  0  0  0  0  0  0  0  0  0  0
   -2.7040   21.2082  -22.9716 O   0  0  0  0  0  0  0  0  0  0  0  0
   -3.5915   22.3317  -21.1484 N   0  0  0  0  0  0  0  0  0  0  0  0
   -4.3095   22.9894  -20.8070 H   0  0  0  0  0  0  0  0  0  0  0  0
   -4.5565   22.5539  -23.4365 C   0  0  0  0  0  0  0  0  0  0  0  0
   -3.8910   23.2701  -25.7858 C   0  0  0  0  0  0  0  0  0  0  0  0
   -3.9251   24.5106  -25.5463 O   0  0  0  0  0  0  0  0  0  0  0  0
   -4.1837   22.3219  -24.8153 N   0  0  0  0  0  0  0  0  0  0  0  0
   -4.1338   21.2915  -25.0995 H   0  0  0  0  0  0  0  0  0  0  0  0
   -3.5215   22.8589  -27.1615 C   0  0  0  0  0  0  0  0  0  0  0  0
   -3.8249   25.5323  -29.9079 C   0  0  0  0  0  0  0  0  0  0  0  0
   -4.1410   24.3723  -29.0606 C   0  0  0  0  0  0  0  0  0  0  0  0
   -5.2057   23.7386  -29.2823 O   0  0  0  0  0  0  0  0  0  0  0  0
   -3.2493   24.0007  -28.0276 N   0  0  0  0  0  0  0  0  0  0  0  0
   -2.3778   24.5365  -27.8636 H   0  0  0  0  0  0  0  0  0  0  0  0
   -2.2133   22.0621  -27.0860 C   0  0  0  0  0  0  0  0  0  0  0  0
   -1.0738   22.9067  -27.5862 C   0  0  0  0  0  0  0  0  0  0  0  0
    0.2207   22.2288  -27.1282 C   0  0  0  0  0  0  0  0  0  0  0  0
    0.8097   22.9268  -26.0138 N   0  0  0  0  0  0  0  0  0  0  0  0
    1.3044   23.8217  -26.1576 H   0  0  0  0  0  0  0  0  0  0  0  0
    0.7066   22.3738  -24.7110 C   0  0  0  0  0  0  0  0  0  0  0  0
   -0.4512   22.6994  -23.9513 N   0  0  0  0  0  0  0  0  0  0  0  0
    1.6102   21.6047  -24.2125 N   0  0  0  0  0  0  0  0  0  0  0  0
   -0.4057   23.0728  -22.9824 H   0  0  0  0  0  0  0  0  0  0  0  0
   -1.4249   22.5733  -24.3536 H   0  0  0  0  0  0  0  0  0  0  0  0
    1.5122   21.2095  -23.2512 H   0  0  0  0  0  0  0  0  0  0  0  0
   -5.8681   21.8242  -23.1020 C   0  0  0  0  0  0  0  0  0  0  0  0
   -6.9445   22.8539  -22.8647 C   0  0  0  0  0  0  0  0  0  0  0  0
   -6.9460   23.3430  -21.4445 C   0  0  0  0  0  0  0  0  0  0  0  0
   -7.5588   24.6377  -21.3643 N   0  0  0  0  0  0  0  0  0  0  0  0
   -7.2737   25.3765  -22.0364 H   0  0  0  0  0  0  0  0  0  0  0  0
   -8.5427   24.9094  -20.3833 C   0  0  0  0  0  0  0  0  0  0  0  0
   -9.5005   25.9455  -20.6107 N   0  0  0  0  0  0  0  0  0  0  0  0
   -8.6242   24.2568  -19.2708 N   0  0  0  0  0  0  0  0  0  0  0  0
   -9.5716   26.7452  -19.9491 H   0  0  0  0  0  0  0  0  0  0  0  0
  -10.1215   25.8910  -21.4383 H   0  0  0  0  0  0  0  0  0  0  0  0
   -7.9138   23.4969  -19.1167 H   0  0  0  0  0  0  0  0  0  0  0  0
   -1.6946   22.8621  -19.9078 C   0  0  0  0  0  0  0  0  0  0  0  0
   -0.7440   23.0644  -18.8326 C   0  0  0  0  0  0  0  0  0  0  0  0
    0.5949   22.4490  -18.9552 C   0  0  0  0  0  0  0  0  0  0  0  0
    1.4528   23.0477  -17.9301 N   0  0  0  0  0  0  0  0  0  0  0  0
    1.3342   22.8787  -16.9075 H   0  0  0  0  0  0  0  0  0  0  0  0
    2.5069   23.9063  -18.3038 C   0  0  0  0  0  0  0  0  0  0  0  0
    3.8271   23.4367  -18.4695 N   0  0  0  0  0  0  0  0  0  0  0  0
    2.2573   25.1600  -18.5035 N   0  0  0  0  0  0  0  0  0  0  0  0
    4.1448   22.5371  -18.0532 H   0  0  0  0  0  0  0  0  0  0  0  0
    4.5157   23.9902  -19.0192 H   0  0  0  0  0  0  0  0  0  0  0  0
    1.2953   25.5319  -18.3909 H   0  0  0  0  0  0  0  0  0  0  0  0
 39 40  1  0  0  0
 40 41  2  0  0  0
 40 42  1  0  0  0
 42 38  1  0  0  0
 38 44  1  0  0  0
 44 45  1  0  0  0
 45 46  1  0  0  0
 46 47  1  0  0  0
 47 49  1  0  0  0
 49 50  1  0  0  0
 49 51  2  0  0  0
 38 34  1  0  0  0
 34 35  2  0  0  0
 34 36  1  0  0  0
 36 33  1  0  0  0
 33 55  1  0  0  0
 55 56  1  0  0  0
 56 57  1  0  0  0
 57 58  1  0  0  0
 58 60  1  0  0  0
 60 61  1  0  0  0
 60 62  2  0  0  0
 33 29  1  0  0  0
 29 30  2  0  0  0
 29 31  1  0  0  0
 31  1  1  0  0  0
  1 66  1  0  0  0
 66 67  1  0  0  0
 67 68  1  0  0  0
 68 69  1  0  0  0
 69 71  1  0  0  0
 71 72  1  0  0  0
 71 73  2  0  0  0
  1  2  1  0  0  0
  2  3  2  0  0  0
  2  4  1  0  0  0
  4  6  1  0  0  0
  6 18  1  0  0  0
 18 19  1  0  0  0
 19 20  1  0  0  0
 20 21  1  0  0  0
 21 23  1  0  0  0
 23 24  1  0  0  0
 23 25  2  0  0  0
  6  7  1  0  0  0
  7  8  2  0  0  0
  7  9  1  0  0  0
  9 10  2  0  0  0
 10 11  1  0  0  0
 11 12  2  0  0  0
 12 13  1  0  0  0
 13 14  2  0  0  0
 14 15  1  0  0  0
 15 16  2  0  0  0
 16 17  1  0  0  0
 17  9  1  0  0  0
 16 11  1  0  0  0
 42 43  1  0  0  0
 47 48  1  0  0  0
 50 52  1  0  0  0
 50 53  1  0  0  0
 51 54  1  0  0  0
 36 37  1  0  0  0
 58 59  1  0  0  0
 61 63  1  0  0  0
 61 64  1  0  0  0
 62 65  1  0  0  0
 31 32  1  0  0  0
 69 70  1  0  0  0
 72 74  1  0  0  0
 72 75  1  0  0  0
 73 76  1  0  0  0
  4  5  1  0  0  0
 21 22  1  0  0  0
 24 26  1  0  0  0
 24 27  1  0  0  0
 25 28  1  0  0  0
M  END
> <minimizedAffinity>
-6.62032

> <CNNscore>
0.1771937758

> <CNNaffinity>
6.6922478676

> <CNN_VS>
1.1858246326

> <CNNaffinity_variance>
0.4618934095

$$$$
[H]N=C(N([H])[H])N([H])C([H])([H])C([H])([H])C([H])([H])[C@@]([H])(C(=O)c1nc2c([H])c([H])c([H])c([H])c2s1)N([H])C(=O)[C@@]([H])(N([H])C(=O)[C@@]([H])(N([H])C(=O)[C@@]([H])(N([H])C(=O)C([H])([H])[H])C([H])([H])C([H])([H])C([H])([H])N([H])C(=N[H])N([H])[H])C([H])([H])C([H])([H])C([H])([H])N([H])C(=N[H])N([H])[H])C([H])([H])C([H])([H])C([H])([H])N([H])C(=N[H])N([H])[H]


 76 77  0  0  0  0  0  0  0  0999 V2000
   -4.4382   24.4091  -23.0230 C   0  0  0  0  0  0  0  0  0  0  0  0
   -3.4643   23.8208  -22.1644 C   0  0  0  0  0  0  0  0  0  0  0  0
   -2.3824   24.5104  -21.9151 O   0  0  0  0  0  0  0  0  0  0  0  0
   -3.4473   22.5770  -21.4866 N   0  0  0  0  0  0  0  0  0  0  0  0
   -4.2526   21.9345  -21.6069 H   0  0  0  0  0  0  0  0  0  0  0  0
   -2.3863   22.1305  -20.6120 C   0  0  0  0  0  0  0  0  0  0  0  0
   -1.3469   21.3221  -21.2696 C   0  0  0  0  0  0  0  0  0  0  0  0
   -0.7472   20.4330  -20.6390 O   0  0  0  0  0  0  0  0  0  0  0  0
   -0.9902   21.5413  -22.6860 C   0  0  0  0  0  0  0  0  0  0  0  0
   -1.7656   21.7195  -23.7322 N   0  0  0  0  0  0  0  0  0  0  0  0
   -1.2552   21.8925  -24.9151 C   0  0  0  0  0  0  0  0  0  0  0  0
   -1.9684   22.0888  -26.1061 C   0  0  0  0  0  0  0  0  0  0  0  0
   -1.3374   22.2595  -27.3088 C   0  0  0  0  0  0  0  0  0  0  0  0
    0.0272   22.2460  -27.3986 C   0  0  0  0  0  0  0  0  0  0  0  0
    0.7599   22.0568  -26.2534 C   0  0  0  0  0  0  0  0  0  0  0  0
    0.1138   21.8808  -25.0165 C   0  0  0  0  0  0  0  0  0  0  0  0
    0.5782   21.6197  -23.3945 S   0  0  0  0  0  0  0  0  0  0  0  0
   -3.0765   21.2493  -19.5703 C   0  0  0  0  0  0  0  0  0  0  0  0
   -2.8717   21.7535  -18.1595 C   0  0  0  0  0  0  0  0  0  0  0  0
   -3.6082   23.0725  -18.0688 C   0  0  0  0  0  0  0  0  0  0  0  0
   -4.4476   23.1533  -16.8885 N   0  0  0  0  0  0  0  0  0  0  0  0
   -4.5132   22.3631  -16.2091 H   0  0  0  0  0  0  0  0  0  0  0  0
   -5.2169   24.3116  -16.5933 C   0  0  0  0  0  0  0  0  0  0  0  0
   -5.4006   24.7275  -15.2385 N   0  0  0  0  0  0  0  0  0  0  0  0
   -5.7725   25.0251  -17.5114 N   0  0  0  0  0  0  0  0  0  0  0  0
   -5.2212   25.6944  -14.8959 H   0  0  0  0  0  0  0  0  0  0  0  0
   -5.7347   24.0217  -14.5548 H   0  0  0  0  0  0  0  0  0  0  0  0
   -5.6308   24.7087  -18.5054 H   0  0  0  0  0  0  0  0  0  0  0  0
   -6.2238   24.6180  -21.2126 C   0  0  0  0  0  0  0  0  0  0  0  0
   -5.5148   25.3728  -20.5339 O   0  0  0  0  0  0  0  0  0  0  0  0
   -5.8020   24.0825  -22.4382 N   0  0  0  0  0  0  0  0  0  0  0  0
   -6.4239   23.4501  -22.9654 H   0  0  0  0  0  0  0  0  0  0  0  0
   -7.5745   24.2817  -20.6962 C   0  0  0  0  0  0  0  0  0  0  0  0
   -6.9187   22.0642  -19.6344 C   0  0  0  0  0  0  0  0  0  0  0  0
   -6.3706   21.5931  -20.6712 O   0  0  0  0  0  0  0  0  0  0  0  0
   -7.4959   23.3263  -19.6123 N   0  0  0  0  0  0  0  0  0  0  0  0
   -7.9413   23.6505  -18.6950 H   0  0  0  0  0  0  0  0  0  0  0  0
   -6.9225   21.2067  -18.4249 C   0  0  0  0  0  0  0  0  0  0  0  0
   -9.8852   21.8290  -16.0548 C   0  0  0  0  0  0  0  0  0  0  0  0
   -8.5464   21.9251  -16.6564 C   0  0  0  0  0  0  0  0  0  0  0  0
   -7.7086   22.7072  -16.1360 O   0  0  0  0  0  0  0  0  0  0  0  0
   -8.2361   21.1437  -17.7936 N   0  0  0  0  0  0  0  0  0  0  0  0
   -8.9413   20.5056  -18.2048 H   0  0  0  0  0  0  0  0  0  0  0  0
   -6.5894   19.7730  -18.8557 C   0  0  0  0  0  0  0  0  0  0  0  0
   -6.4066   18.9063  -17.6402 C   0  0  0  0  0  0  0  0  0  0  0  0
   -4.9002   18.8054  -17.3846 C   0  0  0  0  0  0  0  0  0  0  0  0
   -4.2562   17.9823  -18.3764 N   0  0  0  0  0  0  0  0  0  0  0  0
   -4.7503   17.7251  -19.2459 H   0  0  0  0  0  0  0  0  0  0  0  0
   -2.9326   17.5235  -18.1497 C   0  0  0  0  0  0  0  0  0  0  0  0
   -2.7728   16.3467  -17.3667 N   0  0  0  0  0  0  0  0  0  0  0  0
   -1.9001   18.1290  -18.6228 N   0  0  0  0  0  0  0  0  0  0  0  0
   -2.1370   16.2951  -16.5460 H   0  0  0  0  0  0  0  0  0  0  0  0
   -3.3088   15.4596  -17.5935 H   0  0  0  0  0  0  0  0  0  0  0  0
   -0.9356   17.7723  -18.4425 H   0  0  0  0  0  0  0  0  0  0  0  0
   -8.1556   25.6157  -20.1987 C   0  0  0  0  0  0  0  0  0  0  0  0
   -9.0217   26.1990  -21.2872 C   0  0  0  0  0  0  0  0  0  0  0  0
  -10.1395   27.0306  -20.7259 C   0  0  0  0  0  0  0  0  0  0  0  0
   -9.6606   28.3365  -20.3743 N   0  0  0  0  0  0  0  0  0  0  0  0
   -8.6399   28.4871  -20.2536 H   0  0  0  0  0  0  0  0  0  0  0  0
  -10.5645   29.4111  -20.1949 C   0  0  0  0  0  0  0  0  0  0  0  0
  -11.0707   30.1073  -21.3358 N   0  0  0  0  0  0  0  0  0  0  0  0
  -10.9663   29.8039  -19.0310 N   0  0  0  0  0  0  0  0  0  0  0  0
  -10.9103   31.1303  -21.4367 H   0  0  0  0  0  0  0  0  0  0  0  0
  -11.5977   29.5839  -22.0582 H   0  0  0  0  0  0  0  0  0  0  0  0
  -10.5866   29.2825  -18.2004 H   0  0  0  0  0  0  0  0  0  0  0  0
   -4.5757   25.7800  -23.4548 C   0  0  0  0  0  0  0  0  0  0  0  0
   -4.3532   26.3697  -24.7599 C   0  0  0  0  0  0  0  0  0  0  0  0
   -5.0277   25.7633  -25.9277 C   0  0  0  0  0  0  0  0  0  0  0  0
   -6.4716   25.9092  -25.7299 N   0  0  0  0  0  0  0  0  0  0  0  0
   -6.9532   26.8314  -25.6525 H   0  0  0  0  0  0  0  0  0  0  0  0
   -7.2908   24.7658  -25.6321 C   0  0  0  0  0  0  0  0  0  0  0  0
   -8.6975   24.8596  -25.5778 N   0  0  0  0  0  0  0  0  0  0  0  0
   -6.7381   23.5966  -25.5938 N   0  0  0  0  0  0  0  0  0  0  0  0
   -9.1777   25.7448  -25.3144 H   0  0  0  0  0  0  0  0  0  0  0  0
   -9.2876   24.0329  -25.8039 H   0  0  0  0  0  0  0  0  0  0  0  0
   -5.7059   23.4982  -25.6343 H   0  0  0  0  0  0  0  0  0  0  0  0
 39 40  1  0  0  0
 40 41  2  0  0  0
 40 42  1  0  0  0
 42 38  1  0  0  0
 38 44  1  0  0  0
 44 45  1  0  0  0
 45 46  1  0  0  0
 46 47  1  0  0  0
 47 49  1  0  0  0
 49 50  1  0  0  0
 49 51  2  0  0  0
 38 34  1  0  0  0
 34 35  2  0  0  0
 34 36  1  0  0  0
 36 33  1  0  0  0
 33 55  1  0  0  0
 55 56  1  0  0  0
 56 57  1  0  0  0
 57 58  1  0  0  0
 58 60  1  0  0  0
 60 61  1  0  0  0
 60 62  2  0  0  0
 33 29  1  0  0  0
 29 30  2  0  0  0
 29 31  1  0  0  0
 31  1  1  0  0  0
  1 66  1  0  0  0
 66 67  1  0  0  0
 67 68  1  0  0  0
 68 69  1  0  0  0
 69 71  1  0  0  0
 71 72  1  0  0  0
 71 73  2  0  0  0
  1  2  1  0  0  0
  2  3  2  0  0  0
  2  4  1  0  0  0
  4  6  1  0  0  0
  6 18  1  0  0  0
 18 19  1  0  0  0
 19 20  1  0  0  0
 20 21  1  0  0  0
 21 23  1  0  0  0
 23 24  1  0  0  0
 23 25  2  0  0  0
  6  7  1  0  0  0
  7  8  2  0  0  0
  7  9  1  0  0  0
  9 10  2  0  0  0
 10 11  1  0  0  0
 11 12  2  0  0  0
 12 13  1  0  0  0
 13 14  2  0  0  0
 14 15  1  0  0  0
 15 16  2  0  0  0
 16 17  1  0  0  0
 17  9  1  0  0  0
 16 11  1  0  0  0
 42 43  1  0  0  0
 47 48  1  0  0  0
 50 52  1  0  0  0
 50 53  1  0  0  0
 51 54  1  0  0  0
 36 37  1  0  0  0
 58 59  1  0  0  0
 61 63  1  0  0  0
 61 64  1  0  0  0
 62 65  1  0  0  0
 31 32  1  0  0  0
 69 70  1  0  0  0
 72 74  1  0  0  0
 72 75  1  0  0  0
 73 76  1  0  0  0
  4  5  1  0  0  0
 21 22  1  0  0  0
 24 26  1  0  0  0
 24 27  1  0  0  0
 25 28  1  0  0  0
M  END
> <minimizedAffinity>
-6.57441

> <CNNscore>
0.1731148511

> <CNNaffinity>
6.5348715782

> <CNN_VS>
1.1312832832

> <CNNaffinity_variance>
0.8701456785

$$$$
[H]N=C(N([H])[H])N([H])C([H])([H])C([H])([H])C([H])([H])[C@@]([H])(C(=O)c1nc2c([H])c([H])c([H])c([H])c2s1)N([H])C(=O)[C@@]([H])(N([H])C(=O)[C@@]([H])(N([H])C(=O)[C@@]([H])(N([H])C(=O)C([H])([H])[H])C([H])([H])C([H])([H])C([H])([H])N([H])C(=N[H])N([H])[H])C([H])([H])C([H])([H])C([H])([H])N([H])C(=N[H])N([H])[H])C([H])([H])C([H])([H])C([H])([H])N([H])C(=N[H])N([H])[H]


 76 77  0  0  0  0  0  0  0  0999 V2000
   -2.7693   22.5241  -18.8068 C   0  0  0  0  0  0  0  0  0  0  0  0
   -1.4895   22.5609  -19.4332 C   0  0  0  0  0  0  0  0  0  0  0  0
   -1.0752   23.7113  -19.8953 O   0  0  0  0  0  0  0  0  0  0  0  0
   -0.5278   21.5440  -19.6519 N   0  0  0  0  0  0  0  0  0  0  0  0
   -0.7416   20.5809  -19.3317 H   0  0  0  0  0  0  0  0  0  0  0  0
    0.7572   21.7479  -20.2819 C   0  0  0  0  0  0  0  0  0  0  0  0
    0.9634   20.9796  -21.5203 C   0  0  0  0  0  0  0  0  0  0  0  0
    1.7334   20.0026  -21.5348 O   0  0  0  0  0  0  0  0  0  0  0  0
    0.2666   21.3436  -22.7706 C   0  0  0  0  0  0  0  0  0  0  0  0
    0.7583   21.6583  -23.9482 N   0  0  0  0  0  0  0  0  0  0  0  0
   -0.0292   21.9591  -24.9377 C   0  0  0  0  0  0  0  0  0  0  0  0
    0.3667   22.3134  -26.2352 C   0  0  0  0  0  0  0  0  0  0  0  0
   -0.5424   22.6174  -27.2124 C   0  0  0  0  0  0  0  0  0  0  0  0
   -1.8864   22.5872  -26.9610 C   0  0  0  0  0  0  0  0  0  0  0  0
   -2.3124   22.2442  -25.7019 C   0  0  0  0  0  0  0  0  0  0  0  0
   -1.3802   21.9318  -24.6961 C   0  0  0  0  0  0  0  0  0  0  0  0
   -1.4281   21.4731  -23.0523 S   0  0  0  0  0  0  0  0  0  0  0  0
    1.7824   21.2659  -19.2550 C   0  0  0  0  0  0  0  0  0  0  0  0
    1.7326   22.0624  -17.9706 C   0  0  0  0  0  0  0  0  0  0  0  0
    2.1832   23.4638  -18.3222 C   0  0  0  0  0  0  0  0  0  0  0  0
    3.6283   23.5898  -18.3338 N   0  0  0  0  0  0  0  0  0  0  0  0
    4.2170   23.0705  -19.0224 H   0  0  0  0  0  0  0  0  0  0  0  0
    4.3151   24.4293  -17.4150 C   0  0  0  0  0  0  0  0  0  0  0  0
    5.4121   25.2325  -17.8554 N   0  0  0  0  0  0  0  0  0  0  0  0
    3.9895   24.5045  -16.1704 N   0  0  0  0  0  0  0  0  0  0  0  0
    5.4966   26.2543  -17.6735 H   0  0  0  0  0  0  0  0  0  0  0  0
    6.1714   24.7671  -18.3884 H   0  0  0  0  0  0  0  0  0  0  0  0
    3.1804   23.9080  -15.8575 H   0  0  0  0  0  0  0  0  0  0  0  0
   -4.4135   22.7200  -20.7479 C   0  0  0  0  0  0  0  0  0  0  0  0
   -4.2704   23.9484  -20.8072 O   0  0  0  0  0  0  0  0  0  0  0  0
   -3.7389   21.9239  -19.8108 N   0  0  0  0  0  0  0  0  0  0  0  0
   -3.8962   20.9043  -19.7928 H   0  0  0  0  0  0  0  0  0  0  0  0
   -5.3352   22.0795  -21.7196 C   0  0  0  0  0  0  0  0  0  0  0  0
   -7.2801   21.4192  -20.2175 C   0  0  0  0  0  0  0  0  0  0  0  0
   -6.6224   20.5873  -19.5299 O   0  0  0  0  0  0  0  0  0  0  0  0
   -6.7048   22.1379  -21.2563 N   0  0  0  0  0  0  0  0  0  0  0  0
   -7.3308   22.8214  -21.7909 H   0  0  0  0  0  0  0  0  0  0  0  0
   -8.7094   21.6019  -19.8686 C   0  0  0  0  0  0  0  0  0  0  0  0
   -9.3671   21.8443  -16.0882 C   0  0  0  0  0  0  0  0  0  0  0  0
   -9.1970   21.2720  -17.4325 C   0  0  0  0  0  0  0  0  0  0  0  0
   -9.3326   20.0292  -17.5780 O   0  0  0  0  0  0  0  0  0  0  0  0
   -8.8885   22.1242  -18.5183 N   0  0  0  0  0  0  0  0  0  0  0  0
   -8.7824   23.1450  -18.3754 H   0  0  0  0  0  0  0  0  0  0  0  0
   -9.3000   22.6559  -20.8131 C   0  0  0  0  0  0  0  0  0  0  0  0
   -9.8388   23.8104  -20.0137 C   0  0  0  0  0  0  0  0  0  0  0  0
   -9.5489   25.0832  -20.8142 C   0  0  0  0  0  0  0  0  0  0  0  0
   -8.6415   25.9500  -20.1062 N   0  0  0  0  0  0  0  0  0  0  0  0
   -8.9922   26.7873  -19.6141 H   0  0  0  0  0  0  0  0  0  0  0  0
   -7.2556   25.6455  -20.0900 C   0  0  0  0  0  0  0  0  0  0  0  0
   -6.5346   25.8114  -21.3050 N   0  0  0  0  0  0  0  0  0  0  0  0
   -6.6499   25.2344  -19.0313 N   0  0  0  0  0  0  0  0  0  0  0  0
   -5.9348   25.0671  -21.7133 H   0  0  0  0  0  0  0  0  0  0  0  0
   -6.5843   26.7185  -21.8532 H   0  0  0  0  0  0  0  0  0  0  0  0
   -5.6290   25.0167  -19.0438 H   0  0  0  0  0  0  0  0  0  0  0  0
   -5.1701   22.8861  -23.0184 C   0  0  0  0  0  0  0  0  0  0  0  0
   -6.5299   23.0766  -23.6426 C   0  0  0  0  0  0  0  0  0  0  0  0
   -6.4312   23.4292  -25.0993 C   0  0  0  0  0  0  0  0  0  0  0  0
   -6.9816   24.7329  -25.3347 N   0  0  0  0  0  0  0  0  0  0  0  0
   -7.9059   24.8167  -25.8013 H   0  0  0  0  0  0  0  0  0  0  0  0
   -6.2780   25.8947  -24.9357 C   0  0  0  0  0  0  0  0  0  0  0  0
   -4.9349   26.0956  -25.3807 N   0  0  0  0  0  0  0  0  0  0  0  0
   -6.7958   26.8032  -24.1762 N   0  0  0  0  0  0  0  0  0  0  0  0
   -4.1651   26.1975  -24.6883 H   0  0  0  0  0  0  0  0  0  0  0  0
   -4.7372   26.1392  -26.3969 H   0  0  0  0  0  0  0  0  0  0  0  0
   -7.7848   26.6431  -23.8566 H   0  0  0  0  0  0  0  0  0  0  0  0
   -3.1638   21.9220  -17.5551 C   0  0  0  0  0  0  0  0  0  0  0  0
   -4.0427   22.4251  -16.5183 C   0  0  0  0  0  0  0  0  0  0  0  0
   -5.4445   22.7320  -16.8753 C   0  0  0  0  0  0  0  0  0  0  0  0
   -6.0715   23.3574  -15.7086 N   0  0  0  0  0  0  0  0  0  0  0  0
   -6.7854   22.8834  -15.1136 H   0  0  0  0  0  0  0  0  0  0  0  0
   -5.7199   24.6711  -15.3365 C   0  0  0  0  0  0  0  0  0  0  0  0
   -5.7114   25.0864  -13.9881 N   0  0  0  0  0  0  0  0  0  0  0  0
   -5.3927   25.5200  -16.2564 N   0  0  0  0  0  0  0  0  0  0  0  0
   -6.2293   24.5648  -13.2510 H   0  0  0  0  0  0  0  0  0  0  0  0
   -5.1790   25.9340  -13.7035 H   0  0  0  0  0  0  0  0  0  0  0  0
   -5.3882   25.2410  -17.2558 H   0  0  0  0  0  0  0  0  0  0  0  0
 39 40  1  0  0  0
 40 41  2  0  0  0
 40 42  1  0  0  0
 42 38  1  0  0  0
 38 44  1  0  0  0
 44 45  1  0  0  0
 45 46  1  0  0  0
 46 47  1  0  0  0
 47 49  1  0  0  0
 49 50  1  0  0  0
 49 51  2  0  0  0
 38 34  1  0  0  0
 34 35  2  0  0  0
 34 36  1  0  0  0
 36 33  1  0  0  0
 33 55  1  0  0  0
 55 56  1  0  0  0
 56 57  1  0  0  0
 57 58  1  0  0  0
 58 60  1  0  0  0
 60 61  1  0  0  0
 60 62  2  0  0  0
 33 29  1  0  0  0
 29 30  2  0  0  0
 29 31  1  0  0  0
 31  1  1  0  0  0
  1 66  1  0  0  0
 66 67  1  0  0  0
 67 68  1  0  0  0
 68 69  1  0  0  0
 69 71  1  0  0  0
 71 72  1  0  0  0
 71 73  2  0  0  0
  1  2  1  0  0  0
  2  3  2  0  0  0
  2  4  1  0  0  0
  4  6  1  0  0  0
  6 18  1  0  0  0
 18 19  1  0  0  0
 19 20  1  0  0  0
 20 21  1  0  0  0
 21 23  1  0  0  0
 23 24  1  0  0  0
 23 25  2  0  0  0
  6  7  1  0  0  0
  7  8  2  0  0  0
  7  9  1  0  0  0
  9 10  2  0  0  0
 10 11  1  0  0  0
 11 12  2  0  0  0
 12 13  1  0  0  0
 13 14  2  0  0  0
 14 15  1  0  0  0
 15 16  2  0  0  0
 16 17  1  0  0  0
 17  9  1  0  0  0
 16 11  1  0  0  0
 42 43  1  0  0  0
 47 48  1  0  0  0
 50 52  1  0  0  0
 50 53  1  0  0  0
 51 54  1  0  0  0
 36 37  1  0  0  0
 58 59  1  0  0  0
 61 63  1  0  0  0
 61 64  1  0  0  0
 62 65  1  0  0  0
 31 32  1  0  0  0
 69 70  1  0  0  0
 72 74  1  0  0  0
 72 75  1  0  0  0
 73 76  1  0  0  0
  4  5  1  0  0  0
 21 22  1  0  0  0
 24 26  1  0  0  0
 24 27  1  0  0  0
 25 28  1  0  0  0
M  END
> <minimizedAffinity>
-7.33100

> <CNNscore>
0.1503885835

> <CNNaffinity>
6.1896958351

> <CNN_VS>
0.9308595657

> <CNNaffinity_variance>
1.8915348053

$$$$
[H]N=C(N([H])[H])N([H])C([H])([H])C([H])([H])C([H])([H])[C@@]([H])(C(=O)c1nc2c([H])c([H])c([H])c([H])c2s1)N([H])C(=O)[C@@]([H])(N([H])C(=O)[C@@]([H])(N([H])C(=O)[C@@]([H])(N([H])C(=O)C([H])([H])[H])C([H])([H])C([H])([H])C([H])([H])N([H])C(=N[H])N([H])[H])C([H])([H])C([H])([H])C([H])([H])N([H])C(=N[H])N([H])[H])C([H])([H])C([H])([H])C([H])([H])N([H])C(=N[H])N([H])[H]


 76 77  0  0  0  0  0  0  0  0999 V2000
   -5.4498   22.7094  -20.0854 C   0  0  0  0  0  0  0  0  0  0  0  0
   -5.0508   23.0714  -21.4050 C   0  0  0  0  0  0  0  0  0  0  0  0
   -4.1081   23.9685  -21.5271 O   0  0  0  0  0  0  0  0  0  0  0  0
   -5.4921   22.6157  -22.6716 N   0  0  0  0  0  0  0  0  0  0  0  0
   -6.2435   21.9016  -22.7085 H   0  0  0  0  0  0  0  0  0  0  0  0
   -4.9584   23.0618  -23.9388 C   0  0  0  0  0  0  0  0  0  0  0  0
   -5.8666   23.9151  -24.7221 C   0  0  0  0  0  0  0  0  0  0  0  0
   -6.9335   24.3206  -24.2272 O   0  0  0  0  0  0  0  0  0  0  0  0
   -5.5389   24.3116  -26.1065 C   0  0  0  0  0  0  0  0  0  0  0  0
   -5.9133   23.7765  -27.2471 N   0  0  0  0  0  0  0  0  0  0  0  0
   -5.5082   24.2730  -28.3781 C   0  0  0  0  0  0  0  0  0  0  0  0
   -5.8309   23.7967  -29.6567 C   0  0  0  0  0  0  0  0  0  0  0  0
   -5.3497   24.3887  -30.7932 C   0  0  0  0  0  0  0  0  0  0  0  0
   -4.5275   25.4796  -30.7275 C   0  0  0  0  0  0  0  0  0  0  0  0
   -4.1896   25.9752  -29.4928 C   0  0  0  0  0  0  0  0  0  0  0  0
   -4.6824   25.3683  -28.3235 C   0  0  0  0  0  0  0  0  0  0  0  0
   -4.5425   25.6121  -26.6396 S   0  0  0  0  0  0  0  0  0  0  0  0
   -4.7128   21.7814  -24.7377 C   0  0  0  0  0  0  0  0  0  0  0  0
   -3.2455   21.4261  -24.8238 C   0  0  0  0  0  0  0  0  0  0  0  0
   -2.7379   22.0285  -26.1161 C   0  0  0  0  0  0  0  0  0  0  0  0
   -1.6307   22.9404  -25.8997 N   0  0  0  0  0  0  0  0  0  0  0  0
   -1.7734   23.8818  -25.4712 H   0  0  0  0  0  0  0  0  0  0  0  0
   -0.2972   22.5977  -26.2529 C   0  0  0  0  0  0  0  0  0  0  0  0
    0.0170   22.2168  -27.5940 N   0  0  0  0  0  0  0  0  0  0  0  0
    0.6696   22.6135  -25.4010 N   0  0  0  0  0  0  0  0  0  0  0  0
    0.7885   22.6360  -28.1538 H   0  0  0  0  0  0  0  0  0  0  0  0
   -0.5596   21.4755  -28.0360 H   0  0  0  0  0  0  0  0  0  0  0  0
    0.4262   22.8951  -24.4163 H   0  0  0  0  0  0  0  0  0  0  0  0
   -3.9804   21.1310  -18.7220 C   0  0  0  0  0  0  0  0  0  0  0  0
   -4.8160   20.2197  -18.7880 O   0  0  0  0  0  0  0  0  0  0  0  0
   -4.1833   22.3878  -19.3102 N   0  0  0  0  0  0  0  0  0  0  0  0
   -3.4622   23.1205  -19.2216 H   0  0  0  0  0  0  0  0  0  0  0  0
   -2.7157   20.8631  -17.9922 C   0  0  0  0  0  0  0  0  0  0  0  0
   -1.1687   18.8461  -18.1078 C   0  0  0  0  0  0  0  0  0  0  0  0
   -1.0988   18.6777  -16.8572 O   0  0  0  0  0  0  0  0  0  0  0  0
   -1.9201   19.8659  -18.6752 N   0  0  0  0  0  0  0  0  0  0  0  0
   -1.9253   19.9414  -19.7426 H   0  0  0  0  0  0  0  0  0  0  0  0
   -0.4074   17.9005  -18.9590 C   0  0  0  0  0  0  0  0  0  0  0  0
   -2.6840   14.9263  -19.8269 C   0  0  0  0  0  0  0  0  0  0  0  0
   -1.8091   15.8254  -19.0590 C   0  0  0  0  0  0  0  0  0  0  0  0
   -1.5563   15.5382  -17.8599 O   0  0  0  0  0  0  0  0  0  0  0  0
   -1.2782   16.9794  -19.6809 N   0  0  0  0  0  0  0  0  0  0  0  0
   -1.4990   17.1957  -20.6699 H   0  0  0  0  0  0  0  0  0  0  0  0
    0.3327   18.7120  -20.0294 C   0  0  0  0  0  0  0  0  0  0  0  0
    1.6793   19.1326  -19.5081 C   0  0  0  0  0  0  0  0  0  0  0  0
    2.1758   20.2644  -20.4122 C   0  0  0  0  0  0  0  0  0  0  0  0
    2.1985   19.8571  -21.7941 N   0  0  0  0  0  0  0  0  0  0  0  0
    1.5408   19.1405  -22.1407 H   0  0  0  0  0  0  0  0  0  0  0  0
    3.1358   20.4485  -22.6804 C   0  0  0  0  0  0  0  0  0  0  0  0
    4.4636   19.9383  -22.6649 N   0  0  0  0  0  0  0  0  0  0  0  0
    2.8230   21.4094  -23.4776 N   0  0  0  0  0  0  0  0  0  0  0  0
    5.3015   20.5443  -22.5604 H   0  0  0  0  0  0  0  0  0  0  0  0
    4.6531   18.8985  -22.7588 H   0  0  0  0  0  0  0  0  0  0  0  0
    3.5302   21.8286  -24.1210 H   0  0  0  0  0  0  0  0  0  0  0  0
   -1.9789   22.2125  -17.9609 C   0  0  0  0  0  0  0  0  0  0  0  0
   -0.5796   22.0089  -18.4860 C   0  0  0  0  0  0  0  0  0  0  0  0
   -0.2223   23.0257  -19.5322 C   0  0  0  0  0  0  0  0  0  0  0  0
   -1.2284   23.0636  -20.5541 N   0  0  0  0  0  0  0  0  0  0  0  0
   -1.9272   23.8322  -20.5500 H   0  0  0  0  0  0  0  0  0  0  0  0
   -1.2715   22.0682  -21.5599 C   0  0  0  0  0  0  0  0  0  0  0  0
   -0.2991   22.0787  -22.6072 N   0  0  0  0  0  0  0  0  0  0  0  0
   -2.1602   21.1302  -21.5819 N   0  0  0  0  0  0  0  0  0  0  0  0
   -0.6016   22.1542  -23.5997 H   0  0  0  0  0  0  0  0  0  0  0  0
    0.7066   22.0100  -22.3677 H   0  0  0  0  0  0  0  0  0  0  0  0
   -2.8692   21.1339  -20.8051 H   0  0  0  0  0  0  0  0  0  0  0  0
   -6.2515   23.4413  -19.1334 C   0  0  0  0  0  0  0  0  0  0  0  0
   -6.9679   24.6916  -19.2888 C   0  0  0  0  0  0  0  0  0  0  0  0
   -8.2676   24.6723  -19.9937 C   0  0  0  0  0  0  0  0  0  0  0  0
   -8.0358   25.1392  -21.3624 N   0  0  0  0  0  0  0  0  0  0  0  0
   -7.1715   24.9259  -21.9064 H   0  0  0  0  0  0  0  0  0  0  0  0
   -9.0083   25.9235  -22.0159 C   0  0  0  0  0  0  0  0  0  0  0  0
   -9.5242   25.5695  -23.2805 N   0  0  0  0  0  0  0  0  0  0  0  0
   -9.4429   26.9971  -21.4393 N   0  0  0  0  0  0  0  0  0  0  0  0
   -9.0246   24.9081  -23.9102 H   0  0  0  0  0  0  0  0  0  0  0  0
  -10.4265   25.9695  -23.6098 H   0  0  0  0  0  0  0  0  0  0  0  0
   -9.0825   27.2801  -20.5084 H   0  0  0  0  0  0  0  0  0  0  0  0
 39 40  1  0  0  0
 40 41  2  0  0  0
 40 42  1  0  0  0
 42 38  1  0  0  0
 38 44  1  0  0  0
 44 45  1  0  0  0
 45 46  1  0  0  0
 46 47  1  0  0  0
 47 49  1  0  0  0
 49 50  1  0  0  0
 49 51  2  0  0  0
 38 34  1  0  0  0
 34 35  2  0  0  0
 34 36  1  0  0  0
 36 33  1  0  0  0
 33 55  1  0  0  0
 55 56  1  0  0  0
 56 57  1  0  0  0
 57 58  1  0  0  0
 58 60  1  0  0  0
 60 61  1  0  0  0
 60 62  2  0  0  0
 33 29  1  0  0  0
 29 30  2  0  0  0
 29 31  1  0  0  0
 31  1  1  0  0  0
  1 66  1  0  0  0
 66 67  1  0  0  0
 67 68  1  0  0  0
 68 69  1  0  0  0
 69 71  1  0  0  0
 71 72  1  0  0  0
 71 73  2  0  0  0
  1  2  1  0  0  0
  2  3  2  0  0  0
  2  4  1  0  0  0
  4  6  1  0  0  0
  6 18  1  0  0  0
 18 19  1  0  0  0
 19 20  1  0  0  0
 20 21  1  0  0  0
 21 23  1  0  0  0
 23 24  1  0  0  0
 23 25  2  0  0  0
  6  7  1  0  0  0
  7  8  2  0  0  0
  7  9  1  0  0  0
  9 10  2  0  0  0
 10 11  1  0  0  0
 11 12  2  0  0  0
 12 13  1  0  0  0
 13 14  2  0  0  0
 14 15  1  0  0  0
 15 16  2  0  0  0
 16 17  1  0  0  0
 17  9  1  0  0  0
 16 11  1  0  0  0
 42 43  1  0  0  0
 47 48  1  0  0  0
 50 52  1  0  0  0
 50 53  1  0  0  0
 51 54  1  0  0  0
 36 37  1  0  0  0
 58 59  1  0  0  0
 61 63  1  0  0  0
 61 64  1  0  0  0
 62 65  1  0  0  0
 31 32  1  0  0  0
 69 70  1  0  0  0
 72 74  1  0  0  0
 72 75  1  0  0  0
 73 76  1  0  0  0
  4  5  1  0  0  0
 21 22  1  0  0  0
 24 26  1  0  0  0
 24 27  1  0  0  0
 25 28  1  0  0  0
M  END
> <minimizedAffinity>
-6.86888

> <CNNscore>
0.1337725818

> <CNNaffinity>
6.6471710205

> <CNN_VS>
0.8892092109

> <CNNaffinity_variance>
0.7241255641

$$$$
[H]N=C(N([H])[H])N([H])C([H])([H])C([H])([H])C([H])([H])[C@@]([H])(C(=O)c1nc2c([H])c([H])c([H])c([H])c2s1)N([H])C(=O)[C@@]([H])(N([H])C(=O)[C@@]([H])(N([H])C(=O)[C@@]([H])(N([H])C(=O)C([H])([H])[H])C([H])([H])C([H])([H])C([H])([H])N([H])C(=N[H])N([H])[H])C([H])([H])C([H])([H])C([H])([H])N([H])C(=N[H])N([H])[H])C([H])([H])C([H])([H])C([H])([H])N([H])C(=N[H])N([H])[H]


 76 77  0  0  0  0  0  0  0  0999 V2000
   -2.8315   22.6896  -21.5749 C   0  0  0  0  0  0  0  0  0  0  0  0
   -4.2182   22.9214  -21.3401 C   0  0  0  0  0  0  0  0  0  0  0  0
   -4.5677   23.3497  -20.1557 O   0  0  0  0  0  0  0  0  0  0  0  0
   -5.3445   22.7815  -22.1878 N   0  0  0  0  0  0  0  0  0  0  0  0
   -5.1976   22.4441  -23.1575 H   0  0  0  0  0  0  0  0  0  0  0  0
   -6.7043   23.0923  -21.8081 C   0  0  0  0  0  0  0  0  0  0  0  0
   -7.5823   21.9212  -21.6536 C   0  0  0  0  0  0  0  0  0  0  0  0
   -7.7025   21.0975  -22.5781 O   0  0  0  0  0  0  0  0  0  0  0  0
   -8.3388   21.6924  -20.4060 C   0  0  0  0  0  0  0  0  0  0  0  0
   -9.4601   22.2366  -19.9888 N   0  0  0  0  0  0  0  0  0  0  0  0
   -9.9727   21.9044  -18.8413 C   0  0  0  0  0  0  0  0  0  0  0  0
  -11.1550   22.4103  -18.2828 C   0  0  0  0  0  0  0  0  0  0  0  0
  -11.6133   21.9981  -17.0606 C   0  0  0  0  0  0  0  0  0  0  0  0
  -10.9307   21.0667  -16.3278 C   0  0  0  0  0  0  0  0  0  0  0  0
   -9.7686   20.5478  -16.8422 C   0  0  0  0  0  0  0  0  0  0  0  0
   -9.2955   20.9702  -18.0976 C   0  0  0  0  0  0  0  0  0  0  0  0
   -7.9588   20.6303  -19.1038 S   0  0  0  0  0  0  0  0  0  0  0  0
   -7.2518   23.9405  -22.9565 C   0  0  0  0  0  0  0  0  0  0  0  0
   -8.4549   24.7600  -22.5475 C   0  0  0  0  0  0  0  0  0  0  0  0
   -8.0423   25.5337  -21.3139 C   0  0  0  0  0  0  0  0  0  0  0  0
   -8.9985   25.3940  -20.2321 N   0  0  0  0  0  0  0  0  0  0  0  0
   -8.8141   24.7685  -19.4166 H   0  0  0  0  0  0  0  0  0  0  0  0
  -10.2297   26.1045  -20.2233 C   0  0  0  0  0  0  0  0  0  0  0  0
  -10.3779   27.2972  -20.9965 N   0  0  0  0  0  0  0  0  0  0  0  0
  -11.2470   25.7166  -19.5339 N   0  0  0  0  0  0  0  0  0  0  0  0
  -11.1631   27.4692  -21.6585 H   0  0  0  0  0  0  0  0  0  0  0  0
   -9.6584   28.0376  -20.8899 H   0  0  0  0  0  0  0  0  0  0  0  0
  -11.1259   24.8373  -18.9679 H   0  0  0  0  0  0  0  0  0  0  0  0
   -3.0199   21.9085  -23.9965 C   0  0  0  0  0  0  0  0  0  0  0  0
   -3.5945   20.8632  -23.6643 O   0  0  0  0  0  0  0  0  0  0  0  0
   -2.5969   22.8682  -23.0654 N   0  0  0  0  0  0  0  0  0  0  0  0
   -2.1136   23.7209  -23.3879 H   0  0  0  0  0  0  0  0  0  0  0  0
   -2.7828   22.1422  -25.4432 C   0  0  0  0  0  0  0  0  0  0  0  0
   -4.0631   23.2187  -27.3608 C   0  0  0  0  0  0  0  0  0  0  0  0
   -3.3425   22.7276  -28.2756 O   0  0  0  0  0  0  0  0  0  0  0  0
   -3.8265   22.9641  -26.0170 N   0  0  0  0  0  0  0  0  0  0  0  0
   -4.4816   23.4200  -25.3044 H   0  0  0  0  0  0  0  0  0  0  0  0
   -5.1867   24.0896  -27.7818 C   0  0  0  0  0  0  0  0  0  0  0  0
   -6.0123   24.7542  -31.4776 C   0  0  0  0  0  0  0  0  0  0  0  0
   -5.6544   24.9951  -30.0714 C   0  0  0  0  0  0  0  0  0  0  0  0
   -5.4586   26.1804  -29.6958 O   0  0  0  0  0  0  0  0  0  0  0  0
   -5.5405   23.8995  -29.1842 N   0  0  0  0  0  0  0  0  0  0  0  0
   -5.7072   22.9319  -29.5152 H   0  0  0  0  0  0  0  0  0  0  0  0
   -6.4275   23.6916  -26.9733 C   0  0  0  0  0  0  0  0  0  0  0  0
   -7.0152   24.9078  -26.3118 C   0  0  0  0  0  0  0  0  0  0  0  0
   -5.9526   26.0087  -26.3742 C   0  0  0  0  0  0  0  0  0  0  0  0
   -5.7220   26.5861  -25.0745 N   0  0  0  0  0  0  0  0  0  0  0  0
   -6.4572   27.1428  -24.6098 H   0  0  0  0  0  0  0  0  0  0  0  0
   -4.4717   26.3856  -24.4339 C   0  0  0  0  0  0  0  0  0  0  0  0
   -3.6391   27.5245  -24.2523 N   0  0  0  0  0  0  0  0  0  0  0  0
   -4.0825   25.2296  -24.0231 N   0  0  0  0  0  0  0  0  0  0  0  0
   -2.6428   27.5501  -24.5477 H   0  0  0  0  0  0  0  0  0  0  0  0
   -4.0111   28.4101  -23.8015 H   0  0  0  0  0  0  0  0  0  0  0  0
   -3.1579   25.1067  -23.5542 H   0  0  0  0  0  0  0  0  0  0  0  0
   -1.4269   22.8640  -25.5145 C   0  0  0  0  0  0  0  0  0  0  0  0
   -0.4340   21.9564  -26.1970 C   0  0  0  0  0  0  0  0  0  0  0  0
    0.8659   21.8873  -25.4477 C   0  0  0  0  0  0  0  0  0  0  0  0
    0.6271   21.6116  -24.0602 N   0  0  0  0  0  0  0  0  0  0  0  0
   -0.3459   21.6398  -23.6975 H   0  0  0  0  0  0  0  0  0  0  0  0
    1.7014   21.3022  -23.1918 C   0  0  0  0  0  0  0  0  0  0  0  0
    1.4297   20.8709  -21.8567 N   0  0  0  0  0  0  0  0  0  0  0  0
    2.9405   21.3892  -23.5489 N   0  0  0  0  0  0  0  0  0  0  0  0
    1.8025   21.4089  -21.0481 H   0  0  0  0  0  0  0  0  0  0  0  0
    0.8600   20.0191  -21.7037 H   0  0  0  0  0  0  0  0  0  0  0  0
    3.1261   21.7071  -24.5340 H   0  0  0  0  0  0  0  0  0  0  0  0
   -1.6791   23.3187  -20.9741 C   0  0  0  0  0  0  0  0  0  0  0  0
   -0.8540   22.8811  -19.8658 C   0  0  0  0  0  0  0  0  0  0  0  0
   -1.4537   22.8501  -18.5145 C   0  0  0  0  0  0  0  0  0  0  0  0
   -1.6719   21.4460  -18.1593 N   0  0  0  0  0  0  0  0  0  0  0  0
   -0.9116   20.8063  -17.8413 H   0  0  0  0  0  0  0  0  0  0  0  0
   -2.9648   20.8894  -18.2392 C   0  0  0  0  0  0  0  0  0  0  0  0
   -3.1864   19.5887  -18.7391 N   0  0  0  0  0  0  0  0  0  0  0  0
   -3.9774   21.5891  -17.8404 N   0  0  0  0  0  0  0  0  0  0  0  0
   -2.4815   19.1017  -19.3303 H   0  0  0  0  0  0  0  0  0  0  0  0
   -4.0716   19.0868  -18.5217 H   0  0  0  0  0  0  0  0  0  0  0  0
   -3.8432   22.5475  -17.4663 H   0  0  0  0  0  0  0  0  0  0  0  0
 39 40  1  0  0  0
 40 41  2  0  0  0
 40 42  1  0  0  0
 42 38  1  0  0  0
 38 44  1  0  0  0
 44 45  1  0  0  0
 45 46  1  0  0  0
 46 47  1  0  0  0
 47 49  1  0  0  0
 49 50  1  0  0  0
 49 51  2  0  0  0
 38 34  1  0  0  0
 34 35  2  0  0  0
 34 36  1  0  0  0
 36 33  1  0  0  0
 33 55  1  0  0  0
 55 56  1  0  0  0
 56 57  1  0  0  0
 57 58  1  0  0  0
 58 60  1  0  0  0
 60 61  1  0  0  0
 60 62  2  0  0  0
 33 29  1  0  0  0
 29 30  2  0  0  0
 29 31  1  0  0  0
 31  1  1  0  0  0
  1 66  1  0  0  0
 66 67  1  0  0  0
 67 68  1  0  0  0
 68 69  1  0  0  0
 69 71  1  0  0  0
 71 72  1  0  0  0
 71 73  2  0  0  0
  1  2  1  0  0  0
  2  3  2  0  0  0
  2  4  1  0  0  0
  4  6  1  0  0  0
  6 18  1  0  0  0
 18 19  1  0  0  0
 19 20  1  0  0  0
 20 21  1  0  0  0
 21 23  1  0  0  0
 23 24  1  0  0  0
 23 25  2  0  0  0
  6  7  1  0  0  0
  7  8  2  0  0  0
  7  9  1  0  0  0
  9 10  2  0  0  0
 10 11  1  0  0  0
 11 12  2  0  0  0
 12 13  1  0  0  0
 13 14  2  0  0  0
 14 15  1  0  0  0
 15 16  2  0  0  0
 16 17  1  0  0  0
 17  9  1  0  0  0
 16 11  1  0  0  0
 42 43  1  0  0  0
 47 48  1  0  0  0
 50 52  1  0  0  0
 50 53  1  0  0  0
 51 54  1  0  0  0
 36 37  1  0  0  0
 58 59  1  0  0  0
 61 63  1  0  0  0
 61 64  1  0  0  0
 62 65  1  0  0  0
 31 32  1  0  0  0
 69 70  1  0  0  0
 72 74  1  0  0  0
 72 75  1  0  0  0
 73 76  1  0  0  0
  4  5  1  0  0  0
 21 22  1  0  0  0
 24 26  1  0  0  0
 24 27  1  0  0  0
 25 28  1  0  0  0
M  END
> <minimizedAffinity>
-6.88107

> <CNNscore>
0.1315553188

> <CNNaffinity>
6.7492432594

> <CNN_VS>
0.8878988624

> <CNNaffinity_variance>
1.2762788534

$$$$
[H]N=C(N([H])[H])N([H])C([H])([H])C([H])([H])C([H])([H])[C@@]([H])(C(=O)c1nc2c([H])c([H])c([H])c([H])c2s1)N([H])C(=O)[C@@]([H])(N([H])C(=O)[C@@]([H])(N([H])C(=O)[C@@]([H])(N([H])C(=O)C([H])([H])[H])C([H])([H])C([H])([H])C([H])([H])N([H])C(=N[H])N([H])[H])C([H])([H])C([H])([H])C([H])([H])N([H])C(=N[H])N([H])[H])C([H])([H])C([H])([H])C([H])([H])N([H])C(=N[H])N([H])[H]


 76 77  0  0  0  0  0  0  0  0999 V2000
   -1.8070   22.3018  -23.6104 C   0  0  0  0  0  0  0  0  0  0  0  0
   -3.1490   22.1946  -24.0790 C   0  0  0  0  0  0  0  0  0  0  0  0
   -3.3401   21.6294  -25.2419 O   0  0  0  0  0  0  0  0  0  0  0  0
   -4.3764   22.5912  -23.4936 N   0  0  0  0  0  0  0  0  0  0  0  0
   -4.3574   23.0567  -22.5669 H   0  0  0  0  0  0  0  0  0  0  0  0
   -5.6776   22.3808  -24.0873 C   0  0  0  0  0  0  0  0  0  0  0  0
   -6.3018   23.5915  -24.6449 C   0  0  0  0  0  0  0  0  0  0  0  0
   -7.0768   24.2764  -23.9535 O   0  0  0  0  0  0  0  0  0  0  0  0
   -6.0271   24.0244  -26.0300 C   0  0  0  0  0  0  0  0  0  0  0  0
   -6.0468   23.3338  -27.1481 N   0  0  0  0  0  0  0  0  0  0  0  0
   -5.7656   23.9005  -28.2837 C   0  0  0  0  0  0  0  0  0  0  0  0
   -5.7481   23.2782  -29.5399 C   0  0  0  0  0  0  0  0  0  0  0  0
   -5.4348   23.9626  -30.6832 C   0  0  0  0  0  0  0  0  0  0  0  0
   -5.1239   25.2940  -30.6466 C   0  0  0  0  0  0  0  0  0  0  0  0
   -5.1309   25.9380  -29.4344 C   0  0  0  0  0  0  0  0  0  0  0  0
   -5.4521   25.2367  -28.2582 C   0  0  0  0  0  0  0  0  0  0  0  0
   -5.5830   25.5908  -26.5933 S   0  0  0  0  0  0  0  0  0  0  0  0
   -6.5597   21.8838  -22.9415 C   0  0  0  0  0  0  0  0  0  0  0  0
   -5.9365   22.1260  -21.5852 C   0  0  0  0  0  0  0  0  0  0  0  0
   -7.0781   22.1519  -20.5919 C   0  0  0  0  0  0  0  0  0  0  0  0
   -7.1521   23.4093  -19.8724 N   0  0  0  0  0  0  0  0  0  0  0  0
   -6.6742   23.5426  -18.9536 H   0  0  0  0  0  0  0  0  0  0  0  0
   -7.8716   24.5240  -20.3828 C   0  0  0  0  0  0  0  0  0  0  0  0
   -8.8068   24.3498  -21.4492 N   0  0  0  0  0  0  0  0  0  0  0  0
   -7.7185   25.7167  -19.9196 N   0  0  0  0  0  0  0  0  0  0  0  0
   -9.7879   24.6983  -21.4272 H   0  0  0  0  0  0  0  0  0  0  0  0
   -8.4870   23.8456  -22.2982 H   0  0  0  0  0  0  0  0  0  0  0  0
   -7.0266   25.8329  -19.1347 H   0  0  0  0  0  0  0  0  0  0  0  0
   -1.7696   22.4299  -21.0625 C   0  0  0  0  0  0  0  0  0  0  0  0
   -1.7990   23.6676  -21.0770 O   0  0  0  0  0  0  0  0  0  0  0  0
   -1.7639   21.6593  -22.2343 N   0  0  0  0  0  0  0  0  0  0  0  0
   -1.7298   20.6298  -22.1737 H   0  0  0  0  0  0  0  0  0  0  0  0
   -1.7462   21.7503  -19.7428 C   0  0  0  0  0  0  0  0  0  0  0  0
    0.2069   20.1616  -19.3736 C   0  0  0  0  0  0  0  0  0  0  0  0
   -0.4078   19.1260  -19.7569 O   0  0  0  0  0  0  0  0  0  0  0  0
   -0.3940   21.4126  -19.3536 N   0  0  0  0  0  0  0  0  0  0  0  0
    0.1948   22.2388  -19.0134 H   0  0  0  0  0  0  0  0  0  0  0  0
    1.6141   19.9886  -18.9399 C   0  0  0  0  0  0  0  0  0  0  0  0
    3.2911   19.7782  -22.3932 C   0  0  0  0  0  0  0  0  0  0  0  0
    2.3851   20.2023  -21.3149 C   0  0  0  0  0  0  0  0  0  0  0  0
    1.5351   21.0973  -21.5616 O   0  0  0  0  0  0  0  0  0  0  0  0
    2.4899   19.5996  -20.0398 N   0  0  0  0  0  0  0  0  0  0  0  0
    3.1967   18.8637  -19.8595 H   0  0  0  0  0  0  0  0  0  0  0  0
    2.1310   21.3450  -18.4451 C   0  0  0  0  0  0  0  0  0  0  0  0
    3.6033   21.2522  -18.1524 C   0  0  0  0  0  0  0  0  0  0  0  0
    4.2790   22.4169  -18.8816 C   0  0  0  0  0  0  0  0  0  0  0  0
    4.8389   23.3622  -17.9494 N   0  0  0  0  0  0  0  0  0  0  0  0
    5.8502   23.3569  -17.7406 H   0  0  0  0  0  0  0  0  0  0  0  0
    3.9880   24.3046  -17.3157 C   0  0  0  0  0  0  0  0  0  0  0  0
    2.9984   24.9368  -18.1186 N   0  0  0  0  0  0  0  0  0  0  0  0
    4.0858   24.5937  -16.0653 N   0  0  0  0  0  0  0  0  0  0  0  0
    2.8759   25.9682  -18.1581 H   0  0  0  0  0  0  0  0  0  0  0  0
    2.3358   24.3685  -18.7218 H   0  0  0  0  0  0  0  0  0  0  0  0
    3.4480   25.2907  -15.6211 H   0  0  0  0  0  0  0  0  0  0  0  0
   -2.3531   22.7652  -18.7599 C   0  0  0  0  0  0  0  0  0  0  0  0
   -3.8099   22.4293  -18.5599 C   0  0  0  0  0  0  0  0  0  0  0  0
   -4.2068   22.5044  -17.1132 C   0  0  0  0  0  0  0  0  0  0  0  0
   -3.9899   23.8285  -16.6053 N   0  0  0  0  0  0  0  0  0  0  0  0
   -3.0423   24.0962  -16.2747 H   0  0  0  0  0  0  0  0  0  0  0  0
   -5.0515   24.7637  -16.5551 C   0  0  0  0  0  0  0  0  0  0  0  0
   -5.3541   25.4245  -15.3245 N   0  0  0  0  0  0  0  0  0  0  0  0
   -5.7761   25.0595  -17.5836 N   0  0  0  0  0  0  0  0  0  0  0  0
   -6.2991   25.3301  -14.8998 H   0  0  0  0  0  0  0  0  0  0  0  0
   -4.6246   25.9970  -14.8622 H   0  0  0  0  0  0  0  0  0  0  0  0
   -5.5423   24.5665  -18.4827 H   0  0  0  0  0  0  0  0  0  0  0  0
   -0.5790   21.8599  -24.2279 C   0  0  0  0  0  0  0  0  0  0  0  0
    0.3880   22.6042  -25.0099 C   0  0  0  0  0  0  0  0  0  0  0  0
    0.5942   22.2179  -26.4223 C   0  0  0  0  0  0  0  0  0  0  0  0
   -0.7205   22.1775  -27.0666 N   0  0  0  0  0  0  0  0  0  0  0  0
   -1.5074   21.5781  -26.7352 H   0  0  0  0  0  0  0  0  0  0  0  0
   -0.9771   22.9760  -28.1999 C   0  0  0  0  0  0  0  0  0  0  0  0
   -2.2883   23.3373  -28.5753 N   0  0  0  0  0  0  0  0  0  0  0  0
    0.0174   23.3923  -28.9152 N   0  0  0  0  0  0  0  0  0  0  0  0
   -3.1201   22.8134  -28.2328 H   0  0  0  0  0  0  0  0  0  0  0  0
   -2.4483   24.1458  -29.2105 H   0  0  0  0  0  0  0  0  0  0  0  0
    0.9921   23.1436  -28.6609 H   0  0  0  0  0  0  0  0  0  0  0  0
 39 40  1  0  0  0
 40 41  2  0  0  0
 40 42  1  0  0  0
 42 38  1  0  0  0
 38 44  1  0  0  0
 44 45  1  0  0  0
 45 46  1  0  0  0
 46 47  1  0  0  0
 47 49  1  0  0  0
 49 50  1  0  0  0
 49 51  2  0  0  0
 38 34  1  0  0  0
 34 35  2  0  0  0
 34 36  1  0  0  0
 36 33  1  0  0  0
 33 55  1  0  0  0
 55 56  1  0  0  0
 56 57  1  0  0  0
 57 58  1  0  0  0
 58 60  1  0  0  0
 60 61  1  0  0  0
 60 62  2  0  0  0
 33 29  1  0  0  0
 29 30  2  0  0  0
 29 31  1  0  0  0
 31  1  1  0  0  0
  1 66  1  0  0  0
 66 67  1  0  0  0
 67 68  1  0  0  0
 68 69  1  0  0  0
 69 71  1  0  0  0
 71 72  1  0  0  0
 71 73  2  0  0  0
  1  2  1  0  0  0
  2  3  2  0  0  0
  2  4  1  0  0  0
  4  6  1  0  0  0
  6 18  1  0  0  0
 18 19  1  0  0  0
 19 20  1  0  0  0
 20 21  1  0  0  0
 21 23  1  0  0  0
 23 24  1  0  0  0
 23 25  2  0  0  0
  6  7  1  0  0  0
  7  8  2  0  0  0
  7  9  1  0  0  0
  9 10  2  0  0  0
 10 11  1  0  0  0
 11 12  2  0  0  0
 12 13  1  0  0  0
 13 14  2  0  0  0
 14 15  1  0  0  0
 15 16  2  0  0  0
 16 17  1  0  0  0
 17  9  1  0  0  0
 16 11  1  0  0  0
 42 43  1  0  0  0
 47 48  1  0  0  0
 50 52  1  0  0  0
 50 53  1  0  0  0
 51 54  1  0  0  0
 36 37  1  0  0  0
 58 59  1  0  0  0
 61 63  1  0  0  0
 61 64  1  0  0  0
 62 65  1  0  0  0
 31 32  1  0  0  0
 69 70  1  0  0  0
 72 74  1  0  0  0
 72 75  1  0  0  0
 73 76  1  0  0  0
  4  5  1  0  0  0
 21 22  1  0  0  0
 24 26  1  0  0  0
 24 27  1  0  0  0
 25 28  1  0  0  0
M  END
> <minimizedAffinity>
-7.16780

> <CNNscore>
0.1304253787

> <CNNaffinity>
6.8230376244

> <CNN_VS>
0.8898972869

> <CNNaffinity_variance>
0.8627119064

$$$$
[H]OC([H])([H])C([H])(O[H])c1[se]c(-c2c([H])c([H])c(OC([H])(C([H])([H])[H])C([H])([H])[H])c(C#N)c2[H])nc1C([H])([H])[H]


 24 25  0  0  0  0  0  0  0  0999 V2000
   -2.1488   22.3610  -26.2503 C   0  0  0  0  0  0  0  0  0  0  0  0
   -2.7334   21.9519  -25.0708 C   0  0  0  0  0  0  0  0  0  0  0  0
   -1.9813   21.6400  -23.9689 C   0  0  0  0  0  0  0  0  0  0  0  0
   -0.6015   21.7252  -24.0015 C   0  0  0  0  0  0  0  0  0  0  0  0
   -0.0074   22.1347  -25.1810 C   0  0  0  0  0  0  0  0  0  0  0  0
   -0.7679   22.4454  -26.2807 C   0  0  0  0  0  0  0  0  0  0  0  0
    0.1295   21.3862  -22.8194 C   0  0  0  0  0  0  0  0  0  0  0  0
    0.1860   21.1678  -21.6173 N   0  0  0  0  0  0  0  0  0  0  0  0
    1.0276   20.8638  -20.7389 C   0  0  0  0  0  0  0  0  0  0  0  0
    0.6256   20.6829  -19.2668 C   0  0  0  0  0  0  0  0  0  0  0  0
    2.3537   20.6725  -21.0150 C   0  0  0  0  0  0  0  0  0  0  0  0
    2.3134   21.0375  -23.0808 Se  0  0  0  0  0  0  0  0  0  0  0  0
    3.5603   20.3272  -20.2690 C   0  0  0  0  0  0  0  0  0  0  0  0
    4.2511   19.2449  -20.7656 O   0  0  0  0  0  0  0  0  0  0  0  0
    5.0594   19.0573  -20.2314 H   0  0  0  0  0  0  0  0  0  0  0  0
    4.4322   21.5713  -20.1733 C   0  0  0  0  0  0  0  0  0  0  0  0
    3.7474   22.6135  -19.5637 O   0  0  0  0  0  0  0  0  0  0  0  0
    4.3627   23.3813  -19.5045 H   0  0  0  0  0  0  0  0  0  0  0  0
   -0.1380   22.8748  -27.5172 C   0  0  0  0  0  0  0  0  0  0  0  0
    0.3750   23.2098  -28.4987 N   0  0  0  0  0  0  0  0  0  0  0  0
   -2.8496   22.6847  -27.3804 O   0  0  0  0  0  0  0  0  0  0  0  0
   -4.2389   24.5819  -27.0695 C   0  0  0  0  0  0  0  0  0  0  0  0
   -4.1567   23.1301  -27.4955 C   0  0  0  0  0  0  0  0  0  0  0  0
   -4.5213   23.0821  -28.9831 C   0  0  0  0  0  0  0  0  0  0  0  0
 22 23  1  0  0  0
 23 24  1  0  0  0
 23 21  1  0  0  0
 21  1  1  0  0  0
  1  2  2  0  0  0
  2  3  1  0  0  0
  3  4  2  0  0  0
  4  5  1  0  0  0
  5  6  2  0  0  0
  6 19  1  0  0  0
 19 20  3  0  0  0
  4  7  1  0  0  0
  7  8  2  0  0  0
  8  9  1  0  0  0
  9 10  1  0  0  0
  9 11  2  0  0  0
 11 12  1  0  0  0
 11 13  1  0  0  0
 13 14  1  0  0  0
 13 16  1  0  0  0
 16 17  1  0  0  0
  6  1  1  0  0  0
 12  7  1  0  0  0
 14 15  1  0  0  0
 17 18  1  0  0  0
M  END
> <minimizedAffinity>
-6.59572

> <CNNscore>
0.8746444583

> <CNNaffinity>
5.8524875641

> <CNN_VS>
5.1188459396

> <CNNaffinity_variance>
0.1541889459

$$$$
[H]OC([H])([H])C([H])(O[H])c1[se]c(-c2c([H])c([H])c(OC([H])(C([H])([H])[H])C([H])([H])[H])c(C#N)c2[H])nc1C([H])([H])[H]


 24 25  0  0  0  0  0  0  0  0999 V2000
   -2.6867   22.5107  -26.9193 C   0  0  0  0  0  0  0  0  0  0  0  0
   -3.5339   22.1591  -25.8903 C   0  0  0  0  0  0  0  0  0  0  0  0
   -3.0566   21.8435  -24.6455 C   0  0  0  0  0  0  0  0  0  0  0  0
   -1.7005   21.8668  -24.3761 C   0  0  0  0  0  0  0  0  0  0  0  0
   -0.8440   22.2185  -25.4031 C   0  0  0  0  0  0  0  0  0  0  0  0
   -1.3301   22.5333  -26.6476 C   0  0  0  0  0  0  0  0  0  0  0  0
   -1.2626   21.5272  -23.0572 C   0  0  0  0  0  0  0  0  0  0  0  0
   -0.7864   20.7374  -22.2538 N   0  0  0  0  0  0  0  0  0  0  0  0
   -0.4771   20.6772  -21.0401 C   0  0  0  0  0  0  0  0  0  0  0  0
    0.1272   19.4051  -20.4252 C   0  0  0  0  0  0  0  0  0  0  0  0
   -0.6508   21.7236  -20.1763 C   0  0  0  0  0  0  0  0  0  0  0  0
   -1.4715   23.1176  -21.5125 Se  0  0  0  0  0  0  0  0  0  0  0  0
   -0.4132   21.9897  -18.7605 C   0  0  0  0  0  0  0  0  0  0  0  0
    0.2619   23.1616  -18.5031 O   0  0  0  0  0  0  0  0  0  0  0  0
    0.3911   23.2977  -17.5342 H   0  0  0  0  0  0  0  0  0  0  0  0
   -1.7491   21.9239  -18.0338 C   0  0  0  0  0  0  0  0  0  0  0  0
   -2.4466   23.1168  -18.1653 O   0  0  0  0  0  0  0  0  0  0  0  0
   -3.3096   23.0112  -17.7008 H   0  0  0  0  0  0  0  0  0  0  0  0
   -0.4252   22.9017  -27.7227 C   0  0  0  0  0  0  0  0  0  0  0  0
    0.3012   23.1828  -28.5781 N   0  0  0  0  0  0  0  0  0  0  0  0
   -3.1073   22.8351  -28.1807 O   0  0  0  0  0  0  0  0  0  0  0  0
   -3.7517   24.8059  -29.3326 C   0  0  0  0  0  0  0  0  0  0  0  0
   -4.2092   23.5823  -28.5647 C   0  0  0  0  0  0  0  0  0  0  0  0
   -5.0204   22.7231  -29.5403 C   0  0  0  0  0  0  0  0  0  0  0  0
 22 23  1  0  0  0
 23 24  1  0  0  0
 23 21  1  0  0  0
 21  1  1  0  0  0
  1  2  2  0  0  0
  2  3  1  0  0  0
  3  4  2  0  0  0
  4  5  1  0  0  0
  5  6  2  0  0  0
  6 19  1  0  0  0
 19 20  3  0  0  0
  4  7  1  0  0  0
  7  8  2  0  0  0
  8  9  1  0  0  0
  9 10  1  0  0  0
  9 11  2  0  0  0
 11 12  1  0  0  0
 11 13  1  0  0  0
 13 14  1  0  0  0
 13 16  1  0  0  0
 16 17  1  0  0  0
  6  1  1  0  0  0
 12  7  1  0  0  0
 14 15  1  0  0  0
 17 18  1  0  0  0
M  END
> <minimizedAffinity>
-6.77095

> <CNNscore>
0.8467974663

> <CNNaffinity>
5.9127879143

> <CNN_VS>
5.0069336891

> <CNNaffinity_variance>
0.1316064149

$$$$
[H]OC([H])([H])C([H])(O[H])c1[se]c(-c2c([H])c([H])c(OC([H])(C([H])([H])[H])C([H])([H])[H])c(C#N)c2[H])nc1C([H])([H])[H]


 24 25  0  0  0  0  0  0  0  0999 V2000
   -1.6412   22.1194  -25.4322 C   0  0  0  0  0  0  0  0  0  0  0  0
   -2.0522   21.7856  -24.1594 C   0  0  0  0  0  0  0  0  0  0  0  0
   -1.1518   21.4878  -23.1708 C   0  0  0  0  0  0  0  0  0  0  0  0
    0.2088   21.5117  -23.4164 C   0  0  0  0  0  0  0  0  0  0  0  0
    0.6293   21.8455  -24.6907 C   0  0  0  0  0  0  0  0  0  0  0  0
   -0.2793   22.1427  -25.6758 C   0  0  0  0  0  0  0  0  0  0  0  0
    1.0999   21.1910  -22.3441 C   0  0  0  0  0  0  0  0  0  0  0  0
    2.1503   21.3475  -21.7375 N   0  0  0  0  0  0  0  0  0  0  0  0
    2.7506   20.8979  -20.7325 C   0  0  0  0  0  0  0  0  0  0  0  0
    4.1361   21.4205  -20.3215 C   0  0  0  0  0  0  0  0  0  0  0  0
    2.2293   19.9187  -19.9321 C   0  0  0  0  0  0  0  0  0  0  0  0
    0.4121   19.6101  -20.9345 Se  0  0  0  0  0  0  0  0  0  0  0  0
    2.6367   19.1896  -18.7345 C   0  0  0  0  0  0  0  0  0  0  0  0
    1.6713   19.1091  -17.7564 O   0  0  0  0  0  0  0  0  0  0  0  0
    1.9933   18.6024  -16.9731 H   0  0  0  0  0  0  0  0  0  0  0  0
    3.1388   17.8175  -19.1614 C   0  0  0  0  0  0  0  0  0  0  0  0
    4.4256   17.8961  -19.6759 O   0  0  0  0  0  0  0  0  0  0  0  0
    4.7098   16.9821  -19.9114 H   0  0  0  0  0  0  0  0  0  0  0  0
    0.1686   22.4924  -27.0127 C   0  0  0  0  0  0  0  0  0  0  0  0
    0.5220   22.7584  -28.0818 N   0  0  0  0  0  0  0  0  0  0  0  0
   -2.4950   22.4257  -26.4571 O   0  0  0  0  0  0  0  0  0  0  0  0
   -3.5236   23.8758  -28.0272 C   0  0  0  0  0  0  0  0  0  0  0  0
   -3.3720   23.4926  -26.5690 C   0  0  0  0  0  0  0  0  0  0  0  0
   -4.7436   23.0023  -26.0934 C   0  0  0  0  0  0  0  0  0  0  0  0
 22 23  1  0  0  0
 23 24  1  0  0  0
 23 21  1  0  0  0
 21  1  1  0  0  0
  1  2  2  0  0  0
  2  3  1  0  0  0
  3  4  2  0  0  0
  4  5  1  0  0  0
  5  6  2  0  0  0
  6 19  1  0  0  0
 19 20  3  0  0  0
  4  7  1  0  0  0
  7  8  2  0  0  0
  8  9  1  0  0  0
  9 10  1  0  0  0
  9 11  2  0  0  0
 11 12  1  0  0  0
 11 13  1  0  0  0
 13 14  1  0  0  0
 13 16  1  0  0  0
 16 17  1  0  0  0
  6  1  1  0  0  0
 12  7  1  0  0  0
 14 15  1  0  0  0
 17 18  1  0  0  0
M  END
> <minimizedAffinity>
-5.88136

> <CNNscore>
0.8100897670

> <CNNaffinity>
5.6447343826

> <CNN_VS>
4.5727415085

> <CNNaffinity_variance>
0.2878965735

$$$$
[H]OC([H])([H])C([H])(O[H])c1[se]c(-c2c([H])c([H])c(OC([H])(C([H])([H])[H])C([H])([H])[H])c(C#N)c2[H])nc1C([H])([H])[H]


 24 25  0  0  0  0  0  0  0  0999 V2000
   -2.1217   22.0508  -25.8253 C   0  0  0  0  0  0  0  0  0  0  0  0
   -2.7232   21.6870  -24.6395 C   0  0  0  0  0  0  0  0  0  0  0  0
   -1.9972   21.5186  -23.4900 C   0  0  0  0  0  0  0  0  0  0  0  0
   -0.6275   21.7086  -23.4789 C   0  0  0  0  0  0  0  0  0  0  0  0
   -0.0165   22.0734  -24.6644 C   0  0  0  0  0  0  0  0  0  0  0  0
   -0.7510   22.2403  -25.8119 C   0  0  0  0  0  0  0  0  0  0  0  0
    0.0762   21.5175  -22.2481 C   0  0  0  0  0  0  0  0  0  0  0  0
    0.9609   20.9914  -21.5873 N   0  0  0  0  0  0  0  0  0  0  0  0
    1.4085   20.9916  -20.4160 C   0  0  0  0  0  0  0  0  0  0  0  0
    2.6078   20.1197  -20.0122 C   0  0  0  0  0  0  0  0  0  0  0  0
    0.8727   21.7558  -19.4159 C   0  0  0  0  0  0  0  0  0  0  0  0
   -0.6614   22.6873  -20.5027 Se  0  0  0  0  0  0  0  0  0  0  0  0
    1.1296   21.9911  -17.9981 C   0  0  0  0  0  0  0  0  0  0  0  0
    1.1317   20.8555  -17.2198 O   0  0  0  0  0  0  0  0  0  0  0  0
    1.3158   21.0673  -16.2737 H   0  0  0  0  0  0  0  0  0  0  0  0
    2.4283   22.7756  -17.8742 C   0  0  0  0  0  0  0  0  0  0  0  0
    2.3273   24.0082  -18.5043 O   0  0  0  0  0  0  0  0  0  0  0  0
    3.1814   24.4822  -18.3724 H   0  0  0  0  0  0  0  0  0  0  0  0
   -0.1033   22.6234  -27.0545 C   0  0  0  0  0  0  0  0  0  0  0  0
    0.4127   22.9155  -28.0480 N   0  0  0  0  0  0  0  0  0  0  0  0
   -2.7964   22.2329  -27.0021 O   0  0  0  0  0  0  0  0  0  0  0  0
   -3.7786   23.2177  -28.9234 C   0  0  0  0  0  0  0  0  0  0  0  0
   -3.4958   23.3459  -27.4403 C   0  0  0  0  0  0  0  0  0  0  0  0
   -4.8519   23.3375  -26.7268 C   0  0  0  0  0  0  0  0  0  0  0  0
 22 23  1  0  0  0
 23 24  1  0  0  0
 23 21  1  0  0  0
 21  1  1  0  0  0
  1  2  2  0  0  0
  2  3  1  0  0  0
  3  4  2  0  0  0
  4  5  1  0  0  0
  5  6  2  0  0  0
  6 19  1  0  0  0
 19 20  3  0  0  0
  4  7  1  0  0  0
  7  8  2  0  0  0
  8  9  1  0  0  0
  9 10  1  0  0  0
  9 11  2  0  0  0
 11 12  1  0  0  0
 11 13  1  0  0  0
 13 14  1  0  0  0
 13 16  1  0  0  0
 16 17  1  0  0  0
  6  1  1  0  0  0
 12  7  1  0  0  0
 14 15  1  0  0  0
 17 18  1  0  0  0
M  END
> <minimizedAffinity>
-6.27624

> <CNNscore>
0.6700789928

> <CNNaffinity>
5.6724228859

> <CNN_VS>
3.8009715080

> <CNNaffinity_variance>
0.2541920543

$$$$
[H]OC([H])([H])C([H])(O[H])c1[se]c(-c2c([H])c([H])c(OC([H])(C([H])([H])[H])C([H])([H])[H])c(C#N)c2[H])nc1C([H])([H])[H]


 24 25  0  0  0  0  0  0  0  0999 V2000
   -2.7023   22.6016  -26.5615 C   0  0  0  0  0  0  0  0  0  0  0  0
   -3.5403   22.4335  -25.4800 C   0  0  0  0  0  0  0  0  0  0  0  0
   -3.0533   22.3535  -24.2019 C   0  0  0  0  0  0  0  0  0  0  0  0
   -1.6962   22.4391  -23.9506 C   0  0  0  0  0  0  0  0  0  0  0  0
   -0.8489   22.6077  -25.0302 C   0  0  0  0  0  0  0  0  0  0  0  0
   -1.3447   22.6869  -26.3077 C   0  0  0  0  0  0  0  0  0  0  0  0
   -1.2480   22.3485  -22.5951 C   0  0  0  0  0  0  0  0  0  0  0  0
   -1.1131   22.8203  -21.4747 N   0  0  0  0  0  0  0  0  0  0  0  0
   -0.6384   22.5092  -20.3566 C   0  0  0  0  0  0  0  0  0  0  0  0
   -0.6936   23.4739  -19.1617 C   0  0  0  0  0  0  0  0  0  0  0  0
   -0.0400   21.3035  -20.1129 C   0  0  0  0  0  0  0  0  0  0  0  0
   -0.2452   20.4461  -22.0169 Se  0  0  0  0  0  0  0  0  0  0  0  0
    0.5956   20.6369  -18.9800 C   0  0  0  0  0  0  0  0  0  0  0  0
   -0.0210   19.4726  -18.5807 O   0  0  0  0  0  0  0  0  0  0  0  0
    0.4496   19.0588  -17.8182 H   0  0  0  0  0  0  0  0  0  0  0  0
    2.0645   20.4234  -19.3173 C   0  0  0  0  0  0  0  0  0  0  0  0
    2.3489   19.0736  -19.4711 O   0  0  0  0  0  0  0  0  0  0  0  0
    3.3014   18.9943  -19.7123 H   0  0  0  0  0  0  0  0  0  0  0  0
   -0.4493   22.8638  -27.4380 C   0  0  0  0  0  0  0  0  0  0  0  0
    0.2540   23.0001  -28.3464 N   0  0  0  0  0  0  0  0  0  0  0  0
   -3.1327   22.6879  -27.8578 O   0  0  0  0  0  0  0  0  0  0  0  0
   -3.5328   24.7452  -28.9685 C   0  0  0  0  0  0  0  0  0  0  0  0
   -4.1363   23.4814  -28.3899 C   0  0  0  0  0  0  0  0  0  0  0  0
   -4.7524   22.7072  -29.5600 C   0  0  0  0  0  0  0  0  0  0  0  0
 22 23  1  0  0  0
 23 24  1  0  0  0
 23 21  1  0  0  0
 21  1  1  0  0  0
  1  2  2  0  0  0
  2  3  1  0  0  0
  3  4  2  0  0  0
  4  5  1  0  0  0
  5  6  2  0  0  0
  6 19  1  0  0  0
 19 20  3  0  0  0
  4  7  1  0  0  0
  7  8  2  0  0  0
  8  9  1  0  0  0
  9 10  1  0  0  0
  9 11  2  0  0  0
 11 12  1  0  0  0
 11 13  1  0  0  0
 13 14  1  0  0  0
 13 16  1  0  0  0
 16 17  1  0  0  0
  6  1  1  0  0  0
 12  7  1  0  0  0
 14 15  1  0  0  0
 17 18  1  0  0  0
M  END
> <minimizedAffinity>
-5.79182

> <CNNscore>
0.6580950618

> <CNNaffinity>
5.6233086586

> <CNN_VS>
3.7006716728

> <CNNaffinity_variance>
0.2600526214

$$$$
[H]OC([H])([H])C([H])(O[H])c1[se]c(-c2c([H])c([H])c(OC([H])(C([H])([H])[H])C([H])([H])[H])c(C#N)c2[H])nc1C([H])([H])[H]


 24 25  0  0  0  0  0  0  0  0999 V2000
   -2.9956   23.0587  -26.8142 C   0  0  0  0  0  0  0  0  0  0  0  0
   -3.9929   23.1403  -25.8660 C   0  0  0  0  0  0  0  0  0  0  0  0
   -3.7219   23.0163  -24.5288 C   0  0  0  0  0  0  0  0  0  0  0  0
   -2.4310   22.8037  -24.0808 C   0  0  0  0  0  0  0  0  0  0  0  0
   -1.4250   22.7204  -25.0257 C   0  0  0  0  0  0  0  0  0  0  0  0
   -1.7047   22.8458  -26.3637 C   0  0  0  0  0  0  0  0  0  0  0  0
   -2.2106   22.6820  -22.6725 C   0  0  0  0  0  0  0  0  0  0  0  0
   -1.5127   22.8257  -21.6784 N   0  0  0  0  0  0  0  0  0  0  0  0
   -1.5536   22.6168  -20.4427 C   0  0  0  0  0  0  0  0  0  0  0  0
   -0.3740   22.9762  -19.5257 C   0  0  0  0  0  0  0  0  0  0  0  0
   -2.6356   22.0586  -19.8189 C   0  0  0  0  0  0  0  0  0  0  0  0
   -3.8740   21.7897  -21.4911 Se  0  0  0  0  0  0  0  0  0  0  0  0
   -3.0083   21.6870  -18.4570 C   0  0  0  0  0  0  0  0  0  0  0  0
   -4.2990   22.0136  -18.1067 O   0  0  0  0  0  0  0  0  0  0  0  0
   -4.5025   21.7363  -17.1817 H   0  0  0  0  0  0  0  0  0  0  0  0
   -2.7203   20.2036  -18.2735 C   0  0  0  0  0  0  0  0  0  0  0  0
   -3.7456   19.4288  -18.7980 O   0  0  0  0  0  0  0  0  0  0  0  0
   -3.4976   18.4826  -18.6763 H   0  0  0  0  0  0  0  0  0  0  0  0
   -0.6435   22.7571  -27.3518 C   0  0  0  0  0  0  0  0  0  0  0  0
    0.1965   22.6747  -28.1431 N   0  0  0  0  0  0  0  0  0  0  0  0
   -3.2082   23.1751  -28.1612 O   0  0  0  0  0  0  0  0  0  0  0  0
   -3.7204   24.9274  -29.6755 C   0  0  0  0  0  0  0  0  0  0  0  0
   -4.2555   23.7922  -28.8262 C   0  0  0  0  0  0  0  0  0  0  0  0
   -4.8511   22.7595  -29.7889 C   0  0  0  0  0  0  0  0  0  0  0  0
 22 23  1  0  0  0
 23 24  1  0  0  0
 23 21  1  0  0  0
 21  1  1  0  0  0
  1  2  2  0  0  0
  2  3  1  0  0  0
  3  4  2  0  0  0
  4  5  1  0  0  0
  5  6  2  0  0  0
  6 19  1  0  0  0
 19 20  3  0  0  0
  4  7  1  0  0  0
  7  8  2  0  0  0
  8  9  1  0  0  0
  9 10  1  0  0  0
  9 11  2  0  0  0
 11 12  1  0  0  0
 11 13  1  0  0  0
 13 14  1  0  0  0
 13 16  1  0  0  0
 16 17  1  0  0  0
  6  1  1  0  0  0
 12  7  1  0  0  0
 14 15  1  0  0  0
 17 18  1  0  0  0
M  END
> <minimizedAffinity>
-5.97602

> <CNNscore>
0.4982613623

> <CNNaffinity>
5.8318777084

> <CNN_VS>
2.9057993889

> <CNNaffinity_variance>
0.5138913393

$$$$
[H]OC([H])([H])C([H])(O[H])c1[se]c(-c2c([H])c([H])c(OC([H])(C([H])([H])[H])C([H])([H])[H])c(C#N)c2[H])nc1C([H])([H])[H]


 24 25  0  0  0  0  0  0  0  0999 V2000
   -4.0955   23.2363  -28.3034 C   0  0  0  0  0  0  0  0  0  0  0  0
   -2.7762   22.8969  -28.5143 C   0  0  0  0  0  0  0  0  0  0  0  0
   -1.9495   22.5560  -27.4765 C   0  0  0  0  0  0  0  0  0  0  0  0
   -2.4121   22.5403  -26.1734 C   0  0  0  0  0  0  0  0  0  0  0  0
   -3.7343   22.8797  -25.9534 C   0  0  0  0  0  0  0  0  0  0  0  0
   -4.5563   23.2201  -26.9987 C   0  0  0  0  0  0  0  0  0  0  0  0
   -1.5012   22.1762  -25.1321 C   0  0  0  0  0  0  0  0  0  0  0  0
   -0.3722   21.9336  -24.7291 N   0  0  0  0  0  0  0  0  0  0  0  0
    0.2159   21.6051  -23.6715 C   0  0  0  0  0  0  0  0  0  0  0  0
    1.7377   21.3957  -23.6280 C   0  0  0  0  0  0  0  0  0  0  0  0
   -0.4397   21.4079  -22.4872 C   0  0  0  0  0  0  0  0  0  0  0  0
   -2.3967   21.8143  -23.1255 Se  0  0  0  0  0  0  0  0  0  0  0  0
   -0.0862   21.0346  -21.1207 C   0  0  0  0  0  0  0  0  0  0  0  0
   -0.9272   21.5373  -20.1535 O   0  0  0  0  0  0  0  0  0  0  0  0
   -0.6495   21.2516  -19.2506 H   0  0  0  0  0  0  0  0  0  0  0  0
    0.0236   19.5178  -21.0557 C   0  0  0  0  0  0  0  0  0  0  0  0
   -0.6992   19.0118  -19.9841 O   0  0  0  0  0  0  0  0  0  0  0  0
   -0.6153   18.0299  -20.0040 H   0  0  0  0  0  0  0  0  0  0  0  0
   -5.9446   23.5760  -26.7612 C   0  0  0  0  0  0  0  0  0  0  0  0
   -7.0485   23.8708  -26.5794 N   0  0  0  0  0  0  0  0  0  0  0  0
   -4.9656   23.5847  -29.3008 O   0  0  0  0  0  0  0  0  0  0  0  0
   -3.9565   25.6279  -29.9588 C   0  0  0  0  0  0  0  0  0  0  0  0
   -5.2437   24.8420  -29.8124 C   0  0  0  0  0  0  0  0  0  0  0  0
   -5.8051   24.6417  -31.2241 C   0  0  0  0  0  0  0  0  0  0  0  0
 22 23  1  0  0  0
 23 24  1  0  0  0
 23 21  1  0  0  0
 21  1  1  0  0  0
  1  2  2  0  0  0
  2  3  1  0  0  0
  3  4  2  0  0  0
  4  5  1  0  0  0
  5  6  2  0  0  0
  6 19  1  0  0  0
 19 20  3  0  0  0
  4  7  1  0  0  0
  7  8  2  0  0  0
  8  9  1  0  0  0
  9 10  1  0  0  0
  9 11  2  0  0  0
 11 12  1  0  0  0
 11 13  1  0  0  0
 13 14  1  0  0  0
 13 16  1  0  0  0
 16 17  1  0  0  0
  6  1  1  0  0  0
 12  7  1  0  0  0
 14 15  1  0  0  0
 17 18  1  0  0  0
M  END
> <minimizedAffinity>
-7.23526

> <CNNscore>
0.4159170687

> <CNNaffinity>
5.7733445168

> <CNN_VS>
2.4012324810

> <CNNaffinity_variance>
0.1286627799

$$$$
[H]OC([H])([H])C([H])(O[H])c1[se]c(-c2c([H])c([H])c(OC([H])(C([H])([H])[H])C([H])([H])[H])c(C#N)c2[H])nc1C([H])([H])[H]


 24 25  0  0  0  0  0  0  0  0999 V2000
   -4.3348   23.6729  -27.9233 C   0  0  0  0  0  0  0  0  0  0  0  0
   -3.1829   22.9420  -28.1212 C   0  0  0  0  0  0  0  0  0  0  0  0
   -2.4257   22.4993  -27.0688 C   0  0  0  0  0  0  0  0  0  0  0  0
   -2.7924   22.7717  -25.7636 C   0  0  0  0  0  0  0  0  0  0  0  0
   -3.9466   23.5045  -25.5566 C   0  0  0  0  0  0  0  0  0  0  0  0
   -4.6999   23.9445  -26.6164 C   0  0  0  0  0  0  0  0  0  0  0  0
   -1.9612   22.2829  -24.7069 C   0  0  0  0  0  0  0  0  0  0  0  0
   -1.8135   21.7843  -23.5998 N   0  0  0  0  0  0  0  0  0  0  0  0
   -0.8932   21.4245  -22.8279 C   0  0  0  0  0  0  0  0  0  0  0  0
   -1.1910   20.8127  -21.4500 C   0  0  0  0  0  0  0  0  0  0  0  0
    0.4321   21.5465  -23.1441 C   0  0  0  0  0  0  0  0  0  0  0  0
    0.2360   22.4035  -25.0492 Se  0  0  0  0  0  0  0  0  0  0  0  0
    1.7127   21.2451  -22.5109 C   0  0  0  0  0  0  0  0  0  0  0  0
    1.6146   20.6108  -21.2929 O   0  0  0  0  0  0  0  0  0  0  0  0
    2.5052   20.4242  -20.9110 H   0  0  0  0  0  0  0  0  0  0  0  0
    2.5597   20.4593  -23.5020 C   0  0  0  0  0  0  0  0  0  0  0  0
    3.8674   20.9242  -23.5176 O   0  0  0  0  0  0  0  0  0  0  0  0
    4.3750   20.3675  -24.1532 H   0  0  0  0  0  0  0  0  0  0  0  0
   -5.9114   24.7142  -26.3926 C   0  0  0  0  0  0  0  0  0  0  0  0
   -6.8697   25.3346  -26.2050 N   0  0  0  0  0  0  0  0  0  0  0  0
   -5.1289   24.1400  -28.9354 O   0  0  0  0  0  0  0  0  0  0  0  0
   -5.8972   24.1635  -31.1793 C   0  0  0  0  0  0  0  0  0  0  0  0
   -4.7715   24.5039  -30.2238 C   0  0  0  0  0  0  0  0  0  0  0  0
   -4.6224   26.0289  -30.2380 C   0  0  0  0  0  0  0  0  0  0  0  0
 22 23  1  0  0  0
 23 24  1  0  0  0
 23 21  1  0  0  0
 21  1  1  0  0  0
  1  2  2  0  0  0
  2  3  1  0  0  0
  3  4  2  0  0  0
  4  5  1  0  0  0
  5  6  2  0  0  0
  6 19  1  0  0  0
 19 20  3  0  0  0
  4  7  1  0  0  0
  7  8  2  0  0  0
  8  9  1  0  0  0
  9 10  1  0  0  0
  9 11  2  0  0  0
 11 12  1  0  0  0
 11 13  1  0  0  0
 13 14  1  0  0  0
 13 16  1  0  0  0
 16 17  1  0  0  0
  6  1  1  0  0  0
 12  7  1  0  0  0
 14 15  1  0  0  0
 17 18  1  0  0  0
M  END
> <minimizedAffinity>
-6.61686

> <CNNscore>
0.3317489326

> <CNNaffinity>
5.7760324478

> <CNN_VS>
1.9161926508

> <CNNaffinity_variance>
0.0873507410

$$$$
[H]OC([H])([H])C([H])(O[H])c1[se]c(-c2c([H])c([H])c(OC([H])(C([H])([H])[H])C([H])([H])[H])c(C#N)c2[H])nc1C([H])([H])[H]


 24 25  0  0  0  0  0  0  0  0999 V2000
   -3.7267   23.2534  -27.8787 C   0  0  0  0  0  0  0  0  0  0  0  0
   -2.3892   22.9558  -27.7279 C   0  0  0  0  0  0  0  0  0  0  0  0
   -1.8548   22.6609  -26.5014 C   0  0  0  0  0  0  0  0  0  0  0  0
   -2.6428   22.6512  -25.3652 C   0  0  0  0  0  0  0  0  0  0  0  0
   -3.9856   22.9487  -25.5080 C   0  0  0  0  0  0  0  0  0  0  0  0
   -4.5135   23.2432  -26.7404 C   0  0  0  0  0  0  0  0  0  0  0  0
   -2.0275   22.3360  -24.1127 C   0  0  0  0  0  0  0  0  0  0  0  0
   -1.3318   21.6174  -23.4086 N   0  0  0  0  0  0  0  0  0  0  0  0
   -0.9075   21.5547  -22.2304 C   0  0  0  0  0  0  0  0  0  0  0  0
   -0.0074   20.4017  -21.7590 C   0  0  0  0  0  0  0  0  0  0  0  0
   -1.2077   22.4932  -21.2815 C   0  0  0  0  0  0  0  0  0  0  0  0
   -2.4090   23.7609  -22.4444 Se  0  0  0  0  0  0  0  0  0  0  0  0
   -0.9002   22.7232  -19.8729 C   0  0  0  0  0  0  0  0  0  0  0  0
   -0.6246   24.0336  -19.5530 O   0  0  0  0  0  0  0  0  0  0  0  0
   -0.4303   24.1365  -18.5910 H   0  0  0  0  0  0  0  0  0  0  0  0
   -2.0397   22.1549  -19.0388 C   0  0  0  0  0  0  0  0  0  0  0  0
   -2.9899   23.1289  -18.7647 O   0  0  0  0  0  0  0  0  0  0  0  0
   -3.7132   22.7037  -18.2474 H   0  0  0  0  0  0  0  0  0  0  0  0
   -5.9250   23.5553  -26.8840 C   0  0  0  0  0  0  0  0  0  0  0  0
   -7.0514   23.7912  -27.0028 N   0  0  0  0  0  0  0  0  0  0  0  0
   -4.3138   23.5550  -29.0777 O   0  0  0  0  0  0  0  0  0  0  0  0
   -3.5620   25.5914  -30.0335 C   0  0  0  0  0  0  0  0  0  0  0  0
   -4.7486   24.7835  -29.5485 C   0  0  0  0  0  0  0  0  0  0  0  0
   -5.6314   24.5124  -30.7713 C   0  0  0  0  0  0  0  0  0  0  0  0
 22 23  1  0  0  0
 23 24  1  0  0  0
 23 21  1  0  0  0
 21  1  1  0  0  0
  1  2  2  0  0  0
  2  3  1  0  0  0
  3  4  2  0  0  0
  4  5  1  0  0  0
  5  6  2  0  0  0
  6 19  1  0  0  0
 19 20  3  0  0  0
  4  7  1  0  0  0
  7  8  2  0  0  0
  8  9  1  0  0  0
  9 10  1  0  0  0
  9 11  2  0  0  0
 11 12  1  0  0  0
 11 13  1  0  0  0
 13 14  1  0  0  0
 13 16  1  0  0  0
 16 17  1  0  0  0
  6  1  1  0  0  0
 12  7  1  0  0  0
 14 15  1  0  0  0
 17 18  1  0  0  0
M  END
> <minimizedAffinity>
-7.30602

> <CNNscore>
0.2737165391

> <CNNaffinity>
5.3417921066

> <CNN_VS>
1.4621368647

> <CNNaffinity_variance>
0.0929098800

$$$$
[H]c1c([H])c([H])c(C([H])([H])C([H])([H])N([H])C(=O)C(=O)[C@@]([H])(N([H])C(=O)[C@@]2([H])N(C(=O)C3(c4c([H])c([H])c(Cl)c([H])c4[H])C([H])([H])C3([H])[H])C([H])([H])[C@]([H])(S(=O)(=O)c3c([H])c([H])c([H])c([H])c3Cl)C2([H])[H])C([H])([H])C([H])([H])[H])c([H])c1[H]


 48 52  0  0  0  0  0  0  0  0999 V2000
   -6.4367   22.8939  -22.5982 C   0  0  0  0  0  0  0  0  0  0  0  0
   -6.7303   22.6948  -24.1060 C   0  0  0  0  0  0  0  0  0  0  0  0
   -5.6855   23.6490  -24.7660 C   0  0  0  0  0  0  0  0  0  0  0  0
   -4.9828   24.2382  -23.5749 C   0  0  0  0  0  0  0  0  0  0  0  0
   -5.0290   23.0445  -22.6869 N   0  0  0  0  0  0  0  0  0  0  0  0
   -3.9607   22.3234  -22.2268 C   0  0  0  0  0  0  0  0  0  0  0  0
   -4.2327   21.1806  -21.6283 O   0  0  0  0  0  0  0  0  0  0  0  0
   -6.8539   22.1055  -20.3158 N   0  0  0  0  0  0  0  0  0  0  0  0
   -7.1120   21.9954  -21.7284 C   0  0  0  0  0  0  0  0  0  0  0  0
   -7.9183   21.1107  -22.0912 O   0  0  0  0  0  0  0  0  0  0  0  0
   -6.1977   22.8153  -19.9798 H   0  0  0  0  0  0  0  0  0  0  0  0
   -7.5021   21.2330  -19.3488 C   0  0  0  0  0  0  0  0  0  0  0  0
   -6.7371   19.0238  -18.4146 C   0  0  0  0  0  0  0  0  0  0  0  0
   -6.4086   20.4782  -18.5616 C   0  0  0  0  0  0  0  0  0  0  0  0
   -8.2252   22.0515  -18.3554 C   0  0  0  0  0  0  0  0  0  0  0  0
   -7.6927   23.1154  -17.9189 O   0  0  0  0  0  0  0  0  0  0  0  0
   -9.5508   21.7079  -17.8298 C   0  0  0  0  0  0  0  0  0  0  0  0
  -10.3404   22.6586  -17.6665 O   0  0  0  0  0  0  0  0  0  0  0  0
   -9.9232   20.3951  -17.5244 N   0  0  0  0  0  0  0  0  0  0  0  0
   -9.1075   19.6803  -17.7090 H   0  0  0  0  0  0  0  0  0  0  0  0
  -11.1038   19.8194  -17.0435 C   0  0  0  0  0  0  0  0  0  0  0  0
  -11.1588   18.5761  -16.2809 C   0  0  0  0  0  0  0  0  0  0  0  0
  -10.0203   17.6883  -16.2992 C   0  0  0  0  0  0  0  0  0  0  0  0
   -9.0129   17.8481  -15.3391 C   0  0  0  0  0  0  0  0  0  0  0  0
   -7.8891   17.0614  -15.3841 C   0  0  0  0  0  0  0  0  0  0  0  0
   -7.7697   16.1208  -16.3799 C   0  0  0  0  0  0  0  0  0  0  0  0
   -8.7471   15.9425  -17.3383 C   0  0  0  0  0  0  0  0  0  0  0  0
   -9.8780   16.7203  -17.3092 C   0  0  0  0  0  0  0  0  0  0  0  0
   -2.5058   22.5547  -22.2526 C   0  0  0  0  0  0  0  0  0  0  0  0
   -1.9521   23.5915  -21.3408 C   0  0  0  0  0  0  0  0  0  0  0  0
   -1.5913   22.1941  -21.1401 C   0  0  0  0  0  0  0  0  0  0  0  0
   -1.8581   22.4092  -23.6070 C   0  0  0  0  0  0  0  0  0  0  0  0
   -2.5557   22.0646  -24.7235 C   0  0  0  0  0  0  0  0  0  0  0  0
   -1.8696   21.9653  -25.9359 C   0  0  0  0  0  0  0  0  0  0  0  0
   -0.5216   22.1996  -26.0530 C   0  0  0  0  0  0  0  0  0  0  0  0
    0.2988   22.0596  -27.6151 Cl  0  0  0  0  0  0  0  0  0  0  0  0
    0.1817   22.5482  -24.9189 C   0  0  0  0  0  0  0  0  0  0  0  0
   -0.4837   22.6502  -23.7141 C   0  0  0  0  0  0  0  0  0  0  0  0
   -6.4894   24.7232  -25.8647 S   0  0  0  0  0  0  0  0  0  0  0  0
   -6.5550   26.0911  -25.2162 O   0  0  0  0  0  0  0  0  0  0  0  0
   -7.9265   24.2257  -26.0269 O   0  0  0  0  0  0  0  0  0  0  0  0
   -5.7213   24.8371  -27.4079 C   0  0  0  0  0  0  0  0  0  0  0  0
   -6.1032   23.9108  -28.3920 C   0  0  0  0  0  0  0  0  0  0  0  0
   -5.5010   23.8876  -29.6155 C   0  0  0  0  0  0  0  0  0  0  0  0
   -4.5053   24.7621  -29.9313 C   0  0  0  0  0  0  0  0  0  0  0  0
   -4.1082   25.6820  -28.9929 C   0  0  0  0  0  0  0  0  0  0  0  0
   -4.7300   25.7066  -27.7320 C   0  0  0  0  0  0  0  0  0  0  0  0
   -4.2651   26.9520  -26.5810 Cl  0  0  0  0  0  0  0  0  0  0  0  0
 13 14  1  0  0  0
 14 12  1  0  0  0
 12  8  1  0  0  0
  8  9  1  0  0  0
  9 10  2  0  0  0
  9  1  1  0  0  0
  1  2  1  0  0  0
  2  3  1  0  0  0
  3  4  1  0  0  0
  4  5  1  0  0  0
  5  6  1  0  0  0
  6  7  2  0  0  0
  6 29  1  0  0  0
 29 30  1  0  0  0
 30 31  1  0  0  0
 29 32  1  0  0  0
 32 33  2  0  0  0
 33 34  1  0  0  0
 34 35  2  0  0  0
 35 36  1  0  0  0
 35 37  1  0  0  0
 37 38  2  0  0  0
  3 39  1  0  0  0
 39 40  2  0  0  0
 39 41  2  0  0  0
 39 42  1  0  0  0
 42 43  2  0  0  0
 43 44  1  0  0  0
 44 45  2  0  0  0
 45 46  1  0  0  0
 46 47  2  0  0  0
 47 48  1  0  0  0
 12 15  1  0  0  0
 15 16  2  0  0  0
 15 17  1  0  0  0
 17 18  2  0  0  0
 17 19  1  0  0  0
 19 21  1  0  0  0
 21 22  1  0  0  0
 22 23  1  0  0  0
 23 24  2  0  0  0
 24 25  1  0  0  0
 25 26  2  0  0  0
 26 27  1  0  0  0
 27 28  2  0  0  0
  5  1  1  0  0  0
 31 29  1  0  0  0
 38 32  1  0  0  0
 47 42  1  0  0  0
 28 23  1  0  0  0
  8 11  1  0  0  0
 19 20  1  0  0  0
M  END
> <minimizedAffinity>
-8.19262

> <CNNscore>
0.3227412105

> <CNNaffinity>
7.3010306358

> <CNN_VS>
2.3563435078

> <CNNaffinity_variance>
0.1069847122

$$$$
[H]c1c([H])c([H])c(C([H])([H])C([H])([H])N([H])C(=O)C(=O)[C@@]([H])(N([H])C(=O)[C@@]2([H])N(C(=O)C3(c4c([H])c([H])c(Cl)c([H])c4[H])C([H])([H])C3([H])[H])C([H])([H])[C@]([H])(S(=O)(=O)c3c([H])c([H])c([H])c([H])c3Cl)C2([H])[H])C([H])([H])C([H])([H])[H])c([H])c1[H]


 48 52  0  0  0  0  0  0  0  0999 V2000
   -3.5031   22.5401  -21.7203 C   0  0  0  0  0  0  0  0  0  0  0  0
   -4.6333   23.5959  -21.8064 C   0  0  0  0  0  0  0  0  0  0  0  0
   -5.7600   22.9313  -20.9539 C   0  0  0  0  0  0  0  0  0  0  0  0
   -5.1286   21.6340  -20.5322 C   0  0  0  0  0  0  0  0  0  0  0  0
   -3.7277   22.1153  -20.3857 N   0  0  0  0  0  0  0  0  0  0  0  0
   -2.9975   22.1729  -19.2296 C   0  0  0  0  0  0  0  0  0  0  0  0
   -1.8548   22.8281  -19.2845 O   0  0  0  0  0  0  0  0  0  0  0  0
   -1.4529   21.9690  -22.9349 N   0  0  0  0  0  0  0  0  0  0  0  0
   -2.2504   22.9531  -22.2496 C   0  0  0  0  0  0  0  0  0  0  0  0
   -1.7802   24.1094  -22.1691 O   0  0  0  0  0  0  0  0  0  0  0  0
   -1.8020   21.0107  -23.0189 H   0  0  0  0  0  0  0  0  0  0  0  0
   -0.1597   22.2996  -23.5136 C   0  0  0  0  0  0  0  0  0  0  0  0
    0.5338   21.0298  -21.4533 C   0  0  0  0  0  0  0  0  0  0  0  0
    0.9140   21.4081  -22.8523 C   0  0  0  0  0  0  0  0  0  0  0  0
   -0.1568   21.9431  -24.9463 C   0  0  0  0  0  0  0  0  0  0  0  0
    0.9091   21.5108  -25.4783 O   0  0  0  0  0  0  0  0  0  0  0  0
   -1.3338   22.0568  -25.8143 C   0  0  0  0  0  0  0  0  0  0  0  0
   -2.3805   21.5270  -25.3927 O   0  0  0  0  0  0  0  0  0  0  0  0
   -1.3006   22.7179  -27.0461 N   0  0  0  0  0  0  0  0  0  0  0  0
   -0.3000   23.1127  -27.2767 H   0  0  0  0  0  0  0  0  0  0  0  0
   -2.2674   22.9754  -28.0236 C   0  0  0  0  0  0  0  0  0  0  0  0
   -3.4578   23.7912  -27.8052 C   0  0  0  0  0  0  0  0  0  0  0  0
   -4.2080   24.2610  -28.9459 C   0  0  0  0  0  0  0  0  0  0  0  0
   -5.1617   23.4182  -29.5314 C   0  0  0  0  0  0  0  0  0  0  0  0
   -5.8331   23.8188  -30.6595 C   0  0  0  0  0  0  0  0  0  0  0  0
   -5.5562   25.0519  -31.2010 C   0  0  0  0  0  0  0  0  0  0  0  0
   -4.6215   25.9018  -30.6445 C   0  0  0  0  0  0  0  0  0  0  0  0
   -3.9401   25.5180  -29.5162 C   0  0  0  0  0  0  0  0  0  0  0  0
   -3.2166   21.6373  -17.8747 C   0  0  0  0  0  0  0  0  0  0  0  0
   -3.4050   20.1687  -17.7315 C   0  0  0  0  0  0  0  0  0  0  0  0
   -2.2296   20.8009  -17.1465 C   0  0  0  0  0  0  0  0  0  0  0  0
   -4.0132   22.5286  -16.9548 C   0  0  0  0  0  0  0  0  0  0  0  0
   -3.9940   22.3943  -15.6007 C   0  0  0  0  0  0  0  0  0  0  0  0
   -4.7571   23.2750  -14.8310 C   0  0  0  0  0  0  0  0  0  0  0  0
   -5.5270   24.2715  -15.3787 C   0  0  0  0  0  0  0  0  0  0  0  0
   -6.4756   25.3611  -14.3562 Cl  0  0  0  0  0  0  0  0  0  0  0  0
   -5.5439   24.4040  -16.7515 C   0  0  0  0  0  0  0  0  0  0  0  0
   -4.7943   23.5406  -17.5244 C   0  0  0  0  0  0  0  0  0  0  0  0
   -7.2293   22.8736  -21.8732 S   0  0  0  0  0  0  0  0  0  0  0  0
   -8.2588   23.7283  -21.1621 O   0  0  0  0  0  0  0  0  0  0  0  0
   -7.7352   21.4306  -21.8435 O   0  0  0  0  0  0  0  0  0  0  0  0
   -7.0454   23.4063  -23.5063 C   0  0  0  0  0  0  0  0  0  0  0  0
   -7.5871   24.6569  -23.8451 C   0  0  0  0  0  0  0  0  0  0  0  0
   -7.5446   25.1246  -25.1256 C   0  0  0  0  0  0  0  0  0  0  0  0
   -6.9749   24.3969  -26.1265 C   0  0  0  0  0  0  0  0  0  0  0  0
   -6.4344   23.1703  -25.8299 C   0  0  0  0  0  0  0  0  0  0  0  0
   -6.4772   22.6890  -24.5094 C   0  0  0  0  0  0  0  0  0  0  0  0
   -5.6987   21.1564  -24.1396 Cl  0  0  0  0  0  0  0  0  0  0  0  0
 13 14  1  0  0  0
 14 12  1  0  0  0
 12  8  1  0  0  0
  8  9  1  0  0  0
  9 10  2  0  0  0
  9  1  1  0  0  0
  1  2  1  0  0  0
  2  3  1  0  0  0
  3  4  1  0  0  0
  4  5  1  0  0  0
  5  6  1  0  0  0
  6  7  2  0  0  0
  6 29  1  0  0  0
 29 30  1  0  0  0
 30 31  1  0  0  0
 29 32  1  0  0  0
 32 33  2  0  0  0
 33 34  1  0  0  0
 34 35  2  0  0  0
 35 36  1  0  0  0
 35 37  1  0  0  0
 37 38  2  0  0  0
  3 39  1  0  0  0
 39 40  2  0  0  0
 39 41  2  0  0  0
 39 42  1  0  0  0
 42 43  2  0  0  0
 43 44  1  0  0  0
 44 45  2  0  0  0
 45 46  1  0  0  0
 46 47  2  0  0  0
 47 48  1  0  0  0
 12 15  1  0  0  0
 15 16  2  0  0  0
 15 17  1  0  0  0
 17 18  2  0  0  0
 17 19  1  0  0  0
 19 21  1  0  0  0
 21 22  1  0  0  0
 22 23  1  0  0  0
 23 24  2  0  0  0
 24 25  1  0  0  0
 25 26  2  0  0  0
 26 27  1  0  0  0
 27 28  2  0  0  0
  5  1  1  0  0  0
 31 29  1  0  0  0
 38 32  1  0  0  0
 47 42  1  0  0  0
 28 23  1  0  0  0
  8 11  1  0  0  0
 19 20  1  0  0  0
M  END
> <minimizedAffinity>
-9.77438

> <CNNscore>
0.2891825140

> <CNNaffinity>
7.4457216263

> <CNN_VS>
2.1531724930

> <CNNaffinity_variance>
0.2619228661

$$$$
[H]c1c([H])c([H])c(C([H])([H])C([H])([H])N([H])C(=O)C(=O)[C@@]([H])(N([H])C(=O)[C@@]2([H])N(C(=O)C3(c4c([H])c([H])c(Cl)c([H])c4[H])C([H])([H])C3([H])[H])C([H])([H])[C@]([H])(S(=O)(=O)c3c([H])c([H])c([H])c([H])c3Cl)C2([H])[H])C([H])([H])C([H])([H])[H])c([H])c1[H]


 48 52  0  0  0  0  0  0  0  0999 V2000
   -4.9818   24.4715  -22.3541 C   0  0  0  0  0  0  0  0  0  0  0  0
   -5.7405   24.2934  -23.6928 C   0  0  0  0  0  0  0  0  0  0  0  0
   -4.5935   24.4655  -24.7381 C   0  0  0  0  0  0  0  0  0  0  0  0
   -3.3939   24.7184  -23.8683 C   0  0  0  0  0  0  0  0  0  0  0  0
   -3.7679   23.8393  -22.7268 N   0  0  0  0  0  0  0  0  0  0  0  0
   -3.1077   22.7166  -22.3062 C   0  0  0  0  0  0  0  0  0  0  0  0
   -3.7241   21.9684  -21.4128 O   0  0  0  0  0  0  0  0  0  0  0  0
   -6.9647   23.4372  -21.3526 N   0  0  0  0  0  0  0  0  0  0  0  0
   -5.7376   24.1728  -21.1881 C   0  0  0  0  0  0  0  0  0  0  0  0
   -5.4223   24.4983  -20.0223 O   0  0  0  0  0  0  0  0  0  0  0  0
   -7.2585   23.1555  -22.2916 H   0  0  0  0  0  0  0  0  0  0  0  0
   -7.8021   23.0815  -20.2174 C   0  0  0  0  0  0  0  0  0  0  0  0
  -10.2161   23.4334  -19.5952 C   0  0  0  0  0  0  0  0  0  0  0  0
   -9.2720   23.0374  -20.6891 C   0  0  0  0  0  0  0  0  0  0  0  0
   -7.4762   21.7107  -19.7765 C   0  0  0  0  0  0  0  0  0  0  0  0
   -8.0317   20.7246  -20.3467 O   0  0  0  0  0  0  0  0  0  0  0  0
   -6.5284   21.4075  -18.6989 C   0  0  0  0  0  0  0  0  0  0  0  0
   -7.0136   20.9071  -17.6653 O   0  0  0  0  0  0  0  0  0  0  0  0
   -5.1572   21.6589  -18.8084 N   0  0  0  0  0  0  0  0  0  0  0  0
   -4.8966   22.1167  -19.7743 H   0  0  0  0  0  0  0  0  0  0  0  0
   -4.0709   21.4460  -17.9533 C   0  0  0  0  0  0  0  0  0  0  0  0
   -3.0904   20.3782  -18.1230 C   0  0  0  0  0  0  0  0  0  0  0  0
   -1.6865   20.7125  -18.1677 C   0  0  0  0  0  0  0  0  0  0  0  0
   -1.2861   22.0237  -17.8793 C   0  0  0  0  0  0  0  0  0  0  0  0
    0.0354   22.3785  -17.9869 C   0  0  0  0  0  0  0  0  0  0  0  0
    0.9528   21.4324  -18.3794 C   0  0  0  0  0  0  0  0  0  0  0  0
    0.5854   20.1338  -18.6696 C   0  0  0  0  0  0  0  0  0  0  0  0
   -0.7318   19.7608  -18.5677 C   0  0  0  0  0  0  0  0  0  0  0  0
   -1.7978   22.1342  -22.6466 C   0  0  0  0  0  0  0  0  0  0  0  0
   -0.7258   22.1887  -21.6168 C   0  0  0  0  0  0  0  0  0  0  0  0
   -1.2578   20.8965  -22.0298 C   0  0  0  0  0  0  0  0  0  0  0  0
   -1.3804   22.2948  -24.0872 C   0  0  0  0  0  0  0  0  0  0  0  0
   -0.1800   22.8224  -24.4515 C   0  0  0  0  0  0  0  0  0  0  0  0
    0.1216   22.9205  -25.8116 C   0  0  0  0  0  0  0  0  0  0  0  0
   -0.7389   22.5086  -26.7993 C   0  0  0  0  0  0  0  0  0  0  0  0
   -0.3062   22.6559  -28.5092 Cl  0  0  0  0  0  0  0  0  0  0  0  0
   -1.9545   21.9747  -26.4258 C   0  0  0  0  0  0  0  0  0  0  0  0
   -2.2656   21.8716  -25.0852 C   0  0  0  0  0  0  0  0  0  0  0  0
   -5.0399   25.6731  -25.8998 S   0  0  0  0  0  0  0  0  0  0  0  0
   -4.0926   26.8452  -25.7423 O   0  0  0  0  0  0  0  0  0  0  0  0
   -6.4410   26.1667  -25.5362 O   0  0  0  0  0  0  0  0  0  0  0  0
   -5.0132   25.1070  -27.5318 C   0  0  0  0  0  0  0  0  0  0  0  0
   -4.1894   25.7898  -28.4414 C   0  0  0  0  0  0  0  0  0  0  0  0
   -4.1583   25.4510  -29.7621 C   0  0  0  0  0  0  0  0  0  0  0  0
   -4.9252   24.4368  -30.2511 C   0  0  0  0  0  0  0  0  0  0  0  0
   -5.7413   23.7472  -29.3890 C   0  0  0  0  0  0  0  0  0  0  0  0
   -5.7721   24.0959  -28.0272 C   0  0  0  0  0  0  0  0  0  0  0  0
   -6.7573   23.1394  -26.9288 Cl  0  0  0  0  0  0  0  0  0  0  0  0
 13 14  1  0  0  0
 14 12  1  0  0  0
 12  8  1  0  0  0
  8  9  1  0  0  0
  9 10  2  0  0  0
  9  1  1  0  0  0
  1  2  1  0  0  0
  2  3  1  0  0  0
  3  4  1  0  0  0
  4  5  1  0  0  0
  5  6  1  0  0  0
  6  7  2  0  0  0
  6 29  1  0  0  0
 29 30  1  0  0  0
 30 31  1  0  0  0
 29 32  1  0  0  0
 32 33  2  0  0  0
 33 34  1  0  0  0
 34 35  2  0  0  0
 35 36  1  0  0  0
 35 37  1  0  0  0
 37 38  2  0  0  0
  3 39  1  0  0  0
 39 40  2  0  0  0
 39 41  2  0  0  0
 39 42  1  0  0  0
 42 43  2  0  0  0
 43 44  1  0  0  0
 44 45  2  0  0  0
 45 46  1  0  0  0
 46 47  2  0  0  0
 47 48  1  0  0  0
 12 15  1  0  0  0
 15 16  2  0  0  0
 15 17  1  0  0  0
 17 18  2  0  0  0
 17 19  1  0  0  0
 19 21  1  0  0  0
 21 22  1  0  0  0
 22 23  1  0  0  0
 23 24  2  0  0  0
 24 25  1  0  0  0
 25 26  2  0  0  0
 26 27  1  0  0  0
 27 28  2  0  0  0
  5  1  1  0  0  0
 31 29  1  0  0  0
 38 32  1  0  0  0
 47 42  1  0  0  0
 28 23  1  0  0  0
  8 11  1  0  0  0
 19 20  1  0  0  0
M  END
> <minimizedAffinity>
-8.42407

> <CNNscore>
0.2151368707

> <CNNaffinity>
7.6271500587

> <CNN_VS>
1.6408811808

> <CNNaffinity_variance>
0.3967197835

$$$$
[H]c1c([H])c([H])c(C([H])([H])C([H])([H])N([H])C(=O)C(=O)[C@@]([H])(N([H])C(=O)[C@@]2([H])N(C(=O)C3(c4c([H])c([H])c(Cl)c([H])c4[H])C([H])([H])C3([H])[H])C([H])([H])[C@]([H])(S(=O)(=O)c3c([H])c([H])c([H])c([H])c3Cl)C2([H])[H])C([H])([H])C([H])([H])[H])c([H])c1[H]


 48 52  0  0  0  0  0  0  0  0999 V2000
   -5.5497   22.2830  -21.2973 C   0  0  0  0  0  0  0  0  0  0  0  0
   -5.4557   23.2095  -20.0595 C   0  0  0  0  0  0  0  0  0  0  0  0
   -4.2593   22.5812  -19.2774 C   0  0  0  0  0  0  0  0  0  0  0  0
   -3.8697   21.4222  -20.1519 C   0  0  0  0  0  0  0  0  0  0  0  0
   -4.1628   22.0427  -21.4728 N   0  0  0  0  0  0  0  0  0  0  0  0
   -3.2602   22.3361  -22.4589 C   0  0  0  0  0  0  0  0  0  0  0  0
   -3.6973   23.0750  -23.4595 O   0  0  0  0  0  0  0  0  0  0  0  0
   -6.9844   24.0516  -22.2021 N   0  0  0  0  0  0  0  0  0  0  0  0
   -6.4408   22.7226  -22.3135 C   0  0  0  0  0  0  0  0  0  0  0  0
   -6.7941   22.0456  -23.3041 O   0  0  0  0  0  0  0  0  0  0  0  0
   -6.7216   24.6355  -21.4038 H   0  0  0  0  0  0  0  0  0  0  0  0
   -7.9002   24.5900  -23.1961 C   0  0  0  0  0  0  0  0  0  0  0  0
  -10.2509   25.4552  -22.9435 C   0  0  0  0  0  0  0  0  0  0  0  0
   -8.8274   25.6124  -22.5032 C   0  0  0  0  0  0  0  0  0  0  0  0
   -7.1379   25.3521  -24.2050 C   0  0  0  0  0  0  0  0  0  0  0  0
   -6.7941   26.5459  -23.9547 O   0  0  0  0  0  0  0  0  0  0  0  0
   -6.7413   24.8056  -25.5071 C   0  0  0  0  0  0  0  0  0  0  0  0
   -7.3969   25.2001  -26.4912 O   0  0  0  0  0  0  0  0  0  0  0  0
   -5.6910   23.8941  -25.6535 N   0  0  0  0  0  0  0  0  0  0  0  0
   -5.2291   23.6370  -24.6886 H   0  0  0  0  0  0  0  0  0  0  0  0
   -5.1189   23.2583  -26.7603 C   0  0  0  0  0  0  0  0  0  0  0  0
   -4.1760   23.8943  -27.6750 C   0  0  0  0  0  0  0  0  0  0  0  0
   -4.6549   24.4008  -28.9395 C   0  0  0  0  0  0  0  0  0  0  0  0
   -5.4784   23.5914  -29.7327 C   0  0  0  0  0  0  0  0  0  0  0  0
   -5.8844   24.0266  -30.9695 C   0  0  0  0  0  0  0  0  0  0  0  0
   -5.4725   25.2610  -31.4134 C   0  0  0  0  0  0  0  0  0  0  0  0
   -4.6611   26.0785  -30.6523 C   0  0  0  0  0  0  0  0  0  0  0  0
   -4.2451   25.6598  -29.4128 C   0  0  0  0  0  0  0  0  0  0  0  0
   -1.8420   21.9902  -22.6586 C   0  0  0  0  0  0  0  0  0  0  0  0
   -0.8986   22.2576  -21.5400 C   0  0  0  0  0  0  0  0  0  0  0  0
   -1.1532   20.8825  -21.9496 C   0  0  0  0  0  0  0  0  0  0  0  0
   -1.3249   22.1921  -24.0612 C   0  0  0  0  0  0  0  0  0  0  0  0
   -0.1104   22.7463  -24.3255 C   0  0  0  0  0  0  0  0  0  0  0  0
    0.2864   22.8821  -25.6576 C   0  0  0  0  0  0  0  0  0  0  0  0
   -0.4939   22.4817  -26.7143 C   0  0  0  0  0  0  0  0  0  0  0  0
    0.0580   22.6772  -28.3846 Cl  0  0  0  0  0  0  0  0  0  0  0  0
   -1.7242   21.9208  -26.4420 C   0  0  0  0  0  0  0  0  0  0  0  0
   -2.1290   21.7804  -25.1301 C   0  0  0  0  0  0  0  0  0  0  0  0
   -4.7375   22.2572  -17.6423 S   0  0  0  0  0  0  0  0  0  0  0  0
   -6.2518   22.2598  -17.5896 O   0  0  0  0  0  0  0  0  0  0  0  0
   -4.2488   23.4217  -16.7799 O   0  0  0  0  0  0  0  0  0  0  0  0
   -4.1275   20.7630  -17.0259 C   0  0  0  0  0  0  0  0  0  0  0  0
   -5.0592   19.7539  -16.7332 C   0  0  0  0  0  0  0  0  0  0  0  0
   -4.6706   18.5684  -16.1821 C   0  0  0  0  0  0  0  0  0  0  0  0
   -3.3632   18.3164  -15.8939 C   0  0  0  0  0  0  0  0  0  0  0  0
   -2.4256   19.2809  -16.1685 C   0  0  0  0  0  0  0  0  0  0  0  0
   -2.8264   20.5025  -16.7379 C   0  0  0  0  0  0  0  0  0  0  0  0
   -1.5958   21.6846  -17.1625 Cl  0  0  0  0  0  0  0  0  0  0  0  0
 13 14  1  0  0  0
 14 12  1  0  0  0
 12  8  1  0  0  0
  8  9  1  0  0  0
  9 10  2  0  0  0
  9  1  1  0  0  0
  1  2  1  0  0  0
  2  3  1  0  0  0
  3  4  1  0  0  0
  4  5  1  0  0  0
  5  6  1  0  0  0
  6  7  2  0  0  0
  6 29  1  0  0  0
 29 30  1  0  0  0
 30 31  1  0  0  0
 29 32  1  0  0  0
 32 33  2  0  0  0
 33 34  1  0  0  0
 34 35  2  0  0  0
 35 36  1  0  0  0
 35 37  1  0  0  0
 37 38  2  0  0  0
  3 39  1  0  0  0
 39 40  2  0  0  0
 39 41  2  0  0  0
 39 42  1  0  0  0
 42 43  2  0  0  0
 43 44  1  0  0  0
 44 45  2  0  0  0
 45 46  1  0  0  0
 46 47  2  0  0  0
 47 48  1  0  0  0
 12 15  1  0  0  0
 15 16  2  0  0  0
 15 17  1  0  0  0
 17 18  2  0  0  0
 17 19  1  0  0  0
 19 21  1  0  0  0
 21 22  1  0  0  0
 22 23  1  0  0  0
 23 24  2  0  0  0
 24 25  1  0  0  0
 25 26  2  0  0  0
 26 27  1  0  0  0
 27 28  2  0  0  0
  5  1  1  0  0  0
 31 29  1  0  0  0
 38 32  1  0  0  0
 47 42  1  0  0  0
 28 23  1  0  0  0
  8 11  1  0  0  0
 19 20  1  0  0  0
M  END
> <minimizedAffinity>
-9.34152

> <CNNscore>
0.2131116241

> <CNNaffinity>
7.4769110680

> <CNN_VS>
1.5934166908

> <CNNaffinity_variance>
0.2874628901

$$$$
[H]c1c([H])c([H])c(C([H])([H])C([H])([H])N([H])C(=O)C(=O)[C@@]([H])(N([H])C(=O)[C@@]2([H])N(C(=O)C3(c4c([H])c([H])c(Cl)c([H])c4[H])C([H])([H])C3([H])[H])C([H])([H])[C@]([H])(S(=O)(=O)c3c([H])c([H])c([H])c([H])c3Cl)C2([H])[H])C([H])([H])C([H])([H])[H])c([H])c1[H]


 48 52  0  0  0  0  0  0  0  0999 V2000
   -3.1807   21.7035  -18.8737 C   0  0  0  0  0  0  0  0  0  0  0  0
   -2.2575   22.2543  -17.7586 C   0  0  0  0  0  0  0  0  0  0  0  0
   -1.0193   21.3096  -17.8700 C   0  0  0  0  0  0  0  0  0  0  0  0
   -1.4132   20.3851  -18.9879 C   0  0  0  0  0  0  0  0  0  0  0  0
   -2.1756   21.3607  -19.8141 N   0  0  0  0  0  0  0  0  0  0  0  0
   -1.8545   21.7980  -21.0707 C   0  0  0  0  0  0  0  0  0  0  0  0
   -2.5465   22.8192  -21.5358 O   0  0  0  0  0  0  0  0  0  0  0  0
   -5.1037   22.1661  -20.3203 N   0  0  0  0  0  0  0  0  0  0  0  0
   -4.3285   22.4941  -19.1518 C   0  0  0  0  0  0  0  0  0  0  0  0
   -4.7240   23.4582  -18.4600 O   0  0  0  0  0  0  0  0  0  0  0  0
   -4.8105   21.3856  -20.9138 H   0  0  0  0  0  0  0  0  0  0  0  0
   -6.2968   22.9156  -20.6828 C   0  0  0  0  0  0  0  0  0  0  0  0
   -6.7695   25.3873  -20.7562 C   0  0  0  0  0  0  0  0  0  0  0  0
   -5.8615   24.2931  -21.2287 C   0  0  0  0  0  0  0  0  0  0  0  0
   -6.9842   22.2358  -21.7987 C   0  0  0  0  0  0  0  0  0  0  0  0
   -8.0660   21.6139  -21.5773 O   0  0  0  0  0  0  0  0  0  0  0  0
   -6.4875   22.2344  -23.1788 C   0  0  0  0  0  0  0  0  0  0  0  0
   -5.7052   21.3118  -23.4802 O   0  0  0  0  0  0  0  0  0  0  0  0
   -6.8599   23.2044  -24.1147 N   0  0  0  0  0  0  0  0  0  0  0  0
   -7.5399   23.9547  -23.6843 H   0  0  0  0  0  0  0  0  0  0  0  0
   -6.5494   23.4061  -25.4635 C   0  0  0  0  0  0  0  0  0  0  0  0
   -5.4982   24.3003  -25.9385 C   0  0  0  0  0  0  0  0  0  0  0  0
   -5.2682   24.4244  -27.3585 C   0  0  0  0  0  0  0  0  0  0  0  0
   -5.7405   23.4238  -28.2179 C   0  0  0  0  0  0  0  0  0  0  0  0
   -5.4691   23.4873  -29.5618 C   0  0  0  0  0  0  0  0  0  0  0  0
   -4.7316   24.5415  -30.0468 C   0  0  0  0  0  0  0  0  0  0  0  0
   -4.2541   25.5406  -29.2224 C   0  0  0  0  0  0  0  0  0  0  0  0
   -4.5156   25.4937  -27.8756 C   0  0  0  0  0  0  0  0  0  0  0  0
   -0.8608   21.3569  -22.0650 C   0  0  0  0  0  0  0  0  0  0  0  0
    0.5762   21.4239  -21.6864 C   0  0  0  0  0  0  0  0  0  0  0  0
   -0.0421   20.1263  -21.9260 C   0  0  0  0  0  0  0  0  0  0  0  0
   -1.2117   21.6618  -23.4999 C   0  0  0  0  0  0  0  0  0  0  0  0
   -2.4735   21.5318  -23.9930 C   0  0  0  0  0  0  0  0  0  0  0  0
   -2.7029   21.8488  -25.3336 C   0  0  0  0  0  0  0  0  0  0  0  0
   -1.7123   22.2859  -26.1782 C   0  0  0  0  0  0  0  0  0  0  0  0
   -2.0582   22.6742  -27.8700 Cl  0  0  0  0  0  0  0  0  0  0  0  0
   -0.4349   22.4160  -25.6746 C   0  0  0  0  0  0  0  0  0  0  0  0
   -0.1938   22.1064  -24.3514 C   0  0  0  0  0  0  0  0  0  0  0  0
   -0.6679   20.6235  -16.3166 S   0  0  0  0  0  0  0  0  0  0  0  0
    0.5793   21.2965  -15.7804 O   0  0  0  0  0  0  0  0  0  0  0  0
   -0.3335   19.1465  -16.5301 O   0  0  0  0  0  0  0  0  0  0  0  0
   -1.9601   20.7831  -15.1811 C   0  0  0  0  0  0  0  0  0  0  0  0
   -1.7958   21.7092  -14.1382 C   0  0  0  0  0  0  0  0  0  0  0  0
   -2.7374   21.8516  -13.1618 C   0  0  0  0  0  0  0  0  0  0  0  0
   -3.8743   21.1012  -13.1597 C   0  0  0  0  0  0  0  0  0  0  0  0
   -4.0675   20.1870  -14.1655 C   0  0  0  0  0  0  0  0  0  0  0  0
   -3.0973   20.0413  -15.1727 C   0  0  0  0  0  0  0  0  0  0  0  0
   -3.4105   18.9283  -16.4976 Cl  0  0  0  0  0  0  0  0  0  0  0  0
 13 14  1  0  0  0
 14 12  1  0  0  0
 12  8  1  0  0  0
  8  9  1  0  0  0
  9 10  2  0  0  0
  9  1  1  0  0  0
  1  2  1  0  0  0
  2  3  1  0  0  0
  3  4  1  0  0  0
  4  5  1  0  0  0
  5  6  1  0  0  0
  6  7  2  0  0  0
  6 29  1  0  0  0
 29 30  1  0  0  0
 30 31  1  0  0  0
 29 32  1  0  0  0
 32 33  2  0  0  0
 33 34  1  0  0  0
 34 35  2  0  0  0
 35 36  1  0  0  0
 35 37  1  0  0  0
 37 38  2  0  0  0
  3 39  1  0  0  0
 39 40  2  0  0  0
 39 41  2  0  0  0
 39 42  1  0  0  0
 42 43  2  0  0  0
 43 44  1  0  0  0
 44 45  2  0  0  0
 45 46  1  0  0  0
 46 47  2  0  0  0
 47 48  1  0  0  0
 12 15  1  0  0  0
 15 16  2  0  0  0
 15 17  1  0  0  0
 17 18  2  0  0  0
 17 19  1  0  0  0
 19 21  1  0  0  0
 21 22  1  0  0  0
 22 23  1  0  0  0
 23 24  2  0  0  0
 24 25  1  0  0  0
 25 26  2  0  0  0
 26 27  1  0  0  0
 27 28  2  0  0  0
  5  1  1  0  0  0
 31 29  1  0  0  0
 38 32  1  0  0  0
 47 42  1  0  0  0
 28 23  1  0  0  0
  8 11  1  0  0  0
 19 20  1  0  0  0
M  END
> <minimizedAffinity>
-8.08334

> <CNNscore>
0.1987975240

> <CNNaffinity>
7.0090761185

> <CNN_VS>
1.3933869600

> <CNNaffinity_variance>
0.3954661191

$$$$
[H]c1c([H])c([H])c(C([H])([H])C([H])([H])N([H])C(=O)C(=O)[C@@]([H])(N([H])C(=O)[C@@]2([H])N(C(=O)C3(c4c([H])c([H])c(Cl)c([H])c4[H])C([H])([H])C3([H])[H])C([H])([H])[C@]([H])(S(=O)(=O)c3c([H])c([H])c([H])c([H])c3Cl)C2([H])[H])C([H])([H])C([H])([H])[H])c([H])c1[H]


 48 52  0  0  0  0  0  0  0  0999 V2000
   -5.6190   22.1832  -21.6794 C   0  0  0  0  0  0  0  0  0  0  0  0
   -5.6338   23.0177  -20.3745 C   0  0  0  0  0  0  0  0  0  0  0  0
   -4.4715   22.3647  -19.5617 C   0  0  0  0  0  0  0  0  0  0  0  0
   -3.9907   21.2841  -20.4896 C   0  0  0  0  0  0  0  0  0  0  0  0
   -4.2168   21.9928  -21.7789 N   0  0  0  0  0  0  0  0  0  0  0  0
   -3.2619   22.3817  -22.6789 C   0  0  0  0  0  0  0  0  0  0  0  0
   -3.6561   23.1810  -23.6504 O   0  0  0  0  0  0  0  0  0  0  0  0
   -6.9198   24.0333  -22.6226 N   0  0  0  0  0  0  0  0  0  0  0  0
   -6.4557   22.6734  -22.7184 C   0  0  0  0  0  0  0  0  0  0  0  0
   -6.8247   22.0163  -23.7167 O   0  0  0  0  0  0  0  0  0  0  0  0
   -6.6420   24.6025  -21.8187 H   0  0  0  0  0  0  0  0  0  0  0  0
   -7.7757   24.6237  -23.6401 C   0  0  0  0  0  0  0  0  0  0  0  0
   -8.5918   25.5980  -21.4668 C   0  0  0  0  0  0  0  0  0  0  0  0
   -8.7061   25.6516  -22.9598 C   0  0  0  0  0  0  0  0  0  0  0  0
   -6.9493   25.3922  -24.5921 C   0  0  0  0  0  0  0  0  0  0  0  0
   -6.6197   26.5830  -24.3104 O   0  0  0  0  0  0  0  0  0  0  0  0
   -6.4719   24.8555  -25.8709 C   0  0  0  0  0  0  0  0  0  0  0  0
   -6.9837   25.3442  -26.8972 O   0  0  0  0  0  0  0  0  0  0  0  0
   -5.4996   23.8537  -25.9518 N   0  0  0  0  0  0  0  0  0  0  0  0
   -5.1651   23.5209  -24.9579 H   0  0  0  0  0  0  0  0  0  0  0  0
   -4.8766   23.2048  -27.0229 C   0  0  0  0  0  0  0  0  0  0  0  0
   -3.9658   23.8562  -27.9591 C   0  0  0  0  0  0  0  0  0  0  0  0
   -4.4804   24.3472  -29.2155 C   0  0  0  0  0  0  0  0  0  0  0  0
   -4.1006   25.6205  -29.6594 C   0  0  0  0  0  0  0  0  0  0  0  0
   -4.6354   26.1338  -30.8145 C   0  0  0  0  0  0  0  0  0  0  0  0
   -5.5432   25.3829  -31.5235 C   0  0  0  0  0  0  0  0  0  0  0  0
   -5.9348   24.1257  -31.1087 C   0  0  0  0  0  0  0  0  0  0  0  0
   -5.4106   23.5962  -29.9558 C   0  0  0  0  0  0  0  0  0  0  0  0
   -1.8238   22.0887  -22.8080 C   0  0  0  0  0  0  0  0  0  0  0  0
   -0.9315   22.4860  -21.6861 C   0  0  0  0  0  0  0  0  0  0  0  0
   -1.1105   21.0729  -21.9935 C   0  0  0  0  0  0  0  0  0  0  0  0
   -1.2693   22.2056  -24.2059 C   0  0  0  0  0  0  0  0  0  0  0  0
   -0.0525   22.7538  -24.4719 C   0  0  0  0  0  0  0  0  0  0  0  0
    0.3803   22.8081  -25.7987 C   0  0  0  0  0  0  0  0  0  0  0  0
   -0.3669   22.3332  -26.8484 C   0  0  0  0  0  0  0  0  0  0  0  0
    0.2299   22.4268  -28.5120 Cl  0  0  0  0  0  0  0  0  0  0  0  0
   -1.5997   21.7786  -26.5745 C   0  0  0  0  0  0  0  0  0  0  0  0
   -2.0399   21.7184  -25.2678 C   0  0  0  0  0  0  0  0  0  0  0  0
   -5.0441   21.9082  -17.9898 S   0  0  0  0  0  0  0  0  0  0  0  0
   -5.9911   22.9877  -17.5063 O   0  0  0  0  0  0  0  0  0  0  0  0
   -3.8411   21.9000  -17.0455 O   0  0  0  0  0  0  0  0  0  0  0  0
   -5.8345   20.3723  -17.9601 C   0  0  0  0  0  0  0  0  0  0  0  0
   -5.0742   19.2596  -17.5648 C   0  0  0  0  0  0  0  0  0  0  0  0
   -5.6004   18.0014  -17.5759 C   0  0  0  0  0  0  0  0  0  0  0  0
   -6.8842   17.7743  -17.9710 C   0  0  0  0  0  0  0  0  0  0  0  0
   -7.6560   18.8399  -18.3625 C   0  0  0  0  0  0  0  0  0  0  0  0
   -7.1138   20.1372  -18.3498 C   0  0  0  0  0  0  0  0  0  0  0  0
   -8.1503   21.4940  -18.7698 Cl  0  0  0  0  0  0  0  0  0  0  0  0
 13 14  1  0  0  0
 14 12  1  0  0  0
 12  8  1  0  0  0
  8  9  1  0  0  0
  9 10  2  0  0  0
  9  1  1  0  0  0
  1  2  1  0  0  0
  2  3  1  0  0  0
  3  4  1  0  0  0
  4  5  1  0  0  0
  5  6  1  0  0  0
  6  7  2  0  0  0
  6 29  1  0  0  0
 29 30  1  0  0  0
 30 31  1  0  0  0
 29 32  1  0  0  0
 32 33  2  0  0  0
 33 34  1  0  0  0
 34 35  2  0  0  0
 35 36  1  0  0  0
 35 37  1  0  0  0
 37 38  2  0  0  0
  3 39  1  0  0  0
 39 40  2  0  0  0
 39 41  2  0  0  0
 39 42  1  0  0  0
 42 43  2  0  0  0
 43 44  1  0  0  0
 44 45  2  0  0  0
 45 46  1  0  0  0
 46 47  2  0  0  0
 47 48  1  0  0  0
 12 15  1  0  0  0
 15 16  2  0  0  0
 15 17  1  0  0  0
 17 18  2  0  0  0
 17 19  1  0  0  0
 19 21  1  0  0  0
 21 22  1  0  0  0
 22 23  1  0  0  0
 23 24  2  0  0  0
 24 25  1  0  0  0
 25 26  2  0  0  0
 26 27  1  0  0  0
 27 28  2  0  0  0
  5  1  1  0  0  0
 31 29  1  0  0  0
 38 32  1  0  0  0
 47 42  1  0  0  0
 28 23  1  0  0  0
  8 11  1  0  0  0
 19 20  1  0  0  0
M  END
> <minimizedAffinity>
-9.25685

> <CNNscore>
0.1752648950

> <CNNaffinity>
7.4961371422

> <CNN_VS>
1.3138096333

> <CNNaffinity_variance>
0.3207696378

$$$$
[H]c1c([H])c([H])c(C([H])([H])C([H])([H])N([H])C(=O)C(=O)[C@@]([H])(N([H])C(=O)[C@@]2([H])N(C(=O)C3(c4c([H])c([H])c(Cl)c([H])c4[H])C([H])([H])C3([H])[H])C([H])([H])[C@]([H])(S(=O)(=O)c3c([H])c([H])c([H])c([H])c3Cl)C2([H])[H])C([H])([H])C([H])([H])[H])c([H])c1[H]


 48 52  0  0  0  0  0  0  0  0999 V2000
   -2.5100   21.3731  -19.5098 C   0  0  0  0  0  0  0  0  0  0  0  0
   -1.5571   21.8150  -18.3714 C   0  0  0  0  0  0  0  0  0  0  0  0
   -0.2963   20.9365  -18.6480 C   0  0  0  0  0  0  0  0  0  0  0  0
   -0.7092   20.1434  -19.8564 C   0  0  0  0  0  0  0  0  0  0  0  0
   -1.5362   21.1855  -20.5241 N   0  0  0  0  0  0  0  0  0  0  0  0
   -1.2833   21.7859  -21.7277 C   0  0  0  0  0  0  0  0  0  0  0  0
   -2.0259   22.8311  -22.0344 O   0  0  0  0  0  0  0  0  0  0  0  0
   -4.5462   21.8882  -20.7722 N   0  0  0  0  0  0  0  0  0  0  0  0
   -3.6926   22.1502  -19.6422 C   0  0  0  0  0  0  0  0  0  0  0  0
   -4.0561   23.0492  -18.8521 O   0  0  0  0  0  0  0  0  0  0  0  0
   -4.2813   21.1622  -21.4430 H   0  0  0  0  0  0  0  0  0  0  0  0
   -5.7794   22.6293  -20.9882 C   0  0  0  0  0  0  0  0  0  0  0  0
   -6.3083   25.0887  -20.8888 C   0  0  0  0  0  0  0  0  0  0  0  0
   -5.4177   24.0445  -21.4898 C   0  0  0  0  0  0  0  0  0  0  0  0
   -6.5484   21.9967  -22.0783 C   0  0  0  0  0  0  0  0  0  0  0  0
   -7.6229   21.3822  -21.8070 O   0  0  0  0  0  0  0  0  0  0  0  0
   -6.1426   22.0353  -23.4873 C   0  0  0  0  0  0  0  0  0  0  0  0
   -5.3770   21.1263  -23.8636 O   0  0  0  0  0  0  0  0  0  0  0  0
   -6.5801   23.0272  -24.3706 N   0  0  0  0  0  0  0  0  0  0  0  0
   -7.2343   23.7612  -23.8769 H   0  0  0  0  0  0  0  0  0  0  0  0
   -6.3591   23.2667  -25.7308 C   0  0  0  0  0  0  0  0  0  0  0  0
   -5.3676   24.2046  -26.2482 C   0  0  0  0  0  0  0  0  0  0  0  0
   -5.2801   24.4214  -27.6730 C   0  0  0  0  0  0  0  0  0  0  0  0
   -5.6433   23.3875  -28.5457 C   0  0  0  0  0  0  0  0  0  0  0  0
   -5.4986   23.5490  -29.9010 C   0  0  0  0  0  0  0  0  0  0  0  0
   -4.9950   24.7337  -30.3841 C   0  0  0  0  0  0  0  0  0  0  0  0
   -4.6293   25.7684  -29.5466 C   0  0  0  0  0  0  0  0  0  0  0  0
   -4.7669   25.6249  -28.1883 C   0  0  0  0  0  0  0  0  0  0  0  0
   -0.3202   21.5070  -22.8072 C   0  0  0  0  0  0  0  0  0  0  0  0
    1.1247   21.7083  -22.5168 C   0  0  0  0  0  0  0  0  0  0  0  0
    0.6296   20.3661  -22.7936 C   0  0  0  0  0  0  0  0  0  0  0  0
   -0.7992   21.8471  -24.1965 C   0  0  0  0  0  0  0  0  0  0  0  0
   -2.0967   21.7077  -24.5827 C   0  0  0  0  0  0  0  0  0  0  0  0
   -2.4467   22.0594  -25.8882 C   0  0  0  0  0  0  0  0  0  0  0  0
   -1.5403   22.5398  -26.8012 C   0  0  0  0  0  0  0  0  0  0  0  0
   -2.0379   22.9708  -28.4441 Cl  0  0  0  0  0  0  0  0  0  0  0  0
   -0.2263   22.6792  -26.4058 C   0  0  0  0  0  0  0  0  0  0  0  0
    0.1336   22.3356  -25.1185 C   0  0  0  0  0  0  0  0  0  0  0  0
    0.1428   20.0770  -17.2073 S   0  0  0  0  0  0  0  0  0  0  0  0
    1.1512   19.0120  -17.5881 O   0  0  0  0  0  0  0  0  0  0  0  0
   -1.1087   19.3597  -16.6992 O   0  0  0  0  0  0  0  0  0  0  0  0
    0.7928   21.0900  -15.9679 C   0  0  0  0  0  0  0  0  0  0  0  0
    2.1582   21.4097  -16.0419 C   0  0  0  0  0  0  0  0  0  0  0  0
    2.7668   22.1489  -15.0705 C   0  0  0  0  0  0  0  0  0  0  0  0
    2.0741   22.6061  -13.9903 C   0  0  0  0  0  0  0  0  0  0  0  0
    0.7369   22.3129  -13.8872 C   0  0  0  0  0  0  0  0  0  0  0  0
    0.1094   21.5519  -14.8894 C   0  0  0  0  0  0  0  0  0  0  0  0
   -1.6222   21.2669  -14.7788 Cl  0  0  0  0  0  0  0  0  0  0  0  0
 13 14  1  0  0  0
 14 12  1  0  0  0
 12  8  1  0  0  0
  8  9  1  0  0  0
  9 10  2  0  0  0
  9  1  1  0  0  0
  1  2  1  0  0  0
  2  3  1  0  0  0
  3  4  1  0  0  0
  4  5  1  0  0  0
  5  6  1  0  0  0
  6  7  2  0  0  0
  6 29  1  0  0  0
 29 30  1  0  0  0
 30 31  1  0  0  0
 29 32  1  0  0  0
 32 33  2  0  0  0
 33 34  1  0  0  0
 34 35  2  0  0  0
 35 36  1  0  0  0
 35 37  1  0  0  0
 37 38  2  0  0  0
  3 39  1  0  0  0
 39 40  2  0  0  0
 39 41  2  0  0  0
 39 42  1  0  0  0
 42 43  2  0  0  0
 43 44  1  0  0  0
 44 45  2  0  0  0
 45 46  1  0  0  0
 46 47  2  0  0  0
 47 48  1  0  0  0
 12 15  1  0  0  0
 15 16  2  0  0  0
 15 17  1  0  0  0
 17 18  2  0  0  0
 17 19  1  0  0  0
 19 21  1  0  0  0
 21 22  1  0  0  0
 22 23  1  0  0  0
 23 24  2  0  0  0
 24 25  1  0  0  0
 25 26  2  0  0  0
 26 27  1  0  0  0
 27 28  2  0  0  0
  5  1  1  0  0  0
 31 29  1  0  0  0
 38 32  1  0  0  0
 47 42  1  0  0  0
 28 23  1  0  0  0
  8 11  1  0  0  0
 19 20  1  0  0  0
M  END
> <minimizedAffinity>
-8.39438

> <CNNscore>
0.1639208049

> <CNNaffinity>
7.1800675392

> <CNN_VS>
1.1769624949

> <CNNaffinity_variance>
0.2242303193

$$$$
[H]c1c([H])c([H])c(C([H])([H])C([H])([H])N([H])C(=O)C(=O)[C@@]([H])(N([H])C(=O)[C@@]2([H])N(C(=O)C3(c4c([H])c([H])c(Cl)c([H])c4[H])C([H])([H])C3([H])[H])C([H])([H])[C@]([H])(S(=O)(=O)c3c([H])c([H])c([H])c([H])c3Cl)C2([H])[H])C([H])([H])C([H])([H])[H])c([H])c1[H]


 48 52  0  0  0  0  0  0  0  0999 V2000
   -6.0614   21.5371  -20.2996 C   0  0  0  0  0  0  0  0  0  0  0  0
   -6.1129   22.0402  -18.8355 C   0  0  0  0  0  0  0  0  0  0  0  0
   -4.8285   21.3933  -18.2275 C   0  0  0  0  0  0  0  0  0  0  0  0
   -4.2612   20.6343  -19.3944 C   0  0  0  0  0  0  0  0  0  0  0  0
   -4.6545   21.5786  -20.4757 N   0  0  0  0  0  0  0  0  0  0  0  0
   -3.8140   22.2963  -21.2830 C   0  0  0  0  0  0  0  0  0  0  0  0
   -4.3675   23.2310  -22.0300 O   0  0  0  0  0  0  0  0  0  0  0  0
   -7.2818   23.5335  -21.0274 N   0  0  0  0  0  0  0  0  0  0  0  0
   -7.0150   22.1259  -21.1736 C   0  0  0  0  0  0  0  0  0  0  0  0
   -7.6459   21.5178  -22.0662 O   0  0  0  0  0  0  0  0  0  0  0  0
   -6.7876   24.0652  -20.3060 H   0  0  0  0  0  0  0  0  0  0  0  0
   -8.2376   24.2241  -21.8794 C   0  0  0  0  0  0  0  0  0  0  0  0
  -10.6792   24.7951  -21.6533 C   0  0  0  0  0  0  0  0  0  0  0  0
   -9.3390   24.8333  -20.9844 C   0  0  0  0  0  0  0  0  0  0  0  0
   -7.5731   25.3658  -22.5388 C   0  0  0  0  0  0  0  0  0  0  0  0
   -7.8028   26.5423  -22.1276 O   0  0  0  0  0  0  0  0  0  0  0  0
   -6.6415   25.2249  -23.6629 C   0  0  0  0  0  0  0  0  0  0  0  0
   -6.6445   24.1220  -24.2440 O   0  0  0  0  0  0  0  0  0  0  0  0
   -5.7925   26.2580  -24.0720 N   0  0  0  0  0  0  0  0  0  0  0  0
   -5.9017   27.1556  -23.4454 H   0  0  0  0  0  0  0  0  0  0  0  0
   -4.8525   26.3774  -25.1009 C   0  0  0  0  0  0  0  0  0  0  0  0
   -5.1951   26.5391  -26.5104 C   0  0  0  0  0  0  0  0  0  0  0  0
   -5.0197   25.4233  -27.4099 C   0  0  0  0  0  0  0  0  0  0  0  0
   -5.6184   25.4647  -28.6758 C   0  0  0  0  0  0  0  0  0  0  0  0
   -5.5236   24.3841  -29.5168 C   0  0  0  0  0  0  0  0  0  0  0  0
   -4.8364   23.2689  -29.0991 C   0  0  0  0  0  0  0  0  0  0  0  0
   -4.2373   23.2016  -27.8572 C   0  0  0  0  0  0  0  0  0  0  0  0
   -4.3217   24.2727  -27.0026 C   0  0  0  0  0  0  0  0  0  0  0  0
   -2.3595   22.2509  -21.5129 C   0  0  0  0  0  0  0  0  0  0  0  0
   -1.4871   23.0282  -20.5922 C   0  0  0  0  0  0  0  0  0  0  0  0
   -1.3996   21.5737  -20.6052 C   0  0  0  0  0  0  0  0  0  0  0  0
   -1.9419   22.1754  -22.9603 C   0  0  0  0  0  0  0  0  0  0  0  0
   -2.7738   21.7386  -23.9448 C   0  0  0  0  0  0  0  0  0  0  0  0
   -2.2999   21.7149  -25.2583 C   0  0  0  0  0  0  0  0  0  0  0  0
   -1.0313   22.1124  -25.6023 C   0  0  0  0  0  0  0  0  0  0  0  0
   -0.4814   22.0620  -27.2839 Cl  0  0  0  0  0  0  0  0  0  0  0  0
   -0.1913   22.5541  -24.6015 C   0  0  0  0  0  0  0  0  0  0  0  0
   -0.6465   22.5830  -23.2989 C   0  0  0  0  0  0  0  0  0  0  0  0
   -5.2429   20.5121  -16.7926 S   0  0  0  0  0  0  0  0  0  0  0  0
   -3.9657   20.2495  -16.0208 O   0  0  0  0  0  0  0  0  0  0  0  0
   -5.7993   19.1560  -17.2292 O   0  0  0  0  0  0  0  0  0  0  0  0
   -6.3850   21.3276  -15.7852 C   0  0  0  0  0  0  0  0  0  0  0  0
   -7.6327   20.7131  -15.5907 C   0  0  0  0  0  0  0  0  0  0  0  0
   -8.6156   21.3185  -14.8643 C   0  0  0  0  0  0  0  0  0  0  0  0
   -8.4258   22.5433  -14.2989 C   0  0  0  0  0  0  0  0  0  0  0  0
   -7.2171   23.1718  -14.4681 C   0  0  0  0  0  0  0  0  0  0  0  0
   -6.2035   22.5469  -15.2159 C   0  0  0  0  0  0  0  0  0  0  0  0
   -4.6354   23.3325  -15.3419 Cl  0  0  0  0  0  0  0  0  0  0  0  0
 13 14  1  0  0  0
 14 12  1  0  0  0
 12  8  1  0  0  0
  8  9  1  0  0  0
  9 10  2  0  0  0
  9  1  1  0  0  0
  1  2  1  0  0  0
  2  3  1  0  0  0
  3  4  1  0  0  0
  4  5  1  0  0  0
  5  6  1  0  0  0
  6  7  2  0  0  0
  6 29  1  0  0  0
 29 30  1  0  0  0
 30 31  1  0  0  0
 29 32  1  0  0  0
 32 33  2  0  0  0
 33 34  1  0  0  0
 34 35  2  0  0  0
 35 36  1  0  0  0
 35 37  1  0  0  0
 37 38  2  0  0  0
  3 39  1  0  0  0
 39 40  2  0  0  0
 39 41  2  0  0  0
 39 42  1  0  0  0
 42 43  2  0  0  0
 43 44  1  0  0  0
 44 45  2  0  0  0
 45 46  1  0  0  0
 46 47  2  0  0  0
 47 48  1  0  0  0
 12 15  1  0  0  0
 15 16  2  0  0  0
 15 17  1  0  0  0
 17 18  2  0  0  0
 17 19  1  0  0  0
 19 21  1  0  0  0
 21 22  1  0  0  0
 22 23  1  0  0  0
 23 24  2  0  0  0
 24 25  1  0  0  0
 25 26  2  0  0  0
 26 27  1  0  0  0
 27 28  2  0  0  0
  5  1  1  0  0  0
 31 29  1  0  0  0
 38 32  1  0  0  0
 47 42  1  0  0  0
 28 23  1  0  0  0
  8 11  1  0  0  0
 19 20  1  0  0  0
M  END
> <minimizedAffinity>
-8.44729

> <CNNscore>
0.1634138376

> <CNNaffinity>
7.0330533981

> <CNN_VS>
1.1492981911

> <CNNaffinity_variance>
0.3844178617

$$$$
[H]c1c([H])c([H])c(C([H])([H])C([H])([H])N([H])C(=O)C(=O)[C@@]([H])(N([H])C(=O)[C@@]2([H])N(C(=O)C3(c4c([H])c([H])c(Cl)c([H])c4[H])C([H])([H])C3([H])[H])C([H])([H])[C@]([H])(S(=O)(=O)c3c([H])c([H])c([H])c([H])c3Cl)C2([H])[H])C([H])([H])C([H])([H])[H])c([H])c1[H]


 48 52  0  0  0  0  0  0  0  0999 V2000
   -6.3232   22.7804  -22.3815 C   0  0  0  0  0  0  0  0  0  0  0  0
   -6.6330   22.6696  -23.8952 C   0  0  0  0  0  0  0  0  0  0  0  0
   -5.5886   23.6539  -24.5102 C   0  0  0  0  0  0  0  0  0  0  0  0
   -4.8703   24.1698  -23.2947 C   0  0  0  0  0  0  0  0  0  0  0  0
   -4.9155   22.9275  -22.4759 N   0  0  0  0  0  0  0  0  0  0  0  0
   -3.8473   22.1749  -22.0688 C   0  0  0  0  0  0  0  0  0  0  0  0
   -4.1209   21.0013  -21.5339 O   0  0  0  0  0  0  0  0  0  0  0  0
   -6.6049   21.7545  -20.1740 N   0  0  0  0  0  0  0  0  0  0  0  0
   -6.9957   21.8376  -21.5576 C   0  0  0  0  0  0  0  0  0  0  0  0
   -7.9060   21.0686  -21.9379 O   0  0  0  0  0  0  0  0  0  0  0  0
   -5.8613   22.3652  -19.8255 H   0  0  0  0  0  0  0  0  0  0  0  0
   -7.2395   20.8235  -19.2538 C   0  0  0  0  0  0  0  0  0  0  0  0
   -4.9802   19.8260  -18.7651 C   0  0  0  0  0  0  0  0  0  0  0  0
   -6.2129   20.4332  -18.1680 C   0  0  0  0  0  0  0  0  0  0  0  0
   -8.3400   21.5062  -18.5449 C   0  0  0  0  0  0  0  0  0  0  0  0
   -9.5083   21.4786  -19.0350 O   0  0  0  0  0  0  0  0  0  0  0  0
   -8.1669   22.2294  -17.2805 C   0  0  0  0  0  0  0  0  0  0  0  0
   -9.1433   22.2225  -16.5055 O   0  0  0  0  0  0  0  0  0  0  0  0
   -6.9818   22.8931  -16.9482 N   0  0  0  0  0  0  0  0  0  0  0  0
   -6.2276   22.8170  -17.7456 H   0  0  0  0  0  0  0  0  0  0  0  0
   -6.5700   23.6179  -15.8250 C   0  0  0  0  0  0  0  0  0  0  0  0
   -5.1824   23.9685  -15.5384 C   0  0  0  0  0  0  0  0  0  0  0  0
   -4.1304   23.0668  -15.9444 C   0  0  0  0  0  0  0  0  0  0  0  0
   -3.5492   22.2205  -14.9913 C   0  0  0  0  0  0  0  0  0  0  0  0
   -2.4995   21.4086  -15.3417 C   0  0  0  0  0  0  0  0  0  0  0  0
   -2.0316   21.4395  -16.6343 C   0  0  0  0  0  0  0  0  0  0  0  0
   -2.5858   22.2638  -17.5930 C   0  0  0  0  0  0  0  0  0  0  0  0
   -3.6362   23.0828  -17.2608 C   0  0  0  0  0  0  0  0  0  0  0  0
   -2.3914   22.3987  -22.0962 C   0  0  0  0  0  0  0  0  0  0  0  0
   -1.8239   23.3900  -21.1433 C   0  0  0  0  0  0  0  0  0  0  0  0
   -1.4701   21.9828  -21.0089 C   0  0  0  0  0  0  0  0  0  0  0  0
   -1.7555   22.3107  -23.4612 C   0  0  0  0  0  0  0  0  0  0  0  0
   -2.4718   22.0701  -24.5930 C   0  0  0  0  0  0  0  0  0  0  0  0
   -1.7950   22.0175  -25.8135 C   0  0  0  0  0  0  0  0  0  0  0  0
   -0.4381   22.1974  -25.9239 C   0  0  0  0  0  0  0  0  0  0  0  0
    0.3698   22.1205  -27.4968 Cl  0  0  0  0  0  0  0  0  0  0  0  0
    0.2842   22.4408  -24.7744 C   0  0  0  0  0  0  0  0  0  0  0  0
   -0.3718   22.4956  -23.5613 C   0  0  0  0  0  0  0  0  0  0  0  0
   -6.3964   24.7940  -25.5374 S   0  0  0  0  0  0  0  0  0  0  0  0
   -6.2965   26.1595  -24.8883 O   0  0  0  0  0  0  0  0  0  0  0  0
   -7.8771   24.4131  -25.5736 O   0  0  0  0  0  0  0  0  0  0  0  0
   -5.7578   24.8540  -27.1415 C   0  0  0  0  0  0  0  0  0  0  0  0
   -6.1071   23.8135  -28.0176 C   0  0  0  0  0  0  0  0  0  0  0  0
   -5.5953   23.7479  -29.2801 C   0  0  0  0  0  0  0  0  0  0  0  0
   -4.7251   24.6893  -29.7411 C   0  0  0  0  0  0  0  0  0  0  0  0
   -4.3633   25.7212  -28.9111 C   0  0  0  0  0  0  0  0  0  0  0  0
   -4.8921   25.7893  -27.6100 C   0  0  0  0  0  0  0  0  0  0  0  0
   -4.4830   27.1687  -26.5992 Cl  0  0  0  0  0  0  0  0  0  0  0  0
 13 14  1  0  0  0
 14 12  1  0  0  0
 12  8  1  0  0  0
  8  9  1  0  0  0
  9 10  2  0  0  0
  9  1  1  0  0  0
  1  2  1  0  0  0
  2  3  1  0  0  0
  3  4  1  0  0  0
  4  5  1  0  0  0
  5  6  1  0  0  0
  6  7  2  0  0  0
  6 29  1  0  0  0
 29 30  1  0  0  0
 30 31  1  0  0  0
 29 32  1  0  0  0
 32 33  2  0  0  0
 33 34  1  0  0  0
 34 35  2  0  0  0
 35 36  1  0  0  0
 35 37  1  0  0  0
 37 38  2  0  0  0
  3 39  1  0  0  0
 39 40  2  0  0  0
 39 41  2  0  0  0
 39 42  1  0  0  0
 42 43  2  0  0  0
 43 44  1  0  0  0
 44 45  2  0  0  0
 45 46  1  0  0  0
 46 47  2  0  0  0
 47 48  1  0  0  0
 12 15  1  0  0  0
 15 16  2  0  0  0
 15 17  1  0  0  0
 17 18  2  0  0  0
 17 19  1  0  0  0
 19 21  1  0  0  0
 21 22  1  0  0  0
 22 23  1  0  0  0
 23 24  2  0  0  0
 24 25  1  0  0  0
 25 26  2  0  0  0
 26 27  1  0  0  0
 27 28  2  0  0  0
  5  1  1  0  0  0
 31 29  1  0  0  0
 38 32  1  0  0  0
 47 42  1  0  0  0
 28 23  1  0  0  0
  8 11  1  0  0  0
 19 20  1  0  0  0
M  END
> <minimizedAffinity>
-8.21779

> <CNNscore>
0.1556135714

> <CNNaffinity>
7.1527376175

> <CNN_VS>
1.1130630970

> <CNNaffinity_variance>
0.1882760078

$$$$
[H]c1nc(OC([H])([H])[H])c([H])c([H])c1Oc1c([H])c([H])c(C(F)(F)F)c([H])c1C(=O)N([H])c1c([H])c([H])n([H])c(=O)c1[H]


 31 33  0  0  0  0  0  0  0  0999 V2000
   -6.3398   23.6764  -24.6343 C   0  0  0  0  0  0  0  0  0  0  0  0
   -7.6074   24.2298  -24.3048 C   0  0  0  0  0  0  0  0  0  0  0  0
   -7.8428   24.8408  -23.1065 C   0  0  0  0  0  0  0  0  0  0  0  0
   -6.7885   24.8965  -22.2269 C   0  0  0  0  0  0  0  0  0  0  0  0
   -5.5409   24.3779  -22.5042 C   0  0  0  0  0  0  0  0  0  0  0  0
   -5.3097   23.7451  -23.7632 C   0  0  0  0  0  0  0  0  0  0  0  0
   -3.8941   23.5292  -24.0707 C   0  0  0  0  0  0  0  0  0  0  0  0
   -3.0819   24.3320  -23.4471 O   0  0  0  0  0  0  0  0  0  0  0  0
   -3.3431   22.5721  -24.9264 N   0  0  0  0  0  0  0  0  0  0  0  0
   -3.9764   21.9414  -25.4749 H   0  0  0  0  0  0  0  0  0  0  0  0
   -1.9508   22.4271  -25.1390 C   0  0  0  0  0  0  0  0  0  0  0  0
   -1.1218   21.8760  -24.2230 C   0  0  0  0  0  0  0  0  0  0  0  0
    0.2203   21.7307  -24.4873 C   0  0  0  0  0  0  0  0  0  0  0  0
    0.7411   22.1300  -25.6320 N   0  0  0  0  0  0  0  0  0  0  0  0
   -0.0561   22.6896  -26.5794 C   0  0  0  0  0  0  0  0  0  0  0  0
    0.4782   23.0611  -27.6636 O   0  0  0  0  0  0  0  0  0  0  0  0
   -1.3830   22.8379  -26.3403 C   0  0  0  0  0  0  0  0  0  0  0  0
    1.7683   22.0188  -25.8265 H   0  0  0  0  0  0  0  0  0  0  0  0
   -6.9919   25.5781  -20.9184 C   0  0  0  0  0  0  0  0  0  0  0  0
   -5.8253   25.9093  -20.2849 F   0  0  0  0  0  0  0  0  0  0  0  0
   -7.6436   26.7816  -21.2004 F   0  0  0  0  0  0  0  0  0  0  0  0
   -7.8042   24.7547  -20.1748 F   0  0  0  0  0  0  0  0  0  0  0  0
   -6.2719   23.0711  -25.8928 O   0  0  0  0  0  0  0  0  0  0  0  0
   -5.5004   25.6609  -29.1414 C   0  0  0  0  0  0  0  0  0  0  0  0
   -5.3240   24.3084  -29.3059 C   0  0  0  0  0  0  0  0  0  0  0  0
   -5.5657   23.4193  -28.2598 C   0  0  0  0  0  0  0  0  0  0  0  0
   -5.9824   23.8375  -27.0485 C   0  0  0  0  0  0  0  0  0  0  0  0
   -6.1486   25.2384  -26.9252 C   0  0  0  0  0  0  0  0  0  0  0  0
   -5.9098   26.0784  -27.9415 N   0  0  0  0  0  0  0  0  0  0  0  0
   -5.3431   26.1324  -31.4811 C   0  0  0  0  0  0  0  0  0  0  0  0
   -5.2682   26.5543  -30.1402 O   0  0  0  0  0  0  0  0  0  0  0  0
 30 31  1  0  0  0
 31 24  1  0  0  0
 24 25  2  0  0  0
 25 26  1  0  0  0
 26 27  2  0  0  0
 27 23  1  0  0  0
 23  1  1  0  0  0
  1  2  2  0  0  0
  2  3  1  0  0  0
  3  4  2  0  0  0
  4  5  1  0  0  0
  5  6  2  0  0  0
  6  7  1  0  0  0
  7  8  2  0  0  0
  7  9  1  0  0  0
  9 11  1  0  0  0
 11 12  1  0  0  0
 12 13  2  0  0  0
 13 14  1  0  0  0
 14 15  1  0  0  0
 15 16  2  0  0  0
 15 17  1  0  0  0
  4 19  1  0  0  0
 19 20  1  0  0  0
 19 21  1  0  0  0
 19 22  1  0  0  0
 27 28  1  0  0  0
 28 29  2  0  0  0
 29 24  1  0  0  0
  6  1  1  0  0  0
 17 11  2  0  0  0
  9 10  1  0  0  0
 14 18  1  0  0  0
M  END
> <minimizedAffinity>
-8.93400

> <CNNscore>
0.6397513151

> <CNNaffinity>
6.8853693008

> <CNN_VS>
4.4049239159

> <CNNaffinity_variance>
0.1527236700

$$$$
[H]c1nc(OC([H])([H])[H])c([H])c([H])c1Oc1c([H])c([H])c(C(F)(F)F)c([H])c1C(=O)N([H])c1c([H])c([H])n([H])c(=O)c1[H]


 31 33  0  0  0  0  0  0  0  0999 V2000
   -5.6726   22.3707  -24.3445 C   0  0  0  0  0  0  0  0  0  0  0  0
   -5.9618   22.0195  -22.9974 C   0  0  0  0  0  0  0  0  0  0  0  0
   -6.7889   22.7717  -22.2133 C   0  0  0  0  0  0  0  0  0  0  0  0
   -7.3334   23.8928  -22.7920 C   0  0  0  0  0  0  0  0  0  0  0  0
   -7.0854   24.2705  -24.0952 C   0  0  0  0  0  0  0  0  0  0  0  0
   -6.2210   23.4714  -24.9033 C   0  0  0  0  0  0  0  0  0  0  0  0
   -6.2890   23.7794  -26.3336 C   0  0  0  0  0  0  0  0  0  0  0  0
   -7.4962   23.9476  -26.7886 O   0  0  0  0  0  0  0  0  0  0  0  0
   -5.2246   23.9201  -27.2276 N   0  0  0  0  0  0  0  0  0  0  0  0
   -4.2444   23.7470  -26.8978 H   0  0  0  0  0  0  0  0  0  0  0  0
   -5.3943   24.2453  -28.5952 C   0  0  0  0  0  0  0  0  0  0  0  0
   -5.5340   23.3081  -29.5607 C   0  0  0  0  0  0  0  0  0  0  0  0
   -5.7250   23.6741  -30.8728 C   0  0  0  0  0  0  0  0  0  0  0  0
   -5.7687   24.9431  -31.2316 N   0  0  0  0  0  0  0  0  0  0  0  0
   -5.6320   25.9164  -30.2935 C   0  0  0  0  0  0  0  0  0  0  0  0
   -5.6783   27.1213  -30.6743 O   0  0  0  0  0  0  0  0  0  0  0  0
   -5.4472   25.5767  -28.9933 C   0  0  0  0  0  0  0  0  0  0  0  0
   -5.9120   25.2161  -32.2367 H   0  0  0  0  0  0  0  0  0  0  0  0
   -8.2633   24.7282  -21.9824 C   0  0  0  0  0  0  0  0  0  0  0  0
   -7.6591   25.3575  -20.9282 F   0  0  0  0  0  0  0  0  0  0  0  0
   -8.7251   25.7367  -22.8323 F   0  0  0  0  0  0  0  0  0  0  0  0
   -9.2983   23.9040  -21.6080 F   0  0  0  0  0  0  0  0  0  0  0  0
   -4.7935   21.5047  -25.0019 O   0  0  0  0  0  0  0  0  0  0  0  0
   -0.6440   22.2376  -24.6847 C   0  0  0  0  0  0  0  0  0  0  0  0
   -1.2393   22.2787  -25.9223 C   0  0  0  0  0  0  0  0  0  0  0  0
   -2.6048   22.0415  -26.0715 C   0  0  0  0  0  0  0  0  0  0  0  0
   -3.4012   21.7653  -25.0202 C   0  0  0  0  0  0  0  0  0  0  0  0
   -2.7442   21.7318  -23.7662 C   0  0  0  0  0  0  0  0  0  0  0  0
   -1.4298   21.9608  -23.6418 N   0  0  0  0  0  0  0  0  0  0  0  0
    1.4762   21.4770  -23.8802 C   0  0  0  0  0  0  0  0  0  0  0  0
    0.6859   22.4592  -24.5065 O   0  0  0  0  0  0  0  0  0  0  0  0
 30 31  1  0  0  0
 31 24  1  0  0  0
 24 25  2  0  0  0
 25 26  1  0  0  0
 26 27  2  0  0  0
 27 23  1  0  0  0
 23  1  1  0  0  0
  1  2  2  0  0  0
  2  3  1  0  0  0
  3  4  2  0  0  0
  4  5  1  0  0  0
  5  6  2  0  0  0
  6  7  1  0  0  0
  7  8  2  0  0  0
  7  9  1  0  0  0
  9 11  1  0  0  0
 11 12  1  0  0  0
 12 13  2  0  0  0
 13 14  1  0  0  0
 14 15  1  0  0  0
 15 16  2  0  0  0
 15 17  1  0  0  0
  4 19  1  0  0  0
 19 20  1  0  0  0
 19 21  1  0  0  0
 19 22  1  0  0  0
 27 28  1  0  0  0
 28 29  2  0  0  0
 29 24  1  0  0  0
  6  1  1  0  0  0
 17 11  2  0  0  0
  9 10  1  0  0  0
 14 18  1  0  0  0
M  END
> <minimizedAffinity>
-8.90963

> <CNNscore>
0.5909549594

> <CNNaffinity>
6.9177489281

> <CNN_VS>
4.0880780220

> <CNNaffinity_variance>
0.2737748921

$$$$
[H]c1nc(OC([H])([H])[H])c([H])c([H])c1Oc1c([H])c([H])c(C(F)(F)F)c([H])c1C(=O)N([H])c1c([H])c([H])n([H])c(=O)c1[H]


 31 33  0  0  0  0  0  0  0  0999 V2000
   -5.4290   20.3545  -16.6168 C   0  0  0  0  0  0  0  0  0  0  0  0
   -4.6636   19.5349  -15.7428 C   0  0  0  0  0  0  0  0  0  0  0  0
   -3.5560   18.8582  -16.1674 C   0  0  0  0  0  0  0  0  0  0  0  0
   -3.2128   19.0083  -17.4895 C   0  0  0  0  0  0  0  0  0  0  0  0
   -3.9219   19.7954  -18.3727 C   0  0  0  0  0  0  0  0  0  0  0  0
   -5.0758   20.4994  -17.9125 C   0  0  0  0  0  0  0  0  0  0  0  0
   -5.5469   21.5373  -18.8322 C   0  0  0  0  0  0  0  0  0  0  0  0
   -6.5688   21.1869  -19.5573 O   0  0  0  0  0  0  0  0  0  0  0  0
   -5.0371   22.8278  -18.9960 N   0  0  0  0  0  0  0  0  0  0  0  0
   -4.1873   23.1216  -18.4564 H   0  0  0  0  0  0  0  0  0  0  0  0
   -5.5818   23.7712  -19.9003 C   0  0  0  0  0  0  0  0  0  0  0  0
   -5.1669   23.8828  -21.1831 C   0  0  0  0  0  0  0  0  0  0  0  0
   -5.7470   24.7963  -22.0323 C   0  0  0  0  0  0  0  0  0  0  0  0
   -6.7146   25.5947  -21.6234 N   0  0  0  0  0  0  0  0  0  0  0  0
   -7.1608   25.5161  -20.3425 C   0  0  0  0  0  0  0  0  0  0  0  0
   -8.0888   26.2976  -19.9861 O   0  0  0  0  0  0  0  0  0  0  0  0
   -6.6051   24.6189  -19.4903 C   0  0  0  0  0  0  0  0  0  0  0  0
   -7.1517   26.2929  -22.2768 H   0  0  0  0  0  0  0  0  0  0  0  0
   -1.9961   18.3104  -17.9899 C   0  0  0  0  0  0  0  0  0  0  0  0
   -1.1465   17.9077  -16.9958 F   0  0  0  0  0  0  0  0  0  0  0  0
   -2.4433   17.1474  -18.6224 F   0  0  0  0  0  0  0  0  0  0  0  0
   -1.4104   19.1578  -18.9008 F   0  0  0  0  0  0  0  0  0  0  0  0
   -6.5421   20.9622  -16.0281 O   0  0  0  0  0  0  0  0  0  0  0  0
   -6.2349   24.7094  -14.0994 C   0  0  0  0  0  0  0  0  0  0  0  0
   -5.9168   23.5688  -13.4026 C   0  0  0  0  0  0  0  0  0  0  0  0
   -6.0058   22.3127  -14.0005 C   0  0  0  0  0  0  0  0  0  0  0  0
   -6.4017   22.1563  -15.2790 C   0  0  0  0  0  0  0  0  0  0  0  0
   -6.7206   23.3583  -15.9565 C   0  0  0  0  0  0  0  0  0  0  0  0
   -6.6308   24.5573  -15.3651 N   0  0  0  0  0  0  0  0  0  0  0  0
   -6.4250   26.1096  -12.1695 C   0  0  0  0  0  0  0  0  0  0  0  0
   -6.1635   25.9484  -13.5433 O   0  0  0  0  0  0  0  0  0  0  0  0
 30 31  1  0  0  0
 31 24  1  0  0  0
 24 25  2  0  0  0
 25 26  1  0  0  0
 26 27  2  0  0  0
 27 23  1  0  0  0
 23  1  1  0  0  0
  1  2  2  0  0  0
  2  3  1  0  0  0
  3  4  2  0  0  0
  4  5  1  0  0  0
  5  6  2  0  0  0
  6  7  1  0  0  0
  7  8  2  0  0  0
  7  9  1  0  0  0
  9 11  1  0  0  0
 11 12  1  0  0  0
 12 13  2  0  0  0
 13 14  1  0  0  0
 14 15  1  0  0  0
 15 16  2  0  0  0
 15 17  1  0  0  0
  4 19  1  0  0  0
 19 20  1  0  0  0
 19 21  1  0  0  0
 19 22  1  0  0  0
 27 28  1  0  0  0
 28 29  2  0  0  0
 29 24  1  0  0  0
  6  1  1  0  0  0
 17 11  2  0  0  0
  9 10  1  0  0  0
 14 18  1  0  0  0
M  END
> <minimizedAffinity>
-4.30334

> <CNNscore>
0.5493976474

> <CNNaffinity>
5.9019737244

> <CNN_VS>
3.2425305843

> <CNNaffinity_variance>
1.4248259068

$$$$
[H]c1nc(OC([H])([H])[H])c([H])c([H])c1Oc1c([H])c([H])c(C(F)(F)F)c([H])c1C(=O)N([H])c1c([H])c([H])n([H])c(=O)c1[H]


 31 33  0  0  0  0  0  0  0  0999 V2000
   -4.0000   21.8239  -17.1401 C   0  0  0  0  0  0  0  0  0  0  0  0
   -2.8042   21.5201  -16.4334 C   0  0  0  0  0  0  0  0  0  0  0  0
   -1.5688   21.7045  -16.9852 C   0  0  0  0  0  0  0  0  0  0  0  0
   -1.5351   22.2019  -18.2657 C   0  0  0  0  0  0  0  0  0  0  0  0
   -2.6677   22.5150  -18.9880 C   0  0  0  0  0  0  0  0  0  0  0  0
   -3.9522   22.3198  -18.3957 C   0  0  0  0  0  0  0  0  0  0  0  0
   -5.0458   22.9782  -19.1136 C   0  0  0  0  0  0  0  0  0  0  0  0
   -5.1195   22.6712  -20.3758 O   0  0  0  0  0  0  0  0  0  0  0  0
   -5.9956   23.8627  -18.5964 N   0  0  0  0  0  0  0  0  0  0  0  0
   -5.9334   24.1613  -17.5931 H   0  0  0  0  0  0  0  0  0  0  0  0
   -7.0351   24.4302  -19.3724 C   0  0  0  0  0  0  0  0  0  0  0  0
   -6.9159   25.6232  -19.9989 C   0  0  0  0  0  0  0  0  0  0  0  0
   -7.9442   26.1202  -20.7655 C   0  0  0  0  0  0  0  0  0  0  0  0
   -9.0768   25.4579  -20.9063 N   0  0  0  0  0  0  0  0  0  0  0  0
   -9.2385   24.2561  -20.2933 C   0  0  0  0  0  0  0  0  0  0  0  0
  -10.3375   23.6507  -20.4502 O   0  0  0  0  0  0  0  0  0  0  0  0
   -8.2348   23.7464  -19.5365 C   0  0  0  0  0  0  0  0  0  0  0  0
   -9.8601   25.8448  -21.4912 H   0  0  0  0  0  0  0  0  0  0  0  0
   -0.2085   22.4449  -18.8974 C   0  0  0  0  0  0  0  0  0  0  0  0
    0.7171   22.9781  -18.0423 F   0  0  0  0  0  0  0  0  0  0  0  0
    0.2803   21.1921  -19.2771 F   0  0  0  0  0  0  0  0  0  0  0  0
   -0.4439   23.2247  -20.0052 F   0  0  0  0  0  0  0  0  0  0  0  0
   -5.1804   21.5602  -16.4387 O   0  0  0  0  0  0  0  0  0  0  0  0
   -7.1898   24.3295  -13.9590 C   0  0  0  0  0  0  0  0  0  0  0  0
   -5.8178   24.3609  -14.0245 C   0  0  0  0  0  0  0  0  0  0  0  0
   -5.1158   23.4644  -14.8286 C   0  0  0  0  0  0  0  0  0  0  0  0
   -5.7412   22.5338  -15.5759 C   0  0  0  0  0  0  0  0  0  0  0  0
   -7.1538   22.5379  -15.4753 C   0  0  0  0  0  0  0  0  0  0  0  0
   -7.8120   23.4063  -14.6956 N   0  0  0  0  0  0  0  0  0  0  0  0
   -7.2735   25.8311  -12.0992 C   0  0  0  0  0  0  0  0  0  0  0  0
   -7.9033   25.1865  -13.1806 O   0  0  0  0  0  0  0  0  0  0  0  0
 30 31  1  0  0  0
 31 24  1  0  0  0
 24 25  2  0  0  0
 25 26  1  0  0  0
 26 27  2  0  0  0
 27 23  1  0  0  0
 23  1  1  0  0  0
  1  2  2  0  0  0
  2  3  1  0  0  0
  3  4  2  0  0  0
  4  5  1  0  0  0
  5  6  2  0  0  0
  6  7  1  0  0  0
  7  8  2  0  0  0
  7  9  1  0  0  0
  9 11  1  0  0  0
 11 12  1  0  0  0
 12 13  2  0  0  0
 13 14  1  0  0  0
 14 15  1  0  0  0
 15 16  2  0  0  0
 15 17  1  0  0  0
  4 19  1  0  0  0
 19 20  1  0  0  0
 19 21  1  0  0  0
 19 22  1  0  0  0
 27 28  1  0  0  0
 28 29  2  0  0  0
 29 24  1  0  0  0
  6  1  1  0  0  0
 17 11  2  0  0  0
  9 10  1  0  0  0
 14 18  1  0  0  0
M  END
> <minimizedAffinity>
-4.76172

> <CNNscore>
0.5134685040

> <CNNaffinity>
5.5728406906

> <CNN_VS>
2.8614780903

> <CNNaffinity_variance>
0.4028401375

$$$$
[H]c1nc(OC([H])([H])[H])c([H])c([H])c1Oc1c([H])c([H])c(C(F)(F)F)c([H])c1C(=O)N([H])c1c([H])c([H])n([H])c(=O)c1[H]


 31 33  0  0  0  0  0  0  0  0999 V2000
   -3.7822   22.2566  -25.2077 C   0  0  0  0  0  0  0  0  0  0  0  0
   -3.1373   21.9903  -23.9687 C   0  0  0  0  0  0  0  0  0  0  0  0
   -1.7783   21.9138  -23.8601 C   0  0  0  0  0  0  0  0  0  0  0  0
   -1.0571   22.1083  -25.0136 C   0  0  0  0  0  0  0  0  0  0  0  0
   -1.6383   22.3734  -26.2360 C   0  0  0  0  0  0  0  0  0  0  0  0
   -3.0606   22.4537  -26.3325 C   0  0  0  0  0  0  0  0  0  0  0  0
   -3.5406   23.0503  -27.5810 C   0  0  0  0  0  0  0  0  0  0  0  0
   -2.6360   23.1467  -28.5112 O   0  0  0  0  0  0  0  0  0  0  0  0
   -4.8314   23.4994  -27.8712 N   0  0  0  0  0  0  0  0  0  0  0  0
   -5.5687   23.4740  -27.1259 H   0  0  0  0  0  0  0  0  0  0  0  0
   -5.2035   24.0419  -29.1250 C   0  0  0  0  0  0  0  0  0  0  0  0
   -5.5763   23.2750  -30.1751 C   0  0  0  0  0  0  0  0  0  0  0  0
   -5.9569   23.8502  -31.3652 C   0  0  0  0  0  0  0  0  0  0  0  0
   -5.9620   25.1602  -31.5232 N   0  0  0  0  0  0  0  0  0  0  0  0
   -5.5939   25.9672  -30.4939 C   0  0  0  0  0  0  0  0  0  0  0  0
   -5.6103   27.2175  -30.6822 O   0  0  0  0  0  0  0  0  0  0  0  0
   -5.2194   25.4201  -29.3106 C   0  0  0  0  0  0  0  0  0  0  0  0
   -6.2511   25.5934  -32.4365 H   0  0  0  0  0  0  0  0  0  0  0  0
    0.4294   22.0611  -24.9369 C   0  0  0  0  0  0  0  0  0  0  0  0
    0.9018   21.2954  -23.9060 F   0  0  0  0  0  0  0  0  0  0  0  0
    0.8635   21.4481  -26.1152 F   0  0  0  0  0  0  0  0  0  0  0  0
    0.8567   23.3672  -24.8894 F   0  0  0  0  0  0  0  0  0  0  0  0
   -5.1788   22.2835  -25.1495 O   0  0  0  0  0  0  0  0  0  0  0  0
   -7.0312   25.3401  -22.8951 C   0  0  0  0  0  0  0  0  0  0  0  0
   -7.2337   24.0285  -22.5396 C   0  0  0  0  0  0  0  0  0  0  0  0
   -6.6428   22.9897  -23.2572 C   0  0  0  0  0  0  0  0  0  0  0  0
   -5.8498   23.2177  -24.3225 C   0  0  0  0  0  0  0  0  0  0  0  0
   -5.6714   24.5832  -24.6525 C   0  0  0  0  0  0  0  0  0  0  0  0
   -6.2488   25.5689  -23.9522 N   0  0  0  0  0  0  0  0  0  0  0  0
   -8.0422   26.1820  -20.8977 C   0  0  0  0  0  0  0  0  0  0  0  0
   -7.5973   26.3755  -22.2191 O   0  0  0  0  0  0  0  0  0  0  0  0
 30 31  1  0  0  0
 31 24  1  0  0  0
 24 25  2  0  0  0
 25 26  1  0  0  0
 26 27  2  0  0  0
 27 23  1  0  0  0
 23  1  1  0  0  0
  1  2  2  0  0  0
  2  3  1  0  0  0
  3  4  2  0  0  0
  4  5  1  0  0  0
  5  6  2  0  0  0
  6  7  1  0  0  0
  7  8  2  0  0  0
  7  9  1  0  0  0
  9 11  1  0  0  0
 11 12  1  0  0  0
 12 13  2  0  0  0
 13 14  1  0  0  0
 14 15  1  0  0  0
 15 16  2  0  0  0
 15 17  1  0  0  0
  4 19  1  0  0  0
 19 20  1  0  0  0
 19 21  1  0  0  0
 19 22  1  0  0  0
 27 28  1  0  0  0
 28 29  2  0  0  0
 29 24  1  0  0  0
  6  1  1  0  0  0
 17 11  2  0  0  0
  9 10  1  0  0  0
 14 18  1  0  0  0
M  END
> <minimizedAffinity>
-9.70655

> <CNNscore>
0.4130229056

> <CNNaffinity>
6.8349838257

> <CNN_VS>
2.8230049610

> <CNNaffinity_variance>
0.1634926200

$$$$
[H]c1nc(OC([H])([H])[H])c([H])c([H])c1Oc1c([H])c([H])c(C(F)(F)F)c([H])c1C(=O)N([H])c1c([H])c([H])n([H])c(=O)c1[H]


 31 33  0  0  0  0  0  0  0  0999 V2000
   -4.9486   20.6277  -18.1933 C   0  0  0  0  0  0  0  0  0  0  0  0
   -5.6492   20.6096  -16.9561 C   0  0  0  0  0  0  0  0  0  0  0  0
   -5.7662   21.7219  -16.1725 C   0  0  0  0  0  0  0  0  0  0  0  0
   -5.1708   22.8689  -16.6397 C   0  0  0  0  0  0  0  0  0  0  0  0
   -4.4852   22.9351  -17.8347 C   0  0  0  0  0  0  0  0  0  0  0  0
   -4.3746   21.7642  -18.6444 C   0  0  0  0  0  0  0  0  0  0  0  0
   -3.9191   22.0259  -20.0116 C   0  0  0  0  0  0  0  0  0  0  0  0
   -3.6984   23.2815  -20.2717 O   0  0  0  0  0  0  0  0  0  0  0  0
   -3.6916   21.0948  -21.0281 N   0  0  0  0  0  0  0  0  0  0  0  0
   -3.9030   20.0816  -20.8596 H   0  0  0  0  0  0  0  0  0  0  0  0
   -3.2250   21.4481  -22.3174 C   0  0  0  0  0  0  0  0  0  0  0  0
   -1.9104   21.5457  -22.6211 C   0  0  0  0  0  0  0  0  0  0  0  0
   -1.5057   21.8645  -23.8965 C   0  0  0  0  0  0  0  0  0  0  0  0
   -2.3811   22.0931  -24.8569 N   0  0  0  0  0  0  0  0  0  0  0  0
   -3.7114   22.0063  -24.5945 C   0  0  0  0  0  0  0  0  0  0  0  0
   -4.5208   22.2327  -25.5393 O   0  0  0  0  0  0  0  0  0  0  0  0
   -4.1313   21.6888  -23.3444 C   0  0  0  0  0  0  0  0  0  0  0  0
   -2.0651   22.3393  -25.8290 H   0  0  0  0  0  0  0  0  0  0  0  0
   -5.2965   24.1131  -15.8310 C   0  0  0  0  0  0  0  0  0  0  0  0
   -4.7502   24.0124  -14.5805 F   0  0  0  0  0  0  0  0  0  0  0  0
   -4.5637   25.0940  -16.5042 F   0  0  0  0  0  0  0  0  0  0  0  0
   -6.6333   24.4348  -15.8202 F   0  0  0  0  0  0  0  0  0  0  0  0
   -4.9069   19.4012  -18.8630 O   0  0  0  0  0  0  0  0  0  0  0  0
   -2.7850   16.0092  -17.5034 C   0  0  0  0  0  0  0  0  0  0  0  0
   -2.1863   17.2442  -17.4401 C   0  0  0  0  0  0  0  0  0  0  0  0
   -2.8503   18.3885  -17.8793 C   0  0  0  0  0  0  0  0  0  0  0  0
   -4.1002   18.3413  -18.3804 C   0  0  0  0  0  0  0  0  0  0  0  0
   -4.6760   17.0484  -18.4279 C   0  0  0  0  0  0  0  0  0  0  0  0
   -4.0220   15.9589  -18.0026 N   0  0  0  0  0  0  0  0  0  0  0  0
   -2.6995   13.6198  -17.4352 C   0  0  0  0  0  0  0  0  0  0  0  0
   -2.1623   14.8738  -17.0881 O   0  0  0  0  0  0  0  0  0  0  0  0
 30 31  1  0  0  0
 31 24  1  0  0  0
 24 25  2  0  0  0
 25 26  1  0  0  0
 26 27  2  0  0  0
 27 23  1  0  0  0
 23  1  1  0  0  0
  1  2  2  0  0  0
  2  3  1  0  0  0
  3  4  2  0  0  0
  4  5  1  0  0  0
  5  6  2  0  0  0
  6  7  1  0  0  0
  7  8  2  0  0  0
  7  9  1  0  0  0
  9 11  1  0  0  0
 11 12  1  0  0  0
 12 13  2  0  0  0
 13 14  1  0  0  0
 14 15  1  0  0  0
 15 16  2  0  0  0
 15 17  1  0  0  0
  4 19  1  0  0  0
 19 20  1  0  0  0
 19 21  1  0  0  0
 19 22  1  0  0  0
 27 28  1  0  0  0
 28 29  2  0  0  0
 29 24  1  0  0  0
  6  1  1  0  0  0
 17 11  2  0  0  0
  9 10  1  0  0  0
 14 18  1  0  0  0
M  END
> <minimizedAffinity>
-4.40739

> <CNNscore>
0.4080829024

> <CNNaffinity>
5.4997806549

> <CNN_VS>
2.2443664074

> <CNNaffinity_variance>
0.8733398318

$$$$
[H]c1nc(OC([H])([H])[H])c([H])c([H])c1Oc1c([H])c([H])c(C(F)(F)F)c([H])c1C(=O)N([H])c1c([H])c([H])n([H])c(=O)c1[H]


 31 33  0  0  0  0  0  0  0  0999 V2000
   -3.9849   20.6092  -18.1773 C   0  0  0  0  0  0  0  0  0  0  0  0
   -5.1275   20.6288  -17.3312 C   0  0  0  0  0  0  0  0  0  0  0  0
   -5.7089   21.7956  -16.9245 C   0  0  0  0  0  0  0  0  0  0  0  0
   -5.1336   22.9593  -17.3754 C   0  0  0  0  0  0  0  0  0  0  0  0
   -4.0286   22.9893  -18.2003 C   0  0  0  0  0  0  0  0  0  0  0  0
   -3.4342   21.7606  -18.6196 C   0  0  0  0  0  0  0  0  0  0  0  0
   -2.4908   21.9036  -19.7307 C   0  0  0  0  0  0  0  0  0  0  0  0
   -2.0406   23.1126  -19.8991 O   0  0  0  0  0  0  0  0  0  0  0  0
   -2.0290   20.9050  -20.5919 N   0  0  0  0  0  0  0  0  0  0  0  0
   -2.4083   19.9311  -20.5067 H   0  0  0  0  0  0  0  0  0  0  0  0
   -1.0921   21.1414  -21.6268 C   0  0  0  0  0  0  0  0  0  0  0  0
    0.2433   21.0155  -21.4510 C   0  0  0  0  0  0  0  0  0  0  0  0
    1.1127   21.2284  -22.4954 C   0  0  0  0  0  0  0  0  0  0  0  0
    0.6758   21.5691  -23.6930 N   0  0  0  0  0  0  0  0  0  0  0  0
   -0.6579   21.7071  -23.9126 C   0  0  0  0  0  0  0  0  0  0  0  0
   -1.0396   22.0354  -25.0725 O   0  0  0  0  0  0  0  0  0  0  0  0
   -1.5323   21.4973  -22.8971 C   0  0  0  0  0  0  0  0  0  0  0  0
    1.3459   21.7334  -24.4863 H   0  0  0  0  0  0  0  0  0  0  0  0
   -5.7511   24.2553  -16.9792 C   0  0  0  0  0  0  0  0  0  0  0  0
   -6.5887   24.1576  -15.9017 F   0  0  0  0  0  0  0  0  0  0  0  0
   -4.6990   25.0873  -16.5874 F   0  0  0  0  0  0  0  0  0  0  0  0
   -6.3633   24.7531  -18.1054 F   0  0  0  0  0  0  0  0  0  0  0  0
   -3.5032   19.3332  -18.4848 O   0  0  0  0  0  0  0  0  0  0  0  0
   -0.8353   17.2550  -15.9512 C   0  0  0  0  0  0  0  0  0  0  0  0
   -0.3750   18.3307  -16.6714 C   0  0  0  0  0  0  0  0  0  0  0  0
   -1.2212   19.0429  -17.5198 C   0  0  0  0  0  0  0  0  0  0  0  0
   -2.5197   18.7169  -17.6725 C   0  0  0  0  0  0  0  0  0  0  0  0
   -2.9485   17.6015  -16.9126 C   0  0  0  0  0  0  0  0  0  0  0  0
   -2.1204   16.9275  -16.1031 N   0  0  0  0  0  0  0  0  0  0  0  0
   -0.5240   16.1279  -13.8646 C   0  0  0  0  0  0  0  0  0  0  0  0
   -0.0341   16.5367  -15.1194 O   0  0  0  0  0  0  0  0  0  0  0  0
 30 31  1  0  0  0
 31 24  1  0  0  0
 24 25  2  0  0  0
 25 26  1  0  0  0
 26 27  2  0  0  0
 27 23  1  0  0  0
 23  1  1  0  0  0
  1  2  2  0  0  0
  2  3  1  0  0  0
  3  4  2  0  0  0
  4  5  1  0  0  0
  5  6  2  0  0  0
  6  7  1  0  0  0
  7  8  2  0  0  0
  7  9  1  0  0  0
  9 11  1  0  0  0
 11 12  1  0  0  0
 12 13  2  0  0  0
 13 14  1  0  0  0
 14 15  1  0  0  0
 15 16  2  0  0  0
 15 17  1  0  0  0
  4 19  1  0  0  0
 19 20  1  0  0  0
 19 21  1  0  0  0
 19 22  1  0  0  0
 27 28  1  0  0  0
 28 29  2  0  0  0
 29 24  1  0  0  0
  6  1  1  0  0  0
 17 11  2  0  0  0
  9 10  1  0  0  0
 14 18  1  0  0  0
M  END
> <minimizedAffinity>
-4.21228

> <CNNscore>
0.4000112116

> <CNNaffinity>
5.4690828323

> <CNN_VS>
2.1876945496

> <CNNaffinity_variance>
0.7456638217

$$$$
[H]c1nc(OC([H])([H])[H])c([H])c([H])c1Oc1c([H])c([H])c(C(F)(F)F)c([H])c1C(=O)N([H])c1c([H])c([H])n([H])c(=O)c1[H]


 31 33  0  0  0  0  0  0  0  0999 V2000
   -3.8361   22.8906  -18.9691 C   0  0  0  0  0  0  0  0  0  0  0  0
   -2.7651   22.5285  -18.1067 C   0  0  0  0  0  0  0  0  0  0  0  0
   -1.6919   21.8076  -18.5463 C   0  0  0  0  0  0  0  0  0  0  0  0
   -1.6953   21.4459  -19.8720 C   0  0  0  0  0  0  0  0  0  0  0  0
   -2.7090   21.7779  -20.7464 C   0  0  0  0  0  0  0  0  0  0  0  0
   -3.8228   22.5352  -20.2722 C   0  0  0  0  0  0  0  0  0  0  0  0
   -4.6578   23.0972  -21.3361 C   0  0  0  0  0  0  0  0  0  0  0  0
   -4.9535   22.2576  -22.2850 O   0  0  0  0  0  0  0  0  0  0  0  0
   -5.1643   24.3961  -21.4271 N   0  0  0  0  0  0  0  0  0  0  0  0
   -4.9058   25.1053  -20.6992 H   0  0  0  0  0  0  0  0  0  0  0  0
   -5.9879   24.8380  -22.4908 C   0  0  0  0  0  0  0  0  0  0  0  0
   -5.4921   25.2577  -23.6774 C   0  0  0  0  0  0  0  0  0  0  0  0
   -6.3345   25.6510  -24.6912 C   0  0  0  0  0  0  0  0  0  0  0  0
   -7.6449   25.6403  -24.5372 N   0  0  0  0  0  0  0  0  0  0  0  0
   -8.1845   25.2266  -23.3608 C   0  0  0  0  0  0  0  0  0  0  0  0
   -9.4441   25.2307  -23.2493 O   0  0  0  0  0  0  0  0  0  0  0  0
   -7.3714   24.8306  -22.3499 C   0  0  0  0  0  0  0  0  0  0  0  0
   -8.2831   25.9451  -25.3151 H   0  0  0  0  0  0  0  0  0  0  0  0
   -0.5315   20.6823  -20.4016 C   0  0  0  0  0  0  0  0  0  0  0  0
    0.6688   21.3122  -20.2155 F   0  0  0  0  0  0  0  0  0  0  0  0
   -0.4733   19.4959  -19.6655 F   0  0  0  0  0  0  0  0  0  0  0  0
   -0.8112   20.4156  -21.7212 F   0  0  0  0  0  0  0  0  0  0  0  0
   -4.8652   23.6125  -18.3570 O   0  0  0  0  0  0  0  0  0  0  0  0
   -8.2327   21.8723  -16.4894 C   0  0  0  0  0  0  0  0  0  0  0  0
   -7.7728   21.3423  -17.6707 C   0  0  0  0  0  0  0  0  0  0  0  0
   -6.6662   21.8868  -18.3204 C   0  0  0  0  0  0  0  0  0  0  0  0
   -5.9979   22.9474  -17.8262 C   0  0  0  0  0  0  0  0  0  0  0  0
   -6.5084   23.4606  -16.6091 C   0  0  0  0  0  0  0  0  0  0  0  0
   -7.5747   22.9252  -15.9993 N   0  0  0  0  0  0  0  0  0  0  0  0
  -10.3880   20.8384  -16.5719 C   0  0  0  0  0  0  0  0  0  0  0  0
   -9.3122   21.3675  -15.8342 O   0  0  0  0  0  0  0  0  0  0  0  0
 30 31  1  0  0  0
 31 24  1  0  0  0
 24 25  2  0  0  0
 25 26  1  0  0  0
 26 27  2  0  0  0
 27 23  1  0  0  0
 23  1  1  0  0  0
  1  2  2  0  0  0
  2  3  1  0  0  0
  3  4  2  0  0  0
  4  5  1  0  0  0
  5  6  2  0  0  0
  6  7  1  0  0  0
  7  8  2  0  0  0
  7  9  1  0  0  0
  9 11  1  0  0  0
 11 12  1  0  0  0
 12 13  2  0  0  0
 13 14  1  0  0  0
 14 15  1  0  0  0
 15 16  2  0  0  0
 15 17  1  0  0  0
  4 19  1  0  0  0
 19 20  1  0  0  0
 19 21  1  0  0  0
 19 22  1  0  0  0
 27 28  1  0  0  0
 28 29  2  0  0  0
 29 24  1  0  0  0
  6  1  1  0  0  0
 17 11  2  0  0  0
  9 10  1  0  0  0
 14 18  1  0  0  0
M  END
> <minimizedAffinity>
-5.27978

> <CNNscore>
0.3127741814

> <CNNaffinity>
5.5815734863

> <CNN_VS>
1.7457721233

> <CNNaffinity_variance>
0.8308433294

$$$$
[H]c1nc(OC([H])([H])[H])c([H])c([H])c1Oc1c([H])c([H])c(C(F)(F)F)c([H])c1C(=O)N([H])c1c([H])c([H])n([H])c(=O)c1[H]


 31 33  0  0  0  0  0  0  0  0999 V2000
   -3.6354   21.8677  -21.3167 C   0  0  0  0  0  0  0  0  0  0  0  0
   -3.4945   21.9657  -19.9052 C   0  0  0  0  0  0  0  0  0  0  0  0
   -2.3052   21.7301  -19.2769 C   0  0  0  0  0  0  0  0  0  0  0  0
   -1.2421   21.3917  -20.0793 C   0  0  0  0  0  0  0  0  0  0  0  0
   -1.3302   21.2889  -21.4519 C   0  0  0  0  0  0  0  0  0  0  0  0
   -2.5801   21.5418  -22.0943 C   0  0  0  0  0  0  0  0  0  0  0  0
   -2.4795   21.7204  -23.5445 C   0  0  0  0  0  0  0  0  0  0  0  0
   -3.1596   20.8557  -24.2392 O   0  0  0  0  0  0  0  0  0  0  0  0
   -1.7626   22.7002  -24.2358 N   0  0  0  0  0  0  0  0  0  0  0  0
   -1.1710   23.3825  -23.7027 H   0  0  0  0  0  0  0  0  0  0  0  0
   -1.7485   22.8039  -25.6479 C   0  0  0  0  0  0  0  0  0  0  0  0
   -2.8547   23.0843  -26.3743 C   0  0  0  0  0  0  0  0  0  0  0  0
   -2.7851   23.2029  -27.7430 C   0  0  0  0  0  0  0  0  0  0  0  0
   -1.6460   23.0391  -28.3886 N   0  0  0  0  0  0  0  0  0  0  0  0
   -0.5112   22.7556  -27.6973 C   0  0  0  0  0  0  0  0  0  0  0  0
    0.5615   22.6045  -28.3496 O   0  0  0  0  0  0  0  0  0  0  0  0
   -0.5576   22.6388  -26.3466 C   0  0  0  0  0  0  0  0  0  0  0  0
   -1.6002   23.1281  -29.4352 H   0  0  0  0  0  0  0  0  0  0  0  0
    0.0813   21.1527  -19.4394 C   0  0  0  0  0  0  0  0  0  0  0  0
    0.6146   19.9251  -19.7236 F   0  0  0  0  0  0  0  0  0  0  0  0
    0.9555   22.0982  -19.9819 F   0  0  0  0  0  0  0  0  0  0  0  0
   -0.0930   21.3759  -18.0938 F   0  0  0  0  0  0  0  0  0  0  0  0
   -4.9232   22.1224  -21.7979 O   0  0  0  0  0  0  0  0  0  0  0  0
   -5.8832   25.2106  -24.5177 C   0  0  0  0  0  0  0  0  0  0  0  0
   -5.0524   25.4847  -23.4583 C   0  0  0  0  0  0  0  0  0  0  0  0
   -4.7117   24.4955  -22.5372 C   0  0  0  0  0  0  0  0  0  0  0  0
   -5.1733   23.2337  -22.6401 C   0  0  0  0  0  0  0  0  0  0  0  0
   -6.0267   22.9985  -23.7455 C   0  0  0  0  0  0  0  0  0  0  0  0
   -6.3448   23.9623  -24.6203 N   0  0  0  0  0  0  0  0  0  0  0  0
   -5.2435   26.9455  -26.0350 C   0  0  0  0  0  0  0  0  0  0  0  0
   -6.2385   26.1545  -25.4301 O   0  0  0  0  0  0  0  0  0  0  0  0
 30 31  1  0  0  0
 31 24  1  0  0  0
 24 25  2  0  0  0
 25 26  1  0  0  0
 26 27  2  0  0  0
 27 23  1  0  0  0
 23  1  1  0  0  0
  1  2  2  0  0  0
  2  3  1  0  0  0
  3  4  2  0  0  0
  4  5  1  0  0  0
  5  6  2  0  0  0
  6  7  1  0  0  0
  7  8  2  0  0  0
  7  9  1  0  0  0
  9 11  1  0  0  0
 11 12  1  0  0  0
 12 13  2  0  0  0
 13 14  1  0  0  0
 14 15  1  0  0  0
 15 16  2  0  0  0
 15 17  1  0  0  0
  4 19  1  0  0  0
 19 20  1  0  0  0
 19 21  1  0  0  0
 19 22  1  0  0  0
 27 28  1  0  0  0
 28 29  2  0  0  0
 29 24  1  0  0  0
  6  1  1  0  0  0
 17 11  2  0  0  0
  9 10  1  0  0  0
 14 18  1  0  0  0
M  END
> <minimizedAffinity>
-6.47462

> <CNNscore>
0.2780992985

> <CNNaffinity>
6.2598152161

> <CNN_VS>
1.7408502102

> <CNNaffinity_variance>
0.2155580074

$$$$
[H]OC(=O)c1c([H])c([H])c2c(c1[H])C([H])([H])C([H])([H])N(c1c([H])c([H])c(F)c(C(F)(F)F)c1[H])[C@@]2([H])C([H])(C([H])([H])[H])C([H])([H])[H]


 28 30  0  0  0  0  0  0  0  0999 V2000
   -4.7704   23.7756  -24.1053 C   0  0  0  0  0  0  0  0  0  0  0  0
   -4.1844   22.4700  -24.1562 N   0  0  0  0  0  0  0  0  0  0  0  0
   -5.0360   21.3124  -24.0475 C   0  0  0  0  0  0  0  0  0  0  0  0
   -6.4648   21.5676  -23.7709 C   0  0  0  0  0  0  0  0  0  0  0  0
   -6.6217   22.7410  -22.8796 C   0  0  0  0  0  0  0  0  0  0  0  0
   -7.6065   22.6940  -21.9042 C   0  0  0  0  0  0  0  0  0  0  0  0
   -7.7700   23.7724  -21.0658 C   0  0  0  0  0  0  0  0  0  0  0  0
   -6.9596   24.8784  -21.2038 C   0  0  0  0  0  0  0  0  0  0  0  0
   -5.9708   24.9011  -22.1984 C   0  0  0  0  0  0  0  0  0  0  0  0
   -5.8040   23.8357  -23.0323 C   0  0  0  0  0  0  0  0  0  0  0  0
   -2.7808   22.2275  -24.3071 C   0  0  0  0  0  0  0  0  0  0  0  0
   -1.9780   21.7035  -23.3234 C   0  0  0  0  0  0  0  0  0  0  0  0
   -0.6119   21.4848  -23.5220 C   0  0  0  0  0  0  0  0  0  0  0  0
   -0.0078   21.7854  -24.7157 C   0  0  0  0  0  0  0  0  0  0  0  0
    1.3273   21.5620  -24.8827 F   0  0  0  0  0  0  0  0  0  0  0  0
   -0.7949   22.3097  -25.7094 C   0  0  0  0  0  0  0  0  0  0  0  0
   -2.1392   22.5254  -25.5151 C   0  0  0  0  0  0  0  0  0  0  0  0
   -0.1814   22.6466  -27.0095 C   0  0  0  0  0  0  0  0  0  0  0  0
   -1.1330   23.0693  -27.8948 F   0  0  0  0  0  0  0  0  0  0  0  0
    0.4655   21.5470  -27.5701 F   0  0  0  0  0  0  0  0  0  0  0  0
    0.7620   23.6457  -26.8890 F   0  0  0  0  0  0  0  0  0  0  0  0
   -8.8123   23.7092  -20.0418 C   0  0  0  0  0  0  0  0  0  0  0  0
  -10.1256   23.5921  -20.4640 O   0  0  0  0  0  0  0  0  0  0  0  0
   -8.5296   23.7590  -18.8256 O   0  0  0  0  0  0  0  0  0  0  0  0
  -10.7969   23.1940  -19.8121 H   0  0  0  0  0  0  0  0  0  0  0  0
   -5.0847   23.3276  -26.5658 C   0  0  0  0  0  0  0  0  0  0  0  0
   -5.3971   24.2161  -25.3810 C   0  0  0  0  0  0  0  0  0  0  0  0
   -4.9281   25.6449  -25.6749 C   0  0  0  0  0  0  0  0  0  0  0  0
 26 27  1  0  0  0
 27 28  1  0  0  0
 27  1  1  0  0  0
  1  2  1  0  0  0
  2  3  1  0  0  0
  3  4  1  0  0  0
  4  5  1  0  0  0
  5  6  2  0  0  0
  6  7  1  0  0  0
  7  8  2  0  0  0
  8  9  1  0  0  0
  9 10  2  0  0  0
  7 22  1  0  0  0
 22 23  1  0  0  0
 22 24  2  0  0  0
  2 11  1  0  0  0
 11 12  2  0  0  0
 12 13  1  0  0  0
 13 14  2  0  0  0
 14 15  1  0  0  0
 14 16  1  0  0  0
 16 17  2  0  0  0
 16 18  1  0  0  0
 18 19  1  0  0  0
 18 20  1  0  0  0
 18 21  1  0  0  0
 10  1  1  0  0  0
 17 11  1  0  0  0
 10  5  1  0  0  0
 23 25  1  0  0  0
M  END
> <minimizedAffinity>
-8.89524

> <CNNscore>
0.3685554564

> <CNNaffinity>
5.8436203003

> <CNN_VS>
2.1536982059

> <CNNaffinity_variance>
0.1397833973

$$$$
[H]OC(=O)c1c([H])c([H])c2c(c1[H])C([H])([H])C([H])([H])N(c1c([H])c([H])c(F)c(C(F)(F)F)c1[H])[C@@]2([H])C([H])(C([H])([H])[H])C([H])([H])[H]


 28 30  0  0  0  0  0  0  0  0999 V2000
   -4.4736   24.9669  -24.7223 C   0  0  0  0  0  0  0  0  0  0  0  0
   -4.3830   23.8245  -25.5809 N   0  0  0  0  0  0  0  0  0  0  0  0
   -5.5736   23.0652  -25.8689 C   0  0  0  0  0  0  0  0  0  0  0  0
   -6.8010   23.4641  -25.1495 C   0  0  0  0  0  0  0  0  0  0  0  0
   -6.4762   23.9198  -23.7773 C   0  0  0  0  0  0  0  0  0  0  0  0
   -7.3435   23.5748  -22.7516 C   0  0  0  0  0  0  0  0  0  0  0  0
   -7.0617   23.9875  -21.4697 C   0  0  0  0  0  0  0  0  0  0  0  0
   -5.9296   24.7330  -21.2218 C   0  0  0  0  0  0  0  0  0  0  0  0
   -5.0684   25.0688  -22.2769 C   0  0  0  0  0  0  0  0  0  0  0  0
   -5.3422   24.6630  -23.5491 C   0  0  0  0  0  0  0  0  0  0  0  0
   -3.1656   23.3707  -26.1842 C   0  0  0  0  0  0  0  0  0  0  0  0
   -2.9589   23.2916  -27.5398 C   0  0  0  0  0  0  0  0  0  0  0  0
   -1.7501   22.8425  -28.0787 C   0  0  0  0  0  0  0  0  0  0  0  0
   -0.7093   22.4582  -27.2729 C   0  0  0  0  0  0  0  0  0  0  0  0
    0.4598   22.0238  -27.8251 F   0  0  0  0  0  0  0  0  0  0  0  0
   -0.8986   22.5309  -25.9161 C   0  0  0  0  0  0  0  0  0  0  0  0
   -2.0876   22.9726  -25.3848 C   0  0  0  0  0  0  0  0  0  0  0  0
    0.1986   22.1259  -25.0149 C   0  0  0  0  0  0  0  0  0  0  0  0
    0.9797   23.2010  -24.6954 F   0  0  0  0  0  0  0  0  0  0  0  0
    1.0163   21.1639  -25.6047 F   0  0  0  0  0  0  0  0  0  0  0  0
   -0.2761   21.5802  -23.8403 F   0  0  0  0  0  0  0  0  0  0  0  0
   -7.9849   23.6166  -20.3978 C   0  0  0  0  0  0  0  0  0  0  0  0
   -7.9090   24.3206  -19.2083 O   0  0  0  0  0  0  0  0  0  0  0  0
   -8.8155   22.6952  -20.5480 O   0  0  0  0  0  0  0  0  0  0  0  0
   -8.7352   24.3359  -18.6156 H   0  0  0  0  0  0  0  0  0  0  0  0
   -5.0857   26.0926  -26.8929 C   0  0  0  0  0  0  0  0  0  0  0  0
   -4.9978   26.1916  -25.3852 C   0  0  0  0  0  0  0  0  0  0  0  0
   -4.0926   27.3669  -25.0013 C   0  0  0  0  0  0  0  0  0  0  0  0
 26 27  1  0  0  0
 27 28  1  0  0  0
 27  1  1  0  0  0
  1  2  1  0  0  0
  2  3  1  0  0  0
  3  4  1  0  0  0
  4  5  1  0  0  0
  5  6  2  0  0  0
  6  7  1  0  0  0
  7  8  2  0  0  0
  8  9  1  0  0  0
  9 10  2  0  0  0
  7 22  1  0  0  0
 22 23  1  0  0  0
 22 24  2  0  0  0
  2 11  1  0  0  0
 11 12  2  0  0  0
 12 13  1  0  0  0
 13 14  2  0  0  0
 14 15  1  0  0  0
 14 16  1  0  0  0
 16 17  2  0  0  0
 16 18  1  0  0  0
 18 19  1  0  0  0
 18 20  1  0  0  0
 18 21  1  0  0  0
 10  1  1  0  0  0
 17 11  1  0  0  0
 10  5  1  0  0  0
 23 25  1  0  0  0
M  END
> <minimizedAffinity>
-9.42753

> <CNNscore>
0.3319146633

> <CNNaffinity>
6.0219974518

> <CNN_VS>
1.9987893105

> <CNNaffinity_variance>
0.1398816407

$$$$
[H]OC(=O)c1c([H])c([H])c2c(c1[H])C([H])([H])C([H])([H])N(c1c([H])c([H])c(F)c(C(F)(F)F)c1[H])[C@@]2([H])C([H])(C([H])([H])[H])C([H])([H])[H]


 28 30  0  0  0  0  0  0  0  0999 V2000
   -4.4487   22.4662  -23.0422 C   0  0  0  0  0  0  0  0  0  0  0  0
   -4.0988   23.5373  -23.9259 N   0  0  0  0  0  0  0  0  0  0  0  0
   -4.2890   24.8981  -23.4912 C   0  0  0  0  0  0  0  0  0  0  0  0
   -4.9516   25.0871  -22.1841 C   0  0  0  0  0  0  0  0  0  0  0  0
   -5.9821   24.0446  -21.9665 C   0  0  0  0  0  0  0  0  0  0  0  0
   -7.1660   24.4152  -21.3464 C   0  0  0  0  0  0  0  0  0  0  0  0
   -8.1366   23.4635  -21.1341 C   0  0  0  0  0  0  0  0  0  0  0  0
   -7.9228   22.1632  -21.5370 C   0  0  0  0  0  0  0  0  0  0  0  0
   -6.7167   21.8140  -22.1621 C   0  0  0  0  0  0  0  0  0  0  0  0
   -5.7511   22.7523  -22.3751 C   0  0  0  0  0  0  0  0  0  0  0  0
   -3.5648   23.3480  -25.2415 C   0  0  0  0  0  0  0  0  0  0  0  0
   -4.3159   23.3797  -26.3912 C   0  0  0  0  0  0  0  0  0  0  0  0
   -3.7453   23.1901  -27.6529 C   0  0  0  0  0  0  0  0  0  0  0  0
   -2.4012   22.9625  -27.8006 C   0  0  0  0  0  0  0  0  0  0  0  0
   -1.8703   22.7806  -29.0438 F   0  0  0  0  0  0  0  0  0  0  0  0
   -1.6359   22.9277  -26.6626 C   0  0  0  0  0  0  0  0  0  0  0  0
   -2.1963   23.1141  -25.4207 C   0  0  0  0  0  0  0  0  0  0  0  0
   -0.1843   22.6852  -26.7801 C   0  0  0  0  0  0  0  0  0  0  0  0
    0.4173   23.6968  -27.4750 F   0  0  0  0  0  0  0  0  0  0  0  0
    0.0826   21.4911  -27.4471 F   0  0  0  0  0  0  0  0  0  0  0  0
    0.4236   22.5966  -25.5450 F   0  0  0  0  0  0  0  0  0  0  0  0
   -9.3801   23.8683  -20.4791 C   0  0  0  0  0  0  0  0  0  0  0  0
   -9.3891   25.0750  -19.8008 O   0  0  0  0  0  0  0  0  0  0  0  0
  -10.4018   23.1505  -20.5286 O   0  0  0  0  0  0  0  0  0  0  0  0
  -10.2872   25.5314  -19.6619 H   0  0  0  0  0  0  0  0  0  0  0  0
   -2.2568   21.3652  -22.4614 C   0  0  0  0  0  0  0  0  0  0  0  0
   -3.4367   22.1865  -21.9878 C   0  0  0  0  0  0  0  0  0  0  0  0
   -4.1369   21.4593  -20.8350 C   0  0  0  0  0  0  0  0  0  0  0  0
 26 27  1  0  0  0
 27 28  1  0  0  0
 27  1  1  0  0  0
  1  2  1  0  0  0
  2  3  1  0  0  0
  3  4  1  0  0  0
  4  5  1  0  0  0
  5  6  2  0  0  0
  6  7  1  0  0  0
  7  8  2  0  0  0
  8  9  1  0  0  0
  9 10  2  0  0  0
  7 22  1  0  0  0
 22 23  1  0  0  0
 22 24  2  0  0  0
  2 11  1  0  0  0
 11 12  2  0  0  0
 12 13  1  0  0  0
 13 14  2  0  0  0
 14 15  1  0  0  0
 14 16  1  0  0  0
 16 17  2  0  0  0
 16 18  1  0  0  0
 18 19  1  0  0  0
 18 20  1  0  0  0
 18 21  1  0  0  0
 10  1  1  0  0  0
 17 11  1  0  0  0
 10  5  1  0  0  0
 23 25  1  0  0  0
M  END
> <minimizedAffinity>
-8.02510

> <CNNscore>
0.3163860440

> <CNNaffinity>
5.8250398636

> <CNN_VS>
1.8429613113

> <CNNaffinity_variance>
0.1358289868

$$$$
[H]OC(=O)c1c([H])c([H])c2c(c1[H])C([H])([H])C([H])([H])N(c1c([H])c([H])c(F)c(C(F)(F)F)c1[H])[C@@]2([H])C([H])(C([H])([H])[H])C([H])([H])[H]


 28 30  0  0  0  0  0  0  0  0999 V2000
   -5.2602   23.4323  -23.4652 C   0  0  0  0  0  0  0  0  0  0  0  0
   -5.5460   24.6136  -24.2225 N   0  0  0  0  0  0  0  0  0  0  0  0
   -6.1860   25.7286  -23.5712 C   0  0  0  0  0  0  0  0  0  0  0  0
   -6.6112   25.5203  -22.1716 C   0  0  0  0  0  0  0  0  0  0  0  0
   -7.0708   24.1261  -21.9684 C   0  0  0  0  0  0  0  0  0  0  0  0
   -8.1645   23.9122  -21.1430 C   0  0  0  0  0  0  0  0  0  0  0  0
   -8.6082   22.6258  -20.9400 C   0  0  0  0  0  0  0  0  0  0  0  0
   -7.9656   21.5730  -21.5544 C   0  0  0  0  0  0  0  0  0  0  0  0
   -6.8615   21.8161  -22.3847 C   0  0  0  0  0  0  0  0  0  0  0  0
   -6.4171   23.0884  -22.5897 C   0  0  0  0  0  0  0  0  0  0  0  0
   -5.2373   24.7678  -25.6127 C   0  0  0  0  0  0  0  0  0  0  0  0
   -5.7530   25.7583  -26.4125 C   0  0  0  0  0  0  0  0  0  0  0  0
   -5.4183   25.8659  -27.7652 C   0  0  0  0  0  0  0  0  0  0  0  0
   -4.5545   24.9817  -28.3586 C   0  0  0  0  0  0  0  0  0  0  0  0
   -4.2450   25.1096  -29.6808 F   0  0  0  0  0  0  0  0  0  0  0  0
   -4.0300   23.9858  -27.5743 C   0  0  0  0  0  0  0  0  0  0  0  0
   -4.3585   23.8790  -26.2432 C   0  0  0  0  0  0  0  0  0  0  0  0
   -3.0958   23.0139  -28.1765 C   0  0  0  0  0  0  0  0  0  0  0  0
   -3.6981   22.3406  -29.2022 F   0  0  0  0  0  0  0  0  0  0  0  0
   -2.6641   22.0734  -27.2432 F   0  0  0  0  0  0  0  0  0  0  0  0
   -1.9661   23.6282  -28.6756 F   0  0  0  0  0  0  0  0  0  0  0  0
   -9.7626   22.4149  -20.0672 C   0  0  0  0  0  0  0  0  0  0  0  0
   -9.7219   21.3440  -19.1907 O   0  0  0  0  0  0  0  0  0  0  0  0
  -10.7540   23.1744  -20.1092 O   0  0  0  0  0  0  0  0  0  0  0  0
  -10.3102   21.3896  -18.3625 H   0  0  0  0  0  0  0  0  0  0  0  0
   -3.0806   24.6209  -23.0286 C   0  0  0  0  0  0  0  0  0  0  0  0
   -4.0441   23.5299  -22.6133 C   0  0  0  0  0  0  0  0  0  0  0  0
   -3.3285   22.1753  -22.6459 C   0  0  0  0  0  0  0  0  0  0  0  0
 26 27  1  0  0  0
 27 28  1  0  0  0
 27  1  1  0  0  0
  1  2  1  0  0  0
  2  3  1  0  0  0
  3  4  1  0  0  0
  4  5  1  0  0  0
  5  6  2  0  0  0
  6  7  1  0  0  0
  7  8  2  0  0  0
  8  9  1  0  0  0
  9 10  2  0  0  0
  7 22  1  0  0  0
 22 23  1  0  0  0
 22 24  2  0  0  0
  2 11  1  0  0  0
 11 12  2  0  0  0
 12 13  1  0  0  0
 13 14  2  0  0  0
 14 15  1  0  0  0
 14 16  1  0  0  0
 16 17  2  0  0  0
 16 18  1  0  0  0
 18 19  1  0  0  0
 18 20  1  0  0  0
 18 21  1  0  0  0
 10  1  1  0  0  0
 17 11  1  0  0  0
 10  5  1  0  0  0
 23 25  1  0  0  0
M  END
> <minimizedAffinity>
-8.12343

> <CNNscore>
0.2946966588

> <CNNaffinity>
5.8004112244

> <CNN_VS>
1.7093617916

> <CNNaffinity_variance>
0.1018468142

$$$$
[H]OC(=O)c1c([H])c([H])c2c(c1[H])C([H])([H])C([H])([H])N(c1c([H])c([H])c(F)c(C(F)(F)F)c1[H])[C@@]2([H])C([H])(C([H])([H])[H])C([H])([H])[H]


 28 30  0  0  0  0  0  0  0  0999 V2000
   -5.4990   23.7077  -25.1646 C   0  0  0  0  0  0  0  0  0  0  0  0
   -4.5975   22.5952  -25.1669 N   0  0  0  0  0  0  0  0  0  0  0  0
   -4.9699   21.3869  -24.4753 C   0  0  0  0  0  0  0  0  0  0  0  0
   -6.2293   21.4293  -23.7039 C   0  0  0  0  0  0  0  0  0  0  0  0
   -6.4266   22.7687  -23.1011 C   0  0  0  0  0  0  0  0  0  0  0  0
   -6.9643   22.8383  -21.8246 C   0  0  0  0  0  0  0  0  0  0  0  0
   -7.1564   24.0714  -21.2457 C   0  0  0  0  0  0  0  0  0  0  0  0
   -6.8148   25.2144  -21.9356 C   0  0  0  0  0  0  0  0  0  0  0  0
   -6.2726   25.1169  -23.2256 C   0  0  0  0  0  0  0  0  0  0  0  0
   -6.0800   23.8980  -23.8046 C   0  0  0  0  0  0  0  0  0  0  0  0
   -3.3222   22.5993  -25.8193 C   0  0  0  0  0  0  0  0  0  0  0  0
   -3.1467   22.7795  -27.1696 C   0  0  0  0  0  0  0  0  0  0  0  0
   -1.8788   22.7763  -27.7576 C   0  0  0  0  0  0  0  0  0  0  0  0
   -0.7456   22.5919  -27.0079 C   0  0  0  0  0  0  0  0  0  0  0  0
    0.4796   22.5931  -27.6073 F   0  0  0  0  0  0  0  0  0  0  0  0
   -0.9026   22.4103  -25.6572 C   0  0  0  0  0  0  0  0  0  0  0  0
   -2.1497   22.4133  -25.0776 C   0  0  0  0  0  0  0  0  0  0  0  0
    0.2937   22.2085  -24.8156 C   0  0  0  0  0  0  0  0  0  0  0  0
    1.0595   23.3403  -24.7896 F   0  0  0  0  0  0  0  0  0  0  0  0
    1.0863   21.1672  -25.2945 F   0  0  0  0  0  0  0  0  0  0  0  0
   -0.0403   21.8902  -23.5156 F   0  0  0  0  0  0  0  0  0  0  0  0
   -7.7242   24.1300  -19.8992 C   0  0  0  0  0  0  0  0  0  0  0  0
   -7.3162   25.1616  -19.0710 O   0  0  0  0  0  0  0  0  0  0  0  0
   -8.5502   23.2784  -19.5068 O   0  0  0  0  0  0  0  0  0  0  0  0
   -7.9353   25.4282  -18.3096 H   0  0  0  0  0  0  0  0  0  0  0  0
   -6.1984   23.7134  -27.5862 C   0  0  0  0  0  0  0  0  0  0  0  0
   -6.6189   23.5910  -26.1374 C   0  0  0  0  0  0  0  0  0  0  0  0
   -7.6504   24.6759  -25.8103 C   0  0  0  0  0  0  0  0  0  0  0  0
 26 27  1  0  0  0
 27 28  1  0  0  0
 27  1  1  0  0  0
  1  2  1  0  0  0
  2  3  1  0  0  0
  3  4  1  0  0  0
  4  5  1  0  0  0
  5  6  2  0  0  0
  6  7  1  0  0  0
  7  8  2  0  0  0
  8  9  1  0  0  0
  9 10  2  0  0  0
  7 22  1  0  0  0
 22 23  1  0  0  0
 22 24  2  0  0  0
  2 11  1  0  0  0
 11 12  2  0  0  0
 12 13  1  0  0  0
 13 14  2  0  0  0
 14 15  1  0  0  0
 14 16  1  0  0  0
 16 17  2  0  0  0
 16 18  1  0  0  0
 18 19  1  0  0  0
 18 20  1  0  0  0
 18 21  1  0  0  0
 10  1  1  0  0  0
 17 11  1  0  0  0
 10  5  1  0  0  0
 23 25  1  0  0  0
M  END
> <minimizedAffinity>
-9.53563

> <CNNscore>
0.2871866226

> <CNNaffinity>
5.7567200661

> <CNN_VS>
1.6532529593

> <CNNaffinity_variance>
0.2808889151

$$$$
[H]OC(=O)c1c([H])c([H])c2c(c1[H])C([H])([H])C([H])([H])N(c1c([H])c([H])c(F)c(C(F)(F)F)c1[H])[C@@]2([H])C([H])(C([H])([H])[H])C([H])([H])[H]


 28 30  0  0  0  0  0  0  0  0999 V2000
   -4.7353   22.9697  -23.0233 C   0  0  0  0  0  0  0  0  0  0  0  0
   -4.7736   23.8955  -24.1151 N   0  0  0  0  0  0  0  0  0  0  0  0
   -5.4231   25.1693  -23.9344 C   0  0  0  0  0  0  0  0  0  0  0  0
   -6.1145   25.3808  -22.6459 C   0  0  0  0  0  0  0  0  0  0  0  0
   -6.7228   24.1172  -22.1670 C   0  0  0  0  0  0  0  0  0  0  0  0
   -7.9639   24.1814  -21.5514 C   0  0  0  0  0  0  0  0  0  0  0  0
   -8.5472   23.0205  -21.0989 C   0  0  0  0  0  0  0  0  0  0  0  0
   -7.8966   21.8166  -21.2613 C   0  0  0  0  0  0  0  0  0  0  0  0
   -6.6419   21.7787  -21.8874 C   0  0  0  0  0  0  0  0  0  0  0  0
   -6.0587   22.9255  -22.3377 C   0  0  0  0  0  0  0  0  0  0  0  0
   -4.2027   23.6383  -25.4034 C   0  0  0  0  0  0  0  0  0  0  0  0
   -3.2639   22.6668  -25.6515 C   0  0  0  0  0  0  0  0  0  0  0  0
   -2.7386   22.4551  -26.9293 C   0  0  0  0  0  0  0  0  0  0  0  0
   -3.1394   23.2128  -27.9995 C   0  0  0  0  0  0  0  0  0  0  0  0
   -2.6103   22.9851  -29.2359 F   0  0  0  0  0  0  0  0  0  0  0  0
   -4.0766   24.1878  -27.7696 C   0  0  0  0  0  0  0  0  0  0  0  0
   -4.5942   24.3970  -26.5128 C   0  0  0  0  0  0  0  0  0  0  0  0
   -4.5339   25.0249  -28.8966 C   0  0  0  0  0  0  0  0  0  0  0  0
   -5.1867   24.2645  -29.8260 F   0  0  0  0  0  0  0  0  0  0  0  0
   -3.4656   25.6538  -29.5332 F   0  0  0  0  0  0  0  0  0  0  0  0
   -5.3932   26.0209  -28.4815 F   0  0  0  0  0  0  0  0  0  0  0  0
   -9.8562   23.1029  -20.4516 C   0  0  0  0  0  0  0  0  0  0  0  0
  -10.0763   22.3109  -19.3377 O   0  0  0  0  0  0  0  0  0  0  0  0
  -10.7479   23.8621  -20.8876 O   0  0  0  0  0  0  0  0  0  0  0  0
  -10.7991   22.6046  -18.6855 H   0  0  0  0  0  0  0  0  0  0  0  0
   -2.5747   24.1582  -22.5010 C   0  0  0  0  0  0  0  0  0  0  0  0
   -3.6925   23.2668  -22.0042 C   0  0  0  0  0  0  0  0  0  0  0  0
   -3.1084   21.9366  -21.5171 C   0  0  0  0  0  0  0  0  0  0  0  0
 26 27  1  0  0  0
 27 28  1  0  0  0
 27  1  1  0  0  0
  1  2  1  0  0  0
  2  3  1  0  0  0
  3  4  1  0  0  0
  4  5  1  0  0  0
  5  6  2  0  0  0
  6  7  1  0  0  0
  7  8  2  0  0  0
  8  9  1  0  0  0
  9 10  2  0  0  0
  7 22  1  0  0  0
 22 23  1  0  0  0
 22 24  2  0  0  0
  2 11  1  0  0  0
 11 12  2  0  0  0
 12 13  1  0  0  0
 13 14  2  0  0  0
 14 15  1  0  0  0
 14 16  1  0  0  0
 16 17  2  0  0  0
 16 18  1  0  0  0
 18 19  1  0  0  0
 18 20  1  0  0  0
 18 21  1  0  0  0
 10  1  1  0  0  0
 17 11  1  0  0  0
 10  5  1  0  0  0
 23 25  1  0  0  0
M  END
> <minimizedAffinity>
-8.14601

> <CNNscore>
0.2825364172

> <CNNaffinity>
5.9174957275

> <CNN_VS>
1.6719080210

> <CNNaffinity_variance>
0.1166611314

$$$$
[H]OC(=O)c1c([H])c([H])c2c(c1[H])C([H])([H])C([H])([H])N(c1c([H])c([H])c(F)c(C(F)(F)F)c1[H])[C@@]2([H])C([H])(C([H])([H])[H])C([H])([H])[H]


 28 30  0  0  0  0  0  0  0  0999 V2000
   -5.0333   25.3187  -24.6871 C   0  0  0  0  0  0  0  0  0  0  0  0
   -4.7949   24.0234  -25.2491 N   0  0  0  0  0  0  0  0  0  0  0  0
   -5.8552   23.3624  -25.9673 C   0  0  0  0  0  0  0  0  0  0  0  0
   -7.1702   24.0360  -25.9703 C   0  0  0  0  0  0  0  0  0  0  0  0
   -7.4085   24.7200  -24.6775 C   0  0  0  0  0  0  0  0  0  0  0  0
   -8.6905   24.6912  -24.1492 C   0  0  0  0  0  0  0  0  0  0  0  0
   -8.9345   25.3199  -22.9501 C   0  0  0  0  0  0  0  0  0  0  0  0
   -7.9101   25.9660  -22.2928 C   0  0  0  0  0  0  0  0  0  0  0  0
   -6.6222   25.9807  -22.8483 C   0  0  0  0  0  0  0  0  0  0  0  0
   -6.3742   25.3597  -24.0362 C   0  0  0  0  0  0  0  0  0  0  0  0
   -3.5510   23.3210  -25.1427 C   0  0  0  0  0  0  0  0  0  0  0  0
   -3.1697   22.5887  -24.0449 C   0  0  0  0  0  0  0  0  0  0  0  0
   -1.9437   21.9197  -23.9916 C   0  0  0  0  0  0  0  0  0  0  0  0
   -1.0607   21.9646  -25.0397 C   0  0  0  0  0  0  0  0  0  0  0  0
    0.1292   21.3026  -24.9612 F   0  0  0  0  0  0  0  0  0  0  0  0
   -1.4256   22.6916  -26.1444 C   0  0  0  0  0  0  0  0  0  0  0  0
   -2.6317   23.3502  -26.1980 C   0  0  0  0  0  0  0  0  0  0  0  0
   -0.5018   22.7642  -27.2939 C   0  0  0  0  0  0  0  0  0  0  0  0
   -0.0183   21.5233  -27.6010 F   0  0  0  0  0  0  0  0  0  0  0  0
    0.5862   23.5920  -27.0243 F   0  0  0  0  0  0  0  0  0  0  0  0
   -1.1196   23.2709  -28.4184 F   0  0  0  0  0  0  0  0  0  0  0  0
  -10.2910   25.2815  -22.4047 C   0  0  0  0  0  0  0  0  0  0  0  0
  -10.4925   24.5873  -21.2240 O   0  0  0  0  0  0  0  0  0  0  0  0
  -11.2384   25.8553  -22.9833 O   0  0  0  0  0  0  0  0  0  0  0  0
  -11.2991   24.8413  -20.6592 H   0  0  0  0  0  0  0  0  0  0  0  0
   -4.5142   26.0167  -27.0529 C   0  0  0  0  0  0  0  0  0  0  0  0
   -4.9571   26.4355  -25.6675 C   0  0  0  0  0  0  0  0  0  0  0  0
   -3.9896   27.4886  -25.1172 C   0  0  0  0  0  0  0  0  0  0  0  0
 26 27  1  0  0  0
 27 28  1  0  0  0
 27  1  1  0  0  0
  1  2  1  0  0  0
  2  3  1  0  0  0
  3  4  1  0  0  0
  4  5  1  0  0  0
  5  6  2  0  0  0
  6  7  1  0  0  0
  7  8  2  0  0  0
  8  9  1  0  0  0
  9 10  2  0  0  0
  7 22  1  0  0  0
 22 23  1  0  0  0
 22 24  2  0  0  0
  2 11  1  0  0  0
 11 12  2  0  0  0
 12 13  1  0  0  0
 13 14  2  0  0  0
 14 15  1  0  0  0
 14 16  1  0  0  0
 16 17  2  0  0  0
 16 18  1  0  0  0
 18 19  1  0  0  0
 18 20  1  0  0  0
 18 21  1  0  0  0
 10  1  1  0  0  0
 17 11  1  0  0  0
 10  5  1  0  0  0
 23 25  1  0  0  0
M  END
> <minimizedAffinity>
-8.71585

> <CNNscore>
0.2729368806

> <CNNaffinity>
5.8498477936

> <CNN_VS>
1.5966391563

> <CNNaffinity_variance>
0.1883552223

$$$$
[H]OC(=O)c1c([H])c([H])c2c(c1[H])C([H])([H])C([H])([H])N(c1c([H])c([H])c(F)c(C(F)(F)F)c1[H])[C@@]2([H])C([H])(C([H])([H])[H])C([H])([H])[H]


 28 30  0  0  0  0  0  0  0  0999 V2000
    0.6954   21.0197  -20.4148 C   0  0  0  0  0  0  0  0  0  0  0  0
    0.9668   21.1066  -21.8182 N   0  0  0  0  0  0  0  0  0  0  0  0
    2.3146   20.9061  -22.2874 C   0  0  0  0  0  0  0  0  0  0  0  0
    3.3555   20.7364  -21.2527 C   0  0  0  0  0  0  0  0  0  0  0  0
    3.0557   21.5762  -20.0690 C   0  0  0  0  0  0  0  0  0  0  0  0
    4.1142   22.1972  -19.4231 C   0  0  0  0  0  0  0  0  0  0  0  0
    3.8590   22.9813  -18.3218 C   0  0  0  0  0  0  0  0  0  0  0  0
    2.5644   23.1394  -17.8768 C   0  0  0  0  0  0  0  0  0  0  0  0
    1.5112   22.5005  -18.5478 C   0  0  0  0  0  0  0  0  0  0  0  0
    1.7578   21.7221  -19.6395 C   0  0  0  0  0  0  0  0  0  0  0  0
   -0.0275   21.3885  -22.8101 C   0  0  0  0  0  0  0  0  0  0  0  0
   -1.3805   21.2806  -22.5990 C   0  0  0  0  0  0  0  0  0  0  0  0
   -2.3108   21.5691  -23.6013 C   0  0  0  0  0  0  0  0  0  0  0  0
   -1.9119   21.9755  -24.8487 C   0  0  0  0  0  0  0  0  0  0  0  0
   -2.8409   22.2506  -25.8087 F   0  0  0  0  0  0  0  0  0  0  0  0
   -0.5639   22.0886  -25.0769 C   0  0  0  0  0  0  0  0  0  0  0  0
    0.3523   21.8050  -24.0914 C   0  0  0  0  0  0  0  0  0  0  0  0
   -0.0945   22.5235  -26.4076 C   0  0  0  0  0  0  0  0  0  0  0  0
    0.5074   21.4885  -27.0667 F   0  0  0  0  0  0  0  0  0  0  0  0
    0.8289   23.5625  -26.3099 F   0  0  0  0  0  0  0  0  0  0  0  0
   -1.1310   22.9835  -27.1931 F   0  0  0  0  0  0  0  0  0  0  0  0
    4.9847   23.6302  -17.6505 C   0  0  0  0  0  0  0  0  0  0  0  0
    5.9552   24.2200  -18.4420 O   0  0  0  0  0  0  0  0  0  0  0  0
    5.0699   23.6528  -16.4040 O   0  0  0  0  0  0  0  0  0  0  0  0
    6.5195   24.9568  -18.0262 H   0  0  0  0  0  0  0  0  0  0  0  0
    0.3727   18.5822  -20.9701 C   0  0  0  0  0  0  0  0  0  0  0  0
    0.5835   19.6290  -19.8974 C   0  0  0  0  0  0  0  0  0  0  0  0
   -0.5797   19.5825  -18.9010 C   0  0  0  0  0  0  0  0  0  0  0  0
 26 27  1  0  0  0
 27 28  1  0  0  0
 27  1  1  0  0  0
  1  2  1  0  0  0
  2  3  1  0  0  0
  3  4  1  0  0  0
  4  5  1  0  0  0
  5  6  2  0  0  0
  6  7  1  0  0  0
  7  8  2  0  0  0
  8  9  1  0  0  0
  9 10  2  0  0  0
  7 22  1  0  0  0
 22 23  1  0  0  0
 22 24  2  0  0  0
  2 11  1  0  0  0
 11 12  2  0  0  0
 12 13  1  0  0  0
 13 14  2  0  0  0
 14 15  1  0  0  0
 14 16  1  0  0  0
 16 17  2  0  0  0
 16 18  1  0  0  0
 18 19  1  0  0  0
 18 20  1  0  0  0
 18 21  1  0  0  0
 10  1  1  0  0  0
 17 11  1  0  0  0
 10  5  1  0  0  0
 23 25  1  0  0  0
M  END
> <minimizedAffinity>
-7.78313

> <CNNscore>
0.2568463385

> <CNNaffinity>
5.2239980698

> <CNN_VS>
1.3417648077

> <CNNaffinity_variance>
0.1496618241

$$$$
[H]OC(=O)c1c([H])c([H])c2c(c1[H])C([H])([H])C([H])([H])N(c1c([H])c([H])c(F)c(C(F)(F)F)c1[H])[C@@]2([H])C([H])(C([H])([H])[H])C([H])([H])[H]


 28 30  0  0  0  0  0  0  0  0999 V2000
   -5.0979   23.3593  -25.5140 C   0  0  0  0  0  0  0  0  0  0  0  0
   -4.3016   24.2428  -24.7165 N   0  0  0  0  0  0  0  0  0  0  0  0
   -4.5377   25.6625  -24.7910 C   0  0  0  0  0  0  0  0  0  0  0  0
   -5.5262   26.1157  -25.7912 C   0  0  0  0  0  0  0  0  0  0  0  0
   -5.4662   25.2676  -27.0049 C   0  0  0  0  0  0  0  0  0  0  0  0
   -5.6203   25.8809  -28.2392 C   0  0  0  0  0  0  0  0  0  0  0  0
   -5.5683   25.1127  -29.3794 C   0  0  0  0  0  0  0  0  0  0  0  0
   -5.3652   23.7531  -29.2824 C   0  0  0  0  0  0  0  0  0  0  0  0
   -5.2122   23.1570  -28.0219 C   0  0  0  0  0  0  0  0  0  0  0  0
   -5.2629   23.9128  -26.8886 C   0  0  0  0  0  0  0  0  0  0  0  0
   -3.2618   23.8062  -23.8333 C   0  0  0  0  0  0  0  0  0  0  0  0
   -3.2411   24.0558  -22.4827 C   0  0  0  0  0  0  0  0  0  0  0  0
   -2.2021   23.6058  -21.6632 C   0  0  0  0  0  0  0  0  0  0  0  0
   -1.1499   22.8903  -22.1741 C   0  0  0  0  0  0  0  0  0  0  0  0
   -0.1490   22.4632  -21.3519 F   0  0  0  0  0  0  0  0  0  0  0  0
   -1.1546   22.6319  -23.5214 C   0  0  0  0  0  0  0  0  0  0  0  0
   -2.1763   23.0742  -24.3287 C   0  0  0  0  0  0  0  0  0  0  0  0
   -0.0389   21.8642  -24.1096 C   0  0  0  0  0  0  0  0  0  0  0  0
    0.2307   20.7554  -23.3573 F   0  0  0  0  0  0  0  0  0  0  0  0
    1.1256   22.6264  -24.1798 F   0  0  0  0  0  0  0  0  0  0  0  0
   -0.3218   21.4489  -25.3942 F   0  0  0  0  0  0  0  0  0  0  0  0
   -5.7323   25.7725  -30.6742 C   0  0  0  0  0  0  0  0  0  0  0  0
   -6.1188   24.9934  -31.7513 O   0  0  0  0  0  0  0  0  0  0  0  0
   -5.5309   26.9987  -30.8066 O   0  0  0  0  0  0  0  0  0  0  0  0
   -6.5754   25.4597  -32.5311 H   0  0  0  0  0  0  0  0  0  0  0  0
   -6.8876   24.0499  -23.8788 C   0  0  0  0  0  0  0  0  0  0  0  0
   -6.4500   23.0828  -24.9577 C   0  0  0  0  0  0  0  0  0  0  0  0
   -6.4536   21.6561  -24.3985 C   0  0  0  0  0  0  0  0  0  0  0  0
 26 27  1  0  0  0
 27 28  1  0  0  0
 27  1  1  0  0  0
  1  2  1  0  0  0
  2  3  1  0  0  0
  3  4  1  0  0  0
  4  5  1  0  0  0
  5  6  2  0  0  0
  6  7  1  0  0  0
  7  8  2  0  0  0
  8  9  1  0  0  0
  9 10  2  0  0  0
  7 22  1  0  0  0
 22 23  1  0  0  0
 22 24  2  0  0  0
  2 11  1  0  0  0
 11 12  2  0  0  0
 12 13  1  0  0  0
 13 14  2  0  0  0
 14 15  1  0  0  0
 14 16  1  0  0  0
 16 17  2  0  0  0
 16 18  1  0  0  0
 18 19  1  0  0  0
 18 20  1  0  0  0
 18 21  1  0  0  0
 10  1  1  0  0  0
 17 11  1  0  0  0
 10  5  1  0  0  0
 23 25  1  0  0  0
M  END
> <minimizedAffinity>
-8.95289

> <CNNscore>
0.2207338214

> <CNNaffinity>
6.2188391685

> <CNN_VS>
1.3727080822

> <CNNaffinity_variance>
0.2888868749

$$$$
[H]C1=C([H])C([H])(F)C([H])([H])C([H])=C1N([H])C(=O)C1(C(=O)N([H])c2c([H])c([H])c(Oc3c([H])c([H])nc4c([H])c(OC([H])([H])C([H])([H])C([H])([H])N5C([H])([H])C([H])([H])C([H])([H])C([H])([H])C5([H])[H])c(OC([H])([H])[H])c([H])c34)c(F)c2[H])C([H])([H])C1([H])[H]


 48 53  0  0  0  0  0  0  0  0999 V2000
   -4.2920   23.1168  -25.9487 C   0  0  0  0  0  0  0  0  0  0  0  0
   -4.3567   24.4871  -26.0854 C   0  0  0  0  0  0  0  0  0  0  0  0
   -5.1800   25.2424  -25.2493 C   0  0  0  0  0  0  0  0  0  0  0  0
   -5.9473   24.6833  -24.2756 C   0  0  0  0  0  0  0  0  0  0  0  0
   -5.8811   23.3062  -24.1400 C   0  0  0  0  0  0  0  0  0  0  0  0
   -5.0716   22.5505  -24.9606 C   0  0  0  0  0  0  0  0  0  0  0  0
   -5.0786   21.1893  -24.7848 F   0  0  0  0  0  0  0  0  0  0  0  0
   -6.8316   25.3944  -23.4157 N   0  0  0  0  0  0  0  0  0  0  0  0
   -7.7102   24.7679  -22.5394 C   0  0  0  0  0  0  0  0  0  0  0  0
   -7.6498   23.4756  -22.5277 O   0  0  0  0  0  0  0  0  0  0  0  0
   -6.7215   26.4441  -23.4938 H   0  0  0  0  0  0  0  0  0  0  0  0
   -8.7046   25.3433  -21.6052 C   0  0  0  0  0  0  0  0  0  0  0  0
   -8.6228   24.8569  -20.1891 C   0  0  0  0  0  0  0  0  0  0  0  0
   -8.0386   26.1675  -20.5281 C   0  0  0  0  0  0  0  0  0  0  0  0
  -10.0686   25.7316  -21.9974 C   0  0  0  0  0  0  0  0  0  0  0  0
  -10.9942   25.1054  -21.3163 O   0  0  0  0  0  0  0  0  0  0  0  0
  -10.4838   26.6361  -22.9643 N   0  0  0  0  0  0  0  0  0  0  0  0
   -9.8101   27.1268  -23.5767 H   0  0  0  0  0  0  0  0  0  0  0  0
  -11.8713   26.9103  -23.2140 C   0  0  0  0  0  0  0  0  0  0  0  0
  -12.4856   27.9310  -22.6497 C   0  0  0  0  0  0  0  0  0  0  0  0
  -13.9140   28.2253  -22.8964 C   0  0  0  0  0  0  0  0  0  0  0  0
  -14.6232   27.3503  -23.8434 C   0  0  0  0  0  0  0  0  0  0  0  0
  -15.1414   28.1532  -24.8769 F   0  0  0  0  0  0  0  0  0  0  0  0
  -13.8464   26.2464  -24.4099 C   0  0  0  0  0  0  0  0  0  0  0  0
  -12.5846   26.0438  -24.1223 C   0  0  0  0  0  0  0  0  0  0  0  0
   -3.4843   22.3450  -26.7670 O   0  0  0  0  0  0  0  0  0  0  0  0
   -0.9294   21.4640  -23.6459 C   0  0  0  0  0  0  0  0  0  0  0  0
   -1.7848   21.7567  -24.6859 C   0  0  0  0  0  0  0  0  0  0  0  0
   -1.3021   22.2324  -25.8899 C   0  0  0  0  0  0  0  0  0  0  0  0
   -2.1504   22.5363  -26.9642 C   0  0  0  0  0  0  0  0  0  0  0  0
   -1.6477   23.0070  -28.1555 C   0  0  0  0  0  0  0  0  0  0  0  0
   -0.2830   23.1862  -28.3000 C   0  0  0  0  0  0  0  0  0  0  0  0
    0.5260   22.8945  -27.2684 N   0  0  0  0  0  0  0  0  0  0  0  0
    0.0451   22.4308  -26.0944 C   0  0  0  0  0  0  0  0  0  0  0  0
    0.8967   22.1317  -25.0365 C   0  0  0  0  0  0  0  0  0  0  0  0
    0.4236   21.6523  -23.8197 C   0  0  0  0  0  0  0  0  0  0  0  0
   -2.4846   21.6342  -21.7735 C   0  0  0  0  0  0  0  0  0  0  0  0
   -1.4085   20.9846  -22.4323 O   0  0  0  0  0  0  0  0  0  0  0  0
    1.2686   21.3533  -22.7613 O   0  0  0  0  0  0  0  0  0  0  0  0
    2.5880   20.9345  -23.0832 C   0  0  0  0  0  0  0  0  0  0  0  0
    3.2137   20.3169  -21.8413 C   0  0  0  0  0  0  0  0  0  0  0  0
    3.5740   18.9002  -22.1507 C   0  0  0  0  0  0  0  0  0  0  0  0
    3.7147   18.1402  -20.9473 N   0  0  0  0  0  0  0  0  0  0  0  0
    2.5121   18.2802  -20.1230 C   0  0  0  0  0  0  0  0  0  0  0  0
    1.6841   17.0370  -20.1284 C   0  0  0  0  0  0  0  0  0  0  0  0
    1.6063   16.3535  -21.4770 C   0  0  0  0  0  0  0  0  0  0  0  0
    2.9469   16.1257  -22.0911 C   0  0  0  0  0  0  0  0  0  0  0  0
    3.9917   16.7449  -21.2031 C   0  0  0  0  0  0  0  0  0  0  0  0
 37 38  1  0  0  0
 38 27  1  0  0  0
 27 28  2  0  0  0
 28 29  1  0  0  0
 29 30  2  0  0  0
 30 26  1  0  0  0
 26  1  1  0  0  0
  1  2  2  0  0  0
  2  3  1  0  0  0
  3  4  2  0  0  0
  4  8  1  0  0  0
  8  9  1  0  0  0
  9 10  2  0  0  0
  9 12  1  0  0  0
 12 13  1  0  0  0
 13 14  1  0  0  0
 12 15  1  0  0  0
 15 16  2  0  0  0
 15 17  1  0  0  0
 17 19  1  0  0  0
 19 20  2  0  0  0
 20 21  1  0  0  0
 21 22  1  0  0  0
 22 23  1  0  0  0
 22 24  1  0  0  0
 24 25  2  0  0  0
  4  5  1  0  0  0
  5  6  2  0  0  0
  6  7  1  0  0  0
 30 31  1  0  0  0
 31 32  2  0  0  0
 32 33  1  0  0  0
 33 34  2  0  0  0
 34 35  1  0  0  0
 35 36  2  0  0  0
 36 39  1  0  0  0
 39 40  1  0  0  0
 40 41  1  0  0  0
 41 42  1  0  0  0
 42 43  1  0  0  0
 43 44  1  0  0  0
 44 45  1  0  0  0
 45 46  1  0  0  0
 46 47  1  0  0  0
 47 48  1  0  0  0
 36 27  1  0  0  0
 48 43  1  0  0  0
 34 29  1  0  0  0
  6  1  1  0  0  0
 14 12  1  0  0  0
 25 19  1  0  0  0
  8 11  1  0  0  0
 17 18  1  0  0  0
M  END
> <minimizedAffinity>
-9.47236

> <CNNscore>
0.8743584156

> <CNNaffinity>
7.6007356644

> <CNN_VS>
6.6457672119

> <CNNaffinity_variance>
0.0445493720

$$$$
[H]C1=C([H])C([H])(F)C([H])([H])C([H])=C1N([H])C(=O)C1(C(=O)N([H])c2c([H])c([H])c(Oc3c([H])c([H])nc4c([H])c(OC([H])([H])C([H])([H])C([H])([H])N5C([H])([H])C([H])([H])C([H])([H])C([H])([H])C5([H])[H])c(OC([H])([H])[H])c([H])c34)c(F)c2[H])C([H])([H])C1([H])[H]


 48 53  0  0  0  0  0  0  0  0999 V2000
   -4.2627   22.4100  -25.7345 C   0  0  0  0  0  0  0  0  0  0  0  0
   -4.5763   23.7369  -25.9385 C   0  0  0  0  0  0  0  0  0  0  0  0
   -5.5714   24.3527  -25.1782 C   0  0  0  0  0  0  0  0  0  0  0  0
   -6.2720   23.6947  -24.2161 C   0  0  0  0  0  0  0  0  0  0  0  0
   -5.9556   22.3614  -24.0128 C   0  0  0  0  0  0  0  0  0  0  0  0
   -4.9749   21.7432  -24.7582 C   0  0  0  0  0  0  0  0  0  0  0  0
   -4.7354   20.4131  -24.5190 F   0  0  0  0  0  0  0  0  0  0  0  0
   -7.3199   24.2563  -23.4329 N   0  0  0  0  0  0  0  0  0  0  0  0
   -7.3157   24.2576  -22.0427 C   0  0  0  0  0  0  0  0  0  0  0  0
   -6.2654   23.7384  -21.4939 O   0  0  0  0  0  0  0  0  0  0  0  0
   -8.0790   24.6988  -24.0228 H   0  0  0  0  0  0  0  0  0  0  0  0
   -8.3205   24.7673  -21.0820 C   0  0  0  0  0  0  0  0  0  0  0  0
   -7.8629   25.8879  -20.1969 C   0  0  0  0  0  0  0  0  0  0  0  0
   -8.6886   26.2028  -21.3770 C   0  0  0  0  0  0  0  0  0  0  0  0
   -9.3522   23.9279  -20.4528 C   0  0  0  0  0  0  0  0  0  0  0  0
   -9.4105   22.7229  -20.9602 O   0  0  0  0  0  0  0  0  0  0  0  0
  -10.2419   24.2397  -19.4347 N   0  0  0  0  0  0  0  0  0  0  0  0
  -10.2893   25.1876  -19.0237 H   0  0  0  0  0  0  0  0  0  0  0  0
  -11.1875   23.2876  -18.9227 C   0  0  0  0  0  0  0  0  0  0  0  0
  -12.4542   23.3086  -19.2869 C   0  0  0  0  0  0  0  0  0  0  0  0
  -13.4396   22.3355  -18.7674 C   0  0  0  0  0  0  0  0  0  0  0  0
  -12.9376   21.3005  -17.8499 C   0  0  0  0  0  0  0  0  0  0  0  0
  -13.2367   20.0418  -18.4046 F   0  0  0  0  0  0  0  0  0  0  0  0
  -11.5153   21.3717  -17.5107 C   0  0  0  0  0  0  0  0  0  0  0  0
  -10.7119   22.2821  -18.0021 C   0  0  0  0  0  0  0  0  0  0  0  0
   -3.2808   21.7758  -26.4770 O   0  0  0  0  0  0  0  0  0  0  0  0
   -0.7191   21.4048  -23.2605 C   0  0  0  0  0  0  0  0  0  0  0  0
   -1.5765   21.5269  -24.3324 C   0  0  0  0  0  0  0  0  0  0  0  0
   -1.1496   22.0815  -25.5236 C   0  0  0  0  0  0  0  0  0  0  0  0
   -2.0010   22.2157  -26.6297 C   0  0  0  0  0  0  0  0  0  0  0  0
   -1.5540   22.7693  -27.8075 C   0  0  0  0  0  0  0  0  0  0  0  0
   -0.2435   23.2033  -27.9063 C   0  0  0  0  0  0  0  0  0  0  0  0
    0.5685   23.0735  -26.8445 N   0  0  0  0  0  0  0  0  0  0  0  0
    0.1422   22.5309  -25.6833 C   0  0  0  0  0  0  0  0  0  0  0  0
    0.9964   22.4019  -24.5936 C   0  0  0  0  0  0  0  0  0  0  0  0
    0.5792   21.8455  -23.3892 C   0  0  0  0  0  0  0  0  0  0  0  0
   -1.9122   21.6081  -21.1418 C   0  0  0  0  0  0  0  0  0  0  0  0
   -1.1422   20.8473  -22.0596 O   0  0  0  0  0  0  0  0  0  0  0  0
    1.4269   21.7154  -22.2992 O   0  0  0  0  0  0  0  0  0  0  0  0
    1.9598   20.4231  -22.0427 C   0  0  0  0  0  0  0  0  0  0  0  0
    3.3371   20.3343  -22.6831 C   0  0  0  0  0  0  0  0  0  0  0  0
    4.1453   19.3325  -21.9241 C   0  0  0  0  0  0  0  0  0  0  0  0
    3.3775   18.1534  -21.6680 N   0  0  0  0  0  0  0  0  0  0  0  0
    3.6544   17.1432  -22.6919 C   0  0  0  0  0  0  0  0  0  0  0  0
    4.4845   16.0215  -22.1589 C   0  0  0  0  0  0  0  0  0  0  0  0
    5.5781   16.4608  -21.2088 C   0  0  0  0  0  0  0  0  0  0  0  0
    5.0776   17.3442  -20.1153 C   0  0  0  0  0  0  0  0  0  0  0  0
    3.6159   17.6134  -20.3487 C   0  0  0  0  0  0  0  0  0  0  0  0
 37 38  1  0  0  0
 38 27  1  0  0  0
 27 28  2  0  0  0
 28 29  1  0  0  0
 29 30  2  0  0  0
 30 26  1  0  0  0
 26  1  1  0  0  0
  1  2  2  0  0  0
  2  3  1  0  0  0
  3  4  2  0  0  0
  4  8  1  0  0  0
  8  9  1  0  0  0
  9 10  2  0  0  0
  9 12  1  0  0  0
 12 13  1  0  0  0
 13 14  1  0  0  0
 12 15  1  0  0  0
 15 16  2  0  0  0
 15 17  1  0  0  0
 17 19  1  0  0  0
 19 20  2  0  0  0
 20 21  1  0  0  0
 21 22  1  0  0  0
 22 23  1  0  0  0
 22 24  1  0  0  0
 24 25  2  0  0  0
  4  5  1  0  0  0
  5  6  2  0  0  0
  6  7  1  0  0  0
 30 31  1  0  0  0
 31 32  2  0  0  0
 32 33  1  0  0  0
 33 34  2  0  0  0
 34 35  1  0  0  0
 35 36  2  0  0  0
 36 39  1  0  0  0
 39 40  1  0  0  0
 40 41  1  0  0  0
 41 42  1  0  0  0
 42 43  1  0  0  0
 43 44  1  0  0  0
 44 45  1  0  0  0
 45 46  1  0  0  0
 46 47  1  0  0  0
 47 48  1  0  0  0
 36 27  1  0  0  0
 48 43  1  0  0  0
 34 29  1  0  0  0
  6  1  1  0  0  0
 14 12  1  0  0  0
 25 19  1  0  0  0
  8 11  1  0  0  0
 17 18  1  0  0  0
M  END
> <minimizedAffinity>
-8.14626

> <CNNscore>
0.8038871884

> <CNNaffinity>
7.5008673668

> <CNN_VS>
6.0298509598

> <CNNaffinity_variance>
0.0364404246

$$$$
[H]C1=C([H])C([H])(F)C([H])([H])C([H])=C1N([H])C(=O)C1(C(=O)N([H])c2c([H])c([H])c(Oc3c([H])c([H])nc4c([H])c(OC([H])([H])C([H])([H])C([H])([H])N5C([H])([H])C([H])([H])C([H])([H])C([H])([H])C5([H])[H])c(OC([H])([H])[H])c([H])c34)c(F)c2[H])C([H])([H])C1([H])[H]


 48 53  0  0  0  0  0  0  0  0999 V2000
   -4.2476   23.1480  -25.9032 C   0  0  0  0  0  0  0  0  0  0  0  0
   -4.2905   24.5212  -26.0185 C   0  0  0  0  0  0  0  0  0  0  0  0
   -5.1258   25.2739  -25.1920 C   0  0  0  0  0  0  0  0  0  0  0  0
   -5.9261   24.7094  -24.2484 C   0  0  0  0  0  0  0  0  0  0  0  0
   -5.8817   23.3295  -24.1342 C   0  0  0  0  0  0  0  0  0  0  0  0
   -5.0607   22.5764  -24.9456 C   0  0  0  0  0  0  0  0  0  0  0  0
   -5.0904   21.2127  -24.7929 F   0  0  0  0  0  0  0  0  0  0  0  0
   -6.8236   25.4183  -23.4005 N   0  0  0  0  0  0  0  0  0  0  0  0
   -7.6679   24.7920  -22.4908 C   0  0  0  0  0  0  0  0  0  0  0  0
   -7.5616   23.5037  -22.4364 O   0  0  0  0  0  0  0  0  0  0  0  0
   -6.7517   26.4678  -23.5156 H   0  0  0  0  0  0  0  0  0  0  0  0
   -8.6695   25.3640  -21.5625 C   0  0  0  0  0  0  0  0  0  0  0  0
   -8.5810   24.8937  -20.1413 C   0  0  0  0  0  0  0  0  0  0  0  0
   -8.0142   26.2082  -20.4944 C   0  0  0  0  0  0  0  0  0  0  0  0
  -10.0386   25.7301  -21.9583 C   0  0  0  0  0  0  0  0  0  0  0  0
  -10.9558   25.0903  -21.2784 O   0  0  0  0  0  0  0  0  0  0  0  0
  -10.4659   26.6266  -22.9273 N   0  0  0  0  0  0  0  0  0  0  0  0
   -9.7986   27.1271  -23.5389 H   0  0  0  0  0  0  0  0  0  0  0  0
  -11.8570   26.8785  -23.1805 C   0  0  0  0  0  0  0  0  0  0  0  0
  -12.4925   27.8809  -22.6070 C   0  0  0  0  0  0  0  0  0  0  0  0
  -13.9249   28.1520  -22.8571 C   0  0  0  0  0  0  0  0  0  0  0  0
  -14.6135   27.2758  -23.8180 C   0  0  0  0  0  0  0  0  0  0  0  0
  -15.1414   28.0816  -24.8444 F   0  0  0  0  0  0  0  0  0  0  0  0
  -13.8140   26.1932  -24.3940 C   0  0  0  0  0  0  0  0  0  0  0  0
  -12.5501   26.0102  -24.1027 C   0  0  0  0  0  0  0  0  0  0  0  0
   -3.4286   22.3788  -26.7126 O   0  0  0  0  0  0  0  0  0  0  0  0
   -0.9929   21.5742  -23.4776 C   0  0  0  0  0  0  0  0  0  0  0  0
   -1.8086   21.8415  -24.5557 C   0  0  0  0  0  0  0  0  0  0  0  0
   -1.2796   22.2755  -25.7559 C   0  0  0  0  0  0  0  0  0  0  0  0
   -2.0869   22.5528  -26.8684 C   0  0  0  0  0  0  0  0  0  0  0  0
   -1.5384   22.9821  -28.0551 C   0  0  0  0  0  0  0  0  0  0  0  0
   -0.1678   23.1454  -28.1568 C   0  0  0  0  0  0  0  0  0  0  0  0
    0.6018   22.8792  -27.0888 N   0  0  0  0  0  0  0  0  0  0  0  0
    0.0758   22.4563  -25.9187 C   0  0  0  0  0  0  0  0  0  0  0  0
    0.8869   22.1831  -24.8228 C   0  0  0  0  0  0  0  0  0  0  0  0
    0.3670   21.7457  -23.6093 C   0  0  0  0  0  0  0  0  0  0  0  0
   -2.6400   21.7875  -21.6900 C   0  0  0  0  0  0  0  0  0  0  0  0
   -1.5188   21.1368  -22.2675 O   0  0  0  0  0  0  0  0  0  0  0  0
    1.1715   21.4729  -22.5130 O   0  0  0  0  0  0  0  0  0  0  0  0
    2.4469   20.9013  -22.7708 C   0  0  0  0  0  0  0  0  0  0  0  0
    3.2078   20.8087  -21.4564 C   0  0  0  0  0  0  0  0  0  0  0  0
    2.2272   20.5331  -20.3633 C   0  0  0  0  0  0  0  0  0  0  0  0
    2.7556   20.9360  -19.0968 N   0  0  0  0  0  0  0  0  0  0  0  0
    3.3192   22.2844  -19.1953 C   0  0  0  0  0  0  0  0  0  0  0  0
    2.4619   23.2987  -18.5114 C   0  0  0  0  0  0  0  0  0  0  0  0
    0.9761   23.0797  -18.7016 C   0  0  0  0  0  0  0  0  0  0  0  0
    0.5479   21.6875  -18.3779 C   0  0  0  0  0  0  0  0  0  0  0  0
    1.7698   20.8767  -18.0416 C   0  0  0  0  0  0  0  0  0  0  0  0
 37 38  1  0  0  0
 38 27  1  0  0  0
 27 28  2  0  0  0
 28 29  1  0  0  0
 29 30  2  0  0  0
 30 26  1  0  0  0
 26  1  1  0  0  0
  1  2  2  0  0  0
  2  3  1  0  0  0
  3  4  2  0  0  0
  4  8  1  0  0  0
  8  9  1  0  0  0
  9 10  2  0  0  0
  9 12  1  0  0  0
 12 13  1  0  0  0
 13 14  1  0  0  0
 12 15  1  0  0  0
 15 16  2  0  0  0
 15 17  1  0  0  0
 17 19  1  0  0  0
 19 20  2  0  0  0
 20 21  1  0  0  0
 21 22  1  0  0  0
 22 23  1  0  0  0
 22 24  1  0  0  0
 24 25  2  0  0  0
  4  5  1  0  0  0
  5  6  2  0  0  0
  6  7  1  0  0  0
 30 31  1  0  0  0
 31 32  2  0  0  0
 32 33  1  0  0  0
 33 34  2  0  0  0
 34 35  1  0  0  0
 35 36  2  0  0  0
 36 39  1  0  0  0
 39 40  1  0  0  0
 40 41  1  0  0  0
 41 42  1  0  0  0
 42 43  1  0  0  0
 43 44  1  0  0  0
 44 45  1  0  0  0
 45 46  1  0  0  0
 46 47  1  0  0  0
 47 48  1  0  0  0
 36 27  1  0  0  0
 48 43  1  0  0  0
 34 29  1  0  0  0
  6  1  1  0  0  0
 14 12  1  0  0  0
 25 19  1  0  0  0
  8 11  1  0  0  0
 17 18  1  0  0  0
M  END
> <minimizedAffinity>
-9.47535

> <CNNscore>
0.7477375269

> <CNNaffinity>
7.6038985252

> <CNN_VS>
5.6857204437

> <CNNaffinity_variance>
0.0424475633

$$$$
[H]C1=C([H])C([H])(F)C([H])([H])C([H])=C1N([H])C(=O)C1(C(=O)N([H])c2c([H])c([H])c(Oc3c([H])c([H])nc4c([H])c(OC([H])([H])C([H])([H])C([H])([H])N5C([H])([H])C([H])([H])C([H])([H])C([H])([H])C5([H])[H])c(OC([H])([H])[H])c([H])c34)c(F)c2[H])C([H])([H])C1([H])[H]


 48 53  0  0  0  0  0  0  0  0999 V2000
   -4.4625   23.0444  -25.9338 C   0  0  0  0  0  0  0  0  0  0  0  0
   -5.1476   22.1853  -25.1011 C   0  0  0  0  0  0  0  0  0  0  0  0
   -5.8600   22.6795  -24.0076 C   0  0  0  0  0  0  0  0  0  0  0  0
   -5.9175   24.0048  -23.7080 C   0  0  0  0  0  0  0  0  0  0  0  0
   -5.2284   24.8664  -24.5458 C   0  0  0  0  0  0  0  0  0  0  0  0
   -4.5213   24.3891  -25.6283 C   0  0  0  0  0  0  0  0  0  0  0  0
   -3.8411   25.3000  -26.3974 F   0  0  0  0  0  0  0  0  0  0  0  0
   -6.5968   24.5662  -22.5898 N   0  0  0  0  0  0  0  0  0  0  0  0
   -7.9232   24.9801  -22.6329 C   0  0  0  0  0  0  0  0  0  0  0  0
   -8.5242   24.7886  -23.7625 O   0  0  0  0  0  0  0  0  0  0  0  0
   -5.9938   24.6012  -21.7208 H   0  0  0  0  0  0  0  0  0  0  0  0
   -8.7676   25.6009  -21.5870 C   0  0  0  0  0  0  0  0  0  0  0  0
   -8.6158   25.0326  -20.2077 C   0  0  0  0  0  0  0  0  0  0  0  0
   -7.9286   26.2942  -20.5389 C   0  0  0  0  0  0  0  0  0  0  0  0
  -10.1119   26.1451  -21.8353 C   0  0  0  0  0  0  0  0  0  0  0  0
  -10.0897   27.3161  -22.4193 O   0  0  0  0  0  0  0  0  0  0  0  0
  -11.3524   25.6007  -21.5350 N   0  0  0  0  0  0  0  0  0  0  0  0
  -11.4457   24.7049  -21.0263 H   0  0  0  0  0  0  0  0  0  0  0  0
  -12.5826   26.2661  -21.8615 C   0  0  0  0  0  0  0  0  0  0  0  0
  -13.1313   27.1424  -21.0438 C   0  0  0  0  0  0  0  0  0  0  0  0
  -14.3982   27.8347  -21.3658 C   0  0  0  0  0  0  0  0  0  0  0  0
  -15.0093   27.5382  -22.6711 C   0  0  0  0  0  0  0  0  0  0  0  0
  -15.1402   28.7485  -23.3779 F   0  0  0  0  0  0  0  0  0  0  0  0
  -14.3177   26.5485  -23.4989 C   0  0  0  0  0  0  0  0  0  0  0  0
  -13.2049   25.9649  -23.1289 C   0  0  0  0  0  0  0  0  0  0  0  0
   -3.7469   22.5788  -27.0241 O   0  0  0  0  0  0  0  0  0  0  0  0
   -1.1902   21.6162  -23.9285 C   0  0  0  0  0  0  0  0  0  0  0  0
   -2.0462   21.9362  -24.9600 C   0  0  0  0  0  0  0  0  0  0  0  0
   -1.5626   22.4247  -26.1584 C   0  0  0  0  0  0  0  0  0  0  0  0
   -2.4115   22.7563  -27.2241 C   0  0  0  0  0  0  0  0  0  0  0  0
   -1.9079   23.2395  -28.4100 C   0  0  0  0  0  0  0  0  0  0  0  0
   -0.5416   23.4037  -28.5576 C   0  0  0  0  0  0  0  0  0  0  0  0
    0.2680   23.0854  -27.5343 N   0  0  0  0  0  0  0  0  0  0  0  0
   -0.2138   22.6094  -26.3657 C   0  0  0  0  0  0  0  0  0  0  0  0
    0.6383   22.2828  -25.3164 C   0  0  0  0  0  0  0  0  0  0  0  0
    0.1643   21.7902  -24.1053 C   0  0  0  0  0  0  0  0  0  0  0  0
   -2.7885   21.7269  -22.0882 C   0  0  0  0  0  0  0  0  0  0  0  0
   -1.6703   21.1238  -22.7206 O   0  0  0  0  0  0  0  0  0  0  0  0
    1.0098   21.4638  -23.0555 O   0  0  0  0  0  0  0  0  0  0  0  0
    2.3620   21.1696  -23.3793 C   0  0  0  0  0  0  0  0  0  0  0  0
    3.0794   20.7408  -22.1078 C   0  0  0  0  0  0  0  0  0  0  0  0
    2.1056   20.7980  -20.9759 C   0  0  0  0  0  0  0  0  0  0  0  0
    2.7368   20.4278  -19.7471 N   0  0  0  0  0  0  0  0  0  0  0  0
    4.0770   21.0145  -19.6758 C   0  0  0  0  0  0  0  0  0  0  0  0
    4.1407   22.1434  -18.6996 C   0  0  0  0  0  0  0  0  0  0  0  0
    2.9189   23.0372  -18.7096 C   0  0  0  0  0  0  0  0  0  0  0  0
    1.6412   22.2760  -18.5896 C   0  0  0  0  0  0  0  0  0  0  0  0
    1.9583   20.8053  -18.5893 C   0  0  0  0  0  0  0  0  0  0  0  0
 37 38  1  0  0  0
 38 27  1  0  0  0
 27 28  2  0  0  0
 28 29  1  0  0  0
 29 30  2  0  0  0
 30 26  1  0  0  0
 26  1  1  0  0  0
  1  2  2  0  0  0
  2  3  1  0  0  0
  3  4  2  0  0  0
  4  8  1  0  0  0
  8  9  1  0  0  0
  9 10  2  0  0  0
  9 12  1  0  0  0
 12 13  1  0  0  0
 13 14  1  0  0  0
 12 15  1  0  0  0
 15 16  2  0  0  0
 15 17  1  0  0  0
 17 19  1  0  0  0
 19 20  2  0  0  0
 20 21  1  0  0  0
 21 22  1  0  0  0
 22 23  1  0  0  0
 22 24  1  0  0  0
 24 25  2  0  0  0
  4  5  1  0  0  0
  5  6  2  0  0  0
  6  7  1  0  0  0
 30 31  1  0  0  0
 31 32  2  0  0  0
 32 33  1  0  0  0
 33 34  2  0  0  0
 34 35  1  0  0  0
 35 36  2  0  0  0
 36 39  1  0  0  0
 39 40  1  0  0  0
 40 41  1  0  0  0
 41 42  1  0  0  0
 42 43  1  0  0  0
 43 44  1  0  0  0
 44 45  1  0  0  0
 45 46  1  0  0  0
 46 47  1  0  0  0
 47 48  1  0  0  0
 36 27  1  0  0  0
 48 43  1  0  0  0
 34 29  1  0  0  0
  6  1  1  0  0  0
 14 12  1  0  0  0
 25 19  1  0  0  0
  8 11  1  0  0  0
 17 18  1  0  0  0
M  END
> <minimizedAffinity>
-9.26782

> <CNNscore>
0.5896143913

> <CNNaffinity>
7.4384970665

> <CNN_VS>
4.3858447075

> <CNNaffinity_variance>
0.1013443470

$$$$
[H]C1=C([H])C([H])(F)C([H])([H])C([H])=C1N([H])C(=O)C1(C(=O)N([H])c2c([H])c([H])c(Oc3c([H])c([H])nc4c([H])c(OC([H])([H])C([H])([H])C([H])([H])N5C([H])([H])C([H])([H])C([H])([H])C([H])([H])C5([H])[H])c(OC([H])([H])[H])c([H])c34)c(F)c2[H])C([H])([H])C1([H])[H]


 48 53  0  0  0  0  0  0  0  0999 V2000
   -4.3277   22.5390  -25.3847 C   0  0  0  0  0  0  0  0  0  0  0  0
   -4.3703   23.9069  -25.5512 C   0  0  0  0  0  0  0  0  0  0  0  0
   -5.3827   24.6600  -24.9552 C   0  0  0  0  0  0  0  0  0  0  0  0
   -6.3617   24.1010  -24.1946 C   0  0  0  0  0  0  0  0  0  0  0  0
   -6.3173   22.7264  -24.0287 C   0  0  0  0  0  0  0  0  0  0  0  0
   -5.3222   21.9729  -24.6131 C   0  0  0  0  0  0  0  0  0  0  0  0
   -5.3588   20.6136  -24.4266 F   0  0  0  0  0  0  0  0  0  0  0  0
   -7.4387   24.8093  -23.5901 N   0  0  0  0  0  0  0  0  0  0  0  0
   -7.8820   24.5626  -22.2958 C   0  0  0  0  0  0  0  0  0  0  0  0
   -7.2214   23.6569  -21.6499 O   0  0  0  0  0  0  0  0  0  0  0  0
   -7.8377   25.5610  -24.2191 H   0  0  0  0  0  0  0  0  0  0  0  0
   -8.9890   25.1777  -21.5287 C   0  0  0  0  0  0  0  0  0  0  0  0
   -8.8817   26.6567  -21.3059 C   0  0  0  0  0  0  0  0  0  0  0  0
   -9.7684   26.1586  -22.3733 C   0  0  0  0  0  0  0  0  0  0  0  0
   -9.7220   24.4903  -20.4538 C   0  0  0  0  0  0  0  0  0  0  0  0
  -10.1567   25.3070  -19.5281 O   0  0  0  0  0  0  0  0  0  0  0  0
   -9.9949   23.1389  -20.2976 N   0  0  0  0  0  0  0  0  0  0  0  0
   -9.6371   22.4304  -20.9608 H   0  0  0  0  0  0  0  0  0  0  0  0
  -10.7434   22.6304  -19.1823 C   0  0  0  0  0  0  0  0  0  0  0  0
  -10.1503   22.0336  -18.1676 C   0  0  0  0  0  0  0  0  0  0  0  0
  -10.9078   21.5039  -17.0128 C   0  0  0  0  0  0  0  0  0  0  0  0
  -12.3648   21.7102  -17.0174 C   0  0  0  0  0  0  0  0  0  0  0  0
  -12.7097   22.4200  -15.8517 F   0  0  0  0  0  0  0  0  0  0  0  0
  -12.9190   22.3821  -18.1939 C   0  0  0  0  0  0  0  0  0  0  0  0
  -12.1767   22.8046  -19.1870 C   0  0  0  0  0  0  0  0  0  0  0  0
   -3.3347   21.7694  -25.9672 O   0  0  0  0  0  0  0  0  0  0  0  0
   -1.6386   21.4453  -22.2171 C   0  0  0  0  0  0  0  0  0  0  0  0
   -2.2077   21.5523  -23.4675 C   0  0  0  0  0  0  0  0  0  0  0  0
   -1.4424   21.8794  -24.5703 C   0  0  0  0  0  0  0  0  0  0  0  0
   -1.9961   21.9930  -25.8536 C   0  0  0  0  0  0  0  0  0  0  0  0
   -1.2146   22.3178  -26.9385 C   0  0  0  0  0  0  0  0  0  0  0  0
    0.1408   22.5381  -26.7650 C   0  0  0  0  0  0  0  0  0  0  0  0
    0.6671   22.4287  -25.5342 N   0  0  0  0  0  0  0  0  0  0  0  0
   -0.0891   22.1096  -24.4614 C   0  0  0  0  0  0  0  0  0  0  0  0
    0.4719   21.9985  -23.1939 C   0  0  0  0  0  0  0  0  0  0  0  0
   -0.2873   21.6700  -22.0759 C   0  0  0  0  0  0  0  0  0  0  0  0
   -3.5985   21.8235  -20.8137 C   0  0  0  0  0  0  0  0  0  0  0  0
   -2.4028   21.1161  -21.1036 O   0  0  0  0  0  0  0  0  0  0  0  0
    0.2671   21.5589  -20.8095 O   0  0  0  0  0  0  0  0  0  0  0  0
    1.6327   21.1733  -20.7309 C   0  0  0  0  0  0  0  0  0  0  0  0
    2.0939   21.3252  -19.2889 C   0  0  0  0  0  0  0  0  0  0  0  0
    3.1411   22.3899  -19.2394 C   0  0  0  0  0  0  0  0  0  0  0  0
    4.1355   22.0756  -18.2606 N   0  0  0  0  0  0  0  0  0  0  0  0
    5.3907   22.7572  -18.5852 C   0  0  0  0  0  0  0  0  0  0  0  0
    5.6636   23.8955  -17.6572 C   0  0  0  0  0  0  0  0  0  0  0  0
    4.4348   24.6994  -17.2890 C   0  0  0  0  0  0  0  0  0  0  0  0
    3.3086   23.8497  -16.8031 C   0  0  0  0  0  0  0  0  0  0  0  0
    3.7144   22.4056  -16.9180 C   0  0  0  0  0  0  0  0  0  0  0  0
 37 38  1  0  0  0
 38 27  1  0  0  0
 27 28  2  0  0  0
 28 29  1  0  0  0
 29 30  2  0  0  0
 30 26  1  0  0  0
 26  1  1  0  0  0
  1  2  2  0  0  0
  2  3  1  0  0  0
  3  4  2  0  0  0
  4  8  1  0  0  0
  8  9  1  0  0  0
  9 10  2  0  0  0
  9 12  1  0  0  0
 12 13  1  0  0  0
 13 14  1  0  0  0
 12 15  1  0  0  0
 15 16  2  0  0  0
 15 17  1  0  0  0
 17 19  1  0  0  0
 19 20  2  0  0  0
 20 21  1  0  0  0
 21 22  1  0  0  0
 22 23  1  0  0  0
 22 24  1  0  0  0
 24 25  2  0  0  0
  4  5  1  0  0  0
  5  6  2  0  0  0
  6  7  1  0  0  0
 30 31  1  0  0  0
 31 32  2  0  0  0
 32 33  1  0  0  0
 33 34  2  0  0  0
 34 35  1  0  0  0
 35 36  2  0  0  0
 36 39  1  0  0  0
 39 40  1  0  0  0
 40 41  1  0  0  0
 41 42  1  0  0  0
 42 43  1  0  0  0
 43 44  1  0  0  0
 44 45  1  0  0  0
 45 46  1  0  0  0
 46 47  1  0  0  0
 47 48  1  0  0  0
 36 27  1  0  0  0
 48 43  1  0  0  0
 34 29  1  0  0  0
  6  1  1  0  0  0
 14 12  1  0  0  0
 25 19  1  0  0  0
  8 11  1  0  0  0
 17 18  1  0  0  0
M  END
> <minimizedAffinity>
-8.00047

> <CNNscore>
0.3019467890

> <CNNaffinity>
6.9691710472

> <CNN_VS>
2.1043188572

> <CNNaffinity_variance>
0.0956055298

$$$$
[H]C1=C([H])C([H])(F)C([H])([H])C([H])=C1N([H])C(=O)C1(C(=O)N([H])c2c([H])c([H])c(Oc3c([H])c([H])nc4c([H])c(OC([H])([H])C([H])([H])C([H])([H])N5C([H])([H])C([H])([H])C([H])([H])C([H])([H])C5([H])[H])c(OC([H])([H])[H])c([H])c34)c(F)c2[H])C([H])([H])C1([H])[H]


 48 53  0  0  0  0  0  0  0  0999 V2000
   -0.7317   21.6533  -21.1516 C   0  0  0  0  0  0  0  0  0  0  0  0
   -0.9931   22.8605  -20.5392 C   0  0  0  0  0  0  0  0  0  0  0  0
   -0.3274   23.2161  -19.3654 C   0  0  0  0  0  0  0  0  0  0  0  0
    0.5948   22.4113  -18.7727 C   0  0  0  0  0  0  0  0  0  0  0  0
    0.8559   21.1986  -19.3894 C   0  0  0  0  0  0  0  0  0  0  0  0
    0.2040   20.8372  -20.5487 C   0  0  0  0  0  0  0  0  0  0  0  0
    0.4949   19.6088  -21.0875 F   0  0  0  0  0  0  0  0  0  0  0  0
    1.2807   22.7015  -17.5593 N   0  0  0  0  0  0  0  0  0  0  0  0
    2.6108   23.1033  -17.5131 C   0  0  0  0  0  0  0  0  0  0  0  0
    3.1880   23.2332  -18.6636 O   0  0  0  0  0  0  0  0  0  0  0  0
    0.6600   22.6106  -16.7071 H   0  0  0  0  0  0  0  0  0  0  0  0
    3.4772   23.4167  -16.3540 C   0  0  0  0  0  0  0  0  0  0  0  0
    4.9477   23.2178  -16.5697 C   0  0  0  0  0  0  0  0  0  0  0  0
    4.3933   24.5817  -16.6479 C   0  0  0  0  0  0  0  0  0  0  0  0
    3.0741   23.2196  -14.9526 C   0  0  0  0  0  0  0  0  0  0  0  0
    3.6883   22.2156  -14.3803 O   0  0  0  0  0  0  0  0  0  0  0  0
    2.1566   23.9295  -14.1913 N   0  0  0  0  0  0  0  0  0  0  0  0
    1.5954   24.7000  -14.5927 H   0  0  0  0  0  0  0  0  0  0  0  0
    1.8876   23.6094  -12.8173 C   0  0  0  0  0  0  0  0  0  0  0  0
    1.0476   22.6498  -12.4838 C   0  0  0  0  0  0  0  0  0  0  0  0
    0.7598   22.3096  -11.0734 C   0  0  0  0  0  0  0  0  0  0  0  0
    1.4899   23.0628  -10.0414 C   0  0  0  0  0  0  0  0  0  0  0  0
    2.1975   22.1418   -9.2461 F   0  0  0  0  0  0  0  0  0  0  0  0
    2.3959   24.1070  -10.5226 C   0  0  0  0  0  0  0  0  0  0  0  0
    2.5793   24.3584  -11.7949 C   0  0  0  0  0  0  0  0  0  0  0  0
   -1.3802   21.2767  -22.3157 O   0  0  0  0  0  0  0  0  0  0  0  0
   -4.2956   22.2138  -25.0848 C   0  0  0  0  0  0  0  0  0  0  0  0
   -3.3249   21.9009  -24.1581 C   0  0  0  0  0  0  0  0  0  0  0  0
   -1.9869   21.9053  -24.5023 C   0  0  0  0  0  0  0  0  0  0  0  0
   -0.9794   21.5925  -23.5784 C   0  0  0  0  0  0  0  0  0  0  0  0
    0.3475   21.6051  -23.9425 C   0  0  0  0  0  0  0  0  0  0  0  0
    0.6983   21.9301  -25.2413 C   0  0  0  0  0  0  0  0  0  0  0  0
   -0.2696   22.2285  -26.1232 N   0  0  0  0  0  0  0  0  0  0  0  0
   -1.5755   22.2207  -25.7780 C   0  0  0  0  0  0  0  0  0  0  0  0
   -2.5655   22.5340  -26.7029 C   0  0  0  0  0  0  0  0  0  0  0  0
   -3.9156   22.5334  -26.3692 C   0  0  0  0  0  0  0  0  0  0  0  0
   -6.1054   21.4672  -23.6285 C   0  0  0  0  0  0  0  0  0  0  0  0
   -5.6434   22.2118  -24.7448 O   0  0  0  0  0  0  0  0  0  0  0  0
   -4.9069   22.8442  -27.2881 O   0  0  0  0  0  0  0  0  0  0  0  0
   -4.5274   23.6282  -28.4111 C   0  0  0  0  0  0  0  0  0  0  0  0
   -5.3530   24.9062  -28.4074 C   0  0  0  0  0  0  0  0  0  0  0  0
   -4.7121   25.8779  -27.4706 C   0  0  0  0  0  0  0  0  0  0  0  0
   -5.7018   26.5647  -26.6997 N   0  0  0  0  0  0  0  0  0  0  0  0
   -6.5531   25.5980  -26.0023 C   0  0  0  0  0  0  0  0  0  0  0  0
   -6.2685   25.5594  -24.5365 C   0  0  0  0  0  0  0  0  0  0  0  0
   -4.7986   25.6667  -24.1905 C   0  0  0  0  0  0  0  0  0  0  0  0
   -4.1291   26.8247  -24.8518 C   0  0  0  0  0  0  0  0  0  0  0  0
   -5.1224   27.4973  -25.7598 C   0  0  0  0  0  0  0  0  0  0  0  0
 37 38  1  0  0  0
 38 27  1  0  0  0
 27 28  2  0  0  0
 28 29  1  0  0  0
 29 30  2  0  0  0
 30 26  1  0  0  0
 26  1  1  0  0  0
  1  2  2  0  0  0
  2  3  1  0  0  0
  3  4  2  0  0  0
  4  8  1  0  0  0
  8  9  1  0  0  0
  9 10  2  0  0  0
  9 12  1  0  0  0
 12 13  1  0  0  0
 13 14  1  0  0  0
 12 15  1  0  0  0
 15 16  2  0  0  0
 15 17  1  0  0  0
 17 19  1  0  0  0
 19 20  2  0  0  0
 20 21  1  0  0  0
 21 22  1  0  0  0
 22 23  1  0  0  0
 22 24  1  0  0  0
 24 25  2  0  0  0
  4  5  1  0  0  0
  5  6  2  0  0  0
  6  7  1  0  0  0
 30 31  1  0  0  0
 31 32  2  0  0  0
 32 33  1  0  0  0
 33 34  2  0  0  0
 34 35  1  0  0  0
 35 36  2  0  0  0
 36 39  1  0  0  0
 39 40  1  0  0  0
 40 41  1  0  0  0
 41 42  1  0  0  0
 42 43  1  0  0  0
 43 44  1  0  0  0
 44 45  1  0  0  0
 45 46  1  0  0  0
 46 47  1  0  0  0
 47 48  1  0  0  0
 36 27  1  0  0  0
 48 43  1  0  0  0
 34 29  1  0  0  0
  6  1  1  0  0  0
 14 12  1  0  0  0
 25 19  1  0  0  0
  8 11  1  0  0  0
 17 18  1  0  0  0
M  END
> <minimizedAffinity>
-8.83650

> <CNNscore>
0.2322420478

> <CNNaffinity>
6.8498244286

> <CNN_VS>
1.5908172131

> <CNNaffinity_variance>
0.0758939013

$$$$
[H]C1=C([H])C([H])(F)C([H])([H])C([H])=C1N([H])C(=O)C1(C(=O)N([H])c2c([H])c([H])c(Oc3c([H])c([H])nc4c([H])c(OC([H])([H])C([H])([H])C([H])([H])N5C([H])([H])C([H])([H])C([H])([H])C([H])([H])C5([H])[H])c(OC([H])([H])[H])c([H])c34)c(F)c2[H])C([H])([H])C1([H])[H]


 48 53  0  0  0  0  0  0  0  0999 V2000
   -1.8852   22.5493  -26.3187 C   0  0  0  0  0  0  0  0  0  0  0  0
   -2.7619   21.8668  -25.5023 C   0  0  0  0  0  0  0  0  0  0  0  0
   -2.3460   21.3960  -24.2562 C   0  0  0  0  0  0  0  0  0  0  0  0
   -1.0826   21.5789  -23.7873 C   0  0  0  0  0  0  0  0  0  0  0  0
   -0.2032   22.2646  -24.6092 C   0  0  0  0  0  0  0  0  0  0  0  0
   -0.6032   22.7336  -25.8419 C   0  0  0  0  0  0  0  0  0  0  0  0
    0.3311   23.3803  -26.6119 F   0  0  0  0  0  0  0  0  0  0  0  0
   -0.5891   21.0938  -22.5430 N   0  0  0  0  0  0  0  0  0  0  0  0
   -0.7946   21.7488  -21.3342 C   0  0  0  0  0  0  0  0  0  0  0  0
   -1.5043   22.8282  -21.4054 O   0  0  0  0  0  0  0  0  0  0  0  0
   -0.0822   20.1696  -22.6367 H   0  0  0  0  0  0  0  0  0  0  0  0
   -0.3371   21.4052  -19.9685 C   0  0  0  0  0  0  0  0  0  0  0  0
   -1.4038   20.9351  -19.0253 C   0  0  0  0  0  0  0  0  0  0  0  0
   -0.5337   19.9366  -19.6731 C   0  0  0  0  0  0  0  0  0  0  0  0
    0.7738   22.0829  -19.2817 C   0  0  0  0  0  0  0  0  0  0  0  0
    0.5912   23.3736  -19.1645 O   0  0  0  0  0  0  0  0  0  0  0  0
    1.9482   21.5512  -18.7685 N   0  0  0  0  0  0  0  0  0  0  0  0
    2.1841   20.5496  -18.8725 H   0  0  0  0  0  0  0  0  0  0  0  0
    2.9339   22.3611  -18.1087 C   0  0  0  0  0  0  0  0  0  0  0  0
    4.0795   22.6620  -18.6873 C   0  0  0  0  0  0  0  0  0  0  0  0
    5.1046   23.4938  -18.0201 C   0  0  0  0  0  0  0  0  0  0  0  0
    4.7754   24.0177  -16.6850 C   0  0  0  0  0  0  0  0  0  0  0  0
    4.8674   25.4216  -16.7311 F   0  0  0  0  0  0  0  0  0  0  0  0
    3.4780   23.6198  -16.1361 C   0  0  0  0  0  0  0  0  0  0  0  0
    2.6328   22.8606  -16.7880 C   0  0  0  0  0  0  0  0  0  0  0  0
   -2.2730   23.0248  -27.5601 O   0  0  0  0  0  0  0  0  0  0  0  0
   -4.6377   25.3723  -25.1225 C   0  0  0  0  0  0  0  0  0  0  0  0
   -3.8457   24.5895  -25.9341 C   0  0  0  0  0  0  0  0  0  0  0  0
   -4.3426   24.0517  -27.1057 C   0  0  0  0  0  0  0  0  0  0  0  0
   -3.5576   23.2534  -27.9501 C   0  0  0  0  0  0  0  0  0  0  0  0
   -4.0725   22.7296  -29.1137 C   0  0  0  0  0  0  0  0  0  0  0  0
   -5.3868   22.9913  -29.4600 C   0  0  0  0  0  0  0  0  0  0  0  0
   -6.1353   23.7559  -28.6482 N   0  0  0  0  0  0  0  0  0  0  0  0
   -5.6414   24.2767  -27.5040 C   0  0  0  0  0  0  0  0  0  0  0  0
   -6.4294   25.0681  -26.6754 C   0  0  0  0  0  0  0  0  0  0  0  0
   -5.9414   25.6153  -25.4936 C   0  0  0  0  0  0  0  0  0  0  0  0
   -3.5895   25.0813  -22.9384 C   0  0  0  0  0  0  0  0  0  0  0  0
   -4.1438   25.9168  -23.9427 O   0  0  0  0  0  0  0  0  0  0  0  0
   -6.7233   26.4044  -24.6633 O   0  0  0  0  0  0  0  0  0  0  0  0
   -7.6279   25.7346  -23.7955 C   0  0  0  0  0  0  0  0  0  0  0  0
   -7.1771   24.2884  -23.6529 C   0  0  0  0  0  0  0  0  0  0  0  0
   -7.5974   23.7950  -22.3067 C   0  0  0  0  0  0  0  0  0  0  0  0
   -7.2953   22.4047  -22.1609 N   0  0  0  0  0  0  0  0  0  0  0  0
   -5.9739   22.1176  -22.7241 C   0  0  0  0  0  0  0  0  0  0  0  0
   -4.9581   21.8588  -21.6599 C   0  0  0  0  0  0  0  0  0  0  0  0
   -5.0898   22.7585  -20.4495 C   0  0  0  0  0  0  0  0  0  0  0  0
   -6.4746   22.7870  -19.8946 C   0  0  0  0  0  0  0  0  0  0  0  0
   -7.3645   21.9643  -20.7861 C   0  0  0  0  0  0  0  0  0  0  0  0
 37 38  1  0  0  0
 38 27  1  0  0  0
 27 28  2  0  0  0
 28 29  1  0  0  0
 29 30  2  0  0  0
 30 26  1  0  0  0
 26  1  1  0  0  0
  1  2  2  0  0  0
  2  3  1  0  0  0
  3  4  2  0  0  0
  4  8  1  0  0  0
  8  9  1  0  0  0
  9 10  2  0  0  0
  9 12  1  0  0  0
 12 13  1  0  0  0
 13 14  1  0  0  0
 12 15  1  0  0  0
 15 16  2  0  0  0
 15 17  1  0  0  0
 17 19  1  0  0  0
 19 20  2  0  0  0
 20 21  1  0  0  0
 21 22  1  0  0  0
 22 23  1  0  0  0
 22 24  1  0  0  0
 24 25  2  0  0  0
  4  5  1  0  0  0
  5  6  2  0  0  0
  6  7  1  0  0  0
 30 31  1  0  0  0
 31 32  2  0  0  0
 32 33  1  0  0  0
 33 34  2  0  0  0
 34 35  1  0  0  0
 35 36  2  0  0  0
 36 39  1  0  0  0
 39 40  1  0  0  0
 40 41  1  0  0  0
 41 42  1  0  0  0
 42 43  1  0  0  0
 43 44  1  0  0  0
 44 45  1  0  0  0
 45 46  1  0  0  0
 46 47  1  0  0  0
 47 48  1  0  0  0
 36 27  1  0  0  0
 48 43  1  0  0  0
 34 29  1  0  0  0
  6  1  1  0  0  0
 14 12  1  0  0  0
 25 19  1  0  0  0
  8 11  1  0  0  0
 17 18  1  0  0  0
M  END
> <minimizedAffinity>
-9.30294

> <CNNscore>
0.1636347175

> <CNNaffinity>
7.1543378830

> <CNN_VS>
1.1706980467

> <CNNaffinity_variance>
0.7276715636

$$$$
[H]C1=C([H])C([H])(F)C([H])([H])C([H])=C1N([H])C(=O)C1(C(=O)N([H])c2c([H])c([H])c(Oc3c([H])c([H])nc4c([H])c(OC([H])([H])C([H])([H])C([H])([H])N5C([H])([H])C([H])([H])C([H])([H])C([H])([H])C5([H])[H])c(OC([H])([H])[H])c([H])c34)c(F)c2[H])C([H])([H])C1([H])[H]


 48 53  0  0  0  0  0  0  0  0999 V2000
   -5.1948   21.3791  -18.6678 C   0  0  0  0  0  0  0  0  0  0  0  0
   -4.5808   20.6515  -17.6706 C   0  0  0  0  0  0  0  0  0  0  0  0
   -5.0893   20.6648  -16.3711 C   0  0  0  0  0  0  0  0  0  0  0  0
   -6.1927   21.3791  -16.0225 C   0  0  0  0  0  0  0  0  0  0  0  0
   -6.8081   22.1097  -17.0258 C   0  0  0  0  0  0  0  0  0  0  0  0
   -6.3142   22.1041  -18.3126 C   0  0  0  0  0  0  0  0  0  0  0  0
   -6.9610   22.8735  -19.2472 F   0  0  0  0  0  0  0  0  0  0  0  0
   -6.7387   21.4607  -14.7101 N   0  0  0  0  0  0  0  0  0  0  0  0
   -6.3939   22.4549  -13.8017 C   0  0  0  0  0  0  0  0  0  0  0  0
   -5.5570   23.3380  -14.2418 O   0  0  0  0  0  0  0  0  0  0  0  0
   -7.4552   20.7061  -14.5179 H   0  0  0  0  0  0  0  0  0  0  0  0
   -6.8380   22.6735  -12.4062 C   0  0  0  0  0  0  0  0  0  0  0  0
   -7.2133   21.4384  -11.6431 C   0  0  0  0  0  0  0  0  0  0  0  0
   -5.8864   22.0405  -11.4180 C   0  0  0  0  0  0  0  0  0  0  0  0
   -7.5724   23.8669  -11.9574 C   0  0  0  0  0  0  0  0  0  0  0  0
   -8.6642   23.5769  -11.2966 O   0  0  0  0  0  0  0  0  0  0  0  0
   -7.2718   25.2086  -12.1437 N   0  0  0  0  0  0  0  0  0  0  0  0
   -6.4551   25.5118  -12.7013 H   0  0  0  0  0  0  0  0  0  0  0  0
   -8.0991   26.2606  -11.6226 C   0  0  0  0  0  0  0  0  0  0  0  0
   -7.7325   26.9724  -10.5754 C   0  0  0  0  0  0  0  0  0  0  0  0
   -8.5742   28.0580  -10.0268 C   0  0  0  0  0  0  0  0  0  0  0  0
   -9.8338   28.3480  -10.7302 C   0  0  0  0  0  0  0  0  0  0  0  0
   -9.8127   29.6986  -11.1260 F   0  0  0  0  0  0  0  0  0  0  0  0
  -10.1439   27.4954  -11.8790 C   0  0  0  0  0  0  0  0  0  0  0  0
   -9.3492   26.5383  -12.2893 C   0  0  0  0  0  0  0  0  0  0  0  0
   -4.7087   21.3838  -19.9644 O   0  0  0  0  0  0  0  0  0  0  0  0
   -5.6244   24.1144  -22.9226 C   0  0  0  0  0  0  0  0  0  0  0  0
   -5.3221   23.2022  -21.9349 C   0  0  0  0  0  0  0  0  0  0  0  0
   -4.0392   23.0985  -21.4327 C   0  0  0  0  0  0  0  0  0  0  0  0
   -3.7054   22.1803  -20.4269 C   0  0  0  0  0  0  0  0  0  0  0  0
   -2.4213   22.0954  -19.9398 C   0  0  0  0  0  0  0  0  0  0  0  0
   -1.4393   22.9273  -20.4488 C   0  0  0  0  0  0  0  0  0  0  0  0
   -1.7630   23.8050  -21.4125 N   0  0  0  0  0  0  0  0  0  0  0  0
   -3.0198   23.8987  -21.8983 C   0  0  0  0  0  0  0  0  0  0  0  0
   -3.3389   24.8144  -22.8951 C   0  0  0  0  0  0  0  0  0  0  0  0
   -4.6261   24.9287  -23.4090 C   0  0  0  0  0  0  0  0  0  0  0  0
   -8.0157   24.4430  -22.5654 C   0  0  0  0  0  0  0  0  0  0  0  0
   -6.9131   24.2241  -23.4318 O   0  0  0  0  0  0  0  0  0  0  0  0
   -4.9493   25.8396  -24.4037 O   0  0  0  0  0  0  0  0  0  0  0  0
   -4.5047   25.5459  -25.7213 C   0  0  0  0  0  0  0  0  0  0  0  0
   -5.3309   26.3648  -26.7021 C   0  0  0  0  0  0  0  0  0  0  0  0
   -5.8261   25.4525  -27.7768 C   0  0  0  0  0  0  0  0  0  0  0  0
   -4.7696   24.6161  -28.2562 N   0  0  0  0  0  0  0  0  0  0  0  0
   -5.3029   23.3078  -28.6430 C   0  0  0  0  0  0  0  0  0  0  0  0
   -5.3351   23.1348  -30.1263 C   0  0  0  0  0  0  0  0  0  0  0  0
   -5.7487   24.3787  -30.8837 C   0  0  0  0  0  0  0  0  0  0  0  0
   -4.9688   25.5870  -30.4863 C   0  0  0  0  0  0  0  0  0  0  0  0
   -4.0478   25.2124  -29.3572 C   0  0  0  0  0  0  0  0  0  0  0  0
 37 38  1  0  0  0
 38 27  1  0  0  0
 27 28  2  0  0  0
 28 29  1  0  0  0
 29 30  2  0  0  0
 30 26  1  0  0  0
 26  1  1  0  0  0
  1  2  2  0  0  0
  2  3  1  0  0  0
  3  4  2  0  0  0
  4  8  1  0  0  0
  8  9  1  0  0  0
  9 10  2  0  0  0
  9 12  1  0  0  0
 12 13  1  0  0  0
 13 14  1  0  0  0
 12 15  1  0  0  0
 15 16  2  0  0  0
 15 17  1  0  0  0
 17 19  1  0  0  0
 19 20  2  0  0  0
 20 21  1  0  0  0
 21 22  1  0  0  0
 22 23  1  0  0  0
 22 24  1  0  0  0
 24 25  2  0  0  0
  4  5  1  0  0  0
  5  6  2  0  0  0
  6  7  1  0  0  0
 30 31  1  0  0  0
 31 32  2  0  0  0
 32 33  1  0  0  0
 33 34  2  0  0  0
 34 35  1  0  0  0
 35 36  2  0  0  0
 36 39  1  0  0  0
 39 40  1  0  0  0
 40 41  1  0  0  0
 41 42  1  0  0  0
 42 43  1  0  0  0
 43 44  1  0  0  0
 44 45  1  0  0  0
 45 46  1  0  0  0
 46 47  1  0  0  0
 47 48  1  0  0  0
 36 27  1  0  0  0
 48 43  1  0  0  0
 34 29  1  0  0  0
  6  1  1  0  0  0
 14 12  1  0  0  0
 25 19  1  0  0  0
  8 11  1  0  0  0
 17 18  1  0  0  0
M  END
> <minimizedAffinity>
-7.52525

> <CNNscore>
0.1486504972

> <CNNaffinity>
6.0872454643

> <CNN_VS>
0.9048720598

> <CNNaffinity_variance>
0.3893380463

$$$$
[H]C1=C([H])C([H])(F)C([H])([H])C([H])=C1N([H])C(=O)C1(C(=O)N([H])c2c([H])c([H])c(Oc3c([H])c([H])nc4c([H])c(OC([H])([H])C([H])([H])C([H])([H])N5C([H])([H])C([H])([H])C([H])([H])C([H])([H])C5([H])[H])c(OC([H])([H])[H])c([H])c34)c(F)c2[H])C([H])([H])C1([H])[H]


 48 53  0  0  0  0  0  0  0  0999 V2000
   -0.4740   21.3530  -21.1866 C   0  0  0  0  0  0  0  0  0  0  0  0
    0.5111   20.5880  -20.5990 C   0  0  0  0  0  0  0  0  0  0  0  0
    1.1484   21.0273  -19.4379 C   0  0  0  0  0  0  0  0  0  0  0  0
    0.8418   22.2068  -18.8343 C   0  0  0  0  0  0  0  0  0  0  0  0
   -0.1481   22.9740  -19.4264 C   0  0  0  0  0  0  0  0  0  0  0  0
   -0.7838   22.5500  -20.5734 C   0  0  0  0  0  0  0  0  0  0  0  0
   -1.7352   23.3761  -21.1177 F   0  0  0  0  0  0  0  0  0  0  0  0
    1.4783   22.7250  -17.6710 N   0  0  0  0  0  0  0  0  0  0  0  0
    2.8379   23.0083  -17.6084 C   0  0  0  0  0  0  0  0  0  0  0  0
    3.4954   22.8009  -18.7032 O   0  0  0  0  0  0  0  0  0  0  0  0
    0.8000   22.9005  -16.8779 H   0  0  0  0  0  0  0  0  0  0  0  0
    3.6593   23.5198  -16.4877 C   0  0  0  0  0  0  0  0  0  0  0  0
    5.1432   23.4836  -16.7007 C   0  0  0  0  0  0  0  0  0  0  0  0
    4.4269   24.7589  -16.8859 C   0  0  0  0  0  0  0  0  0  0  0  0
    3.2828   23.3925  -15.0710 C   0  0  0  0  0  0  0  0  0  0  0  0
    4.1609   22.7248  -14.3667 O   0  0  0  0  0  0  0  0  0  0  0  0
    2.1565   23.8648  -14.4125 N   0  0  0  0  0  0  0  0  0  0  0  0
    1.3960   24.3534  -14.9153 H   0  0  0  0  0  0  0  0  0  0  0  0
    1.9473   23.6616  -13.0062 C   0  0  0  0  0  0  0  0  0  0  0  0
    1.4076   22.5522  -12.5419 C   0  0  0  0  0  0  0  0  0  0  0  0
    1.1850   22.3292  -11.0968 C   0  0  0  0  0  0  0  0  0  0  0  0
    1.6354   23.3880  -10.1795 C   0  0  0  0  0  0  0  0  0  0  0  0
    2.5519   22.8214   -9.2737 F   0  0  0  0  0  0  0  0  0  0  0  0
    2.2187   24.5777  -10.8019 C   0  0  0  0  0  0  0  0  0  0  0  0
    2.3625   24.7041  -12.0977 C   0  0  0  0  0  0  0  0  0  0  0  0
   -1.1199   20.9401  -22.3398 O   0  0  0  0  0  0  0  0  0  0  0  0
   -4.5716   22.1946  -24.2259 C   0  0  0  0  0  0  0  0  0  0  0  0
   -3.4213   21.7751  -23.5936 C   0  0  0  0  0  0  0  0  0  0  0  0
   -2.1843   21.9417  -24.1859 C   0  0  0  0  0  0  0  0  0  0  0  0
   -0.9987   21.5256  -23.5635 C   0  0  0  0  0  0  0  0  0  0  0  0
    0.2231   21.7034  -24.1710 C   0  0  0  0  0  0  0  0  0  0  0  0
    0.2877   22.3014  -25.4175 C   0  0  0  0  0  0  0  0  0  0  0  0
   -0.8502   22.6981  -26.0104 N   0  0  0  0  0  0  0  0  0  0  0  0
   -2.0555   22.5301  -25.4242 C   0  0  0  0  0  0  0  0  0  0  0  0
   -3.2243   22.9483  -26.0510 C   0  0  0  0  0  0  0  0  0  0  0  0
   -4.4754   22.7865  -25.4655 C   0  0  0  0  0  0  0  0  0  0  0  0
   -6.0931   22.5883  -22.3594 C   0  0  0  0  0  0  0  0  0  0  0  0
   -5.8191   22.0303  -23.6352 O   0  0  0  0  0  0  0  0  0  0  0  0
   -5.6441   23.2009  -26.0868 O   0  0  0  0  0  0  0  0  0  0  0  0
   -6.2347   24.4061  -25.6194 C   0  0  0  0  0  0  0  0  0  0  0  0
   -5.7351   25.5542  -26.4840 C   0  0  0  0  0  0  0  0  0  0  0  0
   -6.3904   25.4546  -27.8231 C   0  0  0  0  0  0  0  0  0  0  0  0
   -5.4912   25.8634  -28.8575 N   0  0  0  0  0  0  0  0  0  0  0  0
   -4.1089   25.5948  -28.4544 C   0  0  0  0  0  0  0  0  0  0  0  0
   -3.5254   24.4385  -29.1987 C   0  0  0  0  0  0  0  0  0  0  0  0
   -4.4911   23.2927  -29.4138 C   0  0  0  0  0  0  0  0  0  0  0  0
   -5.7894   23.7302  -30.0048 C   0  0  0  0  0  0  0  0  0  0  0  0
   -5.7799   25.2299  -30.1241 C   0  0  0  0  0  0  0  0  0  0  0  0
 37 38  1  0  0  0
 38 27  1  0  0  0
 27 28  2  0  0  0
 28 29  1  0  0  0
 29 30  2  0  0  0
 30 26  1  0  0  0
 26  1  1  0  0  0
  1  2  2  0  0  0
  2  3  1  0  0  0
  3  4  2  0  0  0
  4  8  1  0  0  0
  8  9  1  0  0  0
  9 10  2  0  0  0
  9 12  1  0  0  0
 12 13  1  0  0  0
 13 14  1  0  0  0
 12 15  1  0  0  0
 15 16  2  0  0  0
 15 17  1  0  0  0
 17 19  1  0  0  0
 19 20  2  0  0  0
 20 21  1  0  0  0
 21 22  1  0  0  0
 22 23  1  0  0  0
 22 24  1  0  0  0
 24 25  2  0  0  0
  4  5  1  0  0  0
  5  6  2  0  0  0
  6  7  1  0  0  0
 30 31  1  0  0  0
 31 32  2  0  0  0
 32 33  1  0  0  0
 33 34  2  0  0  0
 34 35  1  0  0  0
 35 36  2  0  0  0
 36 39  1  0  0  0
 39 40  1  0  0  0
 40 41  1  0  0  0
 41 42  1  0  0  0
 42 43  1  0  0  0
 43 44  1  0  0  0
 44 45  1  0  0  0
 45 46  1  0  0  0
 46 47  1  0  0  0
 47 48  1  0  0  0
 36 27  1  0  0  0
 48 43  1  0  0  0
 34 29  1  0  0  0
  6  1  1  0  0  0
 14 12  1  0  0  0
 25 19  1  0  0  0
  8 11  1  0  0  0
 17 18  1  0  0  0
M  END
> <minimizedAffinity>
-8.79789

> <CNNscore>
0.1378102899

> <CNNaffinity>
6.6643381119

> <CNN_VS>
0.9184143543

> <CNNaffinity_variance>
0.1403781623

$$$$
[H]/C(C(=O)N([H])c1c(OC([H])([H])C([H])([H])[H])c([H])c2nc([H])c(C#N)c(N([H])c3c([H])c([H])c(OC([H])([H])c4nc([H])c([H])c([H])c4[H])c(Cl)c3[H])c2c1[H])=C(/[H])C([H])([H])N1C([H])([H])C([H])([H])C([H])([H])C([H])([H])C1([H])[H]


 45 49  0  0  0  0  0  0  0  0999 V2000
    0.7255   21.8630  -24.1075 C   0  0  0  0  0  0  0  0  0  0  0  0
    0.8356   22.2049  -25.4292 C   0  0  0  0  0  0  0  0  0  0  0  0
   -0.2658   22.3870  -26.2446 C   0  0  0  0  0  0  0  0  0  0  0  0
   -0.1208   22.7557  -27.5316 N   0  0  0  0  0  0  0  0  0  0  0  0
   -1.1577   22.9763  -28.3533 C   0  0  0  0  0  0  0  0  0  0  0  0
   -2.4431   22.8151  -27.8476 C   0  0  0  0  0  0  0  0  0  0  0  0
   -2.6766   22.4414  -26.5574 C   0  0  0  0  0  0  0  0  0  0  0  0
   -1.5315   22.2300  -25.7645 C   0  0  0  0  0  0  0  0  0  0  0  0
   -1.6518   21.8874  -24.4483 C   0  0  0  0  0  0  0  0  0  0  0  0
   -0.5628   21.6871  -23.5504 C   0  0  0  0  0  0  0  0  0  0  0  0
   -0.7289   21.5221  -22.2658 N   0  0  0  0  0  0  0  0  0  0  0  0
   -0.9288   21.3522  -20.8915 C   0  0  0  0  0  0  0  0  0  0  0  0
   -2.0676   21.5548  -20.3102 O   0  0  0  0  0  0  0  0  0  0  0  0
   -2.0832   21.6650  -22.3940 H   0  0  0  0  0  0  0  0  0  0  0  0
    0.1286   20.9396  -19.9411 C   0  0  0  0  0  0  0  0  0  0  0  0
    0.9779   21.7863  -19.4759 C   0  0  0  0  0  0  0  0  0  0  0  0
    2.0602   21.3607  -18.5033 C   0  0  0  0  0  0  0  0  0  0  0  0
    2.1627   22.3853  -17.5356 N   0  0  0  0  0  0  0  0  0  0  0  0
    2.3973   23.7060  -17.9919 C   0  0  0  0  0  0  0  0  0  0  0  0
    3.8576   24.0397  -17.6254 C   0  0  0  0  0  0  0  0  0  0  0  0
    4.0161   24.0827  -16.1236 C   0  0  0  0  0  0  0  0  0  0  0  0
    2.8782   23.3042  -15.4482 C   0  0  0  0  0  0  0  0  0  0  0  0
    2.5598   22.0493  -16.2286 C   0  0  0  0  0  0  0  0  0  0  0  0
   -3.5667   23.0779  -28.6898 C   0  0  0  0  0  0  0  0  0  0  0  0
   -4.4697   23.3092  -29.3600 N   0  0  0  0  0  0  0  0  0  0  0  0
   -3.8987   22.2899  -25.9025 N   0  0  0  0  0  0  0  0  0  0  0  0
   -4.2279   21.2558  -25.7779 H   0  0  0  0  0  0  0  0  0  0  0  0
   -4.7802   23.2317  -25.3729 C   0  0  0  0  0  0  0  0  0  0  0  0
   -5.8482   22.7935  -24.5688 C   0  0  0  0  0  0  0  0  0  0  0  0
   -6.7366   23.6511  -23.9678 C   0  0  0  0  0  0  0  0  0  0  0  0
   -6.5777   25.0228  -24.1585 C   0  0  0  0  0  0  0  0  0  0  0  0
   -5.5413   25.4905  -24.9408 C   0  0  0  0  0  0  0  0  0  0  0  0
   -5.3623   27.2225  -25.1702 Cl  0  0  0  0  0  0  0  0  0  0  0  0
   -4.6589   24.5822  -25.5373 C   0  0  0  0  0  0  0  0  0  0  0  0
   -7.4198   25.9489  -23.5820 O   0  0  0  0  0  0  0  0  0  0  0  0
   -8.4788   25.6774  -22.7271 C   0  0  0  0  0  0  0  0  0  0  0  0
   -8.0270   25.1654  -21.3920 C   0  0  0  0  0  0  0  0  0  0  0  0
   -8.5830   24.0555  -20.8113 C   0  0  0  0  0  0  0  0  0  0  0  0
   -8.1724   23.5645  -19.5767 C   0  0  0  0  0  0  0  0  0  0  0  0
   -7.1650   24.2307  -18.9212 C   0  0  0  0  0  0  0  0  0  0  0  0
   -6.6101   25.3512  -19.5164 C   0  0  0  0  0  0  0  0  0  0  0  0
   -7.0292   25.8036  -20.7142 N   0  0  0  0  0  0  0  0  0  0  0  0
    1.8320   21.6852  -23.3317 O   0  0  0  0  0  0  0  0  0  0  0  0
    3.0274   20.0380  -22.1333 C   0  0  0  0  0  0  0  0  0  0  0  0
    2.8816   20.8021  -23.4472 C   0  0  0  0  0  0  0  0  0  0  0  0
 44 45  1  0  0  0
 45 43  1  0  0  0
 43  1  1  0  0  0
  1  2  2  0  0  0
  2  3  1  0  0  0
  3  4  2  0  0  0
  4  5  1  0  0  0
  5  6  2  0  0  0
  6 24  1  0  0  0
 24 25  3  0  0  0
  6  7  1  0  0  0
  7 26  1  0  0  0
 26 28  1  0  0  0
 28 29  2  0  0  0
 29 30  1  0  0  0
 30 31  2  0  0  0
 31 35  1  0  0  0
 35 36  1  0  0  0
 36 37  1  0  0  0
 37 38  2  0  0  0
 38 39  1  0  0  0
 39 40  2  0  0  0
 40 41  1  0  0  0
 41 42  2  0  0  0
 31 32  1  0  0  0
 32 33  1  0  0  0
 32 34  2  0  0  0
  7  8  2  0  0  0
  8  9  1  0  0  0
  9 10  2  0  0  0
 10 11  1  0  0  0
 11 12  1  0  0  0
 12 13  2  0  0  0
 12 15  1  0  0  0
 15 16  2  0  0  0
 16 17  1  0  0  0
 17 18  1  0  0  0
 18 19  1  0  0  0
 19 20  1  0  0  0
 20 21  1  0  0  0
 21 22  1  0  0  0
 22 23  1  0  0  0
 10  1  1  0  0  0
 23 18  1  0  0  0
  8  3  1  0  0  0
 34 28  1  0  0  0
 42 37  1  0  0  0
 26 27  1  0  0  0
 11 14  1  0  0  0
M  END
> <minimizedAffinity>
-8.81001

> <CNNscore>
0.6128712893

> <CNNaffinity>
8.0121231079

> <CNN_VS>
4.9104003906

> <CNNaffinity_variance>
0.0235433392

$$$$
[H]/C(C(=O)N([H])c1c(OC([H])([H])C([H])([H])[H])c([H])c2nc([H])c(C#N)c(N([H])c3c([H])c([H])c(OC([H])([H])c4nc([H])c([H])c([H])c4[H])c(Cl)c3[H])c2c1[H])=C(/[H])C([H])([H])N1C([H])([H])C([H])([H])C([H])([H])C([H])([H])C1([H])[H]


 45 49  0  0  0  0  0  0  0  0999 V2000
    0.8511   21.7110  -23.8234 C   0  0  0  0  0  0  0  0  0  0  0  0
    1.0480   22.0884  -25.1252 C   0  0  0  0  0  0  0  0  0  0  0  0
    0.0020   22.3129  -26.0009 C   0  0  0  0  0  0  0  0  0  0  0  0
    0.2320   22.7156  -27.2652 N   0  0  0  0  0  0  0  0  0  0  0  0
   -0.7486   22.9776  -28.1420 C   0  0  0  0  0  0  0  0  0  0  0  0
   -2.0651   22.8245  -27.7209 C   0  0  0  0  0  0  0  0  0  0  0  0
   -2.3837   22.4184  -26.4591 C   0  0  0  0  0  0  0  0  0  0  0  0
   -1.2932   22.1645  -25.6041 C   0  0  0  0  0  0  0  0  0  0  0  0
   -1.5000   21.7867  -24.3084 C   0  0  0  0  0  0  0  0  0  0  0  0
   -0.4717   21.5419  -23.3518 C   0  0  0  0  0  0  0  0  0  0  0  0
   -0.7195   21.3433  -22.0852 N   0  0  0  0  0  0  0  0  0  0  0  0
   -0.9694   21.1135  -20.7279 C   0  0  0  0  0  0  0  0  0  0  0  0
   -0.3392   20.2223  -20.0319 O   0  0  0  0  0  0  0  0  0  0  0  0
    0.3669   20.5198  -21.9729 H   0  0  0  0  0  0  0  0  0  0  0  0
   -1.9842   21.8415  -19.9333 C   0  0  0  0  0  0  0  0  0  0  0  0
   -3.2289   21.8211  -20.2570 C   0  0  0  0  0  0  0  0  0  0  0  0
   -4.2659   22.5684  -19.4417 C   0  0  0  0  0  0  0  0  0  0  0  0
   -4.1419   22.1122  -18.1101 N   0  0  0  0  0  0  0  0  0  0  0  0
   -4.7848   20.8981  -17.7636 C   0  0  0  0  0  0  0  0  0  0  0  0
   -5.9925   21.2809  -16.8845 C   0  0  0  0  0  0  0  0  0  0  0  0
   -5.5143   21.8855  -15.5853 C   0  0  0  0  0  0  0  0  0  0  0  0
   -4.0763   22.4010  -15.7382 C   0  0  0  0  0  0  0  0  0  0  0  0
   -3.8875   23.0481  -17.0913 C   0  0  0  0  0  0  0  0  0  0  0  0
   -3.1303   23.1309  -28.6223 C   0  0  0  0  0  0  0  0  0  0  0  0
   -3.9873   23.3966  -29.3386 N   0  0  0  0  0  0  0  0  0  0  0  0
   -3.6461   22.2698  -25.8850 N   0  0  0  0  0  0  0  0  0  0  0  0
   -3.9941   21.2376  -25.8018 H   0  0  0  0  0  0  0  0  0  0  0  0
   -4.5485   23.2122  -25.3932 C   0  0  0  0  0  0  0  0  0  0  0  0
   -5.6945   22.7698  -24.7073 C   0  0  0  0  0  0  0  0  0  0  0  0
   -6.6122   23.6254  -24.1487 C   0  0  0  0  0  0  0  0  0  0  0  0
   -6.4037   24.9990  -24.2621 C   0  0  0  0  0  0  0  0  0  0  0  0
   -5.2904   25.4708  -24.9277 C   0  0  0  0  0  0  0  0  0  0  0  0
   -5.0499   27.2053  -25.0614 Cl  0  0  0  0  0  0  0  0  0  0  0  0
   -4.3804   24.5645  -25.4846 C   0  0  0  0  0  0  0  0  0  0  0  0
   -7.2714   25.9227  -23.7207 O   0  0  0  0  0  0  0  0  0  0  0  0
   -8.3760   25.6467  -22.9270 C   0  0  0  0  0  0  0  0  0  0  0  0
   -7.9980   25.1522  -21.5627 C   0  0  0  0  0  0  0  0  0  0  0  0
   -7.0659   25.7922  -20.7882 C   0  0  0  0  0  0  0  0  0  0  0  0
   -6.7077   25.3500  -19.5193 C   0  0  0  0  0  0  0  0  0  0  0  0
   -7.3222   24.2211  -19.0332 C   0  0  0  0  0  0  0  0  0  0  0  0
   -8.2623   23.5816  -19.8238 C   0  0  0  0  0  0  0  0  0  0  0  0
   -8.5888   24.0339  -21.0502 N   0  0  0  0  0  0  0  0  0  0  0  0
    1.9047   21.4919  -22.9869 O   0  0  0  0  0  0  0  0  0  0  0  0
    3.1707   19.6417  -22.2440 C   0  0  0  0  0  0  0  0  0  0  0  0
    3.0975   20.8363  -23.1921 C   0  0  0  0  0  0  0  0  0  0  0  0
 44 45  1  0  0  0
 45 43  1  0  0  0
 43  1  1  0  0  0
  1  2  2  0  0  0
  2  3  1  0  0  0
  3  4  2  0  0  0
  4  5  1  0  0  0
  5  6  2  0  0  0
  6 24  1  0  0  0
 24 25  3  0  0  0
  6  7  1  0  0  0
  7 26  1  0  0  0
 26 28  1  0  0  0
 28 29  2  0  0  0
 29 30  1  0  0  0
 30 31  2  0  0  0
 31 35  1  0  0  0
 35 36  1  0  0  0
 36 37  1  0  0  0
 37 38  2  0  0  0
 38 39  1  0  0  0
 39 40  2  0  0  0
 40 41  1  0  0  0
 41 42  2  0  0  0
 31 32  1  0  0  0
 32 33  1  0  0  0
 32 34  2  0  0  0
  7  8  2  0  0  0
  8  9  1  0  0  0
  9 10  2  0  0  0
 10 11  1  0  0  0
 11 12  1  0  0  0
 12 13  2  0  0  0
 12 15  1  0  0  0
 15 16  2  0  0  0
 16 17  1  0  0  0
 17 18  1  0  0  0
 18 19  1  0  0  0
 19 20  1  0  0  0
 20 21  1  0  0  0
 21 22  1  0  0  0
 22 23  1  0  0  0
 10  1  1  0  0  0
 23 18  1  0  0  0
  8  3  1  0  0  0
 34 28  1  0  0  0
 42 37  1  0  0  0
 26 27  1  0  0  0
 11 14  1  0  0  0
M  END
> <minimizedAffinity>
-8.25418

> <CNNscore>
0.4262529016

> <CNNaffinity>
7.8936967850

> <CNN_VS>
3.3647110462

> <CNNaffinity_variance>
0.0791058987

$$$$
[H]/C(C(=O)N([H])c1c(OC([H])([H])C([H])([H])[H])c([H])c2nc([H])c(C#N)c(N([H])c3c([H])c([H])c(OC([H])([H])c4nc([H])c([H])c([H])c4[H])c(Cl)c3[H])c2c1[H])=C(/[H])C([H])([H])N1C([H])([H])C([H])([H])C([H])([H])C([H])([H])C1([H])[H]


 45 49  0  0  0  0  0  0  0  0999 V2000
   -4.3449   23.4008  -27.7284 C   0  0  0  0  0  0  0  0  0  0  0  0
   -3.1157   22.9250  -28.1004 C   0  0  0  0  0  0  0  0  0  0  0  0
   -2.0921   22.7195  -27.1941 C   0  0  0  0  0  0  0  0  0  0  0  0
   -0.9067   22.2187  -27.5906 N   0  0  0  0  0  0  0  0  0  0  0  0
    0.1051   21.9710  -26.7457 C   0  0  0  0  0  0  0  0  0  0  0  0
   -0.0834   22.2465  -25.3956 C   0  0  0  0  0  0  0  0  0  0  0  0
   -1.2517   22.7571  -24.9127 C   0  0  0  0  0  0  0  0  0  0  0  0
   -2.2606   22.9873  -25.8686 C   0  0  0  0  0  0  0  0  0  0  0  0
   -3.4822   23.4638  -25.4879 C   0  0  0  0  0  0  0  0  0  0  0  0
   -4.5814   23.6961  -26.3654 C   0  0  0  0  0  0  0  0  0  0  0  0
   -5.7771   23.9953  -25.9343 N   0  0  0  0  0  0  0  0  0  0  0  0
   -7.0648   24.3200  -25.4941 C   0  0  0  0  0  0  0  0  0  0  0  0
   -8.0290   24.6394  -26.2968 O   0  0  0  0  0  0  0  0  0  0  0  0
   -6.2697   23.9878  -27.2103 H   0  0  0  0  0  0  0  0  0  0  0  0
   -7.4750   24.3533  -24.0721 C   0  0  0  0  0  0  0  0  0  0  0  0
   -6.8428   23.6795  -23.1772 C   0  0  0  0  0  0  0  0  0  0  0  0
   -7.2657   23.7148  -21.7217 C   0  0  0  0  0  0  0  0  0  0  0  0
   -6.0909   23.5537  -20.9532 N   0  0  0  0  0  0  0  0  0  0  0  0
   -4.9077   23.1615  -21.6266 C   0  0  0  0  0  0  0  0  0  0  0  0
   -4.6478   21.6940  -21.2304 C   0  0  0  0  0  0  0  0  0  0  0  0
   -4.3371   21.6050  -19.7547 C   0  0  0  0  0  0  0  0  0  0  0  0
   -4.8650   22.8489  -19.0260 C   0  0  0  0  0  0  0  0  0  0  0  0
   -6.2096   23.2574  -19.5832 C   0  0  0  0  0  0  0  0  0  0  0  0
    0.9642   21.9593  -24.4678 C   0  0  0  0  0  0  0  0  0  0  0  0
    1.8160   21.7463  -23.7280 N   0  0  0  0  0  0  0  0  0  0  0  0
   -1.6001   23.0344  -23.5909 N   0  0  0  0  0  0  0  0  0  0  0  0
   -2.2221   23.9224  -23.4566 H   0  0  0  0  0  0  0  0  0  0  0  0
   -1.2944   22.3728  -22.4021 C   0  0  0  0  0  0  0  0  0  0  0  0
   -1.1271   20.9760  -22.4195 C   0  0  0  0  0  0  0  0  0  0  0  0
   -0.7797   20.2476  -21.3082 C   0  0  0  0  0  0  0  0  0  0  0  0
   -0.5807   20.9182  -20.1024 C   0  0  0  0  0  0  0  0  0  0  0  0
   -0.7354   22.2885  -20.0465 C   0  0  0  0  0  0  0  0  0  0  0  0
   -0.4831   23.1120  -18.5160 Cl  0  0  0  0  0  0  0  0  0  0  0  0
   -1.0925   22.9931  -21.2022 C   0  0  0  0  0  0  0  0  0  0  0  0
   -0.2205   20.2617  -18.9455 O   0  0  0  0  0  0  0  0  0  0  0  0
    0.9506   19.5470  -18.7361 C   0  0  0  0  0  0  0  0  0  0  0  0
    2.1713   20.2941  -19.1838 C   0  0  0  0  0  0  0  0  0  0  0  0
    2.8924   19.9171  -20.2866 C   0  0  0  0  0  0  0  0  0  0  0  0
    4.0233   20.6016  -20.7183 C   0  0  0  0  0  0  0  0  0  0  0  0
    4.4244   21.7015  -19.9988 C   0  0  0  0  0  0  0  0  0  0  0  0
    3.6891   22.0739  -18.8860 C   0  0  0  0  0  0  0  0  0  0  0  0
    2.5970   21.3905  -18.4917 N   0  0  0  0  0  0  0  0  0  0  0  0
   -5.3314   23.5979  -28.6481 O   0  0  0  0  0  0  0  0  0  0  0  0
   -5.7412   24.2176  -30.8900 C   0  0  0  0  0  0  0  0  0  0  0  0
   -5.6203   24.6851  -29.4415 C   0  0  0  0  0  0  0  0  0  0  0  0
 44 45  1  0  0  0
 45 43  1  0  0  0
 43  1  1  0  0  0
  1  2  2  0  0  0
  2  3  1  0  0  0
  3  4  2  0  0  0
  4  5  1  0  0  0
  5  6  2  0  0  0
  6 24  1  0  0  0
 24 25  3  0  0  0
  6  7  1  0  0  0
  7 26  1  0  0  0
 26 28  1  0  0  0
 28 29  2  0  0  0
 29 30  1  0  0  0
 30 31  2  0  0  0
 31 35  1  0  0  0
 35 36  1  0  0  0
 36 37  1  0  0  0
 37 38  2  0  0  0
 38 39  1  0  0  0
 39 40  2  0  0  0
 40 41  1  0  0  0
 41 42  2  0  0  0
 31 32  1  0  0  0
 32 33  1  0  0  0
 32 34  2  0  0  0
  7  8  2  0  0  0
  8  9  1  0  0  0
  9 10  2  0  0  0
 10 11  1  0  0  0
 11 12  1  0  0  0
 12 13  2  0  0  0
 12 15  1  0  0  0
 15 16  2  0  0  0
 16 17  1  0  0  0
 17 18  1  0  0  0
 18 19  1  0  0  0
 19 20  1  0  0  0
 20 21  1  0  0  0
 21 22  1  0  0  0
 22 23  1  0  0  0
 10  1  1  0  0  0
 23 18  1  0  0  0
  8  3  1  0  0  0
 34 28  1  0  0  0
 42 37  1  0  0  0
 26 27  1  0  0  0
 11 14  1  0  0  0
M  END
> <minimizedAffinity>
-8.12196

> <CNNscore>
0.4153136015

> <CNNaffinity>
8.0544967651

> <CNN_VS>
3.3451421261

> <CNNaffinity_variance>
0.0724842250

$$$$
[H]/C(C(=O)N([H])c1c(OC([H])([H])C([H])([H])[H])c([H])c2nc([H])c(C#N)c(N([H])c3c([H])c([H])c(OC([H])([H])c4nc([H])c([H])c([H])c4[H])c(Cl)c3[H])c2c1[H])=C(/[H])C([H])([H])N1C([H])([H])C([H])([H])C([H])([H])C([H])([H])C1([H])[H]


 45 49  0  0  0  0  0  0  0  0999 V2000
    0.7420   21.4451  -23.0950 C   0  0  0  0  0  0  0  0  0  0  0  0
    1.0089   21.8366  -24.3800 C   0  0  0  0  0  0  0  0  0  0  0  0
    0.0130   22.0472  -25.3155 C   0  0  0  0  0  0  0  0  0  0  0  0
    0.3103   22.4643  -26.5610 N   0  0  0  0  0  0  0  0  0  0  0  0
   -0.6210   22.7138  -27.4934 C   0  0  0  0  0  0  0  0  0  0  0  0
   -1.9571   22.5314  -27.1533 C   0  0  0  0  0  0  0  0  0  0  0  0
   -2.3425   22.1091  -25.9156 C   0  0  0  0  0  0  0  0  0  0  0  0
   -1.3004   21.8701  -24.9984 C   0  0  0  0  0  0  0  0  0  0  0  0
   -1.5768   21.4781  -23.7200 C   0  0  0  0  0  0  0  0  0  0  0  0
   -0.6031   21.2461  -22.7049 C   0  0  0  0  0  0  0  0  0  0  0  0
   -0.9223   21.0327  -21.4569 N   0  0  0  0  0  0  0  0  0  0  0  0
   -1.2799   20.8209  -20.1209 C   0  0  0  0  0  0  0  0  0  0  0  0
   -2.2182   21.4841  -19.5244 O   0  0  0  0  0  0  0  0  0  0  0  0
   -2.0252   21.8334  -21.5726 H   0  0  0  0  0  0  0  0  0  0  0  0
   -0.6269   19.8351  -19.2304 C   0  0  0  0  0  0  0  0  0  0  0  0
   -0.1103   18.7525  -19.6949 C   0  0  0  0  0  0  0  0  0  0  0  0
    0.5571   17.7442  -18.7804 C   0  0  0  0  0  0  0  0  0  0  0  0
    1.1366   16.7611  -19.6136 N   0  0  0  0  0  0  0  0  0  0  0  0
    2.2874   16.0850  -19.1383 C   0  0  0  0  0  0  0  0  0  0  0  0
    3.4773   16.6215  -19.9595 C   0  0  0  0  0  0  0  0  0  0  0  0
    3.3268   16.2214  -21.4084 C   0  0  0  0  0  0  0  0  0  0  0  0
    1.8612   15.8825  -21.7152 C   0  0  0  0  0  0  0  0  0  0  0  0
    0.9361   16.8431  -21.0035 C   0  0  0  0  0  0  0  0  0  0  0  0
   -2.9722   22.8237  -28.1151 C   0  0  0  0  0  0  0  0  0  0  0  0
   -3.7980   23.0705  -28.8735 N   0  0  0  0  0  0  0  0  0  0  0  0
   -3.6338   21.9311  -25.4196 N   0  0  0  0  0  0  0  0  0  0  0  0
   -4.0189   20.9116  -25.4966 H   0  0  0  0  0  0  0  0  0  0  0  0
   -4.5262   22.8301  -24.8367 C   0  0  0  0  0  0  0  0  0  0  0  0
   -5.4541   22.3575  -23.8906 C   0  0  0  0  0  0  0  0  0  0  0  0
   -6.3380   23.1765  -23.2318 C   0  0  0  0  0  0  0  0  0  0  0  0
   -6.3195   24.5427  -23.5081 C   0  0  0  0  0  0  0  0  0  0  0  0
   -5.4230   25.0435  -24.4303 C   0  0  0  0  0  0  0  0  0  0  0  0
   -5.4199   26.7674  -24.7653 Cl  0  0  0  0  0  0  0  0  0  0  0  0
   -4.5403   24.1737  -25.0813 C   0  0  0  0  0  0  0  0  0  0  0  0
   -7.1662   25.4321  -22.8825 O   0  0  0  0  0  0  0  0  0  0  0  0
   -8.5100   25.6282  -23.1686 C   0  0  0  0  0  0  0  0  0  0  0  0
   -9.3945   25.3873  -21.9818 C   0  0  0  0  0  0  0  0  0  0  0  0
   -9.2401   24.2954  -21.1680 C   0  0  0  0  0  0  0  0  0  0  0  0
  -10.0480   24.0598  -20.0608 C   0  0  0  0  0  0  0  0  0  0  0  0
  -11.0405   24.9686  -19.7824 C   0  0  0  0  0  0  0  0  0  0  0  0
  -11.1883   26.0682  -20.6111 C   0  0  0  0  0  0  0  0  0  0  0  0
  -10.3898   26.2698  -21.6774 N   0  0  0  0  0  0  0  0  0  0  0  0
    1.7476   21.2402  -22.1981 O   0  0  0  0  0  0  0  0  0  0  0  0
    3.1422   20.2472  -20.5711 C   0  0  0  0  0  0  0  0  0  0  0  0
    2.5434   20.1401  -21.9716 C   0  0  0  0  0  0  0  0  0  0  0  0
 44 45  1  0  0  0
 45 43  1  0  0  0
 43  1  1  0  0  0
  1  2  2  0  0  0
  2  3  1  0  0  0
  3  4  2  0  0  0
  4  5  1  0  0  0
  5  6  2  0  0  0
  6 24  1  0  0  0
 24 25  3  0  0  0
  6  7  1  0  0  0
  7 26  1  0  0  0
 26 28  1  0  0  0
 28 29  2  0  0  0
 29 30  1  0  0  0
 30 31  2  0  0  0
 31 35  1  0  0  0
 35 36  1  0  0  0
 36 37  1  0  0  0
 37 38  2  0  0  0
 38 39  1  0  0  0
 39 40  2  0  0  0
 40 41  1  0  0  0
 41 42  2  0  0  0
 31 32  1  0  0  0
 32 33  1  0  0  0
 32 34  2  0  0  0
  7  8  2  0  0  0
  8  9  1  0  0  0
  9 10  2  0  0  0
 10 11  1  0  0  0
 11 12  1  0  0  0
 12 13  2  0  0  0
 12 15  1  0  0  0
 15 16  2  0  0  0
 16 17  1  0  0  0
 17 18  1  0  0  0
 18 19  1  0  0  0
 19 20  1  0  0  0
 20 21  1  0  0  0
 21 22  1  0  0  0
 22 23  1  0  0  0
 10  1  1  0  0  0
 23 18  1  0  0  0
  8  3  1  0  0  0
 34 28  1  0  0  0
 42 37  1  0  0  0
 26 27  1  0  0  0
 11 14  1  0  0  0
M  END
> <minimizedAffinity>
-7.87581

> <CNNscore>
0.3983217180

> <CNNaffinity>
7.6468954086

> <CNN_VS>
3.0459244251

> <CNNaffinity_variance>
0.0242252368

$$$$
[H]/C(C(=O)N([H])c1c(OC([H])([H])C([H])([H])[H])c([H])c2nc([H])c(C#N)c(N([H])c3c([H])c([H])c(OC([H])([H])c4nc([H])c([H])c([H])c4[H])c(Cl)c3[H])c2c1[H])=C(/[H])C([H])([H])N1C([H])([H])C([H])([H])C([H])([H])C([H])([H])C1([H])[H]


 45 49  0  0  0  0  0  0  0  0999 V2000
    0.8175   21.9239  -24.3507 C   0  0  0  0  0  0  0  0  0  0  0  0
    0.7861   22.3938  -25.6368 C   0  0  0  0  0  0  0  0  0  0  0  0
   -0.3879   22.5110  -26.3576 C   0  0  0  0  0  0  0  0  0  0  0  0
   -0.3851   23.0087  -27.6088 N   0  0  0  0  0  0  0  0  0  0  0  0
   -1.5001   23.1724  -28.3361 C   0  0  0  0  0  0  0  0  0  0  0  0
   -2.7157   22.8090  -27.7666 C   0  0  0  0  0  0  0  0  0  0  0  0
   -2.8052   22.2952  -26.5069 C   0  0  0  0  0  0  0  0  0  0  0  0
   -1.5863   22.1565  -25.8144 C   0  0  0  0  0  0  0  0  0  0  0  0
   -1.5654   21.6851  -24.5331 C   0  0  0  0  0  0  0  0  0  0  0  0
   -0.3954   21.5410  -23.7315 C   0  0  0  0  0  0  0  0  0  0  0  0
   -0.4430   21.2423  -22.4613 N   0  0  0  0  0  0  0  0  0  0  0  0
   -0.4905   20.9001  -21.1055 C   0  0  0  0  0  0  0  0  0  0  0  0
   -0.3119   19.6933  -20.6722 O   0  0  0  0  0  0  0  0  0  0  0  0
    0.0240   19.9812  -22.7115 H   0  0  0  0  0  0  0  0  0  0  0  0
   -0.7630   21.8613  -20.0132 C   0  0  0  0  0  0  0  0  0  0  0  0
   -1.7124   21.6629  -19.1683 C   0  0  0  0  0  0  0  0  0  0  0  0
   -1.9897   22.6495  -18.0511 C   0  0  0  0  0  0  0  0  0  0  0  0
   -3.3682   22.9546  -18.1113 N   0  0  0  0  0  0  0  0  0  0  0  0
   -4.0569   23.1507  -16.8888 C   0  0  0  0  0  0  0  0  0  0  0  0
   -4.9536   21.9118  -16.6912 C   0  0  0  0  0  0  0  0  0  0  0  0
   -6.0149   21.8660  -17.7653 C   0  0  0  0  0  0  0  0  0  0  0  0
   -5.5856   22.7141  -18.9710 C   0  0  0  0  0  0  0  0  0  0  0  0
   -4.1069   22.5456  -19.2364 C   0  0  0  0  0  0  0  0  0  0  0  0
   -3.9231   23.0056  -28.5045 C   0  0  0  0  0  0  0  0  0  0  0  0
   -4.8819   23.1674  -29.1149 N   0  0  0  0  0  0  0  0  0  0  0  0
   -3.9479   21.9360  -25.7924 N   0  0  0  0  0  0  0  0  0  0  0  0
   -4.4118   20.9989  -26.1090 H   0  0  0  0  0  0  0  0  0  0  0  0
   -4.6067   22.5647  -24.7364 C   0  0  0  0  0  0  0  0  0  0  0  0
   -4.3692   23.9307  -24.4977 C   0  0  0  0  0  0  0  0  0  0  0  0
   -5.0074   24.6426  -23.5118 C   0  0  0  0  0  0  0  0  0  0  0  0
   -5.9369   23.9868  -22.7061 C   0  0  0  0  0  0  0  0  0  0  0  0
   -6.1967   22.6467  -22.9106 C   0  0  0  0  0  0  0  0  0  0  0  0
   -7.3689   21.8400  -21.8815 Cl  0  0  0  0  0  0  0  0  0  0  0  0
   -5.5226   21.9574  -23.9254 C   0  0  0  0  0  0  0  0  0  0  0  0
   -6.6270   24.6320  -21.7028 O   0  0  0  0  0  0  0  0  0  0  0  0
   -7.3445   25.8135  -21.8266 C   0  0  0  0  0  0  0  0  0  0  0  0
   -8.8272   25.5984  -21.7629 C   0  0  0  0  0  0  0  0  0  0  0  0
   -9.3889   24.6233  -20.9807 C   0  0  0  0  0  0  0  0  0  0  0  0
  -10.7616   24.4139  -20.9061 C   0  0  0  0  0  0  0  0  0  0  0  0
  -11.5789   25.2265  -21.6546 C   0  0  0  0  0  0  0  0  0  0  0  0
  -11.0014   26.2085  -22.4419 C   0  0  0  0  0  0  0  0  0  0  0  0
   -9.6670   26.3876  -22.4938 N   0  0  0  0  0  0  0  0  0  0  0  0
    1.9929   21.8152  -23.6694 O   0  0  0  0  0  0  0  0  0  0  0  0
    3.2309   20.7213  -21.9815 C   0  0  0  0  0  0  0  0  0  0  0  0
    2.8104   20.7297  -23.4493 C   0  0  0  0  0  0  0  0  0  0  0  0
 44 45  1  0  0  0
 45 43  1  0  0  0
 43  1  1  0  0  0
  1  2  2  0  0  0
  2  3  1  0  0  0
  3  4  2  0  0  0
  4  5  1  0  0  0
  5  6  2  0  0  0
  6 24  1  0  0  0
 24 25  3  0  0  0
  6  7  1  0  0  0
  7 26  1  0  0  0
 26 28  1  0  0  0
 28 29  2  0  0  0
 29 30  1  0  0  0
 30 31  2  0  0  0
 31 35  1  0  0  0
 35 36  1  0  0  0
 36 37  1  0  0  0
 37 38  2  0  0  0
 38 39  1  0  0  0
 39 40  2  0  0  0
 40 41  1  0  0  0
 41 42  2  0  0  0
 31 32  1  0  0  0
 32 33  1  0  0  0
 32 34  2  0  0  0
  7  8  2  0  0  0
  8  9  1  0  0  0
  9 10  2  0  0  0
 10 11  1  0  0  0
 11 12  1  0  0  0
 12 13  2  0  0  0
 12 15  1  0  0  0
 15 16  2  0  0  0
 16 17  1  0  0  0
 17 18  1  0  0  0
 18 19  1  0  0  0
 19 20  1  0  0  0
 20 21  1  0  0  0
 21 22  1  0  0  0
 22 23  1  0  0  0
 10  1  1  0  0  0
 23 18  1  0  0  0
  8  3  1  0  0  0
 34 28  1  0  0  0
 42 37  1  0  0  0
 26 27  1  0  0  0
 11 14  1  0  0  0
M  END
> <minimizedAffinity>
-8.30301

> <CNNscore>
0.3395600021

> <CNNaffinity>
7.7777872086

> <CNN_VS>
2.6410255432

> <CNNaffinity_variance>
0.1196050420

$$$$
[H]/C(C(=O)N([H])c1c(OC([H])([H])C([H])([H])[H])c([H])c2nc([H])c(C#N)c(N([H])c3c([H])c([H])c(OC([H])([H])c4nc([H])c([H])c([H])c4[H])c(Cl)c3[H])c2c1[H])=C(/[H])C([H])([H])N1C([H])([H])C([H])([H])C([H])([H])C([H])([H])C1([H])[H]


 45 49  0  0  0  0  0  0  0  0999 V2000
    0.2802   22.0846  -23.9939 C   0  0  0  0  0  0  0  0  0  0  0  0
    1.4955   21.4609  -24.0928 C   0  0  0  0  0  0  0  0  0  0  0  0
    2.1337   20.8982  -23.0030 C   0  0  0  0  0  0  0  0  0  0  0  0
    3.3129   20.2633  -23.1433 N   0  0  0  0  0  0  0  0  0  0  0  0
    3.9549   19.6738  -22.1239 C   0  0  0  0  0  0  0  0  0  0  0  0
    3.3711   19.7232  -20.8627 C   0  0  0  0  0  0  0  0  0  0  0  0
    2.1810   20.3481  -20.6350 C   0  0  0  0  0  0  0  0  0  0  0  0
    1.5757   20.9410  -21.7605 C   0  0  0  0  0  0  0  0  0  0  0  0
    0.3648   21.5623  -21.6512 C   0  0  0  0  0  0  0  0  0  0  0  0
   -0.3504   22.1599  -22.7299 C   0  0  0  0  0  0  0  0  0  0  0  0
   -1.5752   22.5960  -22.6085 N   0  0  0  0  0  0  0  0  0  0  0  0
   -2.8824   23.0713  -22.4574 C   0  0  0  0  0  0  0  0  0  0  0  0
   -3.2845   23.7202  -21.4118 O   0  0  0  0  0  0  0  0  0  0  0  0
   -1.2398   23.3110  -21.4917 H   0  0  0  0  0  0  0  0  0  0  0  0
   -3.9586   22.8798  -23.4557 C   0  0  0  0  0  0  0  0  0  0  0  0
   -3.9641   23.5279  -24.5667 C   0  0  0  0  0  0  0  0  0  0  0  0
   -5.0681   23.3304  -25.5868 C   0  0  0  0  0  0  0  0  0  0  0  0
   -4.6426   23.9668  -26.7745 N   0  0  0  0  0  0  0  0  0  0  0  0
   -4.4494   25.3700  -26.7411 C   0  0  0  0  0  0  0  0  0  0  0  0
   -5.6146   25.9887  -27.5396 C   0  0  0  0  0  0  0  0  0  0  0  0
   -5.5147   25.5881  -28.9927 C   0  0  0  0  0  0  0  0  0  0  0  0
   -4.6475   24.3295  -29.1372 C   0  0  0  0  0  0  0  0  0  0  0  0
   -4.9293   23.3610  -28.0112 C   0  0  0  0  0  0  0  0  0  0  0  0
    4.0148   19.0732  -19.7653 C   0  0  0  0  0  0  0  0  0  0  0  0
    4.5439   18.5681  -18.8805 N   0  0  0  0  0  0  0  0  0  0  0  0
    1.4567   20.4351  -19.4462 N   0  0  0  0  0  0  0  0  0  0  0  0
    0.5680   19.8013  -19.4024 H   0  0  0  0  0  0  0  0  0  0  0  0
    1.6688   21.1919  -18.2944 C   0  0  0  0  0  0  0  0  0  0  0  0
    1.0903   20.7715  -17.0828 C   0  0  0  0  0  0  0  0  0  0  0  0
    1.2832   21.4268  -15.8914 C   0  0  0  0  0  0  0  0  0  0  0  0
    2.0907   22.5630  -15.8745 C   0  0  0  0  0  0  0  0  0  0  0  0
    2.6757   23.0057  -17.0435 C   0  0  0  0  0  0  0  0  0  0  0  0
    3.6863   24.4414  -16.9993 Cl  0  0  0  0  0  0  0  0  0  0  0  0
    2.4516   22.3097  -18.2372 C   0  0  0  0  0  0  0  0  0  0  0  0
    2.3423   23.2705  -14.7189 O   0  0  0  0  0  0  0  0  0  0  0  0
    1.5532   23.2882  -13.5773 C   0  0  0  0  0  0  0  0  0  0  0  0
    2.3419   23.0421  -12.3259 C   0  0  0  0  0  0  0  0  0  0  0  0
    3.7124   23.0361  -12.3179 C   0  0  0  0  0  0  0  0  0  0  0  0
    4.4589   22.8147  -11.1657 C   0  0  0  0  0  0  0  0  0  0  0  0
    3.7806   22.5933   -9.9913 C   0  0  0  0  0  0  0  0  0  0  0  0
    2.3959   22.6010  -10.0101 C   0  0  0  0  0  0  0  0  0  0  0  0
    1.6996   22.8184  -11.1428 N   0  0  0  0  0  0  0  0  0  0  0  0
   -0.3199   22.6345  -25.0872 O   0  0  0  0  0  0  0  0  0  0  0  0
   -1.4968   22.2428  -27.0971 C   0  0  0  0  0  0  0  0  0  0  0  0
   -0.1322   22.4024  -26.4310 C   0  0  0  0  0  0  0  0  0  0  0  0
 44 45  1  0  0  0
 45 43  1  0  0  0
 43  1  1  0  0  0
  1  2  2  0  0  0
  2  3  1  0  0  0
  3  4  2  0  0  0
  4  5  1  0  0  0
  5  6  2  0  0  0
  6 24  1  0  0  0
 24 25  3  0  0  0
  6  7  1  0  0  0
  7 26  1  0  0  0
 26 28  1  0  0  0
 28 29  2  0  0  0
 29 30  1  0  0  0
 30 31  2  0  0  0
 31 35  1  0  0  0
 35 36  1  0  0  0
 36 37  1  0  0  0
 37 38  2  0  0  0
 38 39  1  0  0  0
 39 40  2  0  0  0
 40 41  1  0  0  0
 41 42  2  0  0  0
 31 32  1  0  0  0
 32 33  1  0  0  0
 32 34  2  0  0  0
  7  8  2  0  0  0
  8  9  1  0  0  0
  9 10  2  0  0  0
 10 11  1  0  0  0
 11 12  1  0  0  0
 12 13  2  0  0  0
 12 15  1  0  0  0
 15 16  2  0  0  0
 16 17  1  0  0  0
 17 18  1  0  0  0
 18 19  1  0  0  0
 19 20  1  0  0  0
 20 21  1  0  0  0
 21 22  1  0  0  0
 22 23  1  0  0  0
 10  1  1  0  0  0
 23 18  1  0  0  0
  8  3  1  0  0  0
 34 28  1  0  0  0
 42 37  1  0  0  0
 26 27  1  0  0  0
 11 14  1  0  0  0
M  END
> <minimizedAffinity>
-7.25599

> <CNNscore>
0.2102628052

> <CNNaffinity>
6.7256293297

> <CNN_VS>
1.4141496420

> <CNNaffinity_variance>
0.2773302197

$$$$
[H]/C(C(=O)N([H])c1c(OC([H])([H])C([H])([H])[H])c([H])c2nc([H])c(C#N)c(N([H])c3c([H])c([H])c(OC([H])([H])c4nc([H])c([H])c([H])c4[H])c(Cl)c3[H])c2c1[H])=C(/[H])C([H])([H])N1C([H])([H])C([H])([H])C([H])([H])C([H])([H])C1([H])[H]


 45 49  0  0  0  0  0  0  0  0999 V2000
    0.7405   21.3543  -22.8078 C   0  0  0  0  0  0  0  0  0  0  0  0
    0.9914   21.7246  -24.1023 C   0  0  0  0  0  0  0  0  0  0  0  0
   -0.0179   21.9797  -25.0120 C   0  0  0  0  0  0  0  0  0  0  0  0
    0.2657   22.3743  -26.2679 N   0  0  0  0  0  0  0  0  0  0  0  0
   -0.6771   22.6649  -27.1765 C   0  0  0  0  0  0  0  0  0  0  0  0
   -2.0109   22.5517  -26.7991 C   0  0  0  0  0  0  0  0  0  0  0  0
   -2.3829   22.1563  -25.5485 C   0  0  0  0  0  0  0  0  0  0  0  0
   -1.3293   21.8705  -24.6581 C   0  0  0  0  0  0  0  0  0  0  0  0
   -1.5900   21.5001  -23.3700 C   0  0  0  0  0  0  0  0  0  0  0  0
   -0.6017   21.2253  -22.3801 C   0  0  0  0  0  0  0  0  0  0  0  0
   -0.8969   21.0352  -21.1224 N   0  0  0  0  0  0  0  0  0  0  0  0
   -1.1914   20.8253  -19.7708 C   0  0  0  0  0  0  0  0  0  0  0  0
   -0.3045   20.4643  -18.8997 O   0  0  0  0  0  0  0  0  0  0  0  0
    0.4274   20.9220  -20.7994 H   0  0  0  0  0  0  0  0  0  0  0  0
   -2.5406   20.9732  -19.1799 C   0  0  0  0  0  0  0  0  0  0  0  0
   -3.3541   21.8821  -19.5880 C   0  0  0  0  0  0  0  0  0  0  0  0
   -4.7350   22.0318  -18.9804 C   0  0  0  0  0  0  0  0  0  0  0  0
   -5.6007   22.4170  -20.0286 N   0  0  0  0  0  0  0  0  0  0  0  0
   -6.4676   23.5145  -19.8019 C   0  0  0  0  0  0  0  0  0  0  0  0
   -7.8853   22.9257  -19.6549 C   0  0  0  0  0  0  0  0  0  0  0  0
   -8.3261   22.3086  -20.9613 C   0  0  0  0  0  0  0  0  0  0  0  0
   -7.1052   21.9930  -21.8370 C   0  0  0  0  0  0  0  0  0  0  0  0
   -5.9712   21.4605  -20.9912 C   0  0  0  0  0  0  0  0  0  0  0  0
   -3.0361   22.8892  -27.7351 C   0  0  0  0  0  0  0  0  0  0  0  0
   -3.8723   23.1665  -28.4712 N   0  0  0  0  0  0  0  0  0  0  0  0
   -3.6675   22.0461  -25.0165 N   0  0  0  0  0  0  0  0  0  0  0  0
   -4.0449   21.0241  -24.9356 H   0  0  0  0  0  0  0  0  0  0  0  0
   -4.5611   23.0164  -24.5643 C   0  0  0  0  0  0  0  0  0  0  0  0
   -4.2307   23.7738  -23.4257 C   0  0  0  0  0  0  0  0  0  0  0  0
   -5.0265   24.7807  -22.9369 C   0  0  0  0  0  0  0  0  0  0  0  0
   -6.2196   25.0722  -23.5964 C   0  0  0  0  0  0  0  0  0  0  0  0
   -6.5772   24.3506  -24.7173 C   0  0  0  0  0  0  0  0  0  0  0  0
   -8.0864   24.7327  -25.5300 Cl  0  0  0  0  0  0  0  0  0  0  0  0
   -5.7383   23.3307  -25.1814 C   0  0  0  0  0  0  0  0  0  0  0  0
   -7.0679   26.0735  -23.1758 O   0  0  0  0  0  0  0  0  0  0  0  0
   -7.4697   26.3162  -21.8698 C   0  0  0  0  0  0  0  0  0  0  0  0
   -8.9122   25.9785  -21.6369 C   0  0  0  0  0  0  0  0  0  0  0  0
   -9.7641   25.6731  -22.6661 C   0  0  0  0  0  0  0  0  0  0  0  0
  -11.1027   25.3527  -22.4672 C   0  0  0  0  0  0  0  0  0  0  0  0
  -11.5789   25.3463  -21.1782 C   0  0  0  0  0  0  0  0  0  0  0  0
  -10.7100   25.6567  -20.1455 C   0  0  0  0  0  0  0  0  0  0  0  0
   -9.4173   25.9635  -20.3693 N   0  0  0  0  0  0  0  0  0  0  0  0
    1.7588   21.1043  -21.9370 O   0  0  0  0  0  0  0  0  0  0  0  0
    3.4491   19.4609  -22.0803 C   0  0  0  0  0  0  0  0  0  0  0  0
    3.1097   20.9479  -22.1505 C   0  0  0  0  0  0  0  0  0  0  0  0
 44 45  1  0  0  0
 45 43  1  0  0  0
 43  1  1  0  0  0
  1  2  2  0  0  0
  2  3  1  0  0  0
  3  4  2  0  0  0
  4  5  1  0  0  0
  5  6  2  0  0  0
  6 24  1  0  0  0
 24 25  3  0  0  0
  6  7  1  0  0  0
  7 26  1  0  0  0
 26 28  1  0  0  0
 28 29  2  0  0  0
 29 30  1  0  0  0
 30 31  2  0  0  0
 31 35  1  0  0  0
 35 36  1  0  0  0
 36 37  1  0  0  0
 37 38  2  0  0  0
 38 39  1  0  0  0
 39 40  2  0  0  0
 40 41  1  0  0  0
 41 42  2  0  0  0
 31 32  1  0  0  0
 32 33  1  0  0  0
 32 34  2  0  0  0
  7  8  2  0  0  0
  8  9  1  0  0  0
  9 10  2  0  0  0
 10 11  1  0  0  0
 11 12  1  0  0  0
 12 13  2  0  0  0
 12 15  1  0  0  0
 15 16  2  0  0  0
 16 17  1  0  0  0
 17 18  1  0  0  0
 18 19  1  0  0  0
 19 20  1  0  0  0
 20 21  1  0  0  0
 21 22  1  0  0  0
 22 23  1  0  0  0
 10  1  1  0  0  0
 23 18  1  0  0  0
  8  3  1  0  0  0
 34 28  1  0  0  0
 42 37  1  0  0  0
 26 27  1  0  0  0
 11 14  1  0  0  0
M  END
> <minimizedAffinity>
-8.27767

> <CNNscore>
0.1597974151

> <CNNaffinity>
7.4535169601

> <CNN_VS>
1.1910527945

> <CNNaffinity_variance>
0.2285650074

$$$$
[H]/C(C(=O)N([H])c1c(OC([H])([H])C([H])([H])[H])c([H])c2nc([H])c(C#N)c(N([H])c3c([H])c([H])c(OC([H])([H])c4nc([H])c([H])c([H])c4[H])c(Cl)c3[H])c2c1[H])=C(/[H])C([H])([H])N1C([H])([H])C([H])([H])C([H])([H])C([H])([H])C1([H])[H]


 45 49  0  0  0  0  0  0  0  0999 V2000
   -0.2123   22.0175  -24.6480 C   0  0  0  0  0  0  0  0  0  0  0  0
    1.0561   21.7876  -24.1852 C   0  0  0  0  0  0  0  0  0  0  0  0
    1.3066   21.2646  -22.9302 C   0  0  0  0  0  0  0  0  0  0  0  0
    2.5661   21.0204  -22.5210 N   0  0  0  0  0  0  0  0  0  0  0  0
    2.8589   20.4840  -21.3270 C   0  0  0  0  0  0  0  0  0  0  0  0
    1.8079   20.1665  -20.4734 C   0  0  0  0  0  0  0  0  0  0  0  0
    0.5049   20.3843  -20.8101 C   0  0  0  0  0  0  0  0  0  0  0  0
    0.2877   20.9510  -22.0815 C   0  0  0  0  0  0  0  0  0  0  0  0
   -0.9808   21.1781  -22.5329 C   0  0  0  0  0  0  0  0  0  0  0  0
   -1.3122   21.7107  -23.8131 C   0  0  0  0  0  0  0  0  0  0  0  0
   -2.5375   21.7569  -24.2621 N   0  0  0  0  0  0  0  0  0  0  0  0
   -3.8539   21.7851  -24.7351 C   0  0  0  0  0  0  0  0  0  0  0  0
   -4.6912   20.8133  -24.5602 O   0  0  0  0  0  0  0  0  0  0  0  0
   -2.8627   20.6208  -23.5732 H   0  0  0  0  0  0  0  0  0  0  0  0
   -4.4404   22.9096  -25.4986 C   0  0  0  0  0  0  0  0  0  0  0  0
   -3.7538   23.5541  -26.3747 C   0  0  0  0  0  0  0  0  0  0  0  0
   -4.3568   24.7060  -27.1545 C   0  0  0  0  0  0  0  0  0  0  0  0
   -4.4338   24.2882  -28.5022 N   0  0  0  0  0  0  0  0  0  0  0  0
   -3.7064   25.0277  -29.4672 C   0  0  0  0  0  0  0  0  0  0  0  0
   -4.7473   25.8220  -30.2819 C   0  0  0  0  0  0  0  0  0  0  0  0
   -5.6275   24.8724  -31.0602 C   0  0  0  0  0  0  0  0  0  0  0  0
   -5.5778   23.4710  -30.4353 C   0  0  0  0  0  0  0  0  0  0  0  0
   -5.5631   23.5648  -28.9266 C   0  0  0  0  0  0  0  0  0  0  0  0
    2.0882   19.5612  -19.2101 C   0  0  0  0  0  0  0  0  0  0  0  0
    2.3320   19.0678  -18.2025 N   0  0  0  0  0  0  0  0  0  0  0  0
   -0.6453   20.0739  -20.0849 N   0  0  0  0  0  0  0  0  0  0  0  0
   -1.0939   19.1076  -20.3268 H   0  0  0  0  0  0  0  0  0  0  0  0
   -1.3279   20.7829  -19.0970 C   0  0  0  0  0  0  0  0  0  0  0  0
   -2.3841   21.6336  -19.4712 C   0  0  0  0  0  0  0  0  0  0  0  0
   -3.1415   22.3337  -18.5644 C   0  0  0  0  0  0  0  0  0  0  0  0
   -2.8562   22.1986  -17.2066 C   0  0  0  0  0  0  0  0  0  0  0  0
   -1.8275   21.3726  -16.8012 C   0  0  0  0  0  0  0  0  0  0  0  0
   -1.4836   21.2204  -15.0857 Cl  0  0  0  0  0  0  0  0  0  0  0  0
   -1.0782   20.6784  -17.7583 C   0  0  0  0  0  0  0  0  0  0  0  0
   -3.5757   22.8583  -16.2337 O   0  0  0  0  0  0  0  0  0  0  0  0
   -4.7110   23.6313  -16.4327 C   0  0  0  0  0  0  0  0  0  0  0  0
   -5.4187   23.9589  -15.1518 C   0  0  0  0  0  0  0  0  0  0  0  0
   -5.0872   23.3623  -13.9633 C   0  0  0  0  0  0  0  0  0  0  0  0
   -5.7296   23.6582  -12.7659 C   0  0  0  0  0  0  0  0  0  0  0  0
   -6.7389   24.5906  -12.7896 C   0  0  0  0  0  0  0  0  0  0  0  0
   -7.0663   25.1872  -13.9957 C   0  0  0  0  0  0  0  0  0  0  0  0
   -6.4257   24.8798  -15.1403 N   0  0  0  0  0  0  0  0  0  0  0  0
   -0.4252   22.5399  -25.8888 O   0  0  0  0  0  0  0  0  0  0  0  0
   -0.5357   23.0612  -28.1897 C   0  0  0  0  0  0  0  0  0  0  0  0
    0.1789   22.2708  -27.0960 C   0  0  0  0  0  0  0  0  0  0  0  0
 44 45  1  0  0  0
 45 43  1  0  0  0
 43  1  1  0  0  0
  1  2  2  0  0  0
  2  3  1  0  0  0
  3  4  2  0  0  0
  4  5  1  0  0  0
  5  6  2  0  0  0
  6 24  1  0  0  0
 24 25  3  0  0  0
  6  7  1  0  0  0
  7 26  1  0  0  0
 26 28  1  0  0  0
 28 29  2  0  0  0
 29 30  1  0  0  0
 30 31  2  0  0  0
 31 35  1  0  0  0
 35 36  1  0  0  0
 36 37  1  0  0  0
 37 38  2  0  0  0
 38 39  1  0  0  0
 39 40  2  0  0  0
 40 41  1  0  0  0
 41 42  2  0  0  0
 31 32  1  0  0  0
 32 33  1  0  0  0
 32 34  2  0  0  0
  7  8  2  0  0  0
  8  9  1  0  0  0
  9 10  2  0  0  0
 10 11  1  0  0  0
 11 12  1  0  0  0
 12 13  2  0  0  0
 12 15  1  0  0  0
 15 16  2  0  0  0
 16 17  1  0  0  0
 17 18  1  0  0  0
 18 19  1  0  0  0
 19 20  1  0  0  0
 20 21  1  0  0  0
 21 22  1  0  0  0
 22 23  1  0  0  0
 10  1  1  0  0  0
 23 18  1  0  0  0
  8  3  1  0  0  0
 34 28  1  0  0  0
 42 37  1  0  0  0
 26 27  1  0  0  0
 11 14  1  0  0  0
M  END
> <minimizedAffinity>
-8.22719

> <CNNscore>
0.1314845234

> <CNNaffinity>
6.6332578659

> <CNN_VS>
0.8721707463

> <CNNaffinity_variance>
0.5505494475

$$$$
[H]/C(C(=O)N([H])c1c(OC([H])([H])C([H])([H])[H])c([H])c2nc([H])c(C#N)c(N([H])c3c([H])c([H])c(OC([H])([H])c4nc([H])c([H])c([H])c4[H])c(Cl)c3[H])c2c1[H])=C(/[H])C([H])([H])N1C([H])([H])C([H])([H])C([H])([H])C([H])([H])C1([H])[H]


 45 49  0  0  0  0  0  0  0  0999 V2000
   -4.2921   22.5012  -18.5441 C   0  0  0  0  0  0  0  0  0  0  0  0
   -2.9915   22.6527  -18.1424 C   0  0  0  0  0  0  0  0  0  0  0  0
   -1.9214   22.2444  -18.9166 C   0  0  0  0  0  0  0  0  0  0  0  0
   -0.6544   22.4396  -18.5043 N   0  0  0  0  0  0  0  0  0  0  0  0
    0.4165   22.0913  -19.2329 C   0  0  0  0  0  0  0  0  0  0  0  0
    0.2034   21.5000  -20.4735 C   0  0  0  0  0  0  0  0  0  0  0  0
   -1.0470   21.2647  -20.9631 C   0  0  0  0  0  0  0  0  0  0  0  0
   -2.1140   21.6610  -20.1330 C   0  0  0  0  0  0  0  0  0  0  0  0
   -3.4073   21.5038  -20.5418 C   0  0  0  0  0  0  0  0  0  0  0  0
   -4.5563   21.9032  -19.7986 C   0  0  0  0  0  0  0  0  0  0  0  0
   -5.7622   21.8826  -20.2989 N   0  0  0  0  0  0  0  0  0  0  0  0
   -7.0581   21.8403  -20.8246 C   0  0  0  0  0  0  0  0  0  0  0  0
   -7.8978   20.8896  -20.5653 O   0  0  0  0  0  0  0  0  0  0  0  0
   -6.1107   20.8368  -19.4892 H   0  0  0  0  0  0  0  0  0  0  0  0
   -7.6175   22.8571  -21.7437 C   0  0  0  0  0  0  0  0  0  0  0  0
   -6.9078   23.3706  -22.6856 C   0  0  0  0  0  0  0  0  0  0  0  0
   -7.4831   24.4124  -23.6248 C   0  0  0  0  0  0  0  0  0  0  0  0
   -6.4332   25.3072  -23.9312 N   0  0  0  0  0  0  0  0  0  0  0  0
   -6.6210   26.2026  -25.0130 C   0  0  0  0  0  0  0  0  0  0  0  0
   -5.7184   25.6978  -26.1570 C   0  0  0  0  0  0  0  0  0  0  0  0
   -4.2658   25.8204  -25.7610 C   0  0  0  0  0  0  0  0  0  0  0  0
   -4.1380   25.9025  -24.2333 C   0  0  0  0  0  0  0  0  0  0  0  0
   -5.1183   24.9626  -23.5694 C   0  0  0  0  0  0  0  0  0  0  0  0
    1.3251   21.1512  -21.2866 C   0  0  0  0  0  0  0  0  0  0  0  0
    2.2218   20.8869  -21.9531 N   0  0  0  0  0  0  0  0  0  0  0  0
   -1.4119   20.7307  -22.1988 N   0  0  0  0  0  0  0  0  0  0  0  0
   -1.5701   19.6498  -22.2033 H   0  0  0  0  0  0  0  0  0  0  0  0
   -1.6138   21.3369  -23.4383 C   0  0  0  0  0  0  0  0  0  0  0  0
   -2.9286   21.5869  -23.8720 C   0  0  0  0  0  0  0  0  0  0  0  0
   -3.2213   22.2207  -25.0546 C   0  0  0  0  0  0  0  0  0  0  0  0
   -2.1701   22.6401  -25.8685 C   0  0  0  0  0  0  0  0  0  0  0  0
   -0.8666   22.4127  -25.4761 C   0  0  0  0  0  0  0  0  0  0  0  0
    0.4418   22.9465  -26.5188 Cl  0  0  0  0  0  0  0  0  0  0  0  0
   -0.6117   21.7611  -24.2637 C   0  0  0  0  0  0  0  0  0  0  0  0
   -2.3796   23.2919  -27.0645 O   0  0  0  0  0  0  0  0  0  0  0  0
   -2.8407   22.7209  -28.2424 C   0  0  0  0  0  0  0  0  0  0  0  0
   -3.7314   23.6424  -29.0212 C   0  0  0  0  0  0  0  0  0  0  0  0
   -3.3808   24.9398  -29.2896 C   0  0  0  0  0  0  0  0  0  0  0  0
   -4.1924   25.8057  -30.0145 C   0  0  0  0  0  0  0  0  0  0  0  0
   -5.3953   25.3272  -30.4753 C   0  0  0  0  0  0  0  0  0  0  0  0
   -5.7403   24.0149  -30.1983 C   0  0  0  0  0  0  0  0  0  0  0  0
   -4.9328   23.1992  -29.4928 N   0  0  0  0  0  0  0  0  0  0  0  0
   -5.3251   22.9094  -17.7542 O   0  0  0  0  0  0  0  0  0  0  0  0
   -6.4119   24.8319  -18.5914 C   0  0  0  0  0  0  0  0  0  0  0  0
   -5.7383   24.1713  -17.3910 C   0  0  0  0  0  0  0  0  0  0  0  0
 44 45  1  0  0  0
 45 43  1  0  0  0
 43  1  1  0  0  0
  1  2  2  0  0  0
  2  3  1  0  0  0
  3  4  2  0  0  0
  4  5  1  0  0  0
  5  6  2  0  0  0
  6 24  1  0  0  0
 24 25  3  0  0  0
  6  7  1  0  0  0
  7 26  1  0  0  0
 26 28  1  0  0  0
 28 29  2  0  0  0
 29 30  1  0  0  0
 30 31  2  0  0  0
 31 35  1  0  0  0
 35 36  1  0  0  0
 36 37  1  0  0  0
 37 38  2  0  0  0
 38 39  1  0  0  0
 39 40  2  0  0  0
 40 41  1  0  0  0
 41 42  2  0  0  0
 31 32  1  0  0  0
 32 33  1  0  0  0
 32 34  2  0  0  0
  7  8  2  0  0  0
  8  9  1  0  0  0
  9 10  2  0  0  0
 10 11  1  0  0  0
 11 12  1  0  0  0
 12 13  2  0  0  0
 12 15  1  0  0  0
 15 16  2  0  0  0
 16 17  1  0  0  0
 17 18  1  0  0  0
 18 19  1  0  0  0
 19 20  1  0  0  0
 20 21  1  0  0  0
 21 22  1  0  0  0
 22 23  1  0  0  0
 10  1  1  0  0  0
 23 18  1  0  0  0
  8  3  1  0  0  0
 34 28  1  0  0  0
 42 37  1  0  0  0
 26 27  1  0  0  0
 11 14  1  0  0  0
M  END
> <minimizedAffinity>
-8.88989

> <CNNscore>
0.0652416795

> <CNNaffinity>
6.9658498764

> <CNN_VS>
0.4544637501

> <CNNaffinity_variance>
1.1542755365

$$$$
[H]O[C@]([H])(C([H])([H])N([H])C(=O)c1c(C([H])([H])[H])c(/C([H])=C2\C(=O)N([H])c3c([H])c([H])c(F)c([H])c32)n([H])c1C([H])([H])[H])C([H])([H])N1C([H])([H])C([H])([H])OC([H])([H])C1([H])[H]


 36 39  0  0  0  0  0  0  0  0999 V2000
   -0.5688   19.9685  -19.6654 C   0  0  0  0  0  0  0  0  0  0  0  0
   -1.1544   20.8749  -20.6997 C   0  0  0  0  0  0  0  0  0  0  0  0
   -1.1170   20.7326  -22.0204 N   0  0  0  0  0  0  0  0  0  0  0  0
   -1.7393   21.7390  -22.6143 C   0  0  0  0  0  0  0  0  0  0  0  0
   -2.2167   22.6014  -21.6013 C   0  0  0  0  0  0  0  0  0  0  0  0
   -2.9957   23.8440  -21.8570 C   0  0  0  0  0  0  0  0  0  0  0  0
   -1.8559   22.0686  -20.4219 C   0  0  0  0  0  0  0  0  0  0  0  0
   -0.6252   19.9087  -22.4894 H   0  0  0  0  0  0  0  0  0  0  0  0
   -1.9862   22.0224  -24.0156 C   0  0  0  0  0  0  0  0  0  0  0  0
   -1.0644   22.2311  -24.9304 C   0  0  0  0  0  0  0  0  0  0  0  0
    0.3758   22.2192  -24.7545 C   0  0  0  0  0  0  0  0  0  0  0  0
    1.0153   21.9827  -23.6802 O   0  0  0  0  0  0  0  0  0  0  0  0
    0.9366   22.5224  -26.0287 N   0  0  0  0  0  0  0  0  0  0  0  0
   -0.0978   22.7252  -27.0072 C   0  0  0  0  0  0  0  0  0  0  0  0
   -0.0711   23.0326  -28.3521 C   0  0  0  0  0  0  0  0  0  0  0  0
   -1.2341   23.1712  -29.0629 C   0  0  0  0  0  0  0  0  0  0  0  0
   -2.4488   23.0013  -28.4276 C   0  0  0  0  0  0  0  0  0  0  0  0
   -3.6042   23.1411  -29.1430 F   0  0  0  0  0  0  0  0  0  0  0  0
   -2.4585   22.6943  -27.0845 C   0  0  0  0  0  0  0  0  0  0  0  0
   -1.2998   22.5517  -26.3557 C   0  0  0  0  0  0  0  0  0  0  0  0
    1.9423   22.5871  -26.2215 H   0  0  0  0  0  0  0  0  0  0  0  0
   -2.1345   22.5412  -19.0631 C   0  0  0  0  0  0  0  0  0  0  0  0
   -1.2580   23.3365  -18.5699 O   0  0  0  0  0  0  0  0  0  0  0  0
   -3.2368   22.2169  -18.2840 N   0  0  0  0  0  0  0  0  0  0  0  0
   -3.9659   21.5596  -18.7402 H   0  0  0  0  0  0  0  0  0  0  0  0
   -3.5781   22.6438  -16.9608 C   0  0  0  0  0  0  0  0  0  0  0  0
   -4.7235   23.5857  -16.8823 C   0  0  0  0  0  0  0  0  0  0  0  0
   -4.3822   24.8895  -16.6057 O   0  0  0  0  0  0  0  0  0  0  0  0
   -4.6593   25.2124  -15.7174 H   0  0  0  0  0  0  0  0  0  0  0  0
   -5.4875   23.4972  -18.2044 C   0  0  0  0  0  0  0  0  0  0  0  0
   -6.5980   22.6193  -18.1381 N   0  0  0  0  0  0  0  0  0  0  0  0
   -6.6662   21.6240  -19.1180 C   0  0  0  0  0  0  0  0  0  0  0  0
   -7.3454   20.3511  -18.7578 C   0  0  0  0  0  0  0  0  0  0  0  0
   -8.1502   20.4086  -17.6499 O   0  0  0  0  0  0  0  0  0  0  0  0
   -7.3283   20.8685  -16.5944 C   0  0  0  0  0  0  0  0  0  0  0  0
   -7.1385   22.3450  -16.8633 C   0  0  0  0  0  0  0  0  0  0  0  0
  1  2  1  0  0  0
  2  3  1  0  0  0
  3  4  1  0  0  0
  4  9  1  0  0  0
  9 10  2  0  0  0
 10 11  1  0  0  0
 11 12  2  0  0  0
 11 13  1  0  0  0
 13 14  1  0  0  0
 14 15  2  0  0  0
 15 16  1  0  0  0
 16 17  2  0  0  0
 17 18  1  0  0  0
 17 19  1  0  0  0
 19 20  2  0  0  0
  4  5  2  0  0  0
  5  6  1  0  0  0
  5  7  1  0  0  0
  7 22  1  0  0  0
 22 23  2  0  0  0
 22 24  1  0  0  0
 24 26  1  0  0  0
 26 27  1  0  0  0
 27 28  1  0  0  0
 27 30  1  0  0  0
 30 31  1  0  0  0
 31 32  1  0  0  0
 32 33  1  0  0  0
 33 34  1  0  0  0
 34 35  1  0  0  0
 35 36  1  0  0  0
  7  2  2  0  0  0
 36 31  1  0  0  0
 20 10  1  0  0  0
 20 14  1  0  0  0
  3  8  1  0  0  0
 13 21  1  0  0  0
 24 25  1  0  0  0
 28 29  1  0  0  0
M  END
> <minimizedAffinity>
-8.05380

> <CNNscore>
0.3329293430

> <CNNaffinity>
5.9755043983

> <CNN_VS>
1.9894207716

> <CNNaffinity_variance>
0.1698955595

$$$$
[H]O[C@]([H])(C([H])([H])N([H])C(=O)c1c(C([H])([H])[H])c(/C([H])=C2\C(=O)N([H])c3c([H])c([H])c(F)c([H])c32)n([H])c1C([H])([H])[H])C([H])([H])N1C([H])([H])C([H])([H])OC([H])([H])C1([H])[H]


 36 39  0  0  0  0  0  0  0  0999 V2000
   -6.2969   25.0915  -20.3215 C   0  0  0  0  0  0  0  0  0  0  0  0
   -5.9084   24.3285  -21.5468 C   0  0  0  0  0  0  0  0  0  0  0  0
   -4.8655   24.5436  -22.3418 N   0  0  0  0  0  0  0  0  0  0  0  0
   -4.8492   23.6679  -23.3345 C   0  0  0  0  0  0  0  0  0  0  0  0
   -5.9680   22.8196  -23.1721 C   0  0  0  0  0  0  0  0  0  0  0  0
   -6.2947   21.6813  -24.0742 C   0  0  0  0  0  0  0  0  0  0  0  0
   -6.6203   23.2271  -22.0705 C   0  0  0  0  0  0  0  0  0  0  0  0
   -4.1732   25.3382  -22.1684 H   0  0  0  0  0  0  0  0  0  0  0  0
   -3.9180   23.4762  -24.4304 C   0  0  0  0  0  0  0  0  0  0  0  0
   -2.7446   22.8878  -24.3464 C   0  0  0  0  0  0  0  0  0  0  0  0
   -2.1297   22.3034  -23.1693 C   0  0  0  0  0  0  0  0  0  0  0  0
   -2.6254   22.2343  -21.9994 O   0  0  0  0  0  0  0  0  0  0  0  0
   -0.8566   21.8161  -23.5835 N   0  0  0  0  0  0  0  0  0  0  0  0
   -0.6428   22.0701  -24.9829 C   0  0  0  0  0  0  0  0  0  0  0  0
    0.4058   21.7973  -25.8374 C   0  0  0  0  0  0  0  0  0  0  0  0
    0.3463   22.1580  -27.1578 C   0  0  0  0  0  0  0  0  0  0  0  0
   -0.7757   22.8023  -27.6413 C   0  0  0  0  0  0  0  0  0  0  0  0
   -0.8276   23.1588  -28.9591 F   0  0  0  0  0  0  0  0  0  0  0  0
   -1.8142   23.0672  -26.7755 C   0  0  0  0  0  0  0  0  0  0  0  0
   -1.7707   22.7119  -25.4466 C   0  0  0  0  0  0  0  0  0  0  0  0
   -0.1839   21.3476  -22.9666 H   0  0  0  0  0  0  0  0  0  0  0  0
   -7.8172   22.6673  -21.4371 C   0  0  0  0  0  0  0  0  0  0  0  0
   -7.7977   21.3981  -21.2560 O   0  0  0  0  0  0  0  0  0  0  0  0
   -8.9397   23.3709  -21.0221 N   0  0  0  0  0  0  0  0  0  0  0  0
   -8.9127   24.4426  -21.1722 H   0  0  0  0  0  0  0  0  0  0  0  0
  -10.1348   22.8964  -20.3926 C   0  0  0  0  0  0  0  0  0  0  0  0
  -10.0846   22.8476  -18.9092 C   0  0  0  0  0  0  0  0  0  0  0  0
  -11.1797   23.3878  -18.2754 O   0  0  0  0  0  0  0  0  0  0  0  0
  -11.0066   24.2259  -17.7877 H   0  0  0  0  0  0  0  0  0  0  0  0
   -9.8910   21.3866  -18.5000 C   0  0  0  0  0  0  0  0  0  0  0  0
   -8.7181   21.1836  -17.7310 N   0  0  0  0  0  0  0  0  0  0  0  0
   -8.2480   19.8694  -17.6449 C   0  0  0  0  0  0  0  0  0  0  0  0
   -6.7850   19.6740  -17.4627 C   0  0  0  0  0  0  0  0  0  0  0  0
   -6.0950   20.7770  -17.0319 O   0  0  0  0  0  0  0  0  0  0  0  0
   -6.3632   21.7973  -17.9742 C   0  0  0  0  0  0  0  0  0  0  0  0
   -7.7803   22.2372  -17.6796 C   0  0  0  0  0  0  0  0  0  0  0  0
  1  2  1  0  0  0
  2  3  1  0  0  0
  3  4  1  0  0  0
  4  9  1  0  0  0
  9 10  2  0  0  0
 10 11  1  0  0  0
 11 12  2  0  0  0
 11 13  1  0  0  0
 13 14  1  0  0  0
 14 15  2  0  0  0
 15 16  1  0  0  0
 16 17  2  0  0  0
 17 18  1  0  0  0
 17 19  1  0  0  0
 19 20  2  0  0  0
  4  5  2  0  0  0
  5  6  1  0  0  0
  5  7  1  0  0  0
  7 22  1  0  0  0
 22 23  2  0  0  0
 22 24  1  0  0  0
 24 26  1  0  0  0
 26 27  1  0  0  0
 27 28  1  0  0  0
 27 30  1  0  0  0
 30 31  1  0  0  0
 31 32  1  0  0  0
 32 33  1  0  0  0
 33 34  1  0  0  0
 34 35  1  0  0  0
 35 36  1  0  0  0
  7  2  2  0  0  0
 36 31  1  0  0  0
 20 10  1  0  0  0
 20 14  1  0  0  0
  3  8  1  0  0  0
 13 21  1  0  0  0
 24 25  1  0  0  0
 28 29  1  0  0  0
M  END
> <minimizedAffinity>
-7.82652

> <CNNscore>
0.2209962457

> <CNNaffinity>
5.5691971779

> <CNN_VS>
1.2307716608

> <CNNaffinity_variance>
0.2189602852

$$$$
[H]O[C@]([H])(C([H])([H])N([H])C(=O)c1c(C([H])([H])[H])c(/C([H])=C2\C(=O)N([H])c3c([H])c([H])c(F)c([H])c32)n([H])c1C([H])([H])[H])C([H])([H])N1C([H])([H])C([H])([H])OC([H])([H])C1([H])[H]


 36 39  0  0  0  0  0  0  0  0999 V2000
   -0.3119   20.1106  -20.5121 C   0  0  0  0  0  0  0  0  0  0  0  0
   -0.5308   20.7356  -21.8522 C   0  0  0  0  0  0  0  0  0  0  0  0
   -1.6888   20.9686  -22.4612 N   0  0  0  0  0  0  0  0  0  0  0  0
   -1.4879   21.5314  -23.6425 C   0  0  0  0  0  0  0  0  0  0  0  0
   -0.0921   21.6741  -23.8141 C   0  0  0  0  0  0  0  0  0  0  0  0
    0.5467   22.2900  -25.0094 C   0  0  0  0  0  0  0  0  0  0  0  0
    0.4970   21.1836  -22.7107 C   0  0  0  0  0  0  0  0  0  0  0  0
   -2.6253   20.7040  -22.0214 H   0  0  0  0  0  0  0  0  0  0  0  0
   -2.4170   21.9909  -24.6576 C   0  0  0  0  0  0  0  0  0  0  0  0
   -3.1172   23.1034  -24.6100 C   0  0  0  0  0  0  0  0  0  0  0  0
   -3.1162   24.1056  -23.5608 C   0  0  0  0  0  0  0  0  0  0  0  0
   -2.4176   24.1019  -22.4972 O   0  0  0  0  0  0  0  0  0  0  0  0
   -4.0533   25.1021  -23.9590 N   0  0  0  0  0  0  0  0  0  0  0  0
   -4.6482   24.7675  -25.2250 C   0  0  0  0  0  0  0  0  0  0  0  0
   -5.5884   25.3954  -26.0161 C   0  0  0  0  0  0  0  0  0  0  0  0
   -5.9851   24.8434  -27.2056 C   0  0  0  0  0  0  0  0  0  0  0  0
   -5.4386   23.6443  -27.6197 C   0  0  0  0  0  0  0  0  0  0  0  0
   -5.8392   23.1002  -28.8070 F   0  0  0  0  0  0  0  0  0  0  0  0
   -4.5008   23.0302  -26.8186 C   0  0  0  0  0  0  0  0  0  0  0  0
   -4.0913   23.5707  -25.6211 C   0  0  0  0  0  0  0  0  0  0  0  0
   -4.2736   25.9442  -23.4157 H   0  0  0  0  0  0  0  0  0  0  0  0
    1.9191   21.1276  -22.3618 C   0  0  0  0  0  0  0  0  0  0  0  0
    2.7208   20.9907  -23.3531 O   0  0  0  0  0  0  0  0  0  0  0  0
    2.4623   21.2121  -21.0870 N   0  0  0  0  0  0  0  0  0  0  0  0
    1.7574   21.3476  -20.2768 H   0  0  0  0  0  0  0  0  0  0  0  0
    3.8322   21.1739  -20.6729 C   0  0  0  0  0  0  0  0  0  0  0  0
    4.1263   20.2271  -19.5673 C   0  0  0  0  0  0  0  0  0  0  0  0
    3.5816   20.5706  -18.3515 O   0  0  0  0  0  0  0  0  0  0  0  0
    4.2339   20.8438  -17.6658 H   0  0  0  0  0  0  0  0  0  0  0  0
    3.6438   18.8425  -20.0024 C   0  0  0  0  0  0  0  0  0  0  0  0
    4.1949   18.4348  -21.2427 N   0  0  0  0  0  0  0  0  0  0  0  0
    5.5634   18.1470  -21.2533 C   0  0  0  0  0  0  0  0  0  0  0  0
    6.0460   17.1412  -22.2366 C   0  0  0  0  0  0  0  0  0  0  0  0
    5.1859   16.8700  -23.2687 O   0  0  0  0  0  0  0  0  0  0  0  0
    3.9729   16.4595  -22.6677 C   0  0  0  0  0  0  0  0  0  0  0  0
    3.3537   17.7313  -22.1315 C   0  0  0  0  0  0  0  0  0  0  0  0
  1  2  1  0  0  0
  2  3  1  0  0  0
  3  4  1  0  0  0
  4  9  1  0  0  0
  9 10  2  0  0  0
 10 11  1  0  0  0
 11 12  2  0  0  0
 11 13  1  0  0  0
 13 14  1  0  0  0
 14 15  2  0  0  0
 15 16  1  0  0  0
 16 17  2  0  0  0
 17 18  1  0  0  0
 17 19  1  0  0  0
 19 20  2  0  0  0
  4  5  2  0  0  0
  5  6  1  0  0  0
  5  7  1  0  0  0
  7 22  1  0  0  0
 22 23  2  0  0  0
 22 24  1  0  0  0
 24 26  1  0  0  0
 26 27  1  0  0  0
 27 28  1  0  0  0
 27 30  1  0  0  0
 30 31  1  0  0  0
 31 32  1  0  0  0
 32 33  1  0  0  0
 33 34  1  0  0  0
 34 35  1  0  0  0
 35 36  1  0  0  0
  7  2  2  0  0  0
 36 31  1  0  0  0
 20 10  1  0  0  0
 20 14  1  0  0  0
  3  8  1  0  0  0
 13 21  1  0  0  0
 24 25  1  0  0  0
 28 29  1  0  0  0
M  END
> <minimizedAffinity>
-7.73707

> <CNNscore>
0.1798500866

> <CNNaffinity>
5.5853385925

> <CNN_VS>
1.0045236349

> <CNNaffinity_variance>
0.2290839851

$$$$
[H]O[C@]([H])(C([H])([H])N([H])C(=O)c1c(C([H])([H])[H])c(/C([H])=C2\C(=O)N([H])c3c([H])c([H])c(F)c([H])c32)n([H])c1C([H])([H])[H])C([H])([H])N1C([H])([H])C([H])([H])OC([H])([H])C1([H])[H]


 36 39  0  0  0  0  0  0  0  0999 V2000
   -9.7630   25.6206  -22.5462 C   0  0  0  0  0  0  0  0  0  0  0  0
   -8.4862   24.8574  -22.6933 C   0  0  0  0  0  0  0  0  0  0  0  0
   -7.6260   24.8993  -23.7053 N   0  0  0  0  0  0  0  0  0  0  0  0
   -6.6104   24.0788  -23.4865 C   0  0  0  0  0  0  0  0  0  0  0  0
   -6.8283   23.4556  -22.2367 C   0  0  0  0  0  0  0  0  0  0  0  0
   -5.8958   22.4758  -21.6149 C   0  0  0  0  0  0  0  0  0  0  0  0
   -7.9843   23.9356  -21.7485 C   0  0  0  0  0  0  0  0  0  0  0  0
   -7.7867   25.5158  -24.5624 H   0  0  0  0  0  0  0  0  0  0  0  0
   -5.4232   23.7905  -24.2691 C   0  0  0  0  0  0  0  0  0  0  0  0
   -5.3676   23.7200  -25.5815 C   0  0  0  0  0  0  0  0  0  0  0  0
   -6.4520   23.9165  -26.5251 C   0  0  0  0  0  0  0  0  0  0  0  0
   -7.6590   24.2154  -26.2551 O   0  0  0  0  0  0  0  0  0  0  0  0
   -5.8963   23.7117  -27.8209 N   0  0  0  0  0  0  0  0  0  0  0  0
   -4.4966   23.3931  -27.7322 C   0  0  0  0  0  0  0  0  0  0  0  0
   -3.5346   23.1156  -28.6817 C   0  0  0  0  0  0  0  0  0  0  0  0
   -2.2444   22.8392  -28.3127 C   0  0  0  0  0  0  0  0  0  0  0  0
   -1.9005   22.8379  -26.9749 C   0  0  0  0  0  0  0  0  0  0  0  0
   -0.6121   22.5614  -26.6148 F   0  0  0  0  0  0  0  0  0  0  0  0
   -2.8726   23.1172  -26.0392 C   0  0  0  0  0  0  0  0  0  0  0  0
   -4.1729   23.3967  -26.3926 C   0  0  0  0  0  0  0  0  0  0  0  0
   -6.4237   23.7821  -28.6982 H   0  0  0  0  0  0  0  0  0  0  0  0
   -8.6457   23.6497  -20.4725 C   0  0  0  0  0  0  0  0  0  0  0  0
   -8.5481   24.5717  -19.5869 O   0  0  0  0  0  0  0  0  0  0  0  0
   -9.3543   22.5011  -20.1470 N   0  0  0  0  0  0  0  0  0  0  0  0
   -9.4333   21.7533  -20.9256 H   0  0  0  0  0  0  0  0  0  0  0  0
  -10.0298   22.1575  -18.9324 C   0  0  0  0  0  0  0  0  0  0  0  0
   -9.1447   21.7013  -17.8308 C   0  0  0  0  0  0  0  0  0  0  0  0
   -8.3354   22.6777  -17.2971 O   0  0  0  0  0  0  0  0  0  0  0  0
   -7.3746   22.5706  -17.4859 H   0  0  0  0  0  0  0  0  0  0  0  0
  -10.0323   21.0855  -16.7481 C   0  0  0  0  0  0  0  0  0  0  0  0
  -10.1886   19.6850  -16.8986 N   0  0  0  0  0  0  0  0  0  0  0  0
   -9.1071   18.8904  -16.5056 C   0  0  0  0  0  0  0  0  0  0  0  0
   -9.4052   17.5176  -16.0176 C   0  0  0  0  0  0  0  0  0  0  0  0
  -10.6470   17.0365  -16.3415 O   0  0  0  0  0  0  0  0  0  0  0  0
  -11.5741   17.9753  -15.8314 C   0  0  0  0  0  0  0  0  0  0  0  0
  -11.4913   19.1561  -16.7733 C   0  0  0  0  0  0  0  0  0  0  0  0
  1  2  1  0  0  0
  2  3  1  0  0  0
  3  4  1  0  0  0
  4  9  1  0  0  0
  9 10  2  0  0  0
 10 11  1  0  0  0
 11 12  2  0  0  0
 11 13  1  0  0  0
 13 14  1  0  0  0
 14 15  2  0  0  0
 15 16  1  0  0  0
 16 17  2  0  0  0
 17 18  1  0  0  0
 17 19  1  0  0  0
 19 20  2  0  0  0
  4  5  2  0  0  0
  5  6  1  0  0  0
  5  7  1  0  0  0
  7 22  1  0  0  0
 22 23  2  0  0  0
 22 24  1  0  0  0
 24 26  1  0  0  0
 26 27  1  0  0  0
 27 28  1  0  0  0
 27 30  1  0  0  0
 30 31  1  0  0  0
 31 32  1  0  0  0
 32 33  1  0  0  0
 33 34  1  0  0  0
 34 35  1  0  0  0
 35 36  1  0  0  0
  7  2  2  0  0  0
 36 31  1  0  0  0
 20 10  1  0  0  0
 20 14  1  0  0  0
  3  8  1  0  0  0
 13 21  1  0  0  0
 24 25  1  0  0  0
 28 29  1  0  0  0
M  END
> <minimizedAffinity>
-7.98792

> <CNNscore>
0.1667825580

> <CNNaffinity>
5.4890341759

> <CNN_VS>
0.9154751897

> <CNNaffinity_variance>
0.2992650568

$$$$
[H]O[C@]([H])(C([H])([H])N([H])C(=O)c1c(C([H])([H])[H])c(/C([H])=C2\C(=O)N([H])c3c([H])c([H])c(F)c([H])c32)n([H])c1C([H])([H])[H])C([H])([H])N1C([H])([H])C([H])([H])OC([H])([H])C1([H])[H]


 36 39  0  0  0  0  0  0  0  0999 V2000
   -4.1332   21.7815  -21.0775 C   0  0  0  0  0  0  0  0  0  0  0  0
   -3.7197   21.9100  -22.5082 C   0  0  0  0  0  0  0  0  0  0  0  0
   -4.4923   22.1709  -23.5575 N   0  0  0  0  0  0  0  0  0  0  0  0
   -3.7728   22.2024  -24.6683 C   0  0  0  0  0  0  0  0  0  0  0  0
   -2.4299   21.9409  -24.3132 C   0  0  0  0  0  0  0  0  0  0  0  0
   -1.2978   21.9121  -25.2795 C   0  0  0  0  0  0  0  0  0  0  0  0
   -2.3978   21.7607  -22.9821 C   0  0  0  0  0  0  0  0  0  0  0  0
   -5.5469   22.3121  -23.4654 H   0  0  0  0  0  0  0  0  0  0  0  0
   -4.1443   22.4664  -26.0457 C   0  0  0  0  0  0  0  0  0  0  0  0
   -4.3864   23.6520  -26.5615 C   0  0  0  0  0  0  0  0  0  0  0  0
   -4.3322   24.9371  -25.8902 C   0  0  0  0  0  0  0  0  0  0  0  0
   -4.0181   25.1559  -24.6767 O   0  0  0  0  0  0  0  0  0  0  0  0
   -4.6979   25.9119  -26.8628 N   0  0  0  0  0  0  0  0  0  0  0  0
   -4.9813   25.2899  -28.1282 C   0  0  0  0  0  0  0  0  0  0  0  0
   -5.3674   25.7900  -29.3550 C   0  0  0  0  0  0  0  0  0  0  0  0
   -5.5737   24.9531  -30.4199 C   0  0  0  0  0  0  0  0  0  0  0  0
   -5.3934   23.5923  -30.2659 C   0  0  0  0  0  0  0  0  0  0  0  0
   -5.6010   22.7643  -31.3324 F   0  0  0  0  0  0  0  0  0  0  0  0
   -5.0076   23.1088  -29.0348 C   0  0  0  0  0  0  0  0  0  0  0  0
   -4.7963   23.9353  -27.9549 C   0  0  0  0  0  0  0  0  0  0  0  0
   -4.7516   26.9208  -26.6840 H   0  0  0  0  0  0  0  0  0  0  0  0
   -1.2524   21.5028  -22.1054 C   0  0  0  0  0  0  0  0  0  0  0  0
   -0.6759   22.5477  -21.6366 O   0  0  0  0  0  0  0  0  0  0  0  0
   -0.7515   20.2599  -21.7425 N   0  0  0  0  0  0  0  0  0  0  0  0
   -1.2754   19.4004  -22.1405 H   0  0  0  0  0  0  0  0  0  0  0  0
    0.3507   19.9323  -20.8896 C   0  0  0  0  0  0  0  0  0  0  0  0
    1.6687   19.8584  -21.5697 C   0  0  0  0  0  0  0  0  0  0  0  0
    2.0203   20.9869  -22.2739 O   0  0  0  0  0  0  0  0  0  0  0  0
    2.0335   20.8789  -23.2528 H   0  0  0  0  0  0  0  0  0  0  0  0
    2.7208   19.5362  -20.5073 C   0  0  0  0  0  0  0  0  0  0  0  0
    3.3489   18.2838  -20.7200 N   0  0  0  0  0  0  0  0  0  0  0  0
    3.3840   17.4098  -19.6289 C   0  0  0  0  0  0  0  0  0  0  0  0
    3.3957   15.9511  -19.9178 C   0  0  0  0  0  0  0  0  0  0  0  0
    3.7399   15.6095  -21.1996 O   0  0  0  0  0  0  0  0  0  0  0  0
    2.8318   16.2924  -22.0423 C   0  0  0  0  0  0  0  0  0  0  0  0
    3.2877   17.7347  -22.0189 C   0  0  0  0  0  0  0  0  0  0  0  0
  1  2  1  0  0  0
  2  3  1  0  0  0
  3  4  1  0  0  0
  4  9  1  0  0  0
  9 10  2  0  0  0
 10 11  1  0  0  0
 11 12  2  0  0  0
 11 13  1  0  0  0
 13 14  1  0  0  0
 14 15  2  0  0  0
 15 16  1  0  0  0
 16 17  2  0  0  0
 17 18  1  0  0  0
 17 19  1  0  0  0
 19 20  2  0  0  0
  4  5  2  0  0  0
  5  6  1  0  0  0
  5  7  1  0  0  0
  7 22  1  0  0  0
 22 23  2  0  0  0
 22 24  1  0  0  0
 24 26  1  0  0  0
 26 27  1  0  0  0
 27 28  1  0  0  0
 27 30  1  0  0  0
 30 31  1  0  0  0
 31 32  1  0  0  0
 32 33  1  0  0  0
 33 34  1  0  0  0
 34 35  1  0  0  0
 35 36  1  0  0  0
  7  2  2  0  0  0
 36 31  1  0  0  0
 20 10  1  0  0  0
 20 14  1  0  0  0
  3  8  1  0  0  0
 13 21  1  0  0  0
 24 25  1  0  0  0
 28 29  1  0  0  0
M  END
> <minimizedAffinity>
-8.32150

> <CNNscore>
0.1442795694

> <CNNaffinity>
5.8024950027

> <CNN_VS>
0.8371815085

> <CNNaffinity_variance>
0.1447694004

$$$$
[H]O[C@]([H])(C([H])([H])N([H])C(=O)c1c(C([H])([H])[H])c(/C([H])=C2\C(=O)N([H])c3c([H])c([H])c(F)c([H])c32)n([H])c1C([H])([H])[H])C([H])([H])N1C([H])([H])C([H])([H])OC([H])([H])C1([H])[H]


 36 39  0  0  0  0  0  0  0  0999 V2000
   -4.4156   21.9304  -21.0851 C   0  0  0  0  0  0  0  0  0  0  0  0
   -3.9630   22.0289  -22.5063 C   0  0  0  0  0  0  0  0  0  0  0  0
   -4.7033   22.2879  -23.5791 N   0  0  0  0  0  0  0  0  0  0  0  0
   -3.9549   22.2886  -24.6712 C   0  0  0  0  0  0  0  0  0  0  0  0
   -2.6269   22.0076  -24.2773 C   0  0  0  0  0  0  0  0  0  0  0  0
   -1.4710   21.9427  -25.2132 C   0  0  0  0  0  0  0  0  0  0  0  0
   -2.6325   21.8476  -22.9433 C   0  0  0  0  0  0  0  0  0  0  0  0
   -5.7570   22.4502  -23.5166 H   0  0  0  0  0  0  0  0  0  0  0  0
   -4.2857   22.5382  -26.0616 C   0  0  0  0  0  0  0  0  0  0  0  0
   -4.4775   23.7208  -26.6045 C   0  0  0  0  0  0  0  0  0  0  0  0
   -4.3973   25.0161  -25.9556 C   0  0  0  0  0  0  0  0  0  0  0  0
   -4.1046   25.2477  -24.7392 O   0  0  0  0  0  0  0  0  0  0  0  0
   -4.7088   25.9834  -26.9543 N   0  0  0  0  0  0  0  0  0  0  0  0
   -4.9828   25.3468  -28.2145 C   0  0  0  0  0  0  0  0  0  0  0  0
   -5.3240   25.8356  -29.4590 C   0  0  0  0  0  0  0  0  0  0  0  0
   -5.5325   24.9856  -30.5131 C   0  0  0  0  0  0  0  0  0  0  0  0
   -5.3998   23.6230  -30.3301 C   0  0  0  0  0  0  0  0  0  0  0  0
   -5.6093   22.7818  -31.3859 F   0  0  0  0  0  0  0  0  0  0  0  0
   -5.0584   23.1508  -29.0815 C   0  0  0  0  0  0  0  0  0  0  0  0
   -4.8456   23.9905  -28.0122 C   0  0  0  0  0  0  0  0  0  0  0  0
   -4.7341   26.9967  -26.7952 H   0  0  0  0  0  0  0  0  0  0  0  0
   -1.5152   21.5819  -22.0332 C   0  0  0  0  0  0  0  0  0  0  0  0
   -0.9850   22.6203  -21.4999 O   0  0  0  0  0  0  0  0  0  0  0  0
   -0.9958   20.3378  -21.7018 N   0  0  0  0  0  0  0  0  0  0  0  0
   -1.4811   19.4829  -22.1549 H   0  0  0  0  0  0  0  0  0  0  0  0
    0.0811   20.0024  -20.8201 C   0  0  0  0  0  0  0  0  0  0  0  0
    1.4309   20.0377  -21.4381 C   0  0  0  0  0  0  0  0  0  0  0  0
    1.6940   21.1601  -22.1892 O   0  0  0  0  0  0  0  0  0  0  0  0
    1.7660   21.0039  -23.1591 H   0  0  0  0  0  0  0  0  0  0  0  0
    2.4586   19.8874  -20.3153 C   0  0  0  0  0  0  0  0  0  0  0  0
    3.1246   21.1019  -20.0157 N   0  0  0  0  0  0  0  0  0  0  0  0
    2.6331   21.8316  -18.9288 C   0  0  0  0  0  0  0  0  0  0  0  0
    3.5977   22.6782  -18.1775 C   0  0  0  0  0  0  0  0  0  0  0  0
    4.7719   22.9500  -18.8300 O   0  0  0  0  0  0  0  0  0  0  0  0
    5.3363   21.6946  -19.1562 C   0  0  0  0  0  0  0  0  0  0  0  0
    4.5030   21.1805  -20.3094 C   0  0  0  0  0  0  0  0  0  0  0  0
  1  2  1  0  0  0
  2  3  1  0  0  0
  3  4  1  0  0  0
  4  9  1  0  0  0
  9 10  2  0  0  0
 10 11  1  0  0  0
 11 12  2  0  0  0
 11 13  1  0  0  0
 13 14  1  0  0  0
 14 15  2  0  0  0
 15 16  1  0  0  0
 16 17  2  0  0  0
 17 18  1  0  0  0
 17 19  1  0  0  0
 19 20  2  0  0  0
  4  5  2  0  0  0
  5  6  1  0  0  0
  5  7  1  0  0  0
  7 22  1  0  0  0
 22 23  2  0  0  0
 22 24  1  0  0  0
 24 26  1  0  0  0
 26 27  1  0  0  0
 27 28  1  0  0  0
 27 30  1  0  0  0
 30 31  1  0  0  0
 31 32  1  0  0  0
 32 33  1  0  0  0
 33 34  1  0  0  0
 34 35  1  0  0  0
 35 36  1  0  0  0
  7  2  2  0  0  0
 36 31  1  0  0  0
 20 10  1  0  0  0
 20 14  1  0  0  0
  3  8  1  0  0  0
 13 21  1  0  0  0
 24 25  1  0  0  0
 28 29  1  0  0  0
M  END
> <minimizedAffinity>
-8.43906

> <CNNscore>
0.1366428882

> <CNNaffinity>
5.6147718430

> <CNN_VS>
0.7672186494

> <CNNaffinity_variance>
0.2330997884

$$$$
[H]O[C@]([H])(C([H])([H])N([H])C(=O)c1c(C([H])([H])[H])c(/C([H])=C2\C(=O)N([H])c3c([H])c([H])c(F)c([H])c32)n([H])c1C([H])([H])[H])C([H])([H])N1C([H])([H])C([H])([H])OC([H])([H])C1([H])[H]


 36 39  0  0  0  0  0  0  0  0999 V2000
   -6.3901   25.5825  -20.5112 C   0  0  0  0  0  0  0  0  0  0  0  0
   -5.9831   24.7125  -21.6566 C   0  0  0  0  0  0  0  0  0  0  0  0
   -4.9955   24.9170  -22.5218 N   0  0  0  0  0  0  0  0  0  0  0  0
   -4.9398   23.9323  -23.4050 C   0  0  0  0  0  0  0  0  0  0  0  0
   -5.9711   23.0187  -23.0894 C   0  0  0  0  0  0  0  0  0  0  0  0
   -6.2297   21.7564  -23.8351 C   0  0  0  0  0  0  0  0  0  0  0  0
   -6.6136   23.5000  -22.0121 C   0  0  0  0  0  0  0  0  0  0  0  0
   -4.3708   25.7820  -22.4770 H   0  0  0  0  0  0  0  0  0  0  0  0
   -4.0387   23.6886  -24.5157 C   0  0  0  0  0  0  0  0  0  0  0  0
   -2.8478   23.1366  -24.4309 C   0  0  0  0  0  0  0  0  0  0  0  0
   -2.1807   22.6502  -23.2378 C   0  0  0  0  0  0  0  0  0  0  0  0
   -2.6372   22.6495  -22.0501 O   0  0  0  0  0  0  0  0  0  0  0  0
   -0.9086   22.1671  -23.6600 N   0  0  0  0  0  0  0  0  0  0  0  0
   -0.7458   22.3293  -25.0798 C   0  0  0  0  0  0  0  0  0  0  0  0
    0.2824   22.0244  -25.9480 C   0  0  0  0  0  0  0  0  0  0  0  0
    0.1717   22.2917  -27.2872 C   0  0  0  0  0  0  0  0  0  0  0  0
   -0.9820   22.8732  -27.7759 C   0  0  0  0  0  0  0  0  0  0  0  0
   -1.0849   23.1367  -29.1124 F   0  0  0  0  0  0  0  0  0  0  0  0
   -1.9995   23.1713  -26.8961 C   0  0  0  0  0  0  0  0  0  0  0  0
   -1.9046   22.9096  -25.5483 C   0  0  0  0  0  0  0  0  0  0  0  0
   -0.2043   21.7590  -23.0353 H   0  0  0  0  0  0  0  0  0  0  0  0
   -7.7301   22.9220  -21.2593 C   0  0  0  0  0  0  0  0  0  0  0  0
   -8.8672   23.4829  -21.4499 O   0  0  0  0  0  0  0  0  0  0  0  0
   -7.6690   21.8460  -20.3843 N   0  0  0  0  0  0  0  0  0  0  0  0
   -6.6973   21.3847  -20.2635 H   0  0  0  0  0  0  0  0  0  0  0  0
   -8.7120   21.2250  -19.6252 C   0  0  0  0  0  0  0  0  0  0  0  0
   -8.2467   20.3737  -18.5009 C   0  0  0  0  0  0  0  0  0  0  0  0
   -8.0757   19.0448  -18.8139 O   0  0  0  0  0  0  0  0  0  0  0  0
   -8.7234   18.4322  -18.3950 H   0  0  0  0  0  0  0  0  0  0  0  0
   -6.9434   20.9751  -17.9728 C   0  0  0  0  0  0  0  0  0  0  0  0
   -7.1422   22.2021  -17.2920 N   0  0  0  0  0  0  0  0  0  0  0  0
   -7.7219   22.1242  -16.0218 C   0  0  0  0  0  0  0  0  0  0  0  0
   -7.3656   23.1815  -15.0385 C   0  0  0  0  0  0  0  0  0  0  0  0
   -6.8083   24.3146  -15.5713 O   0  0  0  0  0  0  0  0  0  0  0  0
   -5.6731   23.8860  -16.2983 C   0  0  0  0  0  0  0  0  0  0  0  0
   -6.2308   23.2481  -17.5515 C   0  0  0  0  0  0  0  0  0  0  0  0
  1  2  1  0  0  0
  2  3  1  0  0  0
  3  4  1  0  0  0
  4  9  1  0  0  0
  9 10  2  0  0  0
 10 11  1  0  0  0
 11 12  2  0  0  0
 11 13  1  0  0  0
 13 14  1  0  0  0
 14 15  2  0  0  0
 15 16  1  0  0  0
 16 17  2  0  0  0
 17 18  1  0  0  0
 17 19  1  0  0  0
 19 20  2  0  0  0
  4  5  2  0  0  0
  5  6  1  0  0  0
  5  7  1  0  0  0
  7 22  1  0  0  0
 22 23  2  0  0  0
 22 24  1  0  0  0
 24 26  1  0  0  0
 26 27  1  0  0  0
 27 28  1  0  0  0
 27 30  1  0  0  0
 30 31  1  0  0  0
 31 32  1  0  0  0
 32 33  1  0  0  0
 33 34  1  0  0  0
 34 35  1  0  0  0
 35 36  1  0  0  0
  7  2  2  0  0  0
 36 31  1  0  0  0
 20 10  1  0  0  0
 20 14  1  0  0  0
  3  8  1  0  0  0
 13 21  1  0  0  0
 24 25  1  0  0  0
 28 29  1  0  0  0
M  END
> <minimizedAffinity>
-8.07165

> <CNNscore>
0.1311523169

> <CNNaffinity>
5.3250756264

> <CNN_VS>
0.6983960271

> <CNNaffinity_variance>
0.2742094696

$$$$
[H]O[C@]([H])(C([H])([H])N([H])C(=O)c1c(C([H])([H])[H])c(/C([H])=C2\C(=O)N([H])c3c([H])c([H])c(F)c([H])c32)n([H])c1C([H])([H])[H])C([H])([H])N1C([H])([H])C([H])([H])OC([H])([H])C1([H])[H]


 36 39  0  0  0  0  0  0  0  0999 V2000
   -4.9090   21.3797  -24.3866 C   0  0  0  0  0  0  0  0  0  0  0  0
   -3.4598   21.4802  -24.0343 C   0  0  0  0  0  0  0  0  0  0  0  0
   -2.8803   21.1680  -22.8799 N   0  0  0  0  0  0  0  0  0  0  0  0
   -1.5773   21.3954  -22.9373 C   0  0  0  0  0  0  0  0  0  0  0  0
   -1.2889   21.8945  -24.2279 C   0  0  0  0  0  0  0  0  0  0  0  0
    0.0761   22.2522  -24.7024 C   0  0  0  0  0  0  0  0  0  0  0  0
   -2.4492   21.9466  -24.9033 C   0  0  0  0  0  0  0  0  0  0  0  0
   -3.4371   20.8023  -22.0452 H   0  0  0  0  0  0  0  0  0  0  0  0
   -0.5239   21.1955  -21.9600 C   0  0  0  0  0  0  0  0  0  0  0  0
   -0.3519   21.8994  -20.8622 C   0  0  0  0  0  0  0  0  0  0  0  0
   -1.1601   23.0055  -20.3843 C   0  0  0  0  0  0  0  0  0  0  0  0
   -2.2024   23.4870  -20.9329 O   0  0  0  0  0  0  0  0  0  0  0  0
   -0.5565   23.4468  -19.1715 N   0  0  0  0  0  0  0  0  0  0  0  0
    0.6061   22.6584  -18.8628 C   0  0  0  0  0  0  0  0  0  0  0  0
    1.5122   22.6887  -17.8226 C   0  0  0  0  0  0  0  0  0  0  0  0
    2.5529   21.7991  -17.7732 C   0  0  0  0  0  0  0  0  0  0  0  0
    2.6985   20.8597  -18.7754 C   0  0  0  0  0  0  0  0  0  0  0  0
    3.7387   19.9760  -18.7192 F   0  0  0  0  0  0  0  0  0  0  0  0
    1.7853   20.8424  -19.8069 C   0  0  0  0  0  0  0  0  0  0  0  0
    0.7344   21.7287  -19.8720 C   0  0  0  0  0  0  0  0  0  0  0  0
   -0.9046   24.2222  -18.5967 H   0  0  0  0  0  0  0  0  0  0  0  0
   -2.7019   22.3503  -26.2891 C   0  0  0  0  0  0  0  0  0  0  0  0
   -1.9780   21.7644  -27.1704 O   0  0  0  0  0  0  0  0  0  0  0  0
   -3.6344   23.2830  -26.7222 N   0  0  0  0  0  0  0  0  0  0  0  0
   -4.2415   23.7425  -25.9528 H   0  0  0  0  0  0  0  0  0  0  0  0
   -3.9414   23.7194  -28.0508 C   0  0  0  0  0  0  0  0  0  0  0  0
   -5.3102   24.2667  -28.2298 C   0  0  0  0  0  0  0  0  0  0  0  0
   -5.9398   23.8817  -29.3910 O   0  0  0  0  0  0  0  0  0  0  0  0
   -6.0708   24.6008  -30.0512 H   0  0  0  0  0  0  0  0  0  0  0  0
   -6.1356   23.8591  -27.0084 C   0  0  0  0  0  0  0  0  0  0  0  0
   -6.5603   24.9702  -26.2381 N   0  0  0  0  0  0  0  0  0  0  0  0
   -7.0625   24.6906  -24.9633 C   0  0  0  0  0  0  0  0  0  0  0  0
   -6.8979   25.7339  -23.9164 C   0  0  0  0  0  0  0  0  0  0  0  0
   -6.6100   26.9908  -24.3808 O   0  0  0  0  0  0  0  0  0  0  0  0
   -5.4386   26.8588  -25.1627 C   0  0  0  0  0  0  0  0  0  0  0  0
   -5.8978   26.1994  -26.4444 C   0  0  0  0  0  0  0  0  0  0  0  0
  1  2  1  0  0  0
  2  3  1  0  0  0
  3  4  1  0  0  0
  4  9  1  0  0  0
  9 10  2  0  0  0
 10 11  1  0  0  0
 11 12  2  0  0  0
 11 13  1  0  0  0
 13 14  1  0  0  0
 14 15  2  0  0  0
 15 16  1  0  0  0
 16 17  2  0  0  0
 17 18  1  0  0  0
 17 19  1  0  0  0
 19 20  2  0  0  0
  4  5  2  0  0  0
  5  6  1  0  0  0
  5  7  1  0  0  0
  7 22  1  0  0  0
 22 23  2  0  0  0
 22 24  1  0  0  0
 24 26  1  0  0  0
 26 27  1  0  0  0
 27 28  1  0  0  0
 27 30  1  0  0  0
 30 31  1  0  0  0
 31 32  1  0  0  0
 32 33  1  0  0  0
 33 34  1  0  0  0
 34 35  1  0  0  0
 35 36  1  0  0  0
  7  2  2  0  0  0
 36 31  1  0  0  0
 20 10  1  0  0  0
 20 14  1  0  0  0
  3  8  1  0  0  0
 13 21  1  0  0  0
 24 25  1  0  0  0
 28 29  1  0  0  0
M  END
> <minimizedAffinity>
-8.65433

> <CNNscore>
0.1304311454

> <CNNaffinity>
5.4428224564

> <CNN_VS>
0.7099135518

> <CNNaffinity_variance>
0.5955977440

$$$$
[H]O[C@]([H])(C([H])([H])N([H])C(=O)c1c(C([H])([H])[H])c(/C([H])=C2\C(=O)N([H])c3c([H])c([H])c(F)c([H])c32)n([H])c1C([H])([H])[H])C([H])([H])N1C([H])([H])C([H])([H])OC([H])([H])C1([H])[H]


 36 39  0  0  0  0  0  0  0  0999 V2000
   -4.1634   21.7157  -21.2186 C   0  0  0  0  0  0  0  0  0  0  0  0
   -3.7508   21.8861  -22.6452 C   0  0  0  0  0  0  0  0  0  0  0  0
   -4.5284   22.1470  -23.6907 N   0  0  0  0  0  0  0  0  0  0  0  0
   -3.8078   22.2223  -24.7988 C   0  0  0  0  0  0  0  0  0  0  0  0
   -2.4587   21.9916  -24.4456 C   0  0  0  0  0  0  0  0  0  0  0  0
   -1.3243   22.0155  -25.4093 C   0  0  0  0  0  0  0  0  0  0  0  0
   -2.4243   21.7845  -23.1186 C   0  0  0  0  0  0  0  0  0  0  0  0
   -5.5867   22.2561  -23.5985 H   0  0  0  0  0  0  0  0  0  0  0  0
   -4.1839   22.5046  -26.1713 C   0  0  0  0  0  0  0  0  0  0  0  0
   -4.4085   23.6987  -26.6753 C   0  0  0  0  0  0  0  0  0  0  0  0
   -4.3270   24.9768  -25.9936 C   0  0  0  0  0  0  0  0  0  0  0  0
   -4.0009   25.1796  -24.7804 O   0  0  0  0  0  0  0  0  0  0  0  0
   -4.6820   25.9662  -26.9553 N   0  0  0  0  0  0  0  0  0  0  0  0
   -4.9849   25.3602  -28.2240 C   0  0  0  0  0  0  0  0  0  0  0  0
   -5.3703   25.8776  -29.4438 C   0  0  0  0  0  0  0  0  0  0  0  0
   -5.5985   25.0536  -30.5143 C   0  0  0  0  0  0  0  0  0  0  0  0
   -5.4413   23.6886  -30.3731 C   0  0  0  0  0  0  0  0  0  0  0  0
   -5.6707   22.8735  -31.4451 F   0  0  0  0  0  0  0  0  0  0  0  0
   -5.0558   23.1877  -29.1488 C   0  0  0  0  0  0  0  0  0  0  0  0
   -4.8226   24.0011  -28.0634 C   0  0  0  0  0  0  0  0  0  0  0  0
   -4.7167   26.9743  -26.7677 H   0  0  0  0  0  0  0  0  0  0  0  0
   -1.2737   21.5408  -22.2444 C   0  0  0  0  0  0  0  0  0  0  0  0
   -0.5794   22.5782  -21.9518 O   0  0  0  0  0  0  0  0  0  0  0  0
   -0.8812   20.3191  -21.7146 N   0  0  0  0  0  0  0  0  0  0  0  0
   -1.5023   19.4690  -21.9663 H   0  0  0  0  0  0  0  0  0  0  0  0
    0.2185   20.0078  -20.8525 C   0  0  0  0  0  0  0  0  0  0  0  0
   -0.0701   18.9881  -19.8122 C   0  0  0  0  0  0  0  0  0  0  0  0
    0.9384   18.0764  -19.6004 O   0  0  0  0  0  0  0  0  0  0  0  0
    0.7366   17.1577  -19.8925 H   0  0  0  0  0  0  0  0  0  0  0  0
   -0.4072   19.7295  -18.5176 C   0  0  0  0  0  0  0  0  0  0  0  0
   -1.6804   20.3506  -18.5573 N   0  0  0  0  0  0  0  0  0  0  0  0
   -2.7607   19.5894  -18.0999 C   0  0  0  0  0  0  0  0  0  0  0  0
   -3.9122   20.3193  -17.5057 C   0  0  0  0  0  0  0  0  0  0  0  0
   -3.9702   21.6579  -17.7939 O   0  0  0  0  0  0  0  0  0  0  0  0
   -2.7386   22.2034  -17.3620 C   0  0  0  0  0  0  0  0  0  0  0  0
   -1.7290   21.7518  -18.3941 C   0  0  0  0  0  0  0  0  0  0  0  0
  1  2  1  0  0  0
  2  3  1  0  0  0
  3  4  1  0  0  0
  4  9  1  0  0  0
  9 10  2  0  0  0
 10 11  1  0  0  0
 11 12  2  0  0  0
 11 13  1  0  0  0
 13 14  1  0  0  0
 14 15  2  0  0  0
 15 16  1  0  0  0
 16 17  2  0  0  0
 17 18  1  0  0  0
 17 19  1  0  0  0
 19 20  2  0  0  0
  4  5  2  0  0  0
  5  6  1  0  0  0
  5  7  1  0  0  0
  7 22  1  0  0  0
 22 23  2  0  0  0
 22 24  1  0  0  0
 24 26  1  0  0  0
 26 27  1  0  0  0
 27 28  1  0  0  0
 27 30  1  0  0  0
 30 31  1  0  0  0
 31 32  1  0  0  0
 32 33  1  0  0  0
 33 34  1  0  0  0
 34 35  1  0  0  0
 35 36  1  0  0  0
  7  2  2  0  0  0
 36 31  1  0  0  0
 20 10  1  0  0  0
 20 14  1  0  0  0
  3  8  1  0  0  0
 13 21  1  0  0  0
 24 25  1  0  0  0
 28 29  1  0  0  0
M  END
> <minimizedAffinity>
-8.00523

> <CNNscore>
0.1290718913

> <CNNaffinity>
5.6326975822

> <CNN_VS>
0.7270229459

> <CNNaffinity_variance>
0.2394097596

$$$$
[H]OC(=O)[C@@]([H])(N([H])C(=O)[C@@]1([H])N(C(=O)[C@@]([H])(N([H])[H])C([H])([H])c2c([H])c([H])c(O[H])c([H])c2[H])C([H])([H])C([H])([H])C1([H])[H])C([H])([H])c1c([H])c([H])c(O[H])c([H])c1[H]


 38 40  0  0  0  0  0  0  0  0999 V2000
   -6.9550   24.6134  -23.9596 C   0  0  0  0  0  0  0  0  0  0  0  0
   -8.1319   24.8741  -24.4189 O   0  0  0  0  0  0  0  0  0  0  0  0
   -5.8586   25.2037  -24.6329 N   0  0  0  0  0  0  0  0  0  0  0  0
   -4.4466   25.1735  -24.4543 C   0  0  0  0  0  0  0  0  0  0  0  0
   -4.1159   26.6627  -24.4323 C   0  0  0  0  0  0  0  0  0  0  0  0
   -4.9993   27.1428  -25.5703 C   0  0  0  0  0  0  0  0  0  0  0  0
   -6.0289   26.0786  -25.8116 C   0  0  0  0  0  0  0  0  0  0  0  0
   -8.0403   23.8056  -21.8988 N   0  0  0  0  0  0  0  0  0  0  0  0
   -6.9461   23.7354  -22.7984 C   0  0  0  0  0  0  0  0  0  0  0  0
   -8.0879   24.5942  -21.2568 H   0  0  0  0  0  0  0  0  0  0  0  0
   -8.9093   23.3438  -22.1807 H   0  0  0  0  0  0  0  0  0  0  0  0
   -6.6414   22.2799  -23.2059 C   0  0  0  0  0  0  0  0  0  0  0  0
   -5.1910   21.9932  -23.0526 C   0  0  0  0  0  0  0  0  0  0  0  0
   -4.4822   22.3463  -21.9332 C   0  0  0  0  0  0  0  0  0  0  0  0
   -3.1313   22.0695  -21.8111 C   0  0  0  0  0  0  0  0  0  0  0  0
   -2.4505   21.4247  -22.8195 C   0  0  0  0  0  0  0  0  0  0  0  0
   -1.0786   21.1322  -22.7196 O   0  0  0  0  0  0  0  0  0  0  0  0
   -3.1613   21.0688  -23.9460 C   0  0  0  0  0  0  0  0  0  0  0  0
   -4.5059   21.3407  -24.0751 C   0  0  0  0  0  0  0  0  0  0  0  0
   -0.8351   20.2439  -22.3125 H   0  0  0  0  0  0  0  0  0  0  0  0
   -5.8346   25.2849  -27.0330 C   0  0  0  0  0  0  0  0  0  0  0  0
   -6.6288   24.3610  -27.3069 O   0  0  0  0  0  0  0  0  0  0  0  0
   -4.7596   25.5376  -27.9222 N   0  0  0  0  0  0  0  0  0  0  0  0
   -4.0888   26.3115  -27.6986 H   0  0  0  0  0  0  0  0  0  0  0  0
   -4.5275   24.7859  -29.1330 C   0  0  0  0  0  0  0  0  0  0  0  0
   -5.6000   24.8951  -30.1214 C   0  0  0  0  0  0  0  0  0  0  0  0
   -6.4868   25.9425  -30.0387 O   0  0  0  0  0  0  0  0  0  0  0  0
   -5.7725   24.0744  -31.0672 O   0  0  0  0  0  0  0  0  0  0  0  0
   -7.2817   26.0964  -30.6193 H   0  0  0  0  0  0  0  0  0  0  0  0
   -4.1456   23.3544  -28.8479 C   0  0  0  0  0  0  0  0  0  0  0  0
   -2.7808   23.1808  -28.3413 C   0  0  0  0  0  0  0  0  0  0  0  0
   -2.5847   22.7150  -27.0620 C   0  0  0  0  0  0  0  0  0  0  0  0
   -1.2958   22.5397  -26.5459 C   0  0  0  0  0  0  0  0  0  0  0  0
   -0.1787   22.8273  -27.3005 C   0  0  0  0  0  0  0  0  0  0  0  0
    1.0958   22.6478  -26.7729 O   0  0  0  0  0  0  0  0  0  0  0  0
   -0.3882   23.2932  -28.5808 C   0  0  0  0  0  0  0  0  0  0  0  0
   -1.6510   23.4680  -29.0949 C   0  0  0  0  0  0  0  0  0  0  0  0
    1.4838   23.4690  -26.2879 H   0  0  0  0  0  0  0  0  0  0  0  0
  8  9  1  0  0  0
  9 12  1  0  0  0
 12 13  1  0  0  0
 13 14  2  0  0  0
 14 15  1  0  0  0
 15 16  2  0  0  0
 16 17  1  0  0  0
 16 18  1  0  0  0
 18 19  2  0  0  0
  9  1  1  0  0  0
  1  2  2  0  0  0
  1  3  1  0  0  0
  3  4  1  0  0  0
  4  5  1  0  0  0
  5  6  1  0  0  0
  6  7  1  0  0  0
  7 21  1  0  0  0
 21 22  2  0  0  0
 21 23  1  0  0  0
 23 25  1  0  0  0
 25 30  1  0  0  0
 30 31  1  0  0  0
 31 32  2  0  0  0
 32 33  1  0  0  0
 33 34  2  0  0  0
 34 35  1  0  0  0
 34 36  1  0  0  0
 36 37  2  0  0  0
 25 26  1  0  0  0
 26 27  1  0  0  0
 26 28  2  0  0  0
 19 13  1  0  0  0
  7  3  1  0  0  0
 37 31  1  0  0  0
  8 10  1  0  0  0
  8 11  1  0  0  0
 17 20  1  0  0  0
 23 24  1  0  0  0
 35 38  1  0  0  0
 27 29  1  0  0  0
M  END
> <minimizedAffinity>
-9.55010

> <CNNscore>
0.5757332444

> <CNNaffinity>
6.8468422890

> <CNN_VS>
3.9419546127

> <CNNaffinity_variance>
0.0368539803

$$$$
[H]OC(=O)[C@@]([H])(N([H])C(=O)[C@@]1([H])N(C(=O)[C@@]([H])(N([H])[H])C([H])([H])c2c([H])c([H])c(O[H])c([H])c2[H])C([H])([H])C([H])([H])C1([H])[H])C([H])([H])c1c([H])c([H])c(O[H])c([H])c1[H]


 38 40  0  0  0  0  0  0  0  0999 V2000
   -3.8460   23.6656  -23.0935 C   0  0  0  0  0  0  0  0  0  0  0  0
   -3.4504   24.3746  -22.0911 O   0  0  0  0  0  0  0  0  0  0  0  0
   -4.5024   24.3504  -24.1441 N   0  0  0  0  0  0  0  0  0  0  0  0
   -5.0740   23.9555  -25.3866 C   0  0  0  0  0  0  0  0  0  0  0  0
   -4.3921   24.9219  -26.3503 C   0  0  0  0  0  0  0  0  0  0  0  0
   -4.4775   26.2027  -25.5391 C   0  0  0  0  0  0  0  0  0  0  0  0
   -4.7384   25.8090  -24.1151 C   0  0  0  0  0  0  0  0  0  0  0  0
   -4.2280   21.4970  -21.9851 N   0  0  0  0  0  0  0  0  0  0  0  0
   -3.5463   22.2456  -22.9782 C   0  0  0  0  0  0  0  0  0  0  0  0
   -3.9345   21.6005  -21.0158 H   0  0  0  0  0  0  0  0  0  0  0  0
   -5.1954   21.2271  -22.1831 H   0  0  0  0  0  0  0  0  0  0  0  0
   -3.6110   21.5517  -24.3535 C   0  0  0  0  0  0  0  0  0  0  0  0
   -2.3646   21.8089  -25.1214 C   0  0  0  0  0  0  0  0  0  0  0  0
   -2.3613   22.0182  -26.4765 C   0  0  0  0  0  0  0  0  0  0  0  0
   -1.1884   22.2561  -27.1723 C   0  0  0  0  0  0  0  0  0  0  0  0
    0.0233   22.2904  -26.5192 C   0  0  0  0  0  0  0  0  0  0  0  0
    1.2284   22.5301  -27.2032 O   0  0  0  0  0  0  0  0  0  0  0  0
    0.0223   22.0802  -25.1566 C   0  0  0  0  0  0  0  0  0  0  0  0
   -1.1407   21.8428  -24.4569 C   0  0  0  0  0  0  0  0  0  0  0  0
    1.5167   23.4915  -27.2862 H   0  0  0  0  0  0  0  0  0  0  0  0
   -6.1028   26.0669  -23.6340 C   0  0  0  0  0  0  0  0  0  0  0  0
   -6.9106   26.6856  -24.3578 O   0  0  0  0  0  0  0  0  0  0  0  0
   -6.5372   25.6301  -22.3570 N   0  0  0  0  0  0  0  0  0  0  0  0
   -5.8644   25.1102  -21.7438 H   0  0  0  0  0  0  0  0  0  0  0  0
   -7.8660   25.8594  -21.8409 C   0  0  0  0  0  0  0  0  0  0  0  0
   -7.9103   26.1573  -20.4096 C   0  0  0  0  0  0  0  0  0  0  0  0
   -8.9690   26.8742  -19.9043 O   0  0  0  0  0  0  0  0  0  0  0  0
   -7.0222   25.7941  -19.5867 O   0  0  0  0  0  0  0  0  0  0  0  0
   -9.0861   27.1791  -18.9630 H   0  0  0  0  0  0  0  0  0  0  0  0
   -8.8248   24.7630  -22.2345 C   0  0  0  0  0  0  0  0  0  0  0  0
   -8.7245   23.5487  -21.4192 C   0  0  0  0  0  0  0  0  0  0  0  0
   -7.6964   22.6626  -21.6430 C   0  0  0  0  0  0  0  0  0  0  0  0
   -7.5720   21.4929  -20.8850 C   0  0  0  0  0  0  0  0  0  0  0  0
   -8.4742   21.1878  -19.8885 C   0  0  0  0  0  0  0  0  0  0  0  0
   -8.3367   20.0209  -19.1439 O   0  0  0  0  0  0  0  0  0  0  0  0
   -9.4998   22.0835  -19.6737 C   0  0  0  0  0  0  0  0  0  0  0  0
   -9.6288   23.2345  -20.4139 C   0  0  0  0  0  0  0  0  0  0  0  0
   -8.8230   19.2000  -19.5308 H   0  0  0  0  0  0  0  0  0  0  0  0
  8  9  1  0  0  0
  9 12  1  0  0  0
 12 13  1  0  0  0
 13 14  2  0  0  0
 14 15  1  0  0  0
 15 16  2  0  0  0
 16 17  1  0  0  0
 16 18  1  0  0  0
 18 19  2  0  0  0
  9  1  1  0  0  0
  1  2  2  0  0  0
  1  3  1  0  0  0
  3  4  1  0  0  0
  4  5  1  0  0  0
  5  6  1  0  0  0
  6  7  1  0  0  0
  7 21  1  0  0  0
 21 22  2  0  0  0
 21 23  1  0  0  0
 23 25  1  0  0  0
 25 30  1  0  0  0
 30 31  1  0  0  0
 31 32  2  0  0  0
 32 33  1  0  0  0
 33 34  2  0  0  0
 34 35  1  0  0  0
 34 36  1  0  0  0
 36 37  2  0  0  0
 25 26  1  0  0  0
 26 27  1  0  0  0
 26 28  2  0  0  0
 19 13  1  0  0  0
  7  3  1  0  0  0
 37 31  1  0  0  0
  8 10  1  0  0  0
  8 11  1  0  0  0
 17 20  1  0  0  0
 23 24  1  0  0  0
 35 38  1  0  0  0
 27 29  1  0  0  0
M  END
> <minimizedAffinity>
-9.48018

> <CNNscore>
0.5421509743

> <CNNaffinity>
6.2505464554

> <CNN_VS>
3.3887398243

> <CNNaffinity_variance>
0.0257795155

$$$$
[H]OC(=O)[C@@]([H])(N([H])C(=O)[C@@]1([H])N(C(=O)[C@@]([H])(N([H])[H])C([H])([H])c2c([H])c([H])c(O[H])c([H])c2[H])C([H])([H])C([H])([H])C1([H])[H])C([H])([H])c1c([H])c([H])c(O[H])c([H])c1[H]


 38 40  0  0  0  0  0  0  0  0999 V2000
   -5.1649   23.9420  -24.8022 C   0  0  0  0  0  0  0  0  0  0  0  0
   -4.0903   24.6362  -24.9672 O   0  0  0  0  0  0  0  0  0  0  0  0
   -5.6947   23.8821  -23.4909 N   0  0  0  0  0  0  0  0  0  0  0  0
   -6.8247   23.2484  -22.9010 C   0  0  0  0  0  0  0  0  0  0  0  0
   -7.4808   24.4201  -22.1771 C   0  0  0  0  0  0  0  0  0  0  0  0
   -6.2495   25.0850  -21.5875 C   0  0  0  0  0  0  0  0  0  0  0  0
   -5.0619   24.5716  -22.3472 C   0  0  0  0  0  0  0  0  0  0  0  0
   -6.8367   23.8615  -26.6121 N   0  0  0  0  0  0  0  0  0  0  0  0
   -5.6685   23.3195  -26.0180 C   0  0  0  0  0  0  0  0  0  0  0  0
   -7.7362   23.6604  -26.1799 H   0  0  0  0  0  0  0  0  0  0  0  0
   -6.7301   24.7227  -27.1552 H   0  0  0  0  0  0  0  0  0  0  0  0
   -4.5415   23.1333  -27.0536 C   0  0  0  0  0  0  0  0  0  0  0  0
   -4.8967   23.8059  -28.3307 C   0  0  0  0  0  0  0  0  0  0  0  0
   -5.4209   23.1289  -29.4016 C   0  0  0  0  0  0  0  0  0  0  0  0
   -5.7447   23.7753  -30.5822 C   0  0  0  0  0  0  0  0  0  0  0  0
   -5.5487   25.1313  -30.7194 C   0  0  0  0  0  0  0  0  0  0  0  0
   -5.8695   25.8110  -31.9079 O   0  0  0  0  0  0  0  0  0  0  0  0
   -5.0216   25.8140  -29.6437 C   0  0  0  0  0  0  0  0  0  0  0  0
   -4.6968   25.1780  -28.4654 C   0  0  0  0  0  0  0  0  0  0  0  0
   -6.8036   26.1808  -31.9783 H   0  0  0  0  0  0  0  0  0  0  0  0
   -4.2163   23.6170  -21.6168 C   0  0  0  0  0  0  0  0  0  0  0  0
   -4.4948   23.3156  -20.4374 O   0  0  0  0  0  0  0  0  0  0  0  0
   -3.0789   23.0194  -22.2164 N   0  0  0  0  0  0  0  0  0  0  0  0
   -2.8390   23.2678  -23.2061 H   0  0  0  0  0  0  0  0  0  0  0  0
   -2.2186   22.0773  -21.5402 C   0  0  0  0  0  0  0  0  0  0  0  0
   -1.1714   22.6971  -20.7288 C   0  0  0  0  0  0  0  0  0  0  0  0
   -0.1410   21.9208  -20.2535 O   0  0  0  0  0  0  0  0  0  0  0  0
   -1.1480   23.9243  -20.4266 O   0  0  0  0  0  0  0  0  0  0  0  0
    0.5988   22.2155  -19.6547 H   0  0  0  0  0  0  0  0  0  0  0  0
   -1.6789   21.0266  -22.4788 C   0  0  0  0  0  0  0  0  0  0  0  0
   -1.0669   21.5610  -23.6991 C   0  0  0  0  0  0  0  0  0  0  0  0
    0.2891   21.7894  -23.7358 C   0  0  0  0  0  0  0  0  0  0  0  0
    0.9055   22.3009  -24.8832 C   0  0  0  0  0  0  0  0  0  0  0  0
    0.1765   22.5935  -26.0159 C   0  0  0  0  0  0  0  0  0  0  0  0
    0.8042   23.1016  -27.1485 O   0  0  0  0  0  0  0  0  0  0  0  0
   -1.1812   22.3602  -25.9669 C   0  0  0  0  0  0  0  0  0  0  0  0
   -1.7940   21.8580  -24.8437 C   0  0  0  0  0  0  0  0  0  0  0  0
    0.8617   24.1288  -27.1882 H   0  0  0  0  0  0  0  0  0  0  0  0
  8  9  1  0  0  0
  9 12  1  0  0  0
 12 13  1  0  0  0
 13 14  2  0  0  0
 14 15  1  0  0  0
 15 16  2  0  0  0
 16 17  1  0  0  0
 16 18  1  0  0  0
 18 19  2  0  0  0
  9  1  1  0  0  0
  1  2  2  0  0  0
  1  3  1  0  0  0
  3  4  1  0  0  0
  4  5  1  0  0  0
  5  6  1  0  0  0
  6  7  1  0  0  0
  7 21  1  0  0  0
 21 22  2  0  0  0
 21 23  1  0  0  0
 23 25  1  0  0  0
 25 30  1  0  0  0
 30 31  1  0  0  0
 31 32  2  0  0  0
 32 33  1  0  0  0
 33 34  2  0  0  0
 34 35  1  0  0  0
 34 36  1  0  0  0
 36 37  2  0  0  0
 25 26  1  0  0  0
 26 27  1  0  0  0
 26 28  2  0  0  0
 19 13  1  0  0  0
  7  3  1  0  0  0
 37 31  1  0  0  0
  8 10  1  0  0  0
  8 11  1  0  0  0
 17 20  1  0  0  0
 23 24  1  0  0  0
 35 38  1  0  0  0
 27 29  1  0  0  0
M  END
> <minimizedAffinity>
-9.72899

> <CNNscore>
0.5272476673

> <CNNaffinity>
6.7388167381

> <CNN_VS>
3.5530254841

> <CNNaffinity_variance>
0.0223483928

$$$$
[H]OC(=O)[C@@]([H])(N([H])C(=O)[C@@]1([H])N(C(=O)[C@@]([H])(N([H])[H])C([H])([H])c2c([H])c([H])c(O[H])c([H])c2[H])C([H])([H])C([H])([H])C1([H])[H])C([H])([H])c1c([H])c([H])c(O[H])c([H])c1[H]


 38 40  0  0  0  0  0  0  0  0999 V2000
   -2.6173   22.0664  -25.4835 C   0  0  0  0  0  0  0  0  0  0  0  0
   -3.5006   21.1453  -25.6715 O   0  0  0  0  0  0  0  0  0  0  0  0
   -2.1083   22.2084  -24.1703 N   0  0  0  0  0  0  0  0  0  0  0  0
   -1.1544   23.0707  -23.5595 C   0  0  0  0  0  0  0  0  0  0  0  0
   -0.2380   22.0635  -22.8716 C   0  0  0  0  0  0  0  0  0  0  0  0
   -1.2760   21.1112  -22.3046 C   0  0  0  0  0  0  0  0  0  0  0  0
   -2.5553   21.3553  -23.0494 C   0  0  0  0  0  0  0  0  0  0  0  0
   -0.9257   23.1963  -26.8761 N   0  0  0  0  0  0  0  0  0  0  0  0
   -2.2806   22.8263  -26.6788 C   0  0  0  0  0  0  0  0  0  0  0  0
   -0.5499   23.9655  -26.3253 H   0  0  0  0  0  0  0  0  0  0  0  0
   -0.2867   22.4722  -27.2155 H   0  0  0  0  0  0  0  0  0  0  0  0
   -2.8771   22.1697  -27.9398 C   0  0  0  0  0  0  0  0  0  0  0  0
   -3.6956   23.1530  -28.6966 C   0  0  0  0  0  0  0  0  0  0  0  0
   -4.9359   22.8520  -29.1978 C   0  0  0  0  0  0  0  0  0  0  0  0
   -5.6815   23.7833  -29.9000 C   0  0  0  0  0  0  0  0  0  0  0  0
   -5.1965   25.0532  -30.1193 C   0  0  0  0  0  0  0  0  0  0  0  0
   -5.9343   26.0170  -30.8295 O   0  0  0  0  0  0  0  0  0  0  0  0
   -3.9495   25.3580  -29.6162 C   0  0  0  0  0  0  0  0  0  0  0  0
   -3.2012   24.4367  -28.9163 C   0  0  0  0  0  0  0  0  0  0  0  0
   -6.5489   26.6035  -30.2886 H   0  0  0  0  0  0  0  0  0  0  0  0
   -3.5964   22.0627  -22.2909 C   0  0  0  0  0  0  0  0  0  0  0  0
   -3.2941   22.6826  -21.2498 O   0  0  0  0  0  0  0  0  0  0  0  0
   -4.9513   22.0637  -22.7086 N   0  0  0  0  0  0  0  0  0  0  0  0
   -5.2123   21.5453  -23.5815 H   0  0  0  0  0  0  0  0  0  0  0  0
   -6.0085   22.7431  -21.9976 C   0  0  0  0  0  0  0  0  0  0  0  0
   -6.5051   22.0200  -20.8273 C   0  0  0  0  0  0  0  0  0  0  0  0
   -5.9493   22.2718  -19.5953 O   0  0  0  0  0  0  0  0  0  0  0  0
   -7.4301   21.1595  -20.8712 O   0  0  0  0  0  0  0  0  0  0  0  0
   -6.1671   21.8116  -18.7389 H   0  0  0  0  0  0  0  0  0  0  0  0
   -7.1180   23.1867  -22.9187 C   0  0  0  0  0  0  0  0  0  0  0  0
   -6.7020   24.1369  -23.9547 C   0  0  0  0  0  0  0  0  0  0  0  0
   -6.5375   23.7021  -25.2494 C   0  0  0  0  0  0  0  0  0  0  0  0
   -6.1391   24.5815  -26.2624 C   0  0  0  0  0  0  0  0  0  0  0  0
   -5.8979   25.9129  -25.9989 C   0  0  0  0  0  0  0  0  0  0  0  0
   -5.5023   26.7742  -27.0170 O   0  0  0  0  0  0  0  0  0  0  0  0
   -6.0663   26.3364  -24.6980 C   0  0  0  0  0  0  0  0  0  0  0  0
   -6.4573   25.4789  -23.6975 C   0  0  0  0  0  0  0  0  0  0  0  0
   -4.4844   26.8449  -27.1540 H   0  0  0  0  0  0  0  0  0  0  0  0
  8  9  1  0  0  0
  9 12  1  0  0  0
 12 13  1  0  0  0
 13 14  2  0  0  0
 14 15  1  0  0  0
 15 16  2  0  0  0
 16 17  1  0  0  0
 16 18  1  0  0  0
 18 19  2  0  0  0
  9  1  1  0  0  0
  1  2  2  0  0  0
  1  3  1  0  0  0
  3  4  1  0  0  0
  4  5  1  0  0  0
  5  6  1  0  0  0
  6  7  1  0  0  0
  7 21  1  0  0  0
 21 22  2  0  0  0
 21 23  1  0  0  0
 23 25  1  0  0  0
 25 30  1  0  0  0
 30 31  1  0  0  0
 31 32  2  0  0  0
 32 33  1  0  0  0
 33 34  2  0  0  0
 34 35  1  0  0  0
 34 36  1  0  0  0
 36 37  2  0  0  0
 25 26  1  0  0  0
 26 27  1  0  0  0
 26 28  2  0  0  0
 19 13  1  0  0  0
  7  3  1  0  0  0
 37 31  1  0  0  0
  8 10  1  0  0  0
  8 11  1  0  0  0
 17 20  1  0  0  0
 23 24  1  0  0  0
 35 38  1  0  0  0
 27 29  1  0  0  0
M  END
> <minimizedAffinity>
-8.15120

> <CNNscore>
0.4187880158

> <CNNaffinity>
6.7151288986

> <CNN_VS>
2.8122155666

> <CNNaffinity_variance>
0.1763952672

$$$$
[H]OC(=O)[C@@]([H])(N([H])C(=O)[C@@]1([H])N(C(=O)[C@@]([H])(N([H])[H])C([H])([H])c2c([H])c([H])c(O[H])c([H])c2[H])C([H])([H])C([H])([H])C1([H])[H])C([H])([H])c1c([H])c([H])c(O[H])c([H])c1[H]


 38 40  0  0  0  0  0  0  0  0999 V2000
   -5.4244   23.0830  -23.9873 C   0  0  0  0  0  0  0  0  0  0  0  0
   -6.5116   22.4432  -24.2567 O   0  0  0  0  0  0  0  0  0  0  0  0
   -5.2330   24.3251  -24.6386 N   0  0  0  0  0  0  0  0  0  0  0  0
   -4.2070   25.3118  -24.6204 C   0  0  0  0  0  0  0  0  0  0  0  0
   -5.0119   26.5751  -24.3310 C   0  0  0  0  0  0  0  0  0  0  0  0
   -6.2002   26.3429  -25.2475 C   0  0  0  0  0  0  0  0  0  0  0  0
   -6.2171   24.8822  -25.5899 C   0  0  0  0  0  0  0  0  0  0  0  0
   -3.3311   21.8694  -23.5155 N   0  0  0  0  0  0  0  0  0  0  0  0
   -4.5523   22.4083  -23.0366 C   0  0  0  0  0  0  0  0  0  0  0  0
   -3.3616   21.0020  -24.0476 H   0  0  0  0  0  0  0  0  0  0  0  0
   -2.5624   22.5248  -23.6813 H   0  0  0  0  0  0  0  0  0  0  0  0
   -4.3350   23.2690  -21.7759 C   0  0  0  0  0  0  0  0  0  0  0  0
   -5.6418   23.6570  -21.1833 C   0  0  0  0  0  0  0  0  0  0  0  0
   -6.0380   24.9639  -21.0592 C   0  0  0  0  0  0  0  0  0  0  0  0
   -7.2599   25.3032  -20.5040 C   0  0  0  0  0  0  0  0  0  0  0  0
   -8.1240   24.3298  -20.0547 C   0  0  0  0  0  0  0  0  0  0  0  0
   -9.3705   24.6485  -19.4871 O   0  0  0  0  0  0  0  0  0  0  0  0
   -7.7275   23.0151  -20.1786 C   0  0  0  0  0  0  0  0  0  0  0  0
   -6.5131   22.6692  -20.7300 C   0  0  0  0  0  0  0  0  0  0  0  0
  -10.1513   24.7127  -20.1198 H   0  0  0  0  0  0  0  0  0  0  0  0
   -5.8005   24.5556  -26.9608 C   0  0  0  0  0  0  0  0  0  0  0  0
   -6.3508   23.6148  -27.5702 O   0  0  0  0  0  0  0  0  0  0  0  0
   -4.7798   25.2841  -27.6224 N   0  0  0  0  0  0  0  0  0  0  0  0
   -4.3133   26.0750  -27.1169 H   0  0  0  0  0  0  0  0  0  0  0  0
   -4.3364   25.0011  -28.9671 C   0  0  0  0  0  0  0  0  0  0  0  0
   -5.2720   25.4244  -30.0085 C   0  0  0  0  0  0  0  0  0  0  0  0
   -6.5153   25.8875  -29.6479 O   0  0  0  0  0  0  0  0  0  0  0  0
   -5.0114   25.3925  -31.2450 O   0  0  0  0  0  0  0  0  0  0  0  0
   -7.2515   26.1566  -30.2628 H   0  0  0  0  0  0  0  0  0  0  0  0
   -3.8980   23.5667  -29.1302 C   0  0  0  0  0  0  0  0  0  0  0  0
   -2.6299   23.2419  -28.4699 C   0  0  0  0  0  0  0  0  0  0  0  0
   -1.4418   23.5475  -29.0919 C   0  0  0  0  0  0  0  0  0  0  0  0
   -0.2135   23.2494  -28.4913 C   0  0  0  0  0  0  0  0  0  0  0  0
   -0.1511   22.6398  -27.2565 C   0  0  0  0  0  0  0  0  0  0  0  0
    1.0778   22.3499  -26.6729 O   0  0  0  0  0  0  0  0  0  0  0  0
   -1.3484   22.3387  -26.6433 C   0  0  0  0  0  0  0  0  0  0  0  0
   -2.5588   22.6283  -27.2267 C   0  0  0  0  0  0  0  0  0  0  0  0
    1.4596   21.4222  -26.9043 H   0  0  0  0  0  0  0  0  0  0  0  0
  8  9  1  0  0  0
  9 12  1  0  0  0
 12 13  1  0  0  0
 13 14  2  0  0  0
 14 15  1  0  0  0
 15 16  2  0  0  0
 16 17  1  0  0  0
 16 18  1  0  0  0
 18 19  2  0  0  0
  9  1  1  0  0  0
  1  2  2  0  0  0
  1  3  1  0  0  0
  3  4  1  0  0  0
  4  5  1  0  0  0
  5  6  1  0  0  0
  6  7  1  0  0  0
  7 21  1  0  0  0
 21 22  2  0  0  0
 21 23  1  0  0  0
 23 25  1  0  0  0
 25 30  1  0  0  0
 30 31  1  0  0  0
 31 32  2  0  0  0
 32 33  1  0  0  0
 33 34  2  0  0  0
 34 35  1  0  0  0
 34 36  1  0  0  0
 36 37  2  0  0  0
 25 26  1  0  0  0
 26 27  1  0  0  0
 26 28  2  0  0  0
 19 13  1  0  0  0
  7  3  1  0  0  0
 37 31  1  0  0  0
  8 10  1  0  0  0
  8 11  1  0  0  0
 17 20  1  0  0  0
 23 24  1  0  0  0
 35 38  1  0  0  0
 27 29  1  0  0  0
M  END
> <minimizedAffinity>
-8.72037

> <CNNscore>
0.4111894965

> <CNNaffinity>
6.7662811279

> <CNN_VS>
2.7822237015

> <CNNaffinity_variance>
0.0901618898

$$$$
[H]OC(=O)[C@@]([H])(N([H])C(=O)[C@@]1([H])N(C(=O)[C@@]([H])(N([H])[H])C([H])([H])c2c([H])c([H])c(O[H])c([H])c2[H])C([H])([H])C([H])([H])C1([H])[H])C([H])([H])c1c([H])c([H])c(O[H])c([H])c1[H]


 38 40  0  0  0  0  0  0  0  0999 V2000
   -2.3288   22.1962  -25.9307 C   0  0  0  0  0  0  0  0  0  0  0  0
   -3.2316   21.3098  -25.6793 O   0  0  0  0  0  0  0  0  0  0  0  0
   -1.3104   22.3670  -24.9625 N   0  0  0  0  0  0  0  0  0  0  0  0
   -0.1669   23.2083  -24.8572 C   0  0  0  0  0  0  0  0  0  0  0  0
    0.9288   22.1884  -24.5629 C   0  0  0  0  0  0  0  0  0  0  0  0
    0.2033   21.3079  -23.5609 C   0  0  0  0  0  0  0  0  0  0  0  0
   -1.2643   21.5805  -23.7122 C   0  0  0  0  0  0  0  0  0  0  0  0
   -1.4215   22.9143  -28.1076 N   0  0  0  0  0  0  0  0  0  0  0  0
   -2.5086   22.8918  -27.1970 C   0  0  0  0  0  0  0  0  0  0  0  0
   -0.6431   23.5415  -27.9151 H   0  0  0  0  0  0  0  0  0  0  0  0
   -1.2499   22.0657  -28.6538 H   0  0  0  0  0  0  0  0  0  0  0  0
   -3.8164   22.4568  -27.8880 C   0  0  0  0  0  0  0  0  0  0  0  0
   -4.3997   23.5910  -28.6513 C   0  0  0  0  0  0  0  0  0  0  0  0
   -4.1714   24.9013  -28.3178 C   0  0  0  0  0  0  0  0  0  0  0  0
   -4.7249   25.9427  -29.0428 C   0  0  0  0  0  0  0  0  0  0  0  0
   -5.5297   25.6931  -30.1318 C   0  0  0  0  0  0  0  0  0  0  0  0
   -6.1037   26.7332  -30.8843 O   0  0  0  0  0  0  0  0  0  0  0  0
   -5.7607   24.3763  -30.4688 C   0  0  0  0  0  0  0  0  0  0  0  0
   -5.2135   23.3342  -29.7524 C   0  0  0  0  0  0  0  0  0  0  0  0
   -5.5651   27.0775  -31.6625 H   0  0  0  0  0  0  0  0  0  0  0  0
   -1.8707   22.3644  -22.6272 C   0  0  0  0  0  0  0  0  0  0  0  0
   -1.2413   23.3171  -22.1216 O   0  0  0  0  0  0  0  0  0  0  0  0
   -3.1650   22.0696  -22.1290 N   0  0  0  0  0  0  0  0  0  0  0  0
   -3.6992   21.2712  -22.5485 H   0  0  0  0  0  0  0  0  0  0  0  0
   -3.8022   22.8100  -21.0657 C   0  0  0  0  0  0  0  0  0  0  0  0
   -3.4911   22.3194  -19.7234 C   0  0  0  0  0  0  0  0  0  0  0  0
   -3.1313   21.0032  -19.5550 O   0  0  0  0  0  0  0  0  0  0  0  0
   -3.5319   23.0375  -18.6839 O   0  0  0  0  0  0  0  0  0  0  0  0
   -2.9449   20.5430  -18.6912 H   0  0  0  0  0  0  0  0  0  0  0  0
   -5.2848   22.9702  -21.2950 C   0  0  0  0  0  0  0  0  0  0  0  0
   -5.6347   23.6390  -22.5518 C   0  0  0  0  0  0  0  0  0  0  0  0
   -5.2540   24.9449  -22.7560 C   0  0  0  0  0  0  0  0  0  0  0  0
   -5.5733   25.6142  -23.9427 C   0  0  0  0  0  0  0  0  0  0  0  0
   -6.2799   24.9890  -24.9478 C   0  0  0  0  0  0  0  0  0  0  0  0
   -6.5896   25.6682  -26.1215 O   0  0  0  0  0  0  0  0  0  0  0  0
   -6.6556   23.6805  -24.7314 C   0  0  0  0  0  0  0  0  0  0  0  0
   -6.3458   23.0163  -23.5686 C   0  0  0  0  0  0  0  0  0  0  0  0
   -7.4870   26.1726  -26.1066 H   0  0  0  0  0  0  0  0  0  0  0  0
  8  9  1  0  0  0
  9 12  1  0  0  0
 12 13  1  0  0  0
 13 14  2  0  0  0
 14 15  1  0  0  0
 15 16  2  0  0  0
 16 17  1  0  0  0
 16 18  1  0  0  0
 18 19  2  0  0  0
  9  1  1  0  0  0
  1  2  2  0  0  0
  1  3  1  0  0  0
  3  4  1  0  0  0
  4  5  1  0  0  0
  5  6  1  0  0  0
  6  7  1  0  0  0
  7 21  1  0  0  0
 21 22  2  0  0  0
 21 23  1  0  0  0
 23 25  1  0  0  0
 25 30  1  0  0  0
 30 31  1  0  0  0
 31 32  2  0  0  0
 32 33  1  0  0  0
 33 34  2  0  0  0
 34 35  1  0  0  0
 34 36  1  0  0  0
 36 37  2  0  0  0
 25 26  1  0  0  0
 26 27  1  0  0  0
 26 28  2  0  0  0
 19 13  1  0  0  0
  7  3  1  0  0  0
 37 31  1  0  0  0
  8 10  1  0  0  0
  8 11  1  0  0  0
 17 20  1  0  0  0
 23 24  1  0  0  0
 35 38  1  0  0  0
 27 29  1  0  0  0
M  END
> <minimizedAffinity>
-8.10988

> <CNNscore>
0.3836145997

> <CNNaffinity>
6.8035078049

> <CNN_VS>
2.6099250317

> <CNNaffinity_variance>
0.1891012192

$$$$
[H]OC(=O)[C@@]([H])(N([H])C(=O)[C@@]1([H])N(C(=O)[C@@]([H])(N([H])[H])C([H])([H])c2c([H])c([H])c(O[H])c([H])c2[H])C([H])([H])C([H])([H])C1([H])[H])C([H])([H])c1c([H])c([H])c(O[H])c([H])c1[H]


 38 40  0  0  0  0  0  0  0  0999 V2000
   -5.2576   22.7954  -23.1129 C   0  0  0  0  0  0  0  0  0  0  0  0
   -5.3378   21.6596  -23.7191 O   0  0  0  0  0  0  0  0  0  0  0  0
   -5.8594   23.9067  -23.7507 N   0  0  0  0  0  0  0  0  0  0  0  0
   -5.9928   25.2872  -23.4303 C   0  0  0  0  0  0  0  0  0  0  0  0
   -7.4972   25.4867  -23.5867 C   0  0  0  0  0  0  0  0  0  0  0  0
   -7.7334   24.6990  -24.8632 C   0  0  0  0  0  0  0  0  0  0  0  0
   -6.5501   23.7963  -25.0524 C   0  0  0  0  0  0  0  0  0  0  0  0
   -4.2653   21.4767  -21.2815 N   0  0  0  0  0  0  0  0  0  0  0  0
   -4.5456   22.7481  -21.8440 C   0  0  0  0  0  0  0  0  0  0  0  0
   -5.0251   20.9690  -20.8326 H   0  0  0  0  0  0  0  0  0  0  0  0
   -3.4861   20.9479  -21.6829 H   0  0  0  0  0  0  0  0  0  0  0  0
   -3.2886   23.6403  -21.8798 C   0  0  0  0  0  0  0  0  0  0  0  0
   -2.0602   22.8052  -21.8243 C   0  0  0  0  0  0  0  0  0  0  0  0
   -1.3355   22.6324  -20.6732 C   0  0  0  0  0  0  0  0  0  0  0  0
   -0.1939   21.8499  -20.6438 C   0  0  0  0  0  0  0  0  0  0  0  0
    0.2540   21.2145  -21.7803 C   0  0  0  0  0  0  0  0  0  0  0  0
    1.4105   20.4145  -21.7764 O   0  0  0  0  0  0  0  0  0  0  0  0
   -0.4733   21.3869  -22.9389 C   0  0  0  0  0  0  0  0  0  0  0  0
   -1.6106   22.1640  -22.9764 C   0  0  0  0  0  0  0  0  0  0  0  0
    1.2825   19.4373  -21.5691 H   0  0  0  0  0  0  0  0  0  0  0  0
   -5.6254   24.1923  -26.1237 C   0  0  0  0  0  0  0  0  0  0  0  0
   -4.6398   24.9121  -25.8596 O   0  0  0  0  0  0  0  0  0  0  0  0
   -5.8192   23.7779  -27.4657 N   0  0  0  0  0  0  0  0  0  0  0  0
   -6.6445   23.1736  -27.6949 H   0  0  0  0  0  0  0  0  0  0  0  0
   -4.9392   24.1408  -28.5515 C   0  0  0  0  0  0  0  0  0  0  0  0
   -5.6045   24.8268  -29.6587 C   0  0  0  0  0  0  0  0  0  0  0  0
   -6.4556   25.8721  -29.3882 O   0  0  0  0  0  0  0  0  0  0  0  0
   -5.4484   24.5177  -30.8745 O   0  0  0  0  0  0  0  0  0  0  0  0
   -7.0003   26.3821  -30.0483 H   0  0  0  0  0  0  0  0  0  0  0  0
   -4.0972   22.9771  -29.0128 C   0  0  0  0  0  0  0  0  0  0  0  0
   -2.7489   22.9392  -28.4381 C   0  0  0  0  0  0  0  0  0  0  0  0
   -2.5562   22.3892  -27.1922 C   0  0  0  0  0  0  0  0  0  0  0  0
   -1.2834   22.3390  -26.6129 C   0  0  0  0  0  0  0  0  0  0  0  0
   -0.1791   22.8383  -27.2697 C   0  0  0  0  0  0  0  0  0  0  0  0
    1.0795   22.7809  -26.6802 O   0  0  0  0  0  0  0  0  0  0  0  0
   -0.3850   23.3867  -28.5175 C   0  0  0  0  0  0  0  0  0  0  0  0
   -1.6321   23.4397  -29.0932 C   0  0  0  0  0  0  0  0  0  0  0  0
    1.3267   23.5986  -26.1055 H   0  0  0  0  0  0  0  0  0  0  0  0
  8  9  1  0  0  0
  9 12  1  0  0  0
 12 13  1  0  0  0
 13 14  2  0  0  0
 14 15  1  0  0  0
 15 16  2  0  0  0
 16 17  1  0  0  0
 16 18  1  0  0  0
 18 19  2  0  0  0
  9  1  1  0  0  0
  1  2  2  0  0  0
  1  3  1  0  0  0
  3  4  1  0  0  0
  4  5  1  0  0  0
  5  6  1  0  0  0
  6  7  1  0  0  0
  7 21  1  0  0  0
 21 22  2  0  0  0
 21 23  1  0  0  0
 23 25  1  0  0  0
 25 30  1  0  0  0
 30 31  1  0  0  0
 31 32  2  0  0  0
 32 33  1  0  0  0
 33 34  2  0  0  0
 34 35  1  0  0  0
 34 36  1  0  0  0
 36 37  2  0  0  0
 25 26  1  0  0  0
 26 27  1  0  0  0
 26 28  2  0  0  0
 19 13  1  0  0  0
  7  3  1  0  0  0
 37 31  1  0  0  0
  8 10  1  0  0  0
  8 11  1  0  0  0
 17 20  1  0  0  0
 23 24  1  0  0  0
 35 38  1  0  0  0
 27 29  1  0  0  0
M  END
> <minimizedAffinity>
-9.03568

> <CNNscore>
0.3579348624

> <CNNaffinity>
6.6766929626

> <CNN_VS>
2.3898212910

> <CNNaffinity_variance>
0.0919806510

$$$$
[H]OC(=O)[C@@]([H])(N([H])C(=O)[C@@]1([H])N(C(=O)[C@@]([H])(N([H])[H])C([H])([H])c2c([H])c([H])c(O[H])c([H])c2[H])C([H])([H])C([H])([H])C1([H])[H])C([H])([H])c1c([H])c([H])c(O[H])c([H])c1[H]


 38 40  0  0  0  0  0  0  0  0999 V2000
   -5.4407   22.8144  -23.1476 C   0  0  0  0  0  0  0  0  0  0  0  0
   -5.5068   21.6981  -23.7907 O   0  0  0  0  0  0  0  0  0  0  0  0
   -5.9612   23.9599  -23.7962 N   0  0  0  0  0  0  0  0  0  0  0  0
   -6.0796   25.3349  -23.4470 C   0  0  0  0  0  0  0  0  0  0  0  0
   -7.5617   25.5837  -23.7094 C   0  0  0  0  0  0  0  0  0  0  0  0
   -7.7229   24.8378  -25.0222 C   0  0  0  0  0  0  0  0  0  0  0  0
   -6.5545   23.9052  -25.1486 C   0  0  0  0  0  0  0  0  0  0  0  0
   -4.0833   23.8197  -21.3521 N   0  0  0  0  0  0  0  0  0  0  0  0
   -4.8281   22.7118  -21.8310 C   0  0  0  0  0  0  0  0  0  0  0  0
   -3.1523   23.9768  -21.7330 H   0  0  0  0  0  0  0  0  0  0  0  0
   -4.6114   24.6186  -20.9906 H   0  0  0  0  0  0  0  0  0  0  0  0
   -5.8455   22.2186  -20.7827 C   0  0  0  0  0  0  0  0  0  0  0  0
   -6.9209   23.2268  -20.5918 C   0  0  0  0  0  0  0  0  0  0  0  0
   -6.7000   24.4374  -19.9870 C   0  0  0  0  0  0  0  0  0  0  0  0
   -7.7163   25.3622  -19.8193 C   0  0  0  0  0  0  0  0  0  0  0  0
   -8.9932   25.0928  -20.2587 C   0  0  0  0  0  0  0  0  0  0  0  0
  -10.0426   26.0154  -20.1001 O   0  0  0  0  0  0  0  0  0  0  0  0
   -9.2176   23.8761  -20.8670 C   0  0  0  0  0  0  0  0  0  0  0  0
   -8.2113   22.9503  -21.0378 C   0  0  0  0  0  0  0  0  0  0  0  0
  -10.1809   26.6746  -20.8488 H   0  0  0  0  0  0  0  0  0  0  0  0
   -5.5408   24.3016  -26.1359 C   0  0  0  0  0  0  0  0  0  0  0  0
   -4.4957   24.8718  -25.7592 O   0  0  0  0  0  0  0  0  0  0  0  0
   -5.7139   24.0543  -27.5213 N   0  0  0  0  0  0  0  0  0  0  0  0
   -6.5888   23.5761  -27.8448 H   0  0  0  0  0  0  0  0  0  0  0  0
   -4.7476   24.4246  -28.5282 C   0  0  0  0  0  0  0  0  0  0  0  0
   -5.2889   25.2589  -29.6006 C   0  0  0  0  0  0  0  0  0  0  0  0
   -6.5289   25.8321  -29.4460 O   0  0  0  0  0  0  0  0  0  0  0  0
   -4.6825   25.4939  -30.6846 O   0  0  0  0  0  0  0  0  0  0  0  0
   -7.0214   26.3760  -30.1201 H   0  0  0  0  0  0  0  0  0  0  0  0
   -3.9862   23.2314  -29.0504 C   0  0  0  0  0  0  0  0  0  0  0  0
   -2.6561   23.0553  -28.4594 C   0  0  0  0  0  0  0  0  0  0  0  0
   -2.5330   22.4501  -27.2303 C   0  0  0  0  0  0  0  0  0  0  0  0
   -1.2791   22.2682  -26.6361 C   0  0  0  0  0  0  0  0  0  0  0  0
   -0.1246   22.6886  -27.2609 C   0  0  0  0  0  0  0  0  0  0  0  0
    1.1143   22.5006  -26.6569 O   0  0  0  0  0  0  0  0  0  0  0  0
   -0.2610   23.2935  -28.4920 C   0  0  0  0  0  0  0  0  0  0  0  0
   -1.4889   23.4758  -29.0821 C   0  0  0  0  0  0  0  0  0  0  0  0
    1.4233   23.2740  -26.0516 H   0  0  0  0  0  0  0  0  0  0  0  0
  8  9  1  0  0  0
  9 12  1  0  0  0
 12 13  1  0  0  0
 13 14  2  0  0  0
 14 15  1  0  0  0
 15 16  2  0  0  0
 16 17  1  0  0  0
 16 18  1  0  0  0
 18 19  2  0  0  0
  9  1  1  0  0  0
  1  2  2  0  0  0
  1  3  1  0  0  0
  3  4  1  0  0  0
  4  5  1  0  0  0
  5  6  1  0  0  0
  6  7  1  0  0  0
  7 21  1  0  0  0
 21 22  2  0  0  0
 21 23  1  0  0  0
 23 25  1  0  0  0
 25 30  1  0  0  0
 30 31  1  0  0  0
 31 32  2  0  0  0
 32 33  1  0  0  0
 33 34  2  0  0  0
 34 35  1  0  0  0
 34 36  1  0  0  0
 36 37  2  0  0  0
 25 26  1  0  0  0
 26 27  1  0  0  0
 26 28  2  0  0  0
 19 13  1  0  0  0
  7  3  1  0  0  0
 37 31  1  0  0  0
  8 10  1  0  0  0
  8 11  1  0  0  0
 17 20  1  0  0  0
 23 24  1  0  0  0
 35 38  1  0  0  0
 27 29  1  0  0  0
M  END
> <minimizedAffinity>
-9.03269

> <CNNscore>
0.3034637868

> <CNNaffinity>
6.4385809898

> <CNN_VS>
1.9538761377

> <CNNaffinity_variance>
0.0220841262

$$$$
[H]OC(=O)[C@@]([H])(N([H])C(=O)[C@@]1([H])N(C(=O)[C@@]([H])(N([H])[H])C([H])([H])c2c([H])c([H])c(O[H])c([H])c2[H])C([H])([H])C([H])([H])C1([H])[H])C([H])([H])c1c([H])c([H])c(O[H])c([H])c1[H]


 38 40  0  0  0  0  0  0  0  0999 V2000
   -5.6073   22.2024  -23.3113 C   0  0  0  0  0  0  0  0  0  0  0  0
   -5.9185   21.2972  -24.1760 O   0  0  0  0  0  0  0  0  0  0  0  0
   -5.9430   23.5393  -23.6333 N   0  0  0  0  0  0  0  0  0  0  0  0
   -5.7820   24.7925  -22.9775 C   0  0  0  0  0  0  0  0  0  0  0  0
   -7.2048   25.3409  -23.0267 C   0  0  0  0  0  0  0  0  0  0  0  0
   -7.5804   24.9646  -24.4491 C   0  0  0  0  0  0  0  0  0  0  0  0
   -6.6159   23.9062  -24.8969 C   0  0  0  0  0  0  0  0  0  0  0  0
   -3.5556   21.4241  -22.1879 N   0  0  0  0  0  0  0  0  0  0  0  0
   -4.9469   21.6903  -22.1192 C   0  0  0  0  0  0  0  0  0  0  0  0
   -3.2479   20.5846  -22.6748 H   0  0  0  0  0  0  0  0  0  0  0  0
   -2.9217   22.2261  -22.1354 H   0  0  0  0  0  0  0  0  0  0  0  0
   -5.3000   22.5393  -20.8815 C   0  0  0  0  0  0  0  0  0  0  0  0
   -6.5588   22.0497  -20.2609 C   0  0  0  0  0  0  0  0  0  0  0  0
   -6.6234   20.8842  -19.5415 C   0  0  0  0  0  0  0  0  0  0  0  0
   -7.8067   20.4465  -18.9717 C   0  0  0  0  0  0  0  0  0  0  0  0
   -8.9670   21.1748  -19.1108 C   0  0  0  0  0  0  0  0  0  0  0  0
  -10.1814   20.7518  -18.5418 O   0  0  0  0  0  0  0  0  0  0  0  0
   -8.9043   22.3471  -19.8338 C   0  0  0  0  0  0  0  0  0  0  0  0
   -7.7304   22.7895  -20.4040 C   0  0  0  0  0  0  0  0  0  0  0  0
  -10.3765   21.0699  -17.6064 H   0  0  0  0  0  0  0  0  0  0  0  0
   -5.6070   24.3493  -25.8691 C   0  0  0  0  0  0  0  0  0  0  0  0
   -5.1257   25.4986  -25.7855 O   0  0  0  0  0  0  0  0  0  0  0  0
   -5.1565   23.5025  -26.9133 N   0  0  0  0  0  0  0  0  0  0  0  0
   -5.5562   22.5365  -26.9898 H   0  0  0  0  0  0  0  0  0  0  0  0
   -4.1684   23.8924  -27.8913 C   0  0  0  0  0  0  0  0  0  0  0  0
   -4.7248   24.5284  -29.0851 C   0  0  0  0  0  0  0  0  0  0  0  0
   -3.9091   25.3010  -29.8776 O   0  0  0  0  0  0  0  0  0  0  0  0
   -5.9309   24.4154  -29.4463 O   0  0  0  0  0  0  0  0  0  0  0  0
   -4.1810   25.8211  -30.6827 H   0  0  0  0  0  0  0  0  0  0  0  0
   -3.2224   22.7649  -28.2229 C   0  0  0  0  0  0  0  0  0  0  0  0
   -2.1136   22.6063  -27.2770 C   0  0  0  0  0  0  0  0  0  0  0  0
   -0.8268   22.8655  -27.6882 C   0  0  0  0  0  0  0  0  0  0  0  0
    0.2551   22.7220  -26.8122 C   0  0  0  0  0  0  0  0  0  0  0  0
    0.0695   22.3164  -25.5079 C   0  0  0  0  0  0  0  0  0  0  0  0
    1.1554   22.1785  -24.6496 O   0  0  0  0  0  0  0  0  0  0  0  0
   -1.2244   22.0599  -25.1078 C   0  0  0  0  0  0  0  0  0  0  0  0
   -2.2922   22.1985  -25.9621 C   0  0  0  0  0  0  0  0  0  0  0  0
    1.5888   21.2446  -24.6455 H   0  0  0  0  0  0  0  0  0  0  0  0
  8  9  1  0  0  0
  9 12  1  0  0  0
 12 13  1  0  0  0
 13 14  2  0  0  0
 14 15  1  0  0  0
 15 16  2  0  0  0
 16 17  1  0  0  0
 16 18  1  0  0  0
 18 19  2  0  0  0
  9  1  1  0  0  0
  1  2  2  0  0  0
  1  3  1  0  0  0
  3  4  1  0  0  0
  4  5  1  0  0  0
  5  6  1  0  0  0
  6  7  1  0  0  0
  7 21  1  0  0  0
 21 22  2  0  0  0
 21 23  1  0  0  0
 23 25  1  0  0  0
 25 30  1  0  0  0
 30 31  1  0  0  0
 31 32  2  0  0  0
 32 33  1  0  0  0
 33 34  2  0  0  0
 34 35  1  0  0  0
 34 36  1  0  0  0
 36 37  2  0  0  0
 25 26  1  0  0  0
 26 27  1  0  0  0
 26 28  2  0  0  0
 19 13  1  0  0  0
  7  3  1  0  0  0
 37 31  1  0  0  0
  8 10  1  0  0  0
  8 11  1  0  0  0
 17 20  1  0  0  0
 23 24  1  0  0  0
 35 38  1  0  0  0
 27 29  1  0  0  0
M  END
> <minimizedAffinity>
-8.72650

> <CNNscore>
0.2700751722

> <CNNaffinity>
6.0922036171

> <CNN_VS>
1.6453529596

> <CNNaffinity_variance>
0.0782761425

$$$$
[H]OC(=O)c1c([H])c([H])c(-c2c([H])c(C#N)c([H])c(-c3c([H])c([H])c(F)c([H])c3[H])c2[H])c([H])c1O[H]


 27 29  0  0  0  0  0  0  0  0999 V2000
   -3.8131   22.6395  -25.6324 C   0  0  0  0  0  0  0  0  0  0  0  0
   -4.4455   23.1697  -26.7155 C   0  0  0  0  0  0  0  0  0  0  0  0
   -3.7700   23.4289  -27.8749 C   0  0  0  0  0  0  0  0  0  0  0  0
   -2.4075   23.1359  -27.9253 C   0  0  0  0  0  0  0  0  0  0  0  0
   -1.7309   22.6014  -26.8586 C   0  0  0  0  0  0  0  0  0  0  0  0
   -2.4547   22.3582  -25.7122 C   0  0  0  0  0  0  0  0  0  0  0  0
   -5.9065   21.8269  -22.0151 C   0  0  0  0  0  0  0  0  0  0  0  0
   -6.5657   22.2778  -23.1656 C   0  0  0  0  0  0  0  0  0  0  0  0
   -5.8441   22.5159  -24.2951 C   0  0  0  0  0  0  0  0  0  0  0  0
   -4.4849   22.3360  -24.3715 C   0  0  0  0  0  0  0  0  0  0  0  0
   -3.8412   21.9015  -23.2674 C   0  0  0  0  0  0  0  0  0  0  0  0
   -4.5443   21.6405  -22.0711 C   0  0  0  0  0  0  0  0  0  0  0  0
   -3.8247   21.2043  -20.9956 O   0  0  0  0  0  0  0  0  0  0  0  0
   -4.0247   20.9537  -20.0803 H   0  0  0  0  0  0  0  0  0  0  0  0
   -6.3552   21.8302  -19.5228 O   0  0  0  0  0  0  0  0  0  0  0  0
   -6.6941   21.5816  -20.8148 C   0  0  0  0  0  0  0  0  0  0  0  0
   -7.8601   21.0631  -20.9820 O   0  0  0  0  0  0  0  0  0  0  0  0
   -6.0072   21.1786  -18.8409 H   0  0  0  0  0  0  0  0  0  0  0  0
   -4.3802   24.0058  -29.0806 C   0  0  0  0  0  0  0  0  0  0  0  0
   -4.0379   25.2544  -29.5526 C   0  0  0  0  0  0  0  0  0  0  0  0
   -4.6330   25.7889  -30.6963 C   0  0  0  0  0  0  0  0  0  0  0  0
   -5.5874   25.0826  -31.3952 C   0  0  0  0  0  0  0  0  0  0  0  0
   -6.1927   25.5641  -32.5099 F   0  0  0  0  0  0  0  0  0  0  0  0
   -5.9329   23.8336  -30.9271 C   0  0  0  0  0  0  0  0  0  0  0  0
   -5.3343   23.3006  -29.7803 C   0  0  0  0  0  0  0  0  0  0  0  0
   -0.3125   22.3108  -26.9573 C   0  0  0  0  0  0  0  0  0  0  0  0
    0.8184   22.0865  -27.0564 N   0  0  0  0  0  0  0  0  0  0  0  0
 15 16  1  0  0  0
 16 17  2  0  0  0
 16  7  1  0  0  0
  7  8  2  0  0  0
  8  9  1  0  0  0
  9 10  2  0  0  0
 10 11  1  0  0  0
 11 12  2  0  0  0
 12 13  1  0  0  0
 10  1  1  0  0  0
  1  2  2  0  0  0
  2  3  1  0  0  0
  3  4  2  0  0  0
  4  5  1  0  0  0
  5  6  2  0  0  0
  5 26  1  0  0  0
 26 27  3  0  0  0
  3 19  1  0  0  0
 19 20  2  0  0  0
 20 21  1  0  0  0
 21 22  2  0  0  0
 22 23  1  0  0  0
 22 24  1  0  0  0
 24 25  2  0  0  0
 12  7  1  0  0  0
  6  1  1  0  0  0
 25 19  1  0  0  0
 15 18  1  0  0  0
 13 14  1  0  0  0
M  END
> <minimizedAffinity>
-9.68415

> <CNNscore>
0.8077507615

> <CNNaffinity>
6.3110694885

> <CNN_VS>
5.0977711678

> <CNNaffinity_variance>
0.1319788247

$$$$
[H]OC(=O)c1c([H])c([H])c(-c2c([H])c(C#N)c([H])c(-c3c([H])c([H])c(F)c([H])c3[H])c2[H])c([H])c1O[H]


 27 29  0  0  0  0  0  0  0  0999 V2000
   -2.7343   22.8971  -24.9450 C   0  0  0  0  0  0  0  0  0  0  0  0
   -2.0857   22.3225  -23.8947 C   0  0  0  0  0  0  0  0  0  0  0  0
   -0.7955   21.8869  -24.0099 C   0  0  0  0  0  0  0  0  0  0  0  0
   -0.1519   22.0452  -25.2370 C   0  0  0  0  0  0  0  0  0  0  0  0
   -0.7670   22.6183  -26.3208 C   0  0  0  0  0  0  0  0  0  0  0  0
   -2.0674   23.0413  -26.1555 C   0  0  0  0  0  0  0  0  0  0  0  0
   -6.7233   24.3418  -24.5864 C   0  0  0  0  0  0  0  0  0  0  0  0
   -5.8055   24.4349  -23.5325 C   0  0  0  0  0  0  0  0  0  0  0  0
   -4.5416   23.9604  -23.7076 C   0  0  0  0  0  0  0  0  0  0  0  0
   -4.1088   23.3864  -24.8776 C   0  0  0  0  0  0  0  0  0  0  0  0
   -4.9865   23.2926  -25.8988 C   0  0  0  0  0  0  0  0  0  0  0  0
   -6.3089   23.7697  -25.7673 C   0  0  0  0  0  0  0  0  0  0  0  0
   -7.1393   23.6393  -26.8434 O   0  0  0  0  0  0  0  0  0  0  0  0
   -8.0615   23.8649  -27.0418 H   0  0  0  0  0  0  0  0  0  0  0  0
   -9.0980   24.8961  -25.2690 O   0  0  0  0  0  0  0  0  0  0  0  0
   -8.0720   24.8509  -24.3796 C   0  0  0  0  0  0  0  0  0  0  0  0
   -8.3416   25.3221  -23.2127 O   0  0  0  0  0  0  0  0  0  0  0  0
   -9.4069   25.6825  -25.8138 H   0  0  0  0  0  0  0  0  0  0  0  0
   -0.0332   21.2517  -22.9262 C   0  0  0  0  0  0  0  0  0  0  0  0
   -0.6473   20.6653  -21.8408 C   0  0  0  0  0  0  0  0  0  0  0  0
    0.0936   20.0723  -20.8175 C   0  0  0  0  0  0  0  0  0  0  0  0
    1.4706   20.0531  -20.8584 C   0  0  0  0  0  0  0  0  0  0  0  0
    2.2299   19.4897  -19.8854 F   0  0  0  0  0  0  0  0  0  0  0  0
    2.0891   20.6381  -21.9417 C   0  0  0  0  0  0  0  0  0  0  0  0
    1.3434   21.2317  -22.9660 C   0  0  0  0  0  0  0  0  0  0  0  0
   -0.0571   22.7641  -27.5781 C   0  0  0  0  0  0  0  0  0  0  0  0
    0.5164   22.8603  -28.5785 N   0  0  0  0  0  0  0  0  0  0  0  0
 15 16  1  0  0  0
 16 17  2  0  0  0
 16  7  1  0  0  0
  7  8  2  0  0  0
  8  9  1  0  0  0
  9 10  2  0  0  0
 10 11  1  0  0  0
 11 12  2  0  0  0
 12 13  1  0  0  0
 10  1  1  0  0  0
  1  2  2  0  0  0
  2  3  1  0  0  0
  3  4  2  0  0  0
  4  5  1  0  0  0
  5  6  2  0  0  0
  5 26  1  0  0  0
 26 27  3  0  0  0
  3 19  1  0  0  0
 19 20  2  0  0  0
 20 21  1  0  0  0
 21 22  2  0  0  0
 22 23  1  0  0  0
 22 24  1  0  0  0
 24 25  2  0  0  0
 12  7  1  0  0  0
  6  1  1  0  0  0
 25 19  1  0  0  0
 15 18  1  0  0  0
 13 14  1  0  0  0
M  END
> <minimizedAffinity>
-8.19835

> <CNNscore>
0.5486865640

> <CNNaffinity>
5.9619131088

> <CNN_VS>
3.2712216377

> <CNNaffinity_variance>
0.3545756042

$$$$
[H]OC(=O)c1c([H])c([H])c(-c2c([H])c(C#N)c([H])c(-c3c([H])c([H])c(F)c([H])c3[H])c2[H])c([H])c1O[H]


 27 29  0  0  0  0  0  0  0  0999 V2000
   -1.3409   22.0164  -23.8908 C   0  0  0  0  0  0  0  0  0  0  0  0
   -2.6374   22.4204  -23.9905 C   0  0  0  0  0  0  0  0  0  0  0  0
   -3.1510   22.8717  -25.1738 C   0  0  0  0  0  0  0  0  0  0  0  0
   -2.3113   22.9096  -26.2867 C   0  0  0  0  0  0  0  0  0  0  0  0
   -0.9996   22.5124  -26.2314 C   0  0  0  0  0  0  0  0  0  0  0  0
   -0.5281   22.0657  -25.0168 C   0  0  0  0  0  0  0  0  0  0  0  0
    0.2751   20.6182  -20.2082 C   0  0  0  0  0  0  0  0  0  0  0  0
   -1.0623   21.0177  -20.3247 C   0  0  0  0  0  0  0  0  0  0  0  0
   -1.5243   21.4508  -21.5297 C   0  0  0  0  0  0  0  0  0  0  0  0
   -0.7409   21.5194  -22.6554 C   0  0  0  0  0  0  0  0  0  0  0  0
    0.5493   21.1363  -22.5526 C   0  0  0  0  0  0  0  0  0  0  0  0
    1.0767   20.6796  -21.3250 C   0  0  0  0  0  0  0  0  0  0  0  0
    2.3910   20.3101  -21.2985 O   0  0  0  0  0  0  0  0  0  0  0  0
    3.0047   19.9704  -20.6286 H   0  0  0  0  0  0  0  0  0  0  0  0
    0.7278   20.8258  -17.7254 O   0  0  0  0  0  0  0  0  0  0  0  0
    0.7529   20.1618  -18.9104 C   0  0  0  0  0  0  0  0  0  0  0  0
    1.2678   18.9832  -18.8635 O   0  0  0  0  0  0  0  0  0  0  0  0
    1.4795   21.3262  -17.2836 H   0  0  0  0  0  0  0  0  0  0  0  0
   -4.5347   23.3305  -25.3577 C   0  0  0  0  0  0  0  0  0  0  0  0
   -5.3415   23.6781  -24.2960 C   0  0  0  0  0  0  0  0  0  0  0  0
   -6.6558   24.1058  -24.4896 C   0  0  0  0  0  0  0  0  0  0  0  0
   -7.1934   24.1952  -25.7550 C   0  0  0  0  0  0  0  0  0  0  0  0
   -8.4658   24.6037  -25.9890 F   0  0  0  0  0  0  0  0  0  0  0  0
   -6.3905   23.8487  -26.8197 C   0  0  0  0  0  0  0  0  0  0  0  0
   -5.0732   23.4204  -26.6222 C   0  0  0  0  0  0  0  0  0  0  0  0
   -0.1633   22.5675  -27.4161 C   0  0  0  0  0  0  0  0  0  0  0  0
    0.5191   22.6208  -28.3491 N   0  0  0  0  0  0  0  0  0  0  0  0
 15 16  1  0  0  0
 16 17  2  0  0  0
 16  7  1  0  0  0
  7  8  2  0  0  0
  8  9  1  0  0  0
  9 10  2  0  0  0
 10 11  1  0  0  0
 11 12  2  0  0  0
 12 13  1  0  0  0
 10  1  1  0  0  0
  1  2  2  0  0  0
  2  3  1  0  0  0
  3  4  2  0  0  0
  4  5  1  0  0  0
  5  6  2  0  0  0
  5 26  1  0  0  0
 26 27  3  0  0  0
  3 19  1  0  0  0
 19 20  2  0  0  0
 20 21  1  0  0  0
 21 22  2  0  0  0
 22 23  1  0  0  0
 22 24  1  0  0  0
 24 25  2  0  0  0
 12  7  1  0  0  0
  6  1  1  0  0  0
 25 19  1  0  0  0
 15 18  1  0  0  0
 13 14  1  0  0  0
M  END
> <minimizedAffinity>
-7.79325

> <CNNscore>
0.5192272067

> <CNNaffinity>
5.6817088127

> <CNN_VS>
2.9500977993

> <CNNaffinity_variance>
0.3592062593

$$$$
[H]OC(=O)c1c([H])c([H])c(-c2c([H])c(C#N)c([H])c(-c3c([H])c([H])c(F)c([H])c3[H])c2[H])c([H])c1O[H]


 27 29  0  0  0  0  0  0  0  0999 V2000
   -4.2312   24.0017  -24.6301 C   0  0  0  0  0  0  0  0  0  0  0  0
   -4.7572   24.2937  -25.8516 C   0  0  0  0  0  0  0  0  0  0  0  0
   -4.1068   23.9527  -27.0041 C   0  0  0  0  0  0  0  0  0  0  0  0
   -2.8822   23.2933  -26.9012 C   0  0  0  0  0  0  0  0  0  0  0  0
   -2.3159   22.9796  -25.6920 C   0  0  0  0  0  0  0  0  0  0  0  0
   -3.0091   23.3441  -24.5589 C   0  0  0  0  0  0  0  0  0  0  0  0
   -6.0669   24.8415  -20.8814 C   0  0  0  0  0  0  0  0  0  0  0  0
   -5.0663   23.8704  -21.0138 C   0  0  0  0  0  0  0  0  0  0  0  0
   -4.5120   23.6494  -22.2373 C   0  0  0  0  0  0  0  0  0  0  0  0
   -4.8842   24.3356  -23.3670 C   0  0  0  0  0  0  0  0  0  0  0  0
   -5.8477   25.2735  -23.2488 C   0  0  0  0  0  0  0  0  0  0  0  0
   -6.4541   25.5402  -22.0019 C   0  0  0  0  0  0  0  0  0  0  0  0
   -7.4219   26.5026  -21.9610 O   0  0  0  0  0  0  0  0  0  0  0  0
   -7.9913   26.8878  -21.2769 H   0  0  0  0  0  0  0  0  0  0  0  0
   -6.0107   25.2211  -18.3783 O   0  0  0  0  0  0  0  0  0  0  0  0
   -6.6514   25.0613  -19.5657 C   0  0  0  0  0  0  0  0  0  0  0  0
   -7.9358   25.1119  -19.5026 O   0  0  0  0  0  0  0  0  0  0  0  0
   -5.8610   24.5322  -17.6615 H   0  0  0  0  0  0  0  0  0  0  0  0
   -4.6060   24.2398  -28.3559 C   0  0  0  0  0  0  0  0  0  0  0  0
   -4.5791   25.5073  -28.8960 C   0  0  0  0  0  0  0  0  0  0  0  0
   -5.0639   25.7622  -30.1797 C   0  0  0  0  0  0  0  0  0  0  0  0
   -5.5881   24.7502  -30.9538 C   0  0  0  0  0  0  0  0  0  0  0  0
   -6.0718   24.9532  -32.2050 F   0  0  0  0  0  0  0  0  0  0  0  0
   -5.6170   23.4812  -30.4179 C   0  0  0  0  0  0  0  0  0  0  0  0
   -5.1302   23.2289  -29.1307 C   0  0  0  0  0  0  0  0  0  0  0  0
   -1.0399   22.2907  -25.6333 C   0  0  0  0  0  0  0  0  0  0  0  0
   -0.0179   21.7520  -25.5684 N   0  0  0  0  0  0  0  0  0  0  0  0
 15 16  1  0  0  0
 16 17  2  0  0  0
 16  7  1  0  0  0
  7  8  2  0  0  0
  8  9  1  0  0  0
  9 10  2  0  0  0
 10 11  1  0  0  0
 11 12  2  0  0  0
 12 13  1  0  0  0
 10  1  1  0  0  0
  1  2  2  0  0  0
  2  3  1  0  0  0
  3  4  2  0  0  0
  4  5  1  0  0  0
  5  6  2  0  0  0
  5 26  1  0  0  0
 26 27  3  0  0  0
  3 19  1  0  0  0
 19 20  2  0  0  0
 20 21  1  0  0  0
 21 22  2  0  0  0
 22 23  1  0  0  0
 22 24  1  0  0  0
 24 25  2  0  0  0
 12  7  1  0  0  0
  6  1  1  0  0  0
 25 19  1  0  0  0
 15 18  1  0  0  0
 13 14  1  0  0  0
M  END
> <minimizedAffinity>
-9.39264

> <CNNscore>
0.3488104641

> <CNNaffinity>
5.8954820633

> <CNN_VS>
2.0564057827

> <CNNaffinity_variance>
0.5275415182

$$$$
[H]OC(=O)c1c([H])c([H])c(-c2c([H])c(C#N)c([H])c(-c3c([H])c([H])c(F)c([H])c3[H])c2[H])c([H])c1O[H]


 27 29  0  0  0  0  0  0  0  0999 V2000
   -3.7229   22.1881  -22.1131 C   0  0  0  0  0  0  0  0  0  0  0  0
   -3.3041   22.3635  -23.3968 C   0  0  0  0  0  0  0  0  0  0  0  0
   -1.9863   22.2378  -23.7365 C   0  0  0  0  0  0  0  0  0  0  0  0
   -1.0721   21.9231  -22.7314 C   0  0  0  0  0  0  0  0  0  0  0  0
   -1.4501   21.7378  -21.4260 C   0  0  0  0  0  0  0  0  0  0  0  0
   -2.7889   21.8753  -21.1330 C   0  0  0  0  0  0  0  0  0  0  0  0
   -7.7690   22.3874  -20.8027 C   0  0  0  0  0  0  0  0  0  0  0  0
   -6.8448   21.5121  -20.2185 C   0  0  0  0  0  0  0  0  0  0  0  0
   -5.5627   21.4965  -20.6760 C   0  0  0  0  0  0  0  0  0  0  0  0
   -5.1174   22.3033  -21.6941 C   0  0  0  0  0  0  0  0  0  0  0  0
   -6.0012   23.1502  -22.2630 C   0  0  0  0  0  0  0  0  0  0  0  0
   -7.3423   23.2042  -21.8246 C   0  0  0  0  0  0  0  0  0  0  0  0
   -8.1779   24.0854  -22.4490 O   0  0  0  0  0  0  0  0  0  0  0  0
   -9.1115   24.3355  -22.3679 H   0  0  0  0  0  0  0  0  0  0  0  0
  -10.1110   23.3088  -20.5221 O   0  0  0  0  0  0  0  0  0  0  0  0
   -9.1371   22.3872  -20.3032 C   0  0  0  0  0  0  0  0  0  0  0  0
   -9.4823   21.3965  -19.5578 O   0  0  0  0  0  0  0  0  0  0  0  0
  -10.4033   24.0529  -19.9125 H   0  0  0  0  0  0  0  0  0  0  0  0
   -1.4578   22.4190  -25.0955 C   0  0  0  0  0  0  0  0  0  0  0  0
   -2.2804   22.5361  -26.1949 C   0  0  0  0  0  0  0  0  0  0  0  0
   -1.7601   22.7013  -27.4793 C   0  0  0  0  0  0  0  0  0  0  0  0
   -0.3999   22.7529  -27.6923 C   0  0  0  0  0  0  0  0  0  0  0  0
    0.1489   22.9101  -28.9231 F   0  0  0  0  0  0  0  0  0  0  0  0
    0.4266   22.6363  -26.5960 C   0  0  0  0  0  0  0  0  0  0  0  0
   -0.0982   22.4709  -25.3097 C   0  0  0  0  0  0  0  0  0  0  0  0
   -0.4636   21.4095  -20.4136 C   0  0  0  0  0  0  0  0  0  0  0  0
    0.3233   21.1684  -19.6002 N   0  0  0  0  0  0  0  0  0  0  0  0
 15 16  1  0  0  0
 16 17  2  0  0  0
 16  7  1  0  0  0
  7  8  2  0  0  0
  8  9  1  0  0  0
  9 10  2  0  0  0
 10 11  1  0  0  0
 11 12  2  0  0  0
 12 13  1  0  0  0
 10  1  1  0  0  0
  1  2  2  0  0  0
  2  3  1  0  0  0
  3  4  2  0  0  0
  4  5  1  0  0  0
  5  6  2  0  0  0
  5 26  1  0  0  0
 26 27  3  0  0  0
  3 19  1  0  0  0
 19 20  2  0  0  0
 20 21  1  0  0  0
 21 22  2  0  0  0
 22 23  1  0  0  0
 22 24  1  0  0  0
 24 25  2  0  0  0
 12  7  1  0  0  0
  6  1  1  0  0  0
 25 19  1  0  0  0
 15 18  1  0  0  0
 13 14  1  0  0  0
M  END
> <minimizedAffinity>
-7.26978

> <CNNscore>
0.3327111304

> <CNNaffinity>
5.3594064713

> <CNN_VS>
1.7831342220

> <CNNaffinity_variance>
0.0437022857

$$$$
[H]OC(=O)c1c([H])c([H])c(-c2c([H])c(C#N)c([H])c(-c3c([H])c([H])c(F)c([H])c3[H])c2[H])c([H])c1O[H]


 27 29  0  0  0  0  0  0  0  0999 V2000
   -1.9328   21.8825  -21.1485 C   0  0  0  0  0  0  0  0  0  0  0  0
   -1.9729   22.2192  -22.4672 C   0  0  0  0  0  0  0  0  0  0  0  0
   -0.9883   21.8266  -23.3299 C   0  0  0  0  0  0  0  0  0  0  0  0
    0.0671   21.0668  -22.8262 C   0  0  0  0  0  0  0  0  0  0  0  0
    0.1473   20.7051  -21.5055 C   0  0  0  0  0  0  0  0  0  0  0  0
   -0.8685   21.1248  -20.6753 C   0  0  0  0  0  0  0  0  0  0  0  0
   -4.8269   22.9526  -18.2147 C   0  0  0  0  0  0  0  0  0  0  0  0
   -3.5189   22.5929  -17.8664 C   0  0  0  0  0  0  0  0  0  0  0  0
   -2.6353   22.2655  -18.8489 C   0  0  0  0  0  0  0  0  0  0  0  0
   -2.9590   22.2681  -20.1834 C   0  0  0  0  0  0  0  0  0  0  0  0
   -4.2174   22.6137  -20.5284 C   0  0  0  0  0  0  0  0  0  0  0  0
   -5.1712   22.9613  -19.5470 C   0  0  0  0  0  0  0  0  0  0  0  0
   -6.4240   23.2988  -19.9726 O   0  0  0  0  0  0  0  0  0  0  0  0
   -7.2526   23.5716  -19.5488 H   0  0  0  0  0  0  0  0  0  0  0  0
   -6.7327   24.2436  -17.1593 O   0  0  0  0  0  0  0  0  0  0  0  0
   -5.7595   23.2956  -17.1500 C   0  0  0  0  0  0  0  0  0  0  0  0
   -5.6617   22.6262  -16.0552 O   0  0  0  0  0  0  0  0  0  0  0  0
   -6.6968   25.1673  -16.7640 H   0  0  0  0  0  0  0  0  0  0  0  0
   -0.9581   22.1564  -24.7615 C   0  0  0  0  0  0  0  0  0  0  0  0
   -2.1013   22.2038  -25.5295 C   0  0  0  0  0  0  0  0  0  0  0  0
   -2.0524   22.5126  -26.8897 C   0  0  0  0  0  0  0  0  0  0  0  0
   -0.8536   22.7817  -27.5132 C   0  0  0  0  0  0  0  0  0  0  0  0
   -0.7596   23.0842  -28.8324 F   0  0  0  0  0  0  0  0  0  0  0  0
    0.2921   22.7355  -26.7493 C   0  0  0  0  0  0  0  0  0  0  0  0
    0.2397   22.4257  -25.3859 C   0  0  0  0  0  0  0  0  0  0  0  0
    1.2639   19.9117  -21.0262 C   0  0  0  0  0  0  0  0  0  0  0  0
    2.1609   19.2960  -20.6322 N   0  0  0  0  0  0  0  0  0  0  0  0
 15 16  1  0  0  0
 16 17  2  0  0  0
 16  7  1  0  0  0
  7  8  2  0  0  0
  8  9  1  0  0  0
  9 10  2  0  0  0
 10 11  1  0  0  0
 11 12  2  0  0  0
 12 13  1  0  0  0
 10  1  1  0  0  0
  1  2  2  0  0  0
  2  3  1  0  0  0
  3  4  2  0  0  0
  4  5  1  0  0  0
  5  6  2  0  0  0
  5 26  1  0  0  0
 26 27  3  0  0  0
  3 19  1  0  0  0
 19 20  2  0  0  0
 20 21  1  0  0  0
 21 22  2  0  0  0
 22 23  1  0  0  0
 22 24  1  0  0  0
 24 25  2  0  0  0
 12  7  1  0  0  0
  6  1  1  0  0  0
 25 19  1  0  0  0
 15 18  1  0  0  0
 13 14  1  0  0  0
M  END
> <minimizedAffinity>
-7.18062

> <CNNscore>
0.2904763520

> <CNNaffinity>
5.1892008781

> <CNN_VS>
1.5073401928

> <CNNaffinity_variance>
0.0449996889

$$$$
[H]OC(=O)c1c([H])c([H])c(-c2c([H])c(C#N)c([H])c(-c3c([H])c([H])c(F)c([H])c3[H])c2[H])c([H])c1O[H]


 27 29  0  0  0  0  0  0  0  0999 V2000
   -5.4441   22.3608  -23.0565 C   0  0  0  0  0  0  0  0  0  0  0  0
   -4.2196   22.2131  -23.6335 C   0  0  0  0  0  0  0  0  0  0  0  0
   -3.9625   22.6961  -24.8858 C   0  0  0  0  0  0  0  0  0  0  0  0
   -4.9900   23.3496  -25.5657 C   0  0  0  0  0  0  0  0  0  0  0  0
   -6.2379   23.5207  -25.0226 C   0  0  0  0  0  0  0  0  0  0  0  0
   -6.4485   23.0163  -23.7583 C   0  0  0  0  0  0  0  0  0  0  0  0
   -6.2434   20.9165  -19.1319 C   0  0  0  0  0  0  0  0  0  0  0  0
   -4.9514   21.2704  -19.5408 C   0  0  0  0  0  0  0  0  0  0  0  0
   -4.7576   21.7314  -20.8069 C   0  0  0  0  0  0  0  0  0  0  0  0
   -5.7733   21.8715  -21.7203 C   0  0  0  0  0  0  0  0  0  0  0  0
   -7.0218   21.5330  -21.3349 C   0  0  0  0  0  0  0  0  0  0  0  0
   -7.2751   21.0495  -20.0327 C   0  0  0  0  0  0  0  0  0  0  0  0
   -8.5636   20.7268  -19.7162 O   0  0  0  0  0  0  0  0  0  0  0  0
   -9.0229   20.3853  -18.9332 H   0  0  0  0  0  0  0  0  0  0  0  0
   -7.4542   19.6710  -17.2893 O   0  0  0  0  0  0  0  0  0  0  0  0
   -6.4311   20.4212  -17.7753 C   0  0  0  0  0  0  0  0  0  0  0  0
   -5.5224   20.7250  -16.9159 O   0  0  0  0  0  0  0  0  0  0  0  0
   -8.2537   19.9844  -16.7664 H   0  0  0  0  0  0  0  0  0  0  0  0
   -2.6717   22.5693  -25.5763 C   0  0  0  0  0  0  0  0  0  0  0  0
   -1.5119   22.2346  -24.9116 C   0  0  0  0  0  0  0  0  0  0  0  0
   -0.2934   22.1249  -25.5833 C   0  0  0  0  0  0  0  0  0  0  0  0
   -0.2089   22.3487  -26.9402 C   0  0  0  0  0  0  0  0  0  0  0  0
    0.9541   22.2552  -27.6324 F   0  0  0  0  0  0  0  0  0  0  0  0
   -1.3660   22.6836  -27.6090 C   0  0  0  0  0  0  0  0  0  0  0  0
   -2.5859   22.7926  -26.9327 C   0  0  0  0  0  0  0  0  0  0  0  0
   -7.2764   24.2091  -25.7666 C   0  0  0  0  0  0  0  0  0  0  0  0
   -8.1096   24.7394  -26.3695 N   0  0  0  0  0  0  0  0  0  0  0  0
 15 16  1  0  0  0
 16 17  2  0  0  0
 16  7  1  0  0  0
  7  8  2  0  0  0
  8  9  1  0  0  0
  9 10  2  0  0  0
 10 11  1  0  0  0
 11 12  2  0  0  0
 12 13  1  0  0  0
 10  1  1  0  0  0
  1  2  2  0  0  0
  2  3  1  0  0  0
  3  4  2  0  0  0
  4  5  1  0  0  0
  5  6  2  0  0  0
  5 26  1  0  0  0
 26 27  3  0  0  0
  3 19  1  0  0  0
 19 20  2  0  0  0
 20 21  1  0  0  0
 21 22  2  0  0  0
 22 23  1  0  0  0
 22 24  1  0  0  0
 24 25  2  0  0  0
 12  7  1  0  0  0
  6  1  1  0  0  0
 25 19  1  0  0  0
 15 18  1  0  0  0
 13 14  1  0  0  0
M  END
> <minimizedAffinity>
-7.69077

> <CNNscore>
0.2832297087

> <CNNaffinity>
5.4711170197

> <CNN_VS>
1.5495828390

> <CNNaffinity_variance>
0.1488868892

$$$$
[H]OC(=O)c1c([H])c([H])c(-c2c([H])c(C#N)c([H])c(-c3c([H])c([H])c(F)c([H])c3[H])c2[H])c([H])c1O[H]


 27 29  0  0  0  0  0  0  0  0999 V2000
   -1.3988   22.4772  -21.0744 C   0  0  0  0  0  0  0  0  0  0  0  0
   -0.2655   22.6063  -20.3307 C   0  0  0  0  0  0  0  0  0  0  0  0
   -0.3110   22.6222  -18.9649 C   0  0  0  0  0  0  0  0  0  0  0  0
   -1.5540   22.5020  -18.3440 C   0  0  0  0  0  0  0  0  0  0  0  0
   -2.7203   22.3699  -19.0538 C   0  0  0  0  0  0  0  0  0  0  0  0
   -2.6230   22.3595  -20.4277 C   0  0  0  0  0  0  0  0  0  0  0  0
   -1.2747   22.3364  -25.3279 C   0  0  0  0  0  0  0  0  0  0  0  0
   -0.2722   21.7578  -24.5393 C   0  0  0  0  0  0  0  0  0  0  0  0
   -0.3684   21.8297  -23.1833 C   0  0  0  0  0  0  0  0  0  0  0  0
   -1.4094   22.4472  -22.5346 C   0  0  0  0  0  0  0  0  0  0  0  0
   -2.3803   23.0075  -23.2866 C   0  0  0  0  0  0  0  0  0  0  0  0
   -2.3265   22.9601  -24.6968 C   0  0  0  0  0  0  0  0  0  0  0  0
   -3.3447   23.5498  -25.3897 O   0  0  0  0  0  0  0  0  0  0  0  0
   -3.5706   23.6712  -26.3251 H   0  0  0  0  0  0  0  0  0  0  0  0
   -2.1344   22.3635  -27.7097 O   0  0  0  0  0  0  0  0  0  0  0  0
   -1.1529   22.2534  -26.7768 C   0  0  0  0  0  0  0  0  0  0  0  0
    0.0268   22.0492  -27.2490 O   0  0  0  0  0  0  0  0  0  0  0  0
   -2.6107   21.6218  -28.1933 H   0  0  0  0  0  0  0  0  0  0  0  0
    0.8652   22.7652  -18.0961 C   0  0  0  0  0  0  0  0  0  0  0  0
    0.9675   22.1169  -16.8843 C   0  0  0  0  0  0  0  0  0  0  0  0
    2.0900   22.2698  -16.0692 C   0  0  0  0  0  0  0  0  0  0  0  0
    3.1386   23.0780  -16.4506 C   0  0  0  0  0  0  0  0  0  0  0  0
    4.2472   23.2570  -15.6891 F   0  0  0  0  0  0  0  0  0  0  0  0
    3.0408   23.7283  -17.6613 C   0  0  0  0  0  0  0  0  0  0  0  0
    1.9142   23.5728  -18.4762 C   0  0  0  0  0  0  0  0  0  0  0  0
   -3.9914   22.2459  -18.3646 C   0  0  0  0  0  0  0  0  0  0  0  0
   -4.9955   22.1342  -17.8005 N   0  0  0  0  0  0  0  0  0  0  0  0
 15 16  1  0  0  0
 16 17  2  0  0  0
 16  7  1  0  0  0
  7  8  2  0  0  0
  8  9  1  0  0  0
  9 10  2  0  0  0
 10 11  1  0  0  0
 11 12  2  0  0  0
 12 13  1  0  0  0
 10  1  1  0  0  0
  1  2  2  0  0  0
  2  3  1  0  0  0
  3  4  2  0  0  0
  4  5  1  0  0  0
  5  6  2  0  0  0
  5 26  1  0  0  0
 26 27  3  0  0  0
  3 19  1  0  0  0
 19 20  2  0  0  0
 20 21  1  0  0  0
 21 22  2  0  0  0
 22 23  1  0  0  0
 22 24  1  0  0  0
 24 25  2  0  0  0
 12  7  1  0  0  0
  6  1  1  0  0  0
 25 19  1  0  0  0
 15 18  1  0  0  0
 13 14  1  0  0  0
M  END
> <minimizedAffinity>
-6.50122

> <CNNscore>
0.2809322774

> <CNNaffinity>
4.8364720345

> <CNN_VS>
1.3587211370

> <CNNaffinity_variance>
0.0535521507

$$$$
[H]OC(=O)c1c([H])c([H])c(-c2c([H])c(C#N)c([H])c(-c3c([H])c([H])c(F)c([H])c3[H])c2[H])c([H])c1O[H]


 27 29  0  0  0  0  0  0  0  0999 V2000
   -2.9623   22.7074  -24.8945 C   0  0  0  0  0  0  0  0  0  0  0  0
   -3.1743   23.1258  -26.1728 C   0  0  0  0  0  0  0  0  0  0  0  0
   -4.4143   23.5149  -26.5956 C   0  0  0  0  0  0  0  0  0  0  0  0
   -5.4668   23.4742  -25.6815 C   0  0  0  0  0  0  0  0  0  0  0  0
   -5.2983   23.0599  -24.3848 C   0  0  0  0  0  0  0  0  0  0  0  0
   -4.0304   22.6773  -24.0062 C   0  0  0  0  0  0  0  0  0  0  0  0
    0.8912   21.4757  -23.5676 C   0  0  0  0  0  0  0  0  0  0  0  0
    0.6583   21.8808  -24.8880 C   0  0  0  0  0  0  0  0  0  0  0  0
   -0.5942   22.2694  -25.2531 C   0  0  0  0  0  0  0  0  0  0  0  0
   -1.6592   22.2869  -24.3863 C   0  0  0  0  0  0  0  0  0  0  0  0
   -1.4440   21.8983  -23.1117 C   0  0  0  0  0  0  0  0  0  0  0  0
   -0.1632   21.4861  -22.6835 C   0  0  0  0  0  0  0  0  0  0  0  0
   -0.0231   21.1062  -21.3794 O   0  0  0  0  0  0  0  0  0  0  0  0
    0.7041   20.7889  -20.8216 H   0  0  0  0  0  0  0  0  0  0  0  0
    3.4210   21.5274  -23.6691 O   0  0  0  0  0  0  0  0  0  0  0  0
    2.2365   21.0594  -23.1961 C   0  0  0  0  0  0  0  0  0  0  0  0
    2.3324   20.1308  -22.3102 O   0  0  0  0  0  0  0  0  0  0  0  0
    4.0105   21.1146  -24.3710 H   0  0  0  0  0  0  0  0  0  0  0  0
   -4.7224   23.9706  -27.9581 C   0  0  0  0  0  0  0  0  0  0  0  0
   -5.2642   23.1329  -28.9087 C   0  0  0  0  0  0  0  0  0  0  0  0
   -5.5444   23.5818  -30.2002 C   0  0  0  0  0  0  0  0  0  0  0  0
   -5.2873   24.8840  -30.5697 C   0  0  0  0  0  0  0  0  0  0  0  0
   -5.5419   25.3620  -31.8137 F   0  0  0  0  0  0  0  0  0  0  0  0
   -4.7456   25.7253  -29.6225 C   0  0  0  0  0  0  0  0  0  0  0  0
   -4.4660   25.2721  -28.3287 C   0  0  0  0  0  0  0  0  0  0  0  0
   -6.4228   23.0357  -23.4678 C   0  0  0  0  0  0  0  0  0  0  0  0
   -7.3307   23.0285  -22.7504 N   0  0  0  0  0  0  0  0  0  0  0  0
 15 16  1  0  0  0
 16 17  2  0  0  0
 16  7  1  0  0  0
  7  8  2  0  0  0
  8  9  1  0  0  0
  9 10  2  0  0  0
 10 11  1  0  0  0
 11 12  2  0  0  0
 12 13  1  0  0  0
 10  1  1  0  0  0
  1  2  2  0  0  0
  2  3  1  0  0  0
  3  4  2  0  0  0
  4  5  1  0  0  0
  5  6  2  0  0  0
  5 26  1  0  0  0
 26 27  3  0  0  0
  3 19  1  0  0  0
 19 20  2  0  0  0
 20 21  1  0  0  0
 21 22  2  0  0  0
 22 23  1  0  0  0
 22 24  1  0  0  0
 24 25  2  0  0  0
 12  7  1  0  0  0
  6  1  1  0  0  0
 25 19  1  0  0  0
 15 18  1  0  0  0
 13 14  1  0  0  0
M  END
> <minimizedAffinity>
-9.49536

> <CNNscore>
0.2797548771

> <CNNaffinity>
5.7649383545

> <CNN_VS>
1.6127696037

> <CNNaffinity_variance>
0.0905455276

$$$$
[H]c1c([H])c([H])c(C([H])([H])[C@@]2([H])C(=O)N3C([H])([H])C([H])([H])C([H])([H])[C@@]3([H])C(=O)N([H])[C@@]([H])(C([H])([H])c3c([H])c([H])c([H])c([H])c3[H])C(=O)N([H])[C@]([H])(C([H])([H])c3c([H])n([H])c4c([H])c([H])c([H])c([H])c34)C(=O)N([H])[C@]([H])(C([H])([H])c3c([H])n([H])c4c([H])c([H])c([H])c([H])c34)C(=O)N([H])[C@@]([H])(C([H])([H])c3c([H])c([H])c([H])c([H])c3[H])C(=O)N([H])[C@@]([H])(C([H])(C([H])([H])[H])C([H])([H])[H])C(=O)N2[H])c([H])c1[H]


 83 91  0  0  0  0  0  0  0  0999 V2000
    1.3663   20.0447  -18.4807 C   0  0  0  0  0  0  0  0  0  0  0  0
    0.2777   19.6125  -19.2964 N   0  0  0  0  0  0  0  0  0  0  0  0
   -0.5900   20.2234  -20.1761 C   0  0  0  0  0  0  0  0  0  0  0  0
   -0.4464   19.8876  -21.4293 O   0  0  0  0  0  0  0  0  0  0  0  0
   -1.6839   21.2056  -19.9893 C   0  0  0  0  0  0  0  0  0  0  0  0
   -2.3898   21.1111  -18.7324 N   0  0  0  0  0  0  0  0  0  0  0  0
   -3.5678   20.4793  -18.3601 C   0  0  0  0  0  0  0  0  0  0  0  0
   -3.4833   19.4140  -17.6244 O   0  0  0  0  0  0  0  0  0  0  0  0
   -4.9882   20.8612  -18.6924 C   0  0  0  0  0  0  0  0  0  0  0  0
   -5.8970   19.8252  -18.2776 N   0  0  0  0  0  0  0  0  0  0  0  0
   -6.8419   19.8357  -17.2511 C   0  0  0  0  0  0  0  0  0  0  0  0
   -8.0149   19.4004  -17.5435 O   0  0  0  0  0  0  0  0  0  0  0  0
   -6.6545   20.2927  -15.8451 C   0  0  0  0  0  0  0  0  0  0  0  0
   -6.0388   21.5799  -15.7147 N   0  0  0  0  0  0  0  0  0  0  0  0
   -4.8750   22.0175  -15.1224 C   0  0  0  0  0  0  0  0  0  0  0  0
   -4.2892   23.0061  -15.7276 O   0  0  0  0  0  0  0  0  0  0  0  0
   -4.1483   21.5799  -13.9166 C   0  0  0  0  0  0  0  0  0  0  0  0
   -2.7974   22.1529  -13.8747 N   0  0  0  0  0  0  0  0  0  0  0  0
   -1.6839   21.5506  -13.2497 C   0  0  0  0  0  0  0  0  0  0  0  0
   -0.6597   22.2783  -13.1707 O   0  0  0  0  0  0  0  0  0  0  0  0
   -1.6872   20.2276  -12.7370 C   0  0  0  0  0  0  0  0  0  0  0  0
   -1.0318   20.1112  -11.3465 C   0  0  0  0  0  0  0  0  0  0  0  0
   -1.1352   18.6159  -11.1618 C   0  0  0  0  0  0  0  0  0  0  0  0
   -1.4638   18.0242  -12.5021 C   0  0  0  0  0  0  0  0  0  0  0  0
   -1.0788   19.1318  -13.4286 N   0  0  0  0  0  0  0  0  0  0  0  0
   -0.3787   19.0543  -14.6378 C   0  0  0  0  0  0  0  0  0  0  0  0
   -0.8678   18.1223  -15.4430 O   0  0  0  0  0  0  0  0  0  0  0  0
    0.7552   19.7377  -15.2448 C   0  0  0  0  0  0  0  0  0  0  0  0
    0.4064   20.7836  -16.1956 N   0  0  0  0  0  0  0  0  0  0  0  0
    1.0726   21.0200  -17.4192 C   0  0  0  0  0  0  0  0  0  0  0  0
    1.4634   22.2338  -17.6209 O   0  0  0  0  0  0  0  0  0  0  0  0
    0.1070   18.5346  -19.2022 H   0  0  0  0  0  0  0  0  0  0  0  0
   -1.8810   21.6301  -17.9446 H   0  0  0  0  0  0  0  0  0  0  0  0
   -5.7973   18.9219  -18.8398 H   0  0  0  0  0  0  0  0  0  0  0  0
   -6.6397   22.3500  -16.1953 H   0  0  0  0  0  0  0  0  0  0  0  0
   -2.7258   23.0924  -14.3714 H   0  0  0  0  0  0  0  0  0  0  0  0
   -0.4095   21.4466  -15.9971 H   0  0  0  0  0  0  0  0  0  0  0  0
    2.7879   19.4667  -20.3622 C   0  0  0  0  0  0  0  0  0  0  0  0
    2.6007   20.5050  -19.2484 C   0  0  0  0  0  0  0  0  0  0  0  0
    3.7857   20.3128  -18.3146 C   0  0  0  0  0  0  0  0  0  0  0  0
   -1.3122   22.6328  -20.3218 C   0  0  0  0  0  0  0  0  0  0  0  0
   -1.9647   23.1154  -21.5623 C   0  0  0  0  0  0  0  0  0  0  0  0
   -3.1243   23.8586  -21.5437 C   0  0  0  0  0  0  0  0  0  0  0  0
   -3.7539   24.3192  -22.7033 C   0  0  0  0  0  0  0  0  0  0  0  0
   -3.2148   24.0336  -23.9380 C   0  0  0  0  0  0  0  0  0  0  0  0
   -2.0586   23.2926  -23.9554 C   0  0  0  0  0  0  0  0  0  0  0  0
   -1.4393   22.8397  -22.8149 C   0  0  0  0  0  0  0  0  0  0  0  0
   -5.1494   21.1880  -20.1462 C   0  0  0  0  0  0  0  0  0  0  0  0
   -6.4046   21.8788  -20.4395 C   0  0  0  0  0  0  0  0  0  0  0  0
   -7.5312   21.2828  -20.9871 C   0  0  0  0  0  0  0  0  0  0  0  0
   -8.4747   22.2116  -21.1630 N   0  0  0  0  0  0  0  0  0  0  0  0
   -8.0154   23.4021  -20.7513 C   0  0  0  0  0  0  0  0  0  0  0  0
   -8.6143   24.6637  -20.7111 C   0  0  0  0  0  0  0  0  0  0  0  0
   -7.9387   25.7525  -20.2156 C   0  0  0  0  0  0  0  0  0  0  0  0
   -6.6621   25.5623  -19.7636 C   0  0  0  0  0  0  0  0  0  0  0  0
   -6.0794   24.3258  -19.8062 C   0  0  0  0  0  0  0  0  0  0  0  0
   -6.7075   23.1993  -20.2920 C   0  0  0  0  0  0  0  0  0  0  0  0
   -9.4336   22.0725  -21.5574 H   0  0  0  0  0  0  0  0  0  0  0  0
   -6.1031   19.2002  -14.9760 C   0  0  0  0  0  0  0  0  0  0  0  0
   -7.3010   18.5431  -14.3393 C   0  0  0  0  0  0  0  0  0  0  0  0
   -7.7613   17.2718  -14.5826 C   0  0  0  0  0  0  0  0  0  0  0  0
   -8.8603   17.0323  -13.8297 N   0  0  0  0  0  0  0  0  0  0  0  0
   -9.1356   18.1191  -13.0937 C   0  0  0  0  0  0  0  0  0  0  0  0
  -10.1418   18.3455  -12.1891 C   0  0  0  0  0  0  0  0  0  0  0  0
  -10.2083   19.5854  -11.5418 C   0  0  0  0  0  0  0  0  0  0  0  0
   -9.2411   20.5160  -11.8604 C   0  0  0  0  0  0  0  0  0  0  0  0
   -8.2293   20.2838  -12.7723 C   0  0  0  0  0  0  0  0  0  0  0  0
   -8.1708   19.0631  -13.4042 C   0  0  0  0  0  0  0  0  0  0  0  0
   -9.3902   16.1235  -13.8440 H   0  0  0  0  0  0  0  0  0  0  0  0
   -4.8182   22.0317  -12.6379 C   0  0  0  0  0  0  0  0  0  0  0  0
   -4.6963   21.0429  -11.5571 C   0  0  0  0  0  0  0  0  0  0  0  0
   -4.3498   21.4110  -10.2785 C   0  0  0  0  0  0  0  0  0  0  0  0
   -4.2298   20.4793   -9.2519 C   0  0  0  0  0  0  0  0  0  0  0  0
   -4.4599   19.1523   -9.5043 C   0  0  0  0  0  0  0  0  0  0  0  0
   -4.8080   18.7598  -10.7747 C   0  0  0  0  0  0  0  0  0  0  0  0
   -4.9214   19.7057  -11.7815 C   0  0  0  0  0  0  0  0  0  0  0  0
    1.9471   20.0674  -14.4252 C   0  0  0  0  0  0  0  0  0  0  0  0
    2.8451   18.9632  -14.0804 C   0  0  0  0  0  0  0  0  0  0  0  0
    3.6120   18.3378  -15.0653 C   0  0  0  0  0  0  0  0  0  0  0  0
    4.4839   17.3172  -14.7364 C   0  0  0  0  0  0  0  0  0  0  0  0
    4.6262   16.8861  -13.4454 C   0  0  0  0  0  0  0  0  0  0  0  0
    3.8850   17.4863  -12.4712 C   0  0  0  0  0  0  0  0  0  0  0  0
    3.0138   18.5084  -12.8089 C   0  0  0  0  0  0  0  0  0  0  0  0
 38 39  1  0  0  0
 39 40  1  0  0  0
 39  1  1  0  0  0
  1  2  1  0  0  0
  2  3  1  0  0  0
  3  4  2  0  0  0
  3  5  1  0  0  0
  5 41  1  0  0  0
 41 42  1  0  0  0
 42 43  2  0  0  0
 43 44  1  0  0  0
 44 45  2  0  0  0
 45 46  1  0  0  0
 46 47  2  0  0  0
  5  6  1  0  0  0
  6  7  1  0  0  0
  7  8  2  0  0  0
  7  9  1  0  0  0
  9 48  1  0  0  0
 48 49  1  0  0  0
 49 50  2  0  0  0
 50 51  1  0  0  0
 51 52  1  0  0  0
 52 53  2  0  0  0
 53 54  1  0  0  0
 54 55  2  0  0  0
 55 56  1  0  0  0
 56 57  2  0  0  0
  9 10  1  0  0  0
 10 11  1  0  0  0
 11 12  2  0  0  0
 11 13  1  0  0  0
 13 59  1  0  0  0
 59 60  1  0  0  0
 60 61  2  0  0  0
 61 62  1  0  0  0
 62 63  1  0  0  0
 63 64  2  0  0  0
 64 65  1  0  0  0
 65 66  2  0  0  0
 66 67  1  0  0  0
 67 68  2  0  0  0
 13 14  1  0  0  0
 14 15  1  0  0  0
 15 16  2  0  0  0
 15 17  1  0  0  0
 17 70  1  0  0  0
 70 71  1  0  0  0
 71 72  2  0  0  0
 72 73  1  0  0  0
 73 74  2  0  0  0
 74 75  1  0  0  0
 75 76  2  0  0  0
 17 18  1  0  0  0
 18 19  1  0  0  0
 19 20  2  0  0  0
 19 21  1  0  0  0
 21 22  1  0  0  0
 22 23  1  0  0  0
 23 24  1  0  0  0
 24 25  1  0  0  0
 25 26  1  0  0  0
 26 27  2  0  0  0
 26 28  1  0  0  0
 28 77  1  0  0  0
 77 78  1  0  0  0
 78 79  2  0  0  0
 79 80  1  0  0  0
 80 81  2  0  0  0
 81 82  1  0  0  0
 82 83  2  0  0  0
 28 29  1  0  0  0
 29 30  1  0  0  0
 30 31  2  0  0  0
 30  1  1  0  0  0
 47 42  1  0  0  0
 57 49  1  0  0  0
 68 60  1  0  0  0
 76 71  1  0  0  0
 25 21  1  0  0  0
 83 78  1  0  0  0
 57 52  1  0  0  0
 68 63  1  0  0  0
  2 32  1  0  0  0
  6 33  1  0  0  0
 51 58  1  0  0  0
 10 34  1  0  0  0
 62 69  1  0  0  0
 14 35  1  0  0  0
 18 36  1  0  0  0
 29 37  1  0  0  0
M  END
> <minimizedAffinity>
-5.75010

> <CNNscore>
0.3770453334

> <CNNaffinity>
8.0281124115

> <CNN_VS>
3.0269622803

> <CNNaffinity_variance>
4.3374204636

$$$$
[H]c1c([H])c([H])c(C([H])([H])[C@@]2([H])C(=O)N3C([H])([H])C([H])([H])C([H])([H])[C@@]3([H])C(=O)N([H])[C@@]([H])(C([H])([H])c3c([H])c([H])c([H])c([H])c3[H])C(=O)N([H])[C@]([H])(C([H])([H])c3c([H])n([H])c4c([H])c([H])c([H])c([H])c34)C(=O)N([H])[C@]([H])(C([H])([H])c3c([H])n([H])c4c([H])c([H])c([H])c([H])c34)C(=O)N([H])[C@@]([H])(C([H])([H])c3c([H])c([H])c([H])c([H])c3[H])C(=O)N([H])[C@@]([H])(C([H])(C([H])([H])[H])C([H])([H])[H])C(=O)N2[H])c([H])c1[H]


 83 91  0  0  0  0  0  0  0  0999 V2000
   -4.6339   21.5823  -20.6930 C   0  0  0  0  0  0  0  0  0  0  0  0
   -5.1044   20.4495  -19.9631 N   0  0  0  0  0  0  0  0  0  0  0  0
   -5.7758   20.2602  -18.7743 C   0  0  0  0  0  0  0  0  0  0  0  0
   -6.9931   19.8018  -18.8848 O   0  0  0  0  0  0  0  0  0  0  0  0
   -5.3914   20.4708  -17.3586 C   0  0  0  0  0  0  0  0  0  0  0  0
   -3.9915   20.2704  -17.0632 N   0  0  0  0  0  0  0  0  0  0  0  0
   -3.2791   19.1847  -16.5741 C   0  0  0  0  0  0  0  0  0  0  0  0
   -2.5083   18.5403  -17.3949 O   0  0  0  0  0  0  0  0  0  0  0  0
   -3.2628   18.6203  -15.1759 C   0  0  0  0  0  0  0  0  0  0  0  0
   -2.5470   17.3721  -15.1465 N   0  0  0  0  0  0  0  0  0  0  0  0
   -1.3157   17.0717  -14.5632 C   0  0  0  0  0  0  0  0  0  0  0  0
   -1.2601   16.0021  -13.8534 O   0  0  0  0  0  0  0  0  0  0  0  0
   -0.0463   17.8456  -14.6653 C   0  0  0  0  0  0  0  0  0  0  0  0
   -0.1813   19.2478  -14.4027 N   0  0  0  0  0  0  0  0  0  0  0  0
    0.0541   20.3788  -15.1524 C   0  0  0  0  0  0  0  0  0  0  0  0
   -0.7580   21.3666  -14.9255 O   0  0  0  0  0  0  0  0  0  0  0  0
    1.0623   20.6979  -16.1797 C   0  0  0  0  0  0  0  0  0  0  0  0
    0.7087   21.9232  -16.9068 N   0  0  0  0  0  0  0  0  0  0  0  0
    1.0710   22.2024  -18.2425 C   0  0  0  0  0  0  0  0  0  0  0  0
    0.8252   23.3759  -18.6265 O   0  0  0  0  0  0  0  0  0  0  0  0
    1.6700   21.2546  -19.1119 C   0  0  0  0  0  0  0  0  0  0  0  0
    2.8491   21.8301  -19.9214 C   0  0  0  0  0  0  0  0  0  0  0  0
    3.1718   20.6176  -20.7619 C   0  0  0  0  0  0  0  0  0  0  0  0
    2.0128   19.6709  -20.6398 C   0  0  0  0  0  0  0  0  0  0  0  0
    0.9338   20.5717  -20.1320 N   0  0  0  0  0  0  0  0  0  0  0  0
   -0.4051   20.6416  -20.5331 C   0  0  0  0  0  0  0  0  0  0  0  0
   -0.9806   19.4485  -20.5743 O   0  0  0  0  0  0  0  0  0  0  0  0
   -1.3361   21.6930  -20.9188 C   0  0  0  0  0  0  0  0  0  0  0  0
   -2.2444   22.1272  -19.8671 N   0  0  0  0  0  0  0  0  0  0  0  0
   -3.6132   22.4258  -20.0520 C   0  0  0  0  0  0  0  0  0  0  0  0
   -4.0042   23.5712  -19.6026 O   0  0  0  0  0  0  0  0  0  0  0  0
   -4.8844   19.5131  -20.4870 H   0  0  0  0  0  0  0  0  0  0  0  0
   -3.4053   21.1409  -17.2810 H   0  0  0  0  0  0  0  0  0  0  0  0
   -3.0426   16.5851  -15.6727 H   0  0  0  0  0  0  0  0  0  0  0  0
   -0.5500   19.4216  -13.3932 H   0  0  0  0  0  0  0  0  0  0  0  0
    0.1377   22.6065  -16.3224 H   0  0  0  0  0  0  0  0  0  0  0  0
   -1.8952   22.2414  -18.8622 H   0  0  0  0  0  0  0  0  0  0  0  0
   -6.7824   21.5121  -21.8218 C   0  0  0  0  0  0  0  0  0  0  0  0
   -5.7280   22.4773  -21.2648 C   0  0  0  0  0  0  0  0  0  0  0  0
   -5.1294   23.1665  -22.4813 C   0  0  0  0  0  0  0  0  0  0  0  0
   -5.9203   21.7476  -16.7458 C   0  0  0  0  0  0  0  0  0  0  0  0
   -6.8119   21.4954  -15.5886 C   0  0  0  0  0  0  0  0  0  0  0  0
   -7.0053   22.4255  -14.5911 C   0  0  0  0  0  0  0  0  0  0  0  0
   -7.8398   22.2033  -13.4923 C   0  0  0  0  0  0  0  0  0  0  0  0
   -8.5145   21.0088  -13.3719 C   0  0  0  0  0  0  0  0  0  0  0  0
   -8.3211   20.0823  -14.3670 C   0  0  0  0  0  0  0  0  0  0  0  0
   -7.5004   20.3008  -15.4478 C   0  0  0  0  0  0  0  0  0  0  0  0
   -4.6469   18.4767  -14.6192 C   0  0  0  0  0  0  0  0  0  0  0  0
   -4.8210   19.1636  -13.3399 C   0  0  0  0  0  0  0  0  0  0  0  0
   -5.4438   18.6222  -12.2249 C   0  0  0  0  0  0  0  0  0  0  0  0
   -5.4681   19.5363  -11.2514 N   0  0  0  0  0  0  0  0  0  0  0  0
   -4.8833   20.6643  -11.6796 C   0  0  0  0  0  0  0  0  0  0  0  0
   -4.6461   21.8852  -11.0433 C   0  0  0  0  0  0  0  0  0  0  0  0
   -3.9958   22.9069  -11.6918 C   0  0  0  0  0  0  0  0  0  0  0  0
   -3.5887   22.6911  -12.9794 C   0  0  0  0  0  0  0  0  0  0  0  0
   -3.8243   21.4947  -13.5988 C   0  0  0  0  0  0  0  0  0  0  0  0
   -4.4712   20.4359  -12.9989 C   0  0  0  0  0  0  0  0  0  0  0  0
   -5.8712   19.4282  -10.2921 H   0  0  0  0  0  0  0  0  0  0  0  0
    0.7347   17.4706  -15.8910 C   0  0  0  0  0  0  0  0  0  0  0  0
    2.0125   16.8511  -15.3854 C   0  0  0  0  0  0  0  0  0  0  0  0
    2.9074   17.4207  -14.5124 C   0  0  0  0  0  0  0  0  0  0  0  0
    3.9362   16.5690  -14.2928 N   0  0  0  0  0  0  0  0  0  0  0  0
    3.7395   15.4482  -15.0025 C   0  0  0  0  0  0  0  0  0  0  0  0
    4.5046   14.3135  -15.0975 C   0  0  0  0  0  0  0  0  0  0  0  0
    4.0695   13.2666  -15.9195 C   0  0  0  0  0  0  0  0  0  0  0  0
    2.8789   13.4462  -16.5927 C   0  0  0  0  0  0  0  0  0  0  0  0
    2.1113   14.5909  -16.4941 C   0  0  0  0  0  0  0  0  0  0  0  0
    2.5456   15.6151  -15.6845 C   0  0  0  0  0  0  0  0  0  0  0  0
    4.7464   16.7850  -13.6573 H   0  0  0  0  0  0  0  0  0  0  0  0
    2.4307   20.9588  -15.5903 C   0  0  0  0  0  0  0  0  0  0  0  0
    2.3731   21.7759  -14.3698 C   0  0  0  0  0  0  0  0  0  0  0  0
    2.1956   23.1383  -14.4217 C   0  0  0  0  0  0  0  0  0  0  0  0
    2.1433   23.9175  -13.2700 C   0  0  0  0  0  0  0  0  0  0  0  0
    2.2704   23.3270  -12.0400 C   0  0  0  0  0  0  0  0  0  0  0  0
    2.4483   21.9662  -11.9625 C   0  0  0  0  0  0  0  0  0  0  0  0
    2.4974   21.2103  -13.1232 C   0  0  0  0  0  0  0  0  0  0  0  0
   -0.8806   22.8028  -21.7918 C   0  0  0  0  0  0  0  0  0  0  0  0
   -0.8030   22.5317  -23.2288 C   0  0  0  0  0  0  0  0  0  0  0  0
   -1.9038   22.7638  -24.0555 C   0  0  0  0  0  0  0  0  0  0  0  0
   -1.8220   22.5390  -25.4167 C   0  0  0  0  0  0  0  0  0  0  0  0
   -0.6697   22.0849  -25.9987 C   0  0  0  0  0  0  0  0  0  0  0  0
    0.4149   21.8534  -25.2058 C   0  0  0  0  0  0  0  0  0  0  0  0
    0.3249   22.0813  -23.8429 C   0  0  0  0  0  0  0  0  0  0  0  0
 38 39  1  0  0  0
 39 40  1  0  0  0
 39  1  1  0  0  0
  1  2  1  0  0  0
  2  3  1  0  0  0
  3  4  2  0  0  0
  3  5  1  0  0  0
  5 41  1  0  0  0
 41 42  1  0  0  0
 42 43  2  0  0  0
 43 44  1  0  0  0
 44 45  2  0  0  0
 45 46  1  0  0  0
 46 47  2  0  0  0
  5  6  1  0  0  0
  6  7  1  0  0  0
  7  8  2  0  0  0
  7  9  1  0  0  0
  9 48  1  0  0  0
 48 49  1  0  0  0
 49 50  2  0  0  0
 50 51  1  0  0  0
 51 52  1  0  0  0
 52 53  2  0  0  0
 53 54  1  0  0  0
 54 55  2  0  0  0
 55 56  1  0  0  0
 56 57  2  0  0  0
  9 10  1  0  0  0
 10 11  1  0  0  0
 11 12  2  0  0  0
 11 13  1  0  0  0
 13 59  1  0  0  0
 59 60  1  0  0  0
 60 61  2  0  0  0
 61 62  1  0  0  0
 62 63  1  0  0  0
 63 64  2  0  0  0
 64 65  1  0  0  0
 65 66  2  0  0  0
 66 67  1  0  0  0
 67 68  2  0  0  0
 13 14  1  0  0  0
 14 15  1  0  0  0
 15 16  2  0  0  0
 15 17  1  0  0  0
 17 70  1  0  0  0
 70 71  1  0  0  0
 71 72  2  0  0  0
 72 73  1  0  0  0
 73 74  2  0  0  0
 74 75  1  0  0  0
 75 76  2  0  0  0
 17 18  1  0  0  0
 18 19  1  0  0  0
 19 20  2  0  0  0
 19 21  1  0  0  0
 21 22  1  0  0  0
 22 23  1  0  0  0
 23 24  1  0  0  0
 24 25  1  0  0  0
 25 26  1  0  0  0
 26 27  2  0  0  0
 26 28  1  0  0  0
 28 77  1  0  0  0
 77 78  1  0  0  0
 78 79  2  0  0  0
 79 80  1  0  0  0
 80 81  2  0  0  0
 81 82  1  0  0  0
 82 83  2  0  0  0
 28 29  1  0  0  0
 29 30  1  0  0  0
 30 31  2  0  0  0
 30  1  1  0  0  0
 47 42  1  0  0  0
 57 49  1  0  0  0
 68 60  1  0  0  0
 76 71  1  0  0  0
 25 21  1  0  0  0
 83 78  1  0  0  0
 57 52  1  0  0  0
 68 63  1  0  0  0
  2 32  1  0  0  0
  6 33  1  0  0  0
 51 58  1  0  0  0
 10 34  1  0  0  0
 62 69  1  0  0  0
 14 35  1  0  0  0
 18 36  1  0  0  0
 29 37  1  0  0  0
M  END
> <minimizedAffinity>
-6.29858

> <CNNscore>
0.2911401093

> <CNNaffinity>
7.6178917885

> <CNN_VS>
2.2178738117

> <CNNaffinity_variance>
1.5524889231

$$$$
[H]c1c([H])c([H])c(C([H])([H])[C@@]2([H])C(=O)N3C([H])([H])C([H])([H])C([H])([H])[C@@]3([H])C(=O)N([H])[C@@]([H])(C([H])([H])c3c([H])c([H])c([H])c([H])c3[H])C(=O)N([H])[C@]([H])(C([H])([H])c3c([H])n([H])c4c([H])c([H])c([H])c([H])c34)C(=O)N([H])[C@]([H])(C([H])([H])c3c([H])n([H])c4c([H])c([H])c([H])c([H])c34)C(=O)N([H])[C@@]([H])(C([H])([H])c3c([H])c([H])c([H])c([H])c3[H])C(=O)N([H])[C@@]([H])(C([H])(C([H])([H])[H])C([H])([H])[H])C(=O)N2[H])c([H])c1[H]


 83 91  0  0  0  0  0  0  0  0999 V2000
    1.8270   19.6875  -18.4100 C   0  0  0  0  0  0  0  0  0  0  0  0
    0.7175   19.1990  -19.1632 N   0  0  0  0  0  0  0  0  0  0  0  0
   -0.1697   19.7443  -20.0663 C   0  0  0  0  0  0  0  0  0  0  0  0
   -0.0579   19.3119  -21.2929 O   0  0  0  0  0  0  0  0  0  0  0  0
   -1.2557   20.7435  -19.9297 C   0  0  0  0  0  0  0  0  0  0  0  0
   -1.9308   20.7499  -18.6525 N   0  0  0  0  0  0  0  0  0  0  0  0
   -3.1013   20.1547  -18.2040 C   0  0  0  0  0  0  0  0  0  0  0  0
   -3.0020   19.1491  -17.3903 O   0  0  0  0  0  0  0  0  0  0  0  0
   -4.5282   20.5168  -18.5304 C   0  0  0  0  0  0  0  0  0  0  0  0
   -5.4297   19.5205  -18.0147 N   0  0  0  0  0  0  0  0  0  0  0  0
   -6.3492   19.6151  -16.9696 C   0  0  0  0  0  0  0  0  0  0  0  0
   -7.5303   19.1642  -17.1989 O   0  0  0  0  0  0  0  0  0  0  0  0
   -6.1260   20.1784  -15.6081 C   0  0  0  0  0  0  0  0  0  0  0  0
   -5.5033   21.4689  -15.5927 N   0  0  0  0  0  0  0  0  0  0  0  0
   -4.3239   21.9452  -15.0644 C   0  0  0  0  0  0  0  0  0  0  0  0
   -3.7501   22.8810  -15.7584 O   0  0  0  0  0  0  0  0  0  0  0  0
   -3.5693   21.5985  -13.8463 C   0  0  0  0  0  0  0  0  0  0  0  0
   -2.2159   22.1664  -13.8817 N   0  0  0  0  0  0  0  0  0  0  0  0
   -1.0894   21.6086  -13.2390 C   0  0  0  0  0  0  0  0  0  0  0  0
   -0.0613   22.3351  -13.2415 O   0  0  0  0  0  0  0  0  0  0  0  0
   -1.0841   20.3293  -12.6255 C   0  0  0  0  0  0  0  0  0  0  0  0
   -0.3952   20.3175  -11.2464 C   0  0  0  0  0  0  0  0  0  0  0  0
   -0.4986   18.8415  -10.9440 C   0  0  0  0  0  0  0  0  0  0  0  0
   -0.8618   18.1495  -12.2261 C   0  0  0  0  0  0  0  0  0  0  0  0
   -0.4962   19.1803  -13.2447 N   0  0  0  0  0  0  0  0  0  0  0  0
    0.1737   19.0061  -14.4609 C   0  0  0  0  0  0  0  0  0  0  0  0
   -0.3379   18.0169  -15.1794 O   0  0  0  0  0  0  0  0  0  0  0  0
    1.2945   19.6348  -15.1462 C   0  0  0  0  0  0  0  0  0  0  0  0
    0.9258   20.6057  -16.1664 N   0  0  0  0  0  0  0  0  0  0  0  0
    1.5625   20.7435  -17.4205 C   0  0  0  0  0  0  0  0  0  0  0  0
    1.9520   21.9362  -17.7249 O   0  0  0  0  0  0  0  0  0  0  0  0
    0.5458   18.1325  -18.9817 H   0  0  0  0  0  0  0  0  0  0  0  0
   -1.4013   21.3258  -17.9198 H   0  0  0  0  0  0  0  0  0  0  0  0
   -5.3467   18.5759  -18.5075 H   0  0  0  0  0  0  0  0  0  0  0  0
   -6.1134   22.2024  -16.1169 H   0  0  0  0  0  0  0  0  0  0  0  0
   -2.1537   23.0642  -14.4512 H   0  0  0  0  0  0  0  0  0  0  0  0
    0.1170   21.2862  -16.0002 H   0  0  0  0  0  0  0  0  0  0  0  0
    4.2451   19.4861  -18.4949 C   0  0  0  0  0  0  0  0  0  0  0  0
    3.0436   20.0810  -19.2407 C   0  0  0  0  0  0  0  0  0  0  0  0
    3.1901   21.5886  -19.1037 C   0  0  0  0  0  0  0  0  0  0  0  0
   -0.8879   22.1388  -20.3806 C   0  0  0  0  0  0  0  0  0  0  0  0
   -1.6048   22.5450  -21.6129 C   0  0  0  0  0  0  0  0  0  0  0  0
   -2.1780   23.7894  -21.7555 C   0  0  0  0  0  0  0  0  0  0  0  0
   -2.8595   24.1877  -22.9089 C   0  0  0  0  0  0  0  0  0  0  0  0
   -2.9812   23.3185  -23.9701 C   0  0  0  0  0  0  0  0  0  0  0  0
   -2.4093   22.0782  -23.8269 C   0  0  0  0  0  0  0  0  0  0  0  0
   -1.7389   21.6864  -22.6927 C   0  0  0  0  0  0  0  0  0  0  0  0
   -4.7240   20.7309  -20.0008 C   0  0  0  0  0  0  0  0  0  0  0  0
   -5.2472   22.0591  -20.3188 C   0  0  0  0  0  0  0  0  0  0  0  0
   -5.3292   23.1165  -19.4248 C   0  0  0  0  0  0  0  0  0  0  0  0
   -5.8966   24.1607  -20.0345 N   0  0  0  0  0  0  0  0  0  0  0  0
   -6.1933   23.8348  -21.3008 C   0  0  0  0  0  0  0  0  0  0  0  0
   -6.7722   24.5719  -22.3368 C   0  0  0  0  0  0  0  0  0  0  0  0
   -6.9594   24.0188  -23.5804 C   0  0  0  0  0  0  0  0  0  0  0  0
   -6.5617   22.7243  -23.7715 C   0  0  0  0  0  0  0  0  0  0  0  0
   -5.9968   22.0062  -22.7540 C   0  0  0  0  0  0  0  0  0  0  0  0
   -5.7851   22.5078  -21.4879 C   0  0  0  0  0  0  0  0  0  0  0  0
   -6.0960   25.1017  -19.6231 H   0  0  0  0  0  0  0  0  0  0  0  0
   -5.5567   19.1538  -14.6706 C   0  0  0  0  0  0  0  0  0  0  0  0
   -6.7454   18.4684  -14.0466 C   0  0  0  0  0  0  0  0  0  0  0  0
   -7.0373   17.1271  -14.1014 C   0  0  0  0  0  0  0  0  0  0  0  0
   -8.1861   16.8819  -13.4290 N   0  0  0  0  0  0  0  0  0  0  0  0
   -8.6593   18.0336  -12.9307 C   0  0  0  0  0  0  0  0  0  0  0  0
   -9.7835   18.2809  -12.1844 C   0  0  0  0  0  0  0  0  0  0  0  0
  -10.0563   19.5935  -11.7800 C   0  0  0  0  0  0  0  0  0  0  0  0
   -9.1617   20.5708  -12.1644 C   0  0  0  0  0  0  0  0  0  0  0  0
   -8.0306   20.3173  -12.9163 C   0  0  0  0  0  0  0  0  0  0  0  0
   -7.7695   19.0250  -13.3098 C   0  0  0  0  0  0  0  0  0  0  0  0
   -8.6118   15.9247  -13.3316 H   0  0  0  0  0  0  0  0  0  0  0  0
   -4.2062   22.1511  -12.5906 C   0  0  0  0  0  0  0  0  0  0  0  0
   -4.6681   21.0939  -11.6798 C   0  0  0  0  0  0  0  0  0  0  0  0
   -4.1934   19.8066  -11.7693 C   0  0  0  0  0  0  0  0  0  0  0  0
   -4.6290   18.8008  -10.9120 C   0  0  0  0  0  0  0  0  0  0  0  0
   -5.5575   19.0833   -9.9446 C   0  0  0  0  0  0  0  0  0  0  0  0
   -6.0467   20.3631   -9.8352 C   0  0  0  0  0  0  0  0  0  0  0  0
   -5.5982   21.3487  -10.7004 C   0  0  0  0  0  0  0  0  0  0  0  0
    2.5072   20.0210  -14.3837 C   0  0  0  0  0  0  0  0  0  0  0  0
    3.2371   21.2032  -14.8465 C   0  0  0  0  0  0  0  0  0  0  0  0
    2.7588   22.4856  -14.5712 C   0  0  0  0  0  0  0  0  0  0  0  0
    3.4632   23.6025  -14.9792 C   0  0  0  0  0  0  0  0  0  0  0  0
    4.6444   23.4933  -15.6617 C   0  0  0  0  0  0  0  0  0  0  0  0
    5.1259   22.2482  -15.9384 C   0  0  0  0  0  0  0  0  0  0  0  0
    4.4142   21.1343  -15.5259 C   0  0  0  0  0  0  0  0  0  0  0  0
 38 39  1  0  0  0
 39 40  1  0  0  0
 39  1  1  0  0  0
  1  2  1  0  0  0
  2  3  1  0  0  0
  3  4  2  0  0  0
  3  5  1  0  0  0
  5 41  1  0  0  0
 41 42  1  0  0  0
 42 43  2  0  0  0
 43 44  1  0  0  0
 44 45  2  0  0  0
 45 46  1  0  0  0
 46 47  2  0  0  0
  5  6  1  0  0  0
  6  7  1  0  0  0
  7  8  2  0  0  0
  7  9  1  0  0  0
  9 48  1  0  0  0
 48 49  1  0  0  0
 49 50  2  0  0  0
 50 51  1  0  0  0
 51 52  1  0  0  0
 52 53  2  0  0  0
 53 54  1  0  0  0
 54 55  2  0  0  0
 55 56  1  0  0  0
 56 57  2  0  0  0
  9 10  1  0  0  0
 10 11  1  0  0  0
 11 12  2  0  0  0
 11 13  1  0  0  0
 13 59  1  0  0  0
 59 60  1  0  0  0
 60 61  2  0  0  0
 61 62  1  0  0  0
 62 63  1  0  0  0
 63 64  2  0  0  0
 64 65  1  0  0  0
 65 66  2  0  0  0
 66 67  1  0  0  0
 67 68  2  0  0  0
 13 14  1  0  0  0
 14 15  1  0  0  0
 15 16  2  0  0  0
 15 17  1  0  0  0
 17 70  1  0  0  0
 70 71  1  0  0  0
 71 72  2  0  0  0
 72 73  1  0  0  0
 73 74  2  0  0  0
 74 75  1  0  0  0
 75 76  2  0  0  0
 17 18  1  0  0  0
 18 19  1  0  0  0
 19 20  2  0  0  0
 19 21  1  0  0  0
 21 22  1  0  0  0
 22 23  1  0  0  0
 23 24  1  0  0  0
 24 25  1  0  0  0
 25 26  1  0  0  0
 26 27  2  0  0  0
 26 28  1  0  0  0
 28 77  1  0  0  0
 77 78  1  0  0  0
 78 79  2  0  0  0
 79 80  1  0  0  0
 80 81  2  0  0  0
 81 82  1  0  0  0
 82 83  2  0  0  0
 28 29  1  0  0  0
 29 30  1  0  0  0
 30 31  2  0  0  0
 30  1  1  0  0  0
 47 42  1  0  0  0
 57 49  1  0  0  0
 68 60  1  0  0  0
 76 71  1  0  0  0
 25 21  1  0  0  0
 83 78  1  0  0  0
 57 52  1  0  0  0
 68 63  1  0  0  0
  2 32  1  0  0  0
  6 33  1  0  0  0
 51 58  1  0  0  0
 10 34  1  0  0  0
 62 69  1  0  0  0
 14 35  1  0  0  0
 18 36  1  0  0  0
 29 37  1  0  0  0
M  END
> <minimizedAffinity>
-6.51743

> <CNNscore>
0.2395900488

> <CNNaffinity>
7.5058755875

> <CNN_VS>
1.7983330488

> <CNNaffinity_variance>
1.2760027647

$$$$
[H]c1c([H])c([H])c(C([H])([H])[C@@]2([H])C(=O)N3C([H])([H])C([H])([H])C([H])([H])[C@@]3([H])C(=O)N([H])[C@@]([H])(C([H])([H])c3c([H])c([H])c([H])c([H])c3[H])C(=O)N([H])[C@]([H])(C([H])([H])c3c([H])n([H])c4c([H])c([H])c([H])c([H])c34)C(=O)N([H])[C@]([H])(C([H])([H])c3c([H])n([H])c4c([H])c([H])c([H])c([H])c34)C(=O)N([H])[C@@]([H])(C([H])([H])c3c([H])c([H])c([H])c([H])c3[H])C(=O)N([H])[C@@]([H])(C([H])(C([H])([H])[H])C([H])([H])[H])C(=O)N2[H])c([H])c1[H]


 83 91  0  0  0  0  0  0  0  0999 V2000
    0.8032   19.8258  -17.7322 C   0  0  0  0  0  0  0  0  0  0  0  0
   -0.1074   19.3748  -18.7346 N   0  0  0  0  0  0  0  0  0  0  0  0
   -0.7206   19.9456  -19.8292 C   0  0  0  0  0  0  0  0  0  0  0  0
   -0.3296   19.4937  -20.9898 O   0  0  0  0  0  0  0  0  0  0  0  0
   -1.7621   20.9911  -19.9658 C   0  0  0  0  0  0  0  0  0  0  0  0
   -2.7296   21.0416  -18.8942 N   0  0  0  0  0  0  0  0  0  0  0  0
   -3.9992   20.5015  -18.7466 C   0  0  0  0  0  0  0  0  0  0  0  0
   -4.1471   19.5029  -17.9318 O   0  0  0  0  0  0  0  0  0  0  0  0
   -5.2849   20.9190  -19.4149 C   0  0  0  0  0  0  0  0  0  0  0  0
   -6.3281   19.9678  -19.1353 N   0  0  0  0  0  0  0  0  0  0  0  0
   -7.4713   20.1138  -18.3489 C   0  0  0  0  0  0  0  0  0  0  0  0
   -8.5783   19.7101  -18.8611 O   0  0  0  0  0  0  0  0  0  0  0  0
   -7.5654   20.6842  -16.9753 C   0  0  0  0  0  0  0  0  0  0  0  0
   -6.9098   21.9475  -16.8093 N   0  0  0  0  0  0  0  0  0  0  0  0
   -5.8769   22.3805  -16.0078 C   0  0  0  0  0  0  0  0  0  0  0  0
   -5.1098   23.2828  -16.5407 O   0  0  0  0  0  0  0  0  0  0  0  0
   -5.4608   22.0176  -14.6407 C   0  0  0  0  0  0  0  0  0  0  0  0
   -4.1169   22.5278  -14.3428 N   0  0  0  0  0  0  0  0  0  0  0  0
   -3.2084   21.9313  -13.4416 C   0  0  0  0  0  0  0  0  0  0  0  0
   -2.1806   22.6141  -13.1921 O   0  0  0  0  0  0  0  0  0  0  0  0
   -3.4101   20.6606  -12.8435 C   0  0  0  0  0  0  0  0  0  0  0  0
   -3.0826   20.6371  -11.3373 C   0  0  0  0  0  0  0  0  0  0  0  0
   -3.3215   19.1706  -11.0671 C   0  0  0  0  0  0  0  0  0  0  0  0
   -3.3881   18.4786  -12.3980 C   0  0  0  0  0  0  0  0  0  0  0  0
   -2.7387   19.4804  -13.2969 N   0  0  0  0  0  0  0  0  0  0  0  0
   -1.7986   19.2632  -14.3105 C   0  0  0  0  0  0  0  0  0  0  0  0
   -2.1604   18.2875  -15.1312 O   0  0  0  0  0  0  0  0  0  0  0  0
   -0.5173   19.8359  -14.6998 C   0  0  0  0  0  0  0  0  0  0  0  0
   -0.5811   20.8087  -15.7811 N   0  0  0  0  0  0  0  0  0  0  0  0
    0.3498   20.9041  -16.8401 C   0  0  0  0  0  0  0  0  0  0  0  0
    0.8539   22.0755  -17.0413 O   0  0  0  0  0  0  0  0  0  0  0  0
   -0.3648   18.3188  -18.5991 H   0  0  0  0  0  0  0  0  0  0  0  0
   -2.3719   21.6038  -18.0547 H   0  0  0  0  0  0  0  0  0  0  0  0
   -6.1678   19.0146  -19.5909 H   0  0  0  0  0  0  0  0  0  0  0  0
   -7.3398   22.6994  -17.4688 H   0  0  0  0  0  0  0  0  0  0  0  0
   -3.8774   23.4151  -14.8810 H   0  0  0  0  0  0  0  0  0  0  0  0
   -1.3755   21.5244  -15.8203 H   0  0  0  0  0  0  0  0  0  0  0  0
    1.9814   21.0522  -19.4650 C   0  0  0  0  0  0  0  0  0  0  0  0
    2.2027   20.1576  -18.2385 C   0  0  0  0  0  0  0  0  0  0  0  0
    2.7825   18.8616  -18.7838 C   0  0  0  0  0  0  0  0  0  0  0  0
   -1.2342   22.3640  -20.3147 C   0  0  0  0  0  0  0  0  0  0  0  0
   -1.7280   22.8460  -21.6267 C   0  0  0  0  0  0  0  0  0  0  0  0
   -2.4332   24.0215  -21.7619 C   0  0  0  0  0  0  0  0  0  0  0  0
   -2.9082   24.4892  -22.9903 C   0  0  0  0  0  0  0  0  0  0  0  0
   -2.6768   23.7639  -24.1380 C   0  0  0  0  0  0  0  0  0  0  0  0
   -1.9735   22.5922  -24.0021 C   0  0  0  0  0  0  0  0  0  0  0  0
   -1.5063   22.1323  -22.7940 C   0  0  0  0  0  0  0  0  0  0  0  0
   -5.1036   21.1229  -20.8886 C   0  0  0  0  0  0  0  0  0  0  0  0
   -5.6481   22.3961  -21.3593 C   0  0  0  0  0  0  0  0  0  0  0  0
   -5.9711   23.4722  -20.5457 C   0  0  0  0  0  0  0  0  0  0  0  0
   -6.4839   24.4496  -21.2978 N   0  0  0  0  0  0  0  0  0  0  0  0
   -6.5121   24.0615  -22.5809 C   0  0  0  0  0  0  0  0  0  0  0  0
   -6.9341   24.7184  -23.7393 C   0  0  0  0  0  0  0  0  0  0  0  0
   -6.8437   24.1130  -24.9693 C   0  0  0  0  0  0  0  0  0  0  0  0
   -6.3281   22.8475  -25.0233 C   0  0  0  0  0  0  0  0  0  0  0  0
   -5.9176   22.2078  -23.8865 C   0  0  0  0  0  0  0  0  0  0  0  0
   -5.9847   22.7645  -22.6275 C   0  0  0  0  0  0  0  0  0  0  0  0
   -6.8224   25.3852  -20.9744 H   0  0  0  0  0  0  0  0  0  0  0  0
   -7.2894   19.6483  -15.9248 C   0  0  0  0  0  0  0  0  0  0  0  0
   -8.6373   19.2576  -15.3747 C   0  0  0  0  0  0  0  0  0  0  0  0
   -9.7974   19.9888  -15.4585 C   0  0  0  0  0  0  0  0  0  0  0  0
  -10.8033   19.3207  -14.8470 N   0  0  0  0  0  0  0  0  0  0  0  0
  -10.3319   18.1630  -14.3611 C   0  0  0  0  0  0  0  0  0  0  0  0
  -10.9726   17.1643  -13.6726 C   0  0  0  0  0  0  0  0  0  0  0  0
  -10.2433   16.0379  -13.2725 C   0  0  0  0  0  0  0  0  0  0  0  0
   -8.9040   16.0039  -13.6018 C   0  0  0  0  0  0  0  0  0  0  0  0
   -8.2626   17.0122  -14.2953 C   0  0  0  0  0  0  0  0  0  0  0  0
   -8.9861   18.1157  -14.6850 C   0  0  0  0  0  0  0  0  0  0  0  0
  -11.7892   19.6826  -14.7828 H   0  0  0  0  0  0  0  0  0  0  0  0
   -6.3623   22.6120  -13.5814 C   0  0  0  0  0  0  0  0  0  0  0  0
   -7.1340   21.5905  -12.8591 C   0  0  0  0  0  0  0  0  0  0  0  0
   -8.4668   21.7642  -12.5697 C   0  0  0  0  0  0  0  0  0  0  0  0
   -9.2018   20.8022  -11.8836 C   0  0  0  0  0  0  0  0  0  0  0  0
   -8.5962   19.6422  -11.4770 C   0  0  0  0  0  0  0  0  0  0  0  0
   -7.2646   19.4454  -11.7551 C   0  0  0  0  0  0  0  0  0  0  0  0
   -6.5525   20.4177  -12.4397 C   0  0  0  0  0  0  0  0  0  0  0  0
    0.4864   20.1803  -13.6630 C   0  0  0  0  0  0  0  0  0  0  0  0
    1.8925   20.1844  -14.0718 C   0  0  0  0  0  0  0  0  0  0  0  0
    2.6470   21.3574  -14.0081 C   0  0  0  0  0  0  0  0  0  0  0  0
    3.9828   21.3556  -14.3629 C   0  0  0  0  0  0  0  0  0  0  0  0
    4.6090   20.2146  -14.7857 C   0  0  0  0  0  0  0  0  0  0  0  0
    3.8868   19.0602  -14.8534 C   0  0  0  0  0  0  0  0  0  0  0  0
    2.5491   19.0703  -14.4959 C   0  0  0  0  0  0  0  0  0  0  0  0
 38 39  1  0  0  0
 39 40  1  0  0  0
 39  1  1  0  0  0
  1  2  1  0  0  0
  2  3  1  0  0  0
  3  4  2  0  0  0
  3  5  1  0  0  0
  5 41  1  0  0  0
 41 42  1  0  0  0
 42 43  2  0  0  0
 43 44  1  0  0  0
 44 45  2  0  0  0
 45 46  1  0  0  0
 46 47  2  0  0  0
  5  6  1  0  0  0
  6  7  1  0  0  0
  7  8  2  0  0  0
  7  9  1  0  0  0
  9 48  1  0  0  0
 48 49  1  0  0  0
 49 50  2  0  0  0
 50 51  1  0  0  0
 51 52  1  0  0  0
 52 53  2  0  0  0
 53 54  1  0  0  0
 54 55  2  0  0  0
 55 56  1  0  0  0
 56 57  2  0  0  0
  9 10  1  0  0  0
 10 11  1  0  0  0
 11 12  2  0  0  0
 11 13  1  0  0  0
 13 59  1  0  0  0
 59 60  1  0  0  0
 60 61  2  0  0  0
 61 62  1  0  0  0
 62 63  1  0  0  0
 63 64  2  0  0  0
 64 65  1  0  0  0
 65 66  2  0  0  0
 66 67  1  0  0  0
 67 68  2  0  0  0
 13 14  1  0  0  0
 14 15  1  0  0  0
 15 16  2  0  0  0
 15 17  1  0  0  0
 17 70  1  0  0  0
 70 71  1  0  0  0
 71 72  2  0  0  0
 72 73  1  0  0  0
 73 74  2  0  0  0
 74 75  1  0  0  0
 75 76  2  0  0  0
 17 18  1  0  0  0
 18 19  1  0  0  0
 19 20  2  0  0  0
 19 21  1  0  0  0
 21 22  1  0  0  0
 22 23  1  0  0  0
 23 24  1  0  0  0
 24 25  1  0  0  0
 25 26  1  0  0  0
 26 27  2  0  0  0
 26 28  1  0  0  0
 28 77  1  0  0  0
 77 78  1  0  0  0
 78 79  2  0  0  0
 79 80  1  0  0  0
 80 81  2  0  0  0
 81 82  1  0  0  0
 82 83  2  0  0  0
 28 29  1  0  0  0
 29 30  1  0  0  0
 30 31  2  0  0  0
 30  1  1  0  0  0
 47 42  1  0  0  0
 57 49  1  0  0  0
 68 60  1  0  0  0
 76 71  1  0  0  0
 25 21  1  0  0  0
 83 78  1  0  0  0
 57 52  1  0  0  0
 68 63  1  0  0  0
  2 32  1  0  0  0
  6 33  1  0  0  0
 51 58  1  0  0  0
 10 34  1  0  0  0
 62 69  1  0  0  0
 14 35  1  0  0  0
 18 36  1  0  0  0
 29 37  1  0  0  0
M  END
> <minimizedAffinity>
-6.20507

> <CNNscore>
0.2274631709

> <CNNaffinity>
7.5058541298

> <CNN_VS>
1.7073054314

> <CNNaffinity_variance>
1.6002813578

$$$$
[H]c1c([H])c([H])c(C([H])([H])[C@@]2([H])C(=O)N3C([H])([H])C([H])([H])C([H])([H])[C@@]3([H])C(=O)N([H])[C@@]([H])(C([H])([H])c3c([H])c([H])c([H])c([H])c3[H])C(=O)N([H])[C@]([H])(C([H])([H])c3c([H])n([H])c4c([H])c([H])c([H])c([H])c34)C(=O)N([H])[C@]([H])(C([H])([H])c3c([H])n([H])c4c([H])c([H])c([H])c([H])c34)C(=O)N([H])[C@@]([H])(C([H])([H])c3c([H])c([H])c([H])c([H])c3[H])C(=O)N([H])[C@@]([H])(C([H])(C([H])([H])[H])C([H])([H])[H])C(=O)N2[H])c([H])c1[H]


 83 91  0  0  0  0  0  0  0  0999 V2000
   -2.1209   21.5952  -19.8655 C   0  0  0  0  0  0  0  0  0  0  0  0
   -3.0859   20.7781  -19.2033 N   0  0  0  0  0  0  0  0  0  0  0  0
   -4.1636   21.0103  -18.3758 C   0  0  0  0  0  0  0  0  0  0  0  0
   -5.3329   20.7384  -18.8884 O   0  0  0  0  0  0  0  0  0  0  0  0
   -4.2733   21.5145  -16.9865 C   0  0  0  0  0  0  0  0  0  0  0  0
   -3.1685   21.1772  -16.1189 N   0  0  0  0  0  0  0  0  0  0  0  0
   -2.9707   20.1551  -15.2015 C   0  0  0  0  0  0  0  0  0  0  0  0
   -2.1416   19.2071  -15.5128 O   0  0  0  0  0  0  0  0  0  0  0  0
   -3.5969   19.9745  -13.8417 C   0  0  0  0  0  0  0  0  0  0  0  0
   -3.2713   18.6787  -13.3069 N   0  0  0  0  0  0  0  0  0  0  0  0
   -2.4462   18.3469  -12.2318 C   0  0  0  0  0  0  0  0  0  0  0  0
   -2.9149   17.5013  -11.3855 O   0  0  0  0  0  0  0  0  0  0  0  0
   -1.0758   18.8567  -11.9440 C   0  0  0  0  0  0  0  0  0  0  0  0
   -0.9454   20.2822  -12.0081 N   0  0  0  0  0  0  0  0  0  0  0  0
   -0.1853   21.1298  -12.7831 C   0  0  0  0  0  0  0  0  0  0  0  0
   -0.7538   22.2587  -13.0814 O   0  0  0  0  0  0  0  0  0  0  0  0
    1.1696   21.0093  -13.3518 C   0  0  0  0  0  0  0  0  0  0  0  0
    1.4146   22.0462  -14.3617 N   0  0  0  0  0  0  0  0  0  0  0  0
    2.2888   21.9109  -15.4621 C   0  0  0  0  0  0  0  0  0  0  0  0
    2.4950   22.9696  -16.1113 O   0  0  0  0  0  0  0  0  0  0  0  0
    2.9059   20.6885  -15.8336 C   0  0  0  0  0  0  0  0  0  0  0  0
    4.3997   20.8414  -16.1824 C   0  0  0  0  0  0  0  0  0  0  0  0
    4.6924   19.4180  -16.5938 C   0  0  0  0  0  0  0  0  0  0  0  0
    3.3715   18.7312  -16.7887 C   0  0  0  0  0  0  0  0  0  0  0  0
    2.4404   19.8919  -16.9280 N   0  0  0  0  0  0  0  0  0  0  0  0
    1.3963   20.0680  -17.8430 C   0  0  0  0  0  0  0  0  0  0  0  0
    0.5984   19.0116  -17.9048 O   0  0  0  0  0  0  0  0  0  0  0  0
    0.9561   21.1187  -18.7503 C   0  0  0  0  0  0  0  0  0  0  0  0
   -0.1316   21.9476  -18.2508 N   0  0  0  0  0  0  0  0  0  0  0  0
   -1.2237   22.4020  -19.0239 C   0  0  0  0  0  0  0  0  0  0  0  0
   -1.4541   23.6715  -18.9794 O   0  0  0  0  0  0  0  0  0  0  0  0
   -2.9312   19.7158  -19.4205 H   0  0  0  0  0  0  0  0  0  0  0  0
   -2.3477   21.8576  -16.2288 H   0  0  0  0  0  0  0  0  0  0  0  0
   -3.7230   17.8718  -13.8424 H   0  0  0  0  0  0  0  0  0  0  0  0
   -1.5965   20.7663  -11.2823 H   0  0  0  0  0  0  0  0  0  0  0  0
    0.8597   22.9386  -14.1882 H   0  0  0  0  0  0  0  0  0  0  0  0
   -0.1494   22.2597  -17.2276 H   0  0  0  0  0  0  0  0  0  0  0  0
   -3.6197   21.5609  -21.7753 C   0  0  0  0  0  0  0  0  0  0  0  0
   -2.6797   22.4748  -20.9786 C   0  0  0  0  0  0  0  0  0  0  0  0
   -1.5194   22.7747  -21.9149 C   0  0  0  0  0  0  0  0  0  0  0  0
   -4.6539   22.9733  -16.8743 C   0  0  0  0  0  0  0  0  0  0  0  0
   -5.7412   23.2027  -15.8930 C   0  0  0  0  0  0  0  0  0  0  0  0
   -5.7009   24.2292  -14.9754 C   0  0  0  0  0  0  0  0  0  0  0  0
   -6.7155   24.4582  -14.0419 C   0  0  0  0  0  0  0  0  0  0  0  0
   -7.8206   23.6369  -14.0124 C   0  0  0  0  0  0  0  0  0  0  0  0
   -7.8599   22.6139  -14.9278 C   0  0  0  0  0  0  0  0  0  0  0  0
   -6.8620   22.3887  -15.8460 C   0  0  0  0  0  0  0  0  0  0  0  0
   -5.0780   20.2008  -13.8783 C   0  0  0  0  0  0  0  0  0  0  0  0
   -5.5855   20.8509  -12.6705 C   0  0  0  0  0  0  0  0  0  0  0  0
   -6.7242   20.4654  -11.9785 C   0  0  0  0  0  0  0  0  0  0  0  0
   -6.9182   21.3025  -10.9560 N   0  0  0  0  0  0  0  0  0  0  0  0
   -5.9492   22.2291  -10.9440 C   0  0  0  0  0  0  0  0  0  0  0  0
   -5.6992   23.2983  -10.0803 C   0  0  0  0  0  0  0  0  0  0  0  0
   -4.6086   24.1141  -10.2608 C   0  0  0  0  0  0  0  0  0  0  0  0
   -3.7763   23.8466  -11.3125 C   0  0  0  0  0  0  0  0  0  0  0  0
   -4.0258   22.7996  -12.1562 C   0  0  0  0  0  0  0  0  0  0  0  0
   -5.1026   21.9496  -12.0247 C   0  0  0  0  0  0  0  0  0  0  0  0
   -7.6926   21.2740  -10.2533 H   0  0  0  0  0  0  0  0  0  0  0  0
   -0.0257   18.0596  -12.6615 C   0  0  0  0  0  0  0  0  0  0  0  0
    1.0377   17.7691  -11.6335 C   0  0  0  0  0  0  0  0  0  0  0  0
    0.8429   17.5812  -10.2866 C   0  0  0  0  0  0  0  0  0  0  0  0
    2.0308   17.3461   -9.6819 N   0  0  0  0  0  0  0  0  0  0  0  0
    3.0065   17.3745  -10.6014 C   0  0  0  0  0  0  0  0  0  0  0  0
    4.3592   17.1912  -10.4644 C   0  0  0  0  0  0  0  0  0  0  0  0
    5.1747   17.2701  -11.6000 C   0  0  0  0  0  0  0  0  0  0  0  0
    4.5553   17.5316  -12.8046 C   0  0  0  0  0  0  0  0  0  0  0  0
    3.1924   17.7157  -12.9380 C   0  0  0  0  0  0  0  0  0  0  0  0
    2.3978   17.6367  -11.8176 C   0  0  0  0  0  0  0  0  0  0  0  0
    2.1350   17.1713   -8.6496 H   0  0  0  0  0  0  0  0  0  0  0  0
    2.2544   21.1924  -12.3137 C   0  0  0  0  0  0  0  0  0  0  0  0
    2.1196   22.4549  -11.5731 C   0  0  0  0  0  0  0  0  0  0  0  0
    2.4187   23.6658  -12.1515 C   0  0  0  0  0  0  0  0  0  0  0  0
    2.2960   24.8640  -11.4545 C   0  0  0  0  0  0  0  0  0  0  0  0
    1.8661   24.8558  -10.1535 C   0  0  0  0  0  0  0  0  0  0  0  0
    1.5606   23.6575   -9.5536 C   0  0  0  0  0  0  0  0  0  0  0  0
    1.6905   22.4765  -10.2674 C   0  0  0  0  0  0  0  0  0  0  0  0
    1.9534   21.8794  -19.5429 C   0  0  0  0  0  0  0  0  0  0  0  0
    2.7991   21.1139  -20.4612 C   0  0  0  0  0  0  0  0  0  0  0  0
    4.0731   20.6963  -20.0719 C   0  0  0  0  0  0  0  0  0  0  0  0
    4.8597   19.9461  -20.9256 C   0  0  0  0  0  0  0  0  0  0  0  0
    4.4226   19.5886  -22.1721 C   0  0  0  0  0  0  0  0  0  0  0  0
    3.1806   19.9879  -22.5679 C   0  0  0  0  0  0  0  0  0  0  0  0
    2.3986   20.7390  -21.7067 C   0  0  0  0  0  0  0  0  0  0  0  0
 38 39  1  0  0  0
 39 40  1  0  0  0
 39  1  1  0  0  0
  1  2  1  0  0  0
  2  3  1  0  0  0
  3  4  2  0  0  0
  3  5  1  0  0  0
  5 41  1  0  0  0
 41 42  1  0  0  0
 42 43  2  0  0  0
 43 44  1  0  0  0
 44 45  2  0  0  0
 45 46  1  0  0  0
 46 47  2  0  0  0
  5  6  1  0  0  0
  6  7  1  0  0  0
  7  8  2  0  0  0
  7  9  1  0  0  0
  9 48  1  0  0  0
 48 49  1  0  0  0
 49 50  2  0  0  0
 50 51  1  0  0  0
 51 52  1  0  0  0
 52 53  2  0  0  0
 53 54  1  0  0  0
 54 55  2  0  0  0
 55 56  1  0  0  0
 56 57  2  0  0  0
  9 10  1  0  0  0
 10 11  1  0  0  0
 11 12  2  0  0  0
 11 13  1  0  0  0
 13 59  1  0  0  0
 59 60  1  0  0  0
 60 61  2  0  0  0
 61 62  1  0  0  0
 62 63  1  0  0  0
 63 64  2  0  0  0
 64 65  1  0  0  0
 65 66  2  0  0  0
 66 67  1  0  0  0
 67 68  2  0  0  0
 13 14  1  0  0  0
 14 15  1  0  0  0
 15 16  2  0  0  0
 15 17  1  0  0  0
 17 70  1  0  0  0
 70 71  1  0  0  0
 71 72  2  0  0  0
 72 73  1  0  0  0
 73 74  2  0  0  0
 74 75  1  0  0  0
 75 76  2  0  0  0
 17 18  1  0  0  0
 18 19  1  0  0  0
 19 20  2  0  0  0
 19 21  1  0  0  0
 21 22  1  0  0  0
 22 23  1  0  0  0
 23 24  1  0  0  0
 24 25  1  0  0  0
 25 26  1  0  0  0
 26 27  2  0  0  0
 26 28  1  0  0  0
 28 77  1  0  0  0
 77 78  1  0  0  0
 78 79  2  0  0  0
 79 80  1  0  0  0
 80 81  2  0  0  0
 81 82  1  0  0  0
 82 83  2  0  0  0
 28 29  1  0  0  0
 29 30  1  0  0  0
 30 31  2  0  0  0
 30  1  1  0  0  0
 47 42  1  0  0  0
 57 49  1  0  0  0
 68 60  1  0  0  0
 76 71  1  0  0  0
 25 21  1  0  0  0
 83 78  1  0  0  0
 57 52  1  0  0  0
 68 63  1  0  0  0
  2 32  1  0  0  0
  6 33  1  0  0  0
 51 58  1  0  0  0
 10 34  1  0  0  0
 62 69  1  0  0  0
 14 35  1  0  0  0
 18 36  1  0  0  0
 29 37  1  0  0  0
M  END
> <minimizedAffinity>
-5.57687

> <CNNscore>
0.2051132172

> <CNNaffinity>
7.5083212852

> <CNN_VS>
1.5400559902

> <CNNaffinity_variance>
1.2080954313

$$$$
[H]c1c([H])c([H])c(C([H])([H])[C@@]2([H])C(=O)N3C([H])([H])C([H])([H])C([H])([H])[C@@]3([H])C(=O)N([H])[C@@]([H])(C([H])([H])c3c([H])c([H])c([H])c([H])c3[H])C(=O)N([H])[C@]([H])(C([H])([H])c3c([H])n([H])c4c([H])c([H])c([H])c([H])c34)C(=O)N([H])[C@]([H])(C([H])([H])c3c([H])n([H])c4c([H])c([H])c([H])c([H])c34)C(=O)N([H])[C@@]([H])(C([H])([H])c3c([H])c([H])c([H])c([H])c3[H])C(=O)N([H])[C@@]([H])(C([H])(C([H])([H])[H])C([H])([H])[H])C(=O)N2[H])c([H])c1[H]


 83 91  0  0  0  0  0  0  0  0999 V2000
   -3.1169   21.9951  -21.6122 C   0  0  0  0  0  0  0  0  0  0  0  0
   -3.8548   21.1308  -20.7488 N   0  0  0  0  0  0  0  0  0  0  0  0
   -4.4850   21.2682  -19.5306 C   0  0  0  0  0  0  0  0  0  0  0  0
   -5.7871   21.1806  -19.5600 O   0  0  0  0  0  0  0  0  0  0  0  0
   -3.9777   21.4971  -18.1570 C   0  0  0  0  0  0  0  0  0  0  0  0
   -2.6823   20.9235  -17.8743 N   0  0  0  0  0  0  0  0  0  0  0  0
   -2.2902   19.7308  -17.2835 C   0  0  0  0  0  0  0  0  0  0  0  0
   -1.7868   18.8087  -18.0447 O   0  0  0  0  0  0  0  0  0  0  0  0
   -2.3607   19.3300  -15.8315 C   0  0  0  0  0  0  0  0  0  0  0  0
   -2.0381   17.9358  -15.6790 N   0  0  0  0  0  0  0  0  0  0  0  0
   -0.9167   17.3457  -15.0951 C   0  0  0  0  0  0  0  0  0  0  0  0
   -1.1349   16.3842  -14.2712 O   0  0  0  0  0  0  0  0  0  0  0  0
    0.5151   17.6965  -15.3136 C   0  0  0  0  0  0  0  0  0  0  0  0
    0.8082   19.0951  -15.2070 N   0  0  0  0  0  0  0  0  0  0  0  0
    1.3200   20.0251  -16.0844 C   0  0  0  0  0  0  0  0  0  0  0  0
    0.8439   21.2260  -15.9506 O   0  0  0  0  0  0  0  0  0  0  0  0
    2.3186   19.9278  -17.1646 C   0  0  0  0  0  0  0  0  0  0  0  0
    2.2964   21.1235  -18.0161 N   0  0  0  0  0  0  0  0  0  0  0  0
    2.6492   21.1478  -19.3829 C   0  0  0  0  0  0  0  0  0  0  0  0
    2.7340   22.2969  -19.8903 O   0  0  0  0  0  0  0  0  0  0  0  0
    2.8976   19.9833  -20.1544 C   0  0  0  0  0  0  0  0  0  0  0  0
    4.1460   20.1011  -21.0511 C   0  0  0  0  0  0  0  0  0  0  0  0
    4.0552   18.7694  -21.7575 C   0  0  0  0  0  0  0  0  0  0  0  0
    2.6798   18.2239  -21.5024 C   0  0  0  0  0  0  0  0  0  0  0  0
    1.9391   19.4490  -21.0736 N   0  0  0  0  0  0  0  0  0  0  0  0
    0.6581   19.8701  -21.4481 C   0  0  0  0  0  0  0  0  0  0  0  0
   -0.2405   18.9020  -21.3414 O   0  0  0  0  0  0  0  0  0  0  0  0
    0.0529   21.1051  -21.9272 C   0  0  0  0  0  0  0  0  0  0  0  0
   -0.6300   21.8910  -20.9097 N   0  0  0  0  0  0  0  0  0  0  0  0
   -1.8611   22.5599  -21.0944 C   0  0  0  0  0  0  0  0  0  0  0  0
   -1.8767   23.8088  -20.7674 O   0  0  0  0  0  0  0  0  0  0  0  0
   -3.9459   20.1235  -21.1692 H   0  0  0  0  0  0  0  0  0  0  0  0
   -1.8815   21.5558  -18.2024 H   0  0  0  0  0  0  0  0  0  0  0  0
   -2.7695   17.2813  -16.1016 H   0  0  0  0  0  0  0  0  0  0  0  0
    0.5627   19.4703  -14.2149 H   0  0  0  0  0  0  0  0  0  0  0  0
    1.9821   21.9998  -17.4987 H   0  0  0  0  0  0  0  0  0  0  0  0
   -0.2073   21.9975  -19.9325 H   0  0  0  0  0  0  0  0  0  0  0  0
   -4.9753   22.3934  -23.1231 C   0  0  0  0  0  0  0  0  0  0  0  0
   -3.9337   23.1109  -22.2548 C   0  0  0  0  0  0  0  0  0  0  0  0
   -3.0073   23.8141  -23.2347 C   0  0  0  0  0  0  0  0  0  0  0  0
   -4.0778   22.9278  -17.6791 C   0  0  0  0  0  0  0  0  0  0  0  0
   -5.1049   23.1040  -16.6247 C   0  0  0  0  0  0  0  0  0  0  0  0
   -6.1834   22.2566  -16.4979 C   0  0  0  0  0  0  0  0  0  0  0  0
   -7.1619   22.4096  -15.5118 C   0  0  0  0  0  0  0  0  0  0  0  0
   -7.0723   23.4460  -14.6094 C   0  0  0  0  0  0  0  0  0  0  0  0
   -5.9966   24.2902  -14.7367 C   0  0  0  0  0  0  0  0  0  0  0  0
   -5.0341   24.1397  -15.7065 C   0  0  0  0  0  0  0  0  0  0  0  0
   -3.6936   19.6577  -15.2295 C   0  0  0  0  0  0  0  0  0  0  0  0
   -3.6298   20.7570  -14.2671 C   0  0  0  0  0  0  0  0  0  0  0  0
   -2.6109   21.6957  -14.1984 C   0  0  0  0  0  0  0  0  0  0  0  0
   -2.8479   22.5236  -13.1775 N   0  0  0  0  0  0  0  0  0  0  0  0
   -3.9876   22.1688  -12.5667 C   0  0  0  0  0  0  0  0  0  0  0  0
   -4.6655   22.7193  -11.4762 C   0  0  0  0  0  0  0  0  0  0  0  0
   -5.8522   22.1841  -11.0369 C   0  0  0  0  0  0  0  0  0  0  0  0
   -6.3481   21.0959  -11.7004 C   0  0  0  0  0  0  0  0  0  0  0  0
   -5.6802   20.5596  -12.7665 C   0  0  0  0  0  0  0  0  0  0  0  0
   -4.4879   21.0531  -13.2505 C   0  0  0  0  0  0  0  0  0  0  0  0
   -2.2608   23.3330  -12.8700 H   0  0  0  0  0  0  0  0  0  0  0  0
    1.0839   16.9867  -16.5076 C   0  0  0  0  0  0  0  0  0  0  0  0
    1.8132   15.7873  -15.9585 C   0  0  0  0  0  0  0  0  0  0  0  0
    1.3854   14.4824  -15.9969 C   0  0  0  0  0  0  0  0  0  0  0  0
    2.3023   13.6836  -15.4024 N   0  0  0  0  0  0  0  0  0  0  0  0
    3.3273   14.4338  -14.9722 C   0  0  0  0  0  0  0  0  0  0  0  0
    4.4781   14.0714  -14.3193 C   0  0  0  0  0  0  0  0  0  0  0  0
    5.4065   15.0622  -13.9765 C   0  0  0  0  0  0  0  0  0  0  0  0
    5.0992   16.3616  -14.3232 C   0  0  0  0  0  0  0  0  0  0  0  0
    3.9386   16.7222  -14.9806 C   0  0  0  0  0  0  0  0  0  0  0  0
    3.0314   15.7429  -15.3140 C   0  0  0  0  0  0  0  0  0  0  0  0
    2.1953   12.6409  -15.3109 H   0  0  0  0  0  0  0  0  0  0  0  0
    3.7343   19.8313  -16.6409 C   0  0  0  0  0  0  0  0  0  0  0  0
    3.9858   20.7502  -15.5215 C   0  0  0  0  0  0  0  0  0  0  0  0
    3.9945   20.3135  -14.2179 C   0  0  0  0  0  0  0  0  0  0  0  0
    4.2290   21.1790  -13.1538 C   0  0  0  0  0  0  0  0  0  0  0  0
    4.4598   22.5084  -13.3934 C   0  0  0  0  0  0  0  0  0  0  0  0
    4.4565   22.9687  -14.6885 C   0  0  0  0  0  0  0  0  0  0  0  0
    4.2205   22.0880  -15.7325 C   0  0  0  0  0  0  0  0  0  0  0  0
    0.7619   21.9376  -22.9299 C   0  0  0  0  0  0  0  0  0  0  0  0
    0.1298   22.0825  -24.2429 C   0  0  0  0  0  0  0  0  0  0  0  0
    0.7889   22.7471  -25.2787 C   0  0  0  0  0  0  0  0  0  0  0  0
    0.2074   22.8564  -26.5277 C   0  0  0  0  0  0  0  0  0  0  0  0
   -1.0244   22.3221  -26.7924 C   0  0  0  0  0  0  0  0  0  0  0  0
   -1.6816   21.6694  -25.7921 C   0  0  0  0  0  0  0  0  0  0  0  0
   -1.0920   21.5640  -24.5435 C   0  0  0  0  0  0  0  0  0  0  0  0
 38 39  1  0  0  0
 39 40  1  0  0  0
 39  1  1  0  0  0
  1  2  1  0  0  0
  2  3  1  0  0  0
  3  4  2  0  0  0
  3  5  1  0  0  0
  5 41  1  0  0  0
 41 42  1  0  0  0
 42 43  2  0  0  0
 43 44  1  0  0  0
 44 45  2  0  0  0
 45 46  1  0  0  0
 46 47  2  0  0  0
  5  6  1  0  0  0
  6  7  1  0  0  0
  7  8  2  0  0  0
  7  9  1  0  0  0
  9 48  1  0  0  0
 48 49  1  0  0  0
 49 50  2  0  0  0
 50 51  1  0  0  0
 51 52  1  0  0  0
 52 53  2  0  0  0
 53 54  1  0  0  0
 54 55  2  0  0  0
 55 56  1  0  0  0
 56 57  2  0  0  0
  9 10  1  0  0  0
 10 11  1  0  0  0
 11 12  2  0  0  0
 11 13  1  0  0  0
 13 59  1  0  0  0
 59 60  1  0  0  0
 60 61  2  0  0  0
 61 62  1  0  0  0
 62 63  1  0  0  0
 63 64  2  0  0  0
 64 65  1  0  0  0
 65 66  2  0  0  0
 66 67  1  0  0  0
 67 68  2  0  0  0
 13 14  1  0  0  0
 14 15  1  0  0  0
 15 16  2  0  0  0
 15 17  1  0  0  0
 17 70  1  0  0  0
 70 71  1  0  0  0
 71 72  2  0  0  0
 72 73  1  0  0  0
 73 74  2  0  0  0
 74 75  1  0  0  0
 75 76  2  0  0  0
 17 18  1  0  0  0
 18 19  1  0  0  0
 19 20  2  0  0  0
 19 21  1  0  0  0
 21 22  1  0  0  0
 22 23  1  0  0  0
 23 24  1  0  0  0
 24 25  1  0  0  0
 25 26  1  0  0  0
 26 27  2  0  0  0
 26 28  1  0  0  0
 28 77  1  0  0  0
 77 78  1  0  0  0
 78 79  2  0  0  0
 79 80  1  0  0  0
 80 81  2  0  0  0
 81 82  1  0  0  0
 82 83  2  0  0  0
 28 29  1  0  0  0
 29 30  1  0  0  0
 30 31  2  0  0  0
 30  1  1  0  0  0
 47 42  1  0  0  0
 57 49  1  0  0  0
 68 60  1  0  0  0
 76 71  1  0  0  0
 25 21  1  0  0  0
 83 78  1  0  0  0
 57 52  1  0  0  0
 68 63  1  0  0  0
  2 32  1  0  0  0
  6 33  1  0  0  0
 51 58  1  0  0  0
 10 34  1  0  0  0
 62 69  1  0  0  0
 14 35  1  0  0  0
 18 36  1  0  0  0
 29 37  1  0  0  0
M  END
> <minimizedAffinity>
-7.35906

> <CNNscore>
0.1787969172

> <CNNaffinity>
7.4751195908

> <CNN_VS>
1.3365283012

> <CNNaffinity_variance>
1.1229494810

$$$$
[H]c1c([H])c([H])c(C([H])([H])[C@@]2([H])C(=O)N3C([H])([H])C([H])([H])C([H])([H])[C@@]3([H])C(=O)N([H])[C@@]([H])(C([H])([H])c3c([H])c([H])c([H])c([H])c3[H])C(=O)N([H])[C@]([H])(C([H])([H])c3c([H])n([H])c4c([H])c([H])c([H])c([H])c34)C(=O)N([H])[C@]([H])(C([H])([H])c3c([H])n([H])c4c([H])c([H])c([H])c([H])c34)C(=O)N([H])[C@@]([H])(C([H])([H])c3c([H])c([H])c([H])c([H])c3[H])C(=O)N([H])[C@@]([H])(C([H])(C([H])([H])[H])C([H])([H])[H])C(=O)N2[H])c([H])c1[H]


 83 91  0  0  0  0  0  0  0  0999 V2000
   -2.2064   23.0956  -20.8702 C   0  0  0  0  0  0  0  0  0  0  0  0
   -1.4707   23.5333  -19.7281 N   0  0  0  0  0  0  0  0  0  0  0  0
   -0.3526   23.0906  -19.0544 C   0  0  0  0  0  0  0  0  0  0  0  0
    0.6962   23.8630  -19.1407 O   0  0  0  0  0  0  0  0  0  0  0  0
   -0.0877   21.8897  -18.2273 C   0  0  0  0  0  0  0  0  0  0  0  0
   -1.2237   21.3849  -17.4913 N   0  0  0  0  0  0  0  0  0  0  0  0
   -1.6588   21.5729  -16.1872 C   0  0  0  0  0  0  0  0  0  0  0  0
   -2.7105   22.3076  -15.9943 O   0  0  0  0  0  0  0  0  0  0  0  0
   -1.0719   21.0277  -14.9096 C   0  0  0  0  0  0  0  0  0  0  0  0
   -1.7090   21.6287  -13.7677 N   0  0  0  0  0  0  0  0  0  0  0  0
   -2.5691   21.0554  -12.8305 C   0  0  0  0  0  0  0  0  0  0  0  0
   -2.3164   21.2959  -11.5939 O   0  0  0  0  0  0  0  0  0  0  0  0
   -3.7556   20.1923  -13.0912 C   0  0  0  0  0  0  0  0  0  0  0  0
   -3.5158   19.1086  -13.9975 N   0  0  0  0  0  0  0  0  0  0  0  0
   -4.0480   18.7601  -15.2191 C   0  0  0  0  0  0  0  0  0  0  0  0
   -3.2141   18.1974  -16.0406 O   0  0  0  0  0  0  0  0  0  0  0  0
   -5.3997   18.9006  -15.7905 C   0  0  0  0  0  0  0  0  0  0  0  0
   -5.3905   18.6605  -17.2387 N   0  0  0  0  0  0  0  0  0  0  0  0
   -6.2928   19.2378  -18.1585 C   0  0  0  0  0  0  0  0  0  0  0  0
   -6.2329   18.7720  -19.3265 O   0  0  0  0  0  0  0  0  0  0  0  0
   -7.2116   20.2655  -17.8230 C   0  0  0  0  0  0  0  0  0  0  0  0
   -8.6226   20.0334  -18.3990 C   0  0  0  0  0  0  0  0  0  0  0  0
   -9.2806   21.3101  -17.9321 C   0  0  0  0  0  0  0  0  0  0  0  0
   -8.1855   22.2423  -17.5003 C   0  0  0  0  0  0  0  0  0  0  0  0
   -6.9900   21.6382  -18.1631 N   0  0  0  0  0  0  0  0  0  0  0  0
   -5.9551   22.2822  -18.8507 C   0  0  0  0  0  0  0  0  0  0  0  0
   -5.4578   23.3038  -18.1685 O   0  0  0  0  0  0  0  0  0  0  0  0
   -5.2783   22.1188  -20.1298 C   0  0  0  0  0  0  0  0  0  0  0  0
   -4.0036   21.4183  -20.0667 N   0  0  0  0  0  0  0  0  0  0  0  0
   -2.8476   21.7736  -20.7978 C   0  0  0  0  0  0  0  0  0  0  0  0
   -2.2972   20.8226  -21.4757 O   0  0  0  0  0  0  0  0  0  0  0  0
   -1.8984   24.4459  -19.2991 H   0  0  0  0  0  0  0  0  0  0  0  0
   -1.8436   20.7503  -18.0928 H   0  0  0  0  0  0  0  0  0  0  0  0
   -1.4917   22.6692  -13.6581 H   0  0  0  0  0  0  0  0  0  0  0  0
   -2.7469   18.4411  -13.6123 H   0  0  0  0  0  0  0  0  0  0  0  0
   -4.6209   17.9919  -17.5471 H   0  0  0  0  0  0  0  0  0  0  0  0
   -3.8845   20.5655  -19.4315 H   0  0  0  0  0  0  0  0  0  0  0  0
   -2.5554   23.1553  -23.2722 C   0  0  0  0  0  0  0  0  0  0  0  0
   -1.4632   23.2134  -22.1964 C   0  0  0  0  0  0  0  0  0  0  0  0
   -0.6669   21.9281  -22.3602 C   0  0  0  0  0  0  0  0  0  0  0  0
    0.6582   20.7855  -18.9414 C   0  0  0  0  0  0  0  0  0  0  0  0
    1.9542   20.4662  -18.2964 C   0  0  0  0  0  0  0  0  0  0  0  0
    2.6446   21.3840  -17.5360 C   0  0  0  0  0  0  0  0  0  0  0  0
    3.8684   21.1007  -16.9233 C   0  0  0  0  0  0  0  0  0  0  0  0
    4.4371   19.8548  -17.0673 C   0  0  0  0  0  0  0  0  0  0  0  0
    3.7478   18.9403  -17.8254 C   0  0  0  0  0  0  0  0  0  0  0  0
    2.5442   19.2189  -18.4280 C   0  0  0  0  0  0  0  0  0  0  0  0
    0.4164   21.1985  -14.8654 C   0  0  0  0  0  0  0  0  0  0  0  0
    1.1275   19.9435  -14.6242 C   0  0  0  0  0  0  0  0  0  0  0  0
    2.1720   19.7812  -13.7260 C   0  0  0  0  0  0  0  0  0  0  0  0
    2.6154   18.5232  -13.7946 N   0  0  0  0  0  0  0  0  0  0  0  0
    1.9025   17.8446  -14.7052 C   0  0  0  0  0  0  0  0  0  0  0  0
    1.9642   16.5144  -15.1277 C   0  0  0  0  0  0  0  0  0  0  0  0
    1.0969   16.0326  -16.0781 C   0  0  0  0  0  0  0  0  0  0  0  0
    0.1721   16.8961  -16.5972 C   0  0  0  0  0  0  0  0  0  0  0  0
    0.1164   18.1978  -16.1815 C   0  0  0  0  0  0  0  0  0  0  0  0
    0.9596   18.7360  -15.2334 C   0  0  0  0  0  0  0  0  0  0  0  0
    3.3943   18.0960  -13.2422 H   0  0  0  0  0  0  0  0  0  0  0  0
   -4.9904   21.0081  -13.3416 C   0  0  0  0  0  0  0  0  0  0  0  0
   -5.7617   20.9865  -12.0468 C   0  0  0  0  0  0  0  0  0  0  0  0
   -5.5895   20.1047  -11.0074 C   0  0  0  0  0  0  0  0  0  0  0  0
   -6.4643   20.3920  -10.0154 N   0  0  0  0  0  0  0  0  0  0  0  0
   -7.2109   21.4455  -10.3775 C   0  0  0  0  0  0  0  0  0  0  0  0
   -8.2168   22.0921   -9.7052 C   0  0  0  0  0  0  0  0  0  0  0  0
   -8.8467   23.1859  -10.3116 C   0  0  0  0  0  0  0  0  0  0  0  0
   -8.4080   23.5496  -11.5679 C   0  0  0  0  0  0  0  0  0  0  0  0
   -7.3944   22.8954  -12.2416 C   0  0  0  0  0  0  0  0  0  0  0  0
   -6.7804   21.8216  -11.6391 C   0  0  0  0  0  0  0  0  0  0  0  0
   -6.5212   19.8525   -9.1138 H   0  0  0  0  0  0  0  0  0  0  0  0
   -6.3788   17.8979  -15.2213 C   0  0  0  0  0  0  0  0  0  0  0  0
   -7.4158   18.5295  -14.3928 C   0  0  0  0  0  0  0  0  0  0  0  0
   -7.7438   18.0399  -13.1506 C   0  0  0  0  0  0  0  0  0  0  0  0
   -8.7266   18.6316  -12.3629 C   0  0  0  0  0  0  0  0  0  0  0  0
   -9.3972   19.7347  -12.8225 C   0  0  0  0  0  0  0  0  0  0  0  0
   -9.0866   20.2429  -14.0612 C   0  0  0  0  0  0  0  0  0  0  0  0
   -8.1040   19.6368  -14.8282 C   0  0  0  0  0  0  0  0  0  0  0  0
   -6.0623   21.7960  -21.3473 C   0  0  0  0  0  0  0  0  0  0  0  0
   -6.7820   22.8985  -21.9885 C   0  0  0  0  0  0  0  0  0  0  0  0
   -7.9683   23.3872  -21.4381 C   0  0  0  0  0  0  0  0  0  0  0  0
   -8.6315   24.4488  -22.0239 C   0  0  0  0  0  0  0  0  0  0  0  0
   -8.1540   25.0542  -23.1546 C   0  0  0  0  0  0  0  0  0  0  0  0
   -6.9965   24.5896  -23.7048 C   0  0  0  0  0  0  0  0  0  0  0  0
   -6.3379   23.5257  -23.1116 C   0  0  0  0  0  0  0  0  0  0  0  0
 38 39  1  0  0  0
 39 40  1  0  0  0
 39  1  1  0  0  0
  1  2  1  0  0  0
  2  3  1  0  0  0
  3  4  2  0  0  0
  3  5  1  0  0  0
  5 41  1  0  0  0
 41 42  1  0  0  0
 42 43  2  0  0  0
 43 44  1  0  0  0
 44 45  2  0  0  0
 45 46  1  0  0  0
 46 47  2  0  0  0
  5  6  1  0  0  0
  6  7  1  0  0  0
  7  8  2  0  0  0
  7  9  1  0  0  0
  9 48  1  0  0  0
 48 49  1  0  0  0
 49 50  2  0  0  0
 50 51  1  0  0  0
 51 52  1  0  0  0
 52 53  2  0  0  0
 53 54  1  0  0  0
 54 55  2  0  0  0
 55 56  1  0  0  0
 56 57  2  0  0  0
  9 10  1  0  0  0
 10 11  1  0  0  0
 11 12  2  0  0  0
 11 13  1  0  0  0
 13 59  1  0  0  0
 59 60  1  0  0  0
 60 61  2  0  0  0
 61 62  1  0  0  0
 62 63  1  0  0  0
 63 64  2  0  0  0
 64 65  1  0  0  0
 65 66  2  0  0  0
 66 67  1  0  0  0
 67 68  2  0  0  0
 13 14  1  0  0  0
 14 15  1  0  0  0
 15 16  2  0  0  0
 15 17  1  0  0  0
 17 70  1  0  0  0
 70 71  1  0  0  0
 71 72  2  0  0  0
 72 73  1  0  0  0
 73 74  2  0  0  0
 74 75  1  0  0  0
 75 76  2  0  0  0
 17 18  1  0  0  0
 18 19  1  0  0  0
 19 20  2  0  0  0
 19 21  1  0  0  0
 21 22  1  0  0  0
 22 23  1  0  0  0
 23 24  1  0  0  0
 24 25  1  0  0  0
 25 26  1  0  0  0
 26 27  2  0  0  0
 26 28  1  0  0  0
 28 77  1  0  0  0
 77 78  1  0  0  0
 78 79  2  0  0  0
 79 80  1  0  0  0
 80 81  2  0  0  0
 81 82  1  0  0  0
 82 83  2  0  0  0
 28 29  1  0  0  0
 29 30  1  0  0  0
 30 31  2  0  0  0
 30  1  1  0  0  0
 47 42  1  0  0  0
 57 49  1  0  0  0
 68 60  1  0  0  0
 76 71  1  0  0  0
 25 21  1  0  0  0
 83 78  1  0  0  0
 57 52  1  0  0  0
 68 63  1  0  0  0
  2 32  1  0  0  0
  6 33  1  0  0  0
 51 58  1  0  0  0
 10 34  1  0  0  0
 62 69  1  0  0  0
 14 35  1  0  0  0
 18 36  1  0  0  0
 29 37  1  0  0  0
M  END
> <minimizedAffinity>
-5.58517

> <CNNscore>
0.1747670621

> <CNNaffinity>
7.1901512146

> <CNN_VS>
1.2566015720

> <CNNaffinity_variance>
1.2958214283

$$$$
[H]c1c([H])c([H])c(C([H])([H])[C@@]2([H])C(=O)N3C([H])([H])C([H])([H])C([H])([H])[C@@]3([H])C(=O)N([H])[C@@]([H])(C([H])([H])c3c([H])c([H])c([H])c([H])c3[H])C(=O)N([H])[C@]([H])(C([H])([H])c3c([H])n([H])c4c([H])c([H])c([H])c([H])c34)C(=O)N([H])[C@]([H])(C([H])([H])c3c([H])n([H])c4c([H])c([H])c([H])c([H])c34)C(=O)N([H])[C@@]([H])(C([H])([H])c3c([H])c([H])c([H])c([H])c3[H])C(=O)N([H])[C@@]([H])(C([H])(C([H])([H])[H])C([H])([H])[H])C(=O)N2[H])c([H])c1[H]


 83 91  0  0  0  0  0  0  0  0999 V2000
   -1.6310   21.6688  -22.8402 C   0  0  0  0  0  0  0  0  0  0  0  0
   -2.9143   21.0553  -22.7211 N   0  0  0  0  0  0  0  0  0  0  0  0
   -4.1906   21.4989  -22.4488 C   0  0  0  0  0  0  0  0  0  0  0  0
   -5.0343   21.4227  -23.4420 O   0  0  0  0  0  0  0  0  0  0  0  0
   -4.8220   22.0559  -21.2292 C   0  0  0  0  0  0  0  0  0  0  0  0
   -4.2981   21.5547  -19.9796 N   0  0  0  0  0  0  0  0  0  0  0  0
   -4.7100   20.5416  -19.1255 C   0  0  0  0  0  0  0  0  0  0  0  0
   -4.0053   19.4532  -19.0847 O   0  0  0  0  0  0  0  0  0  0  0  0
   -5.8989   20.5153  -18.1983 C   0  0  0  0  0  0  0  0  0  0  0  0
   -6.0742   19.1989  -17.6438 N   0  0  0  0  0  0  0  0  0  0  0  0
   -5.8877   18.7588  -16.3330 C   0  0  0  0  0  0  0  0  0  0  0  0
   -6.8225   18.0350  -15.8298 O   0  0  0  0  0  0  0  0  0  0  0  0
   -4.7262   19.0267  -15.4387 C   0  0  0  0  0  0  0  0  0  0  0  0
   -4.3388   20.4042  -15.3627 N   0  0  0  0  0  0  0  0  0  0  0  0
   -3.1797   21.0806  -15.6722 C   0  0  0  0  0  0  0  0  0  0  0  0
   -3.3520   22.2827  -16.1323 O   0  0  0  0  0  0  0  0  0  0  0  0
   -1.7566   20.7055  -15.5837 C   0  0  0  0  0  0  0  0  0  0  0  0
   -0.9122   21.6522  -16.3226 N   0  0  0  0  0  0  0  0  0  0  0  0
    0.3242   21.3317  -16.9242 C   0  0  0  0  0  0  0  0  0  0  0  0
    0.9770   22.3173  -17.3568 O   0  0  0  0  0  0  0  0  0  0  0  0
    0.8228   20.0089  -17.0461 C   0  0  0  0  0  0  0  0  0  0  0  0
    2.3163   19.8849  -16.6848 C   0  0  0  0  0  0  0  0  0  0  0  0
    2.5134   18.4205  -16.9974 C   0  0  0  0  0  0  0  0  0  0  0  0
    1.3234   17.9725  -17.7960 C   0  0  0  0  0  0  0  0  0  0  0  0
    0.7673   19.2747  -18.2737 N   0  0  0  0  0  0  0  0  0  0  0  0
    0.2901   19.6052  -19.5471 C   0  0  0  0  0  0  0  0  0  0  0  0
   -0.5635   18.7050  -20.0133 O   0  0  0  0  0  0  0  0  0  0  0  0
    0.4896   20.6896  -20.4986 C   0  0  0  0  0  0  0  0  0  0  0  0
   -0.5466   21.7121  -20.4925 N   0  0  0  0  0  0  0  0  0  0  0  0
   -1.0817   22.3291  -21.6458 C   0  0  0  0  0  0  0  0  0  0  0  0
   -1.0864   23.6202  -21.6416 O   0  0  0  0  0  0  0  0  0  0  0  0
   -2.8632   19.9763  -22.9024 H   0  0  0  0  0  0  0  0  0  0  0  0
   -3.4120   22.0758  -19.6765 H   0  0  0  0  0  0  0  0  0  0  0  0
   -6.3694   18.4689  -18.3662 H   0  0  0  0  0  0  0  0  0  0  0  0
   -5.1521   21.0171  -14.9781 H   0  0  0  0  0  0  0  0  0  0  0  0
   -1.3240   22.6334  -16.3675 H   0  0  0  0  0  0  0  0  0  0  0  0
   -0.9666   22.0530  -19.5694 H   0  0  0  0  0  0  0  0  0  0  0  0
   -2.1939   21.8911  -25.1915 C   0  0  0  0  0  0  0  0  0  0  0  0
   -1.4730   22.5997  -24.0374 C   0  0  0  0  0  0  0  0  0  0  0  0
    0.0017   22.5777  -24.4090 C   0  0  0  0  0  0  0  0  0  0  0  0
   -4.9565   23.5616  -21.2213 C   0  0  0  0  0  0  0  0  0  0  0  0
   -6.3487   24.0063  -20.9725 C   0  0  0  0  0  0  0  0  0  0  0  0
   -6.6476   25.0578  -20.1344 C   0  0  0  0  0  0  0  0  0  0  0  0
   -7.9539   25.4883  -19.8866 C   0  0  0  0  0  0  0  0  0  0  0  0
   -9.0140   24.8523  -20.4935 C   0  0  0  0  0  0  0  0  0  0  0  0
   -8.7149   23.8042  -21.3290 C   0  0  0  0  0  0  0  0  0  0  0  0
   -7.4300   23.3808  -21.5728 C   0  0  0  0  0  0  0  0  0  0  0  0
   -7.1439   20.9986  -18.8785 C   0  0  0  0  0  0  0  0  0  0  0  0
   -8.2449   21.2414  -17.9470 C   0  0  0  0  0  0  0  0  0  0  0  0
   -9.5816   20.9809  -18.2106 C   0  0  0  0  0  0  0  0  0  0  0  0
  -10.3159   21.3635  -17.1626 N   0  0  0  0  0  0  0  0  0  0  0  0
   -9.5149   21.8677  -16.2129 C   0  0  0  0  0  0  0  0  0  0  0  0
   -9.7909   22.3790  -14.9424 C   0  0  0  0  0  0  0  0  0  0  0  0
   -8.7814   22.8259  -14.1246 C   0  0  0  0  0  0  0  0  0  0  0  0
   -7.4988   22.7547  -14.5937 C   0  0  0  0  0  0  0  0  0  0  0  0
   -7.2336   22.2547  -15.8386 C   0  0  0  0  0  0  0  0  0  0  0  0
   -8.2041   21.7932  -16.7015 C   0  0  0  0  0  0  0  0  0  0  0  0
  -11.3550   21.2976  -17.0604 H   0  0  0  0  0  0  0  0  0  0  0  0
   -3.6200   18.0354  -15.6547 C   0  0  0  0  0  0  0  0  0  0  0  0
   -4.0062   16.8151  -14.8587 C   0  0  0  0  0  0  0  0  0  0  0  0
   -4.0766   16.7206  -13.4899 C   0  0  0  0  0  0  0  0  0  0  0  0
   -4.4542   15.4695  -13.1375 N   0  0  0  0  0  0  0  0  0  0  0  0
   -4.6349   14.7353  -14.2451 C   0  0  0  0  0  0  0  0  0  0  0  0
   -5.0162   13.4252  -14.3877 C   0  0  0  0  0  0  0  0  0  0  0  0
   -5.1359   12.8880  -15.6753 C   0  0  0  0  0  0  0  0  0  0  0  0
   -4.8579   13.7247  -16.7363 C   0  0  0  0  0  0  0  0  0  0  0  0
   -4.4740   15.0437  -16.5881 C   0  0  0  0  0  0  0  0  0  0  0  0
   -4.3587   15.5642  -15.3197 C   0  0  0  0  0  0  0  0  0  0  0  0
   -4.5778   15.1569  -12.1405 H   0  0  0  0  0  0  0  0  0  0  0  0
   -1.2374   20.7249  -14.1632 C   0  0  0  0  0  0  0  0  0  0  0  0
   -2.2935   21.0050  -13.1800 C   0  0  0  0  0  0  0  0  0  0  0  0
   -2.8999   19.9984  -12.4664 C   0  0  0  0  0  0  0  0  0  0  0  0
   -3.9023   20.2569  -11.5365 C   0  0  0  0  0  0  0  0  0  0  0  0
   -4.3096   21.5460  -11.3126 C   0  0  0  0  0  0  0  0  0  0  0  0
   -3.7180   22.5696  -12.0137 C   0  0  0  0  0  0  0  0  0  0  0  0
   -2.7214   22.2880  -12.9350 C   0  0  0  0  0  0  0  0  0  0  0  0
    1.8498   21.2380  -20.7229 C   0  0  0  0  0  0  0  0  0  0  0  0
    2.9352   20.2728  -20.9097 C   0  0  0  0  0  0  0  0  0  0  0  0
    3.9586   20.1639  -19.9664 C   0  0  0  0  0  0  0  0  0  0  0  0
    4.9661   19.2312  -20.1249 C   0  0  0  0  0  0  0  0  0  0  0  0
    4.9972   18.3881  -21.2024 C   0  0  0  0  0  0  0  0  0  0  0  0
    4.0051   18.4809  -22.1329 C   0  0  0  0  0  0  0  0  0  0  0  0
    2.9992   19.4178  -21.9666 C   0  0  0  0  0  0  0  0  0  0  0  0
 38 39  1  0  0  0
 39 40  1  0  0  0
 39  1  1  0  0  0
  1  2  1  0  0  0
  2  3  1  0  0  0
  3  4  2  0  0  0
  3  5  1  0  0  0
  5 41  1  0  0  0
 41 42  1  0  0  0
 42 43  2  0  0  0
 43 44  1  0  0  0
 44 45  2  0  0  0
 45 46  1  0  0  0
 46 47  2  0  0  0
  5  6  1  0  0  0
  6  7  1  0  0  0
  7  8  2  0  0  0
  7  9  1  0  0  0
  9 48  1  0  0  0
 48 49  1  0  0  0
 49 50  2  0  0  0
 50 51  1  0  0  0
 51 52  1  0  0  0
 52 53  2  0  0  0
 53 54  1  0  0  0
 54 55  2  0  0  0
 55 56  1  0  0  0
 56 57  2  0  0  0
  9 10  1  0  0  0
 10 11  1  0  0  0
 11 12  2  0  0  0
 11 13  1  0  0  0
 13 59  1  0  0  0
 59 60  1  0  0  0
 60 61  2  0  0  0
 61 62  1  0  0  0
 62 63  1  0  0  0
 63 64  2  0  0  0
 64 65  1  0  0  0
 65 66  2  0  0  0
 66 67  1  0  0  0
 67 68  2  0  0  0
 13 14  1  0  0  0
 14 15  1  0  0  0
 15 16  2  0  0  0
 15 17  1  0  0  0
 17 70  1  0  0  0
 70 71  1  0  0  0
 71 72  2  0  0  0
 72 73  1  0  0  0
 73 74  2  0  0  0
 74 75  1  0  0  0
 75 76  2  0  0  0
 17 18  1  0  0  0
 18 19  1  0  0  0
 19 20  2  0  0  0
 19 21  1  0  0  0
 21 22  1  0  0  0
 22 23  1  0  0  0
 23 24  1  0  0  0
 24 25  1  0  0  0
 25 26  1  0  0  0
 26 27  2  0  0  0
 26 28  1  0  0  0
 28 77  1  0  0  0
 77 78  1  0  0  0
 78 79  2  0  0  0
 79 80  1  0  0  0
 80 81  2  0  0  0
 81 82  1  0  0  0
 82 83  2  0  0  0
 28 29  1  0  0  0
 29 30  1  0  0  0
 30 31  2  0  0  0
 30  1  1  0  0  0
 47 42  1  0  0  0
 57 49  1  0  0  0
 68 60  1  0  0  0
 76 71  1  0  0  0
 25 21  1  0  0  0
 83 78  1  0  0  0
 57 52  1  0  0  0
 68 63  1  0  0  0
  2 32  1  0  0  0
  6 33  1  0  0  0
 51 58  1  0  0  0
 10 34  1  0  0  0
 62 69  1  0  0  0
 14 35  1  0  0  0
 18 36  1  0  0  0
 29 37  1  0  0  0
M  END
> <minimizedAffinity>
-7.00802

> <CNNscore>
0.1742724925

> <CNNaffinity>
7.4863710403

> <CNN_VS>
1.3046685457

> <CNNaffinity_variance>
1.5285283327

$$$$
[H]c1c([H])c([H])c(C([H])([H])[C@@]2([H])C(=O)N3C([H])([H])C([H])([H])C([H])([H])[C@@]3([H])C(=O)N([H])[C@@]([H])(C([H])([H])c3c([H])c([H])c([H])c([H])c3[H])C(=O)N([H])[C@]([H])(C([H])([H])c3c([H])n([H])c4c([H])c([H])c([H])c([H])c34)C(=O)N([H])[C@]([H])(C([H])([H])c3c([H])n([H])c4c([H])c([H])c([H])c([H])c34)C(=O)N([H])[C@@]([H])(C([H])([H])c3c([H])c([H])c([H])c([H])c3[H])C(=O)N([H])[C@@]([H])(C([H])(C([H])([H])[H])C([H])([H])[H])C(=O)N2[H])c([H])c1[H]


 83 91  0  0  0  0  0  0  0  0999 V2000
   -2.1118   21.9106  -21.8632 C   0  0  0  0  0  0  0  0  0  0  0  0
   -3.3371   21.2440  -21.5606 N   0  0  0  0  0  0  0  0  0  0  0  0
   -4.5281   21.6048  -20.9678 C   0  0  0  0  0  0  0  0  0  0  0  0
   -5.5640   21.6316  -21.7617 O   0  0  0  0  0  0  0  0  0  0  0  0
   -4.8873   21.9749  -19.5784 C   0  0  0  0  0  0  0  0  0  0  0  0
   -4.1063   21.3316  -18.5472 N   0  0  0  0  0  0  0  0  0  0  0  0
   -4.3215   20.2017  -17.7710 C   0  0  0  0  0  0  0  0  0  0  0  0
   -3.6190   19.1416  -18.0278 O   0  0  0  0  0  0  0  0  0  0  0  0
   -5.2849   20.0136  -16.6264 C   0  0  0  0  0  0  0  0  0  0  0  0
   -5.3315   18.6306  -16.2312 N   0  0  0  0  0  0  0  0  0  0  0  0
   -4.8674   18.0284  -15.0613 C   0  0  0  0  0  0  0  0  0  0  0  0
   -5.6698   17.2137  -14.4753 O   0  0  0  0  0  0  0  0  0  0  0  0
   -3.5430   18.2152  -14.4041 C   0  0  0  0  0  0  0  0  0  0  0  0
   -3.1550   19.5830  -14.2253 N   0  0  0  0  0  0  0  0  0  0  0  0
   -2.0920   20.3328  -14.6775 C   0  0  0  0  0  0  0  0  0  0  0  0
   -2.3643   21.5786  -14.9235 O   0  0  0  0  0  0  0  0  0  0  0  0
   -0.6811   19.9975  -14.9428 C   0  0  0  0  0  0  0  0  0  0  0  0
   -0.0183   21.0610  -15.7076 N   0  0  0  0  0  0  0  0  0  0  0  0
    1.0627   20.8642  -16.5942 C   0  0  0  0  0  0  0  0  0  0  0  0
    1.6033   21.9196  -17.0169 O   0  0  0  0  0  0  0  0  0  0  0  0
    1.5301   19.5865  -16.9968 C   0  0  0  0  0  0  0  0  0  0  0  0
    3.0669   19.4663  -16.9788 C   0  0  0  0  0  0  0  0  0  0  0  0
    3.1998   18.0632  -17.5217 C   0  0  0  0  0  0  0  0  0  0  0  0
    1.8690   17.6844  -18.1047 C   0  0  0  0  0  0  0  0  0  0  0  0
    1.2174   19.0187  -18.2731 N   0  0  0  0  0  0  0  0  0  0  0  0
    0.4779   19.4975  -19.3604 C   0  0  0  0  0  0  0  0  0  0  0  0
   -0.4513   18.6384  -19.7539 O   0  0  0  0  0  0  0  0  0  0  0  0
    0.4645   20.7038  -20.1764 C   0  0  0  0  0  0  0  0  0  0  0  0
   -0.5516   21.6812  -19.8133 N   0  0  0  0  0  0  0  0  0  0  0  0
   -1.3235   22.4262  -20.7332 C   0  0  0  0  0  0  0  0  0  0  0  0
   -1.3333   23.7046  -20.5530 O   0  0  0  0  0  0  0  0  0  0  0  0
   -3.3207   20.2006  -21.8933 H   0  0  0  0  0  0  0  0  0  0  0  0
   -3.1784   21.8378  -18.3699 H   0  0  0  0  0  0  0  0  0  0  0  0
   -5.7706   17.9925  -16.9674 H   0  0  0  0  0  0  0  0  0  0  0  0
   -3.8705   20.1123  -13.5984 H   0  0  0  0  0  0  0  0  0  0  0  0
   -0.4350   22.0251  -15.5311 H   0  0  0  0  0  0  0  0  0  0  0  0
   -0.7664   21.8833  -18.7849 H   0  0  0  0  0  0  0  0  0  0  0  0
   -3.1725   22.4253  -23.9858 C   0  0  0  0  0  0  0  0  0  0  0  0
   -2.2175   22.9957  -22.9292 C   0  0  0  0  0  0  0  0  0  0  0  0
   -0.8590   23.0658  -23.6094 C   0  0  0  0  0  0  0  0  0  0  0  0
   -5.0243   23.4611  -19.3381 C   0  0  0  0  0  0  0  0  0  0  0  0
   -6.4034   23.9503  -19.5759 C   0  0  0  0  0  0  0  0  0  0  0  0
   -7.5099   23.1494  -19.3984 C   0  0  0  0  0  0  0  0  0  0  0  0
   -8.8164   23.5933  -19.6205 C   0  0  0  0  0  0  0  0  0  0  0  0
   -9.0415   24.8867  -20.0366 C   0  0  0  0  0  0  0  0  0  0  0  0
   -7.9376   25.6843  -20.2131 C   0  0  0  0  0  0  0  0  0  0  0  0
   -6.6526   25.2478  -19.9946 C   0  0  0  0  0  0  0  0  0  0  0  0
   -6.6488   20.5401  -16.9567 C   0  0  0  0  0  0  0  0  0  0  0  0
   -7.2328   21.3302  -15.8735 C   0  0  0  0  0  0  0  0  0  0  0  0
   -8.2940   20.9257  -15.0770 C   0  0  0  0  0  0  0  0  0  0  0  0
   -8.5977   21.9068  -14.2230 N   0  0  0  0  0  0  0  0  0  0  0  0
   -7.7761   22.9473  -14.4235 C   0  0  0  0  0  0  0  0  0  0  0  0
   -7.6768   24.1867  -13.7865 C   0  0  0  0  0  0  0  0  0  0  0  0
   -6.7209   25.1000  -14.1599 C   0  0  0  0  0  0  0  0  0  0  0  0
   -5.8704   24.7576  -15.1747 C   0  0  0  0  0  0  0  0  0  0  0  0
   -5.9722   23.5438  -15.7963 C   0  0  0  0  0  0  0  0  0  0  0  0
   -6.9100   22.5897  -15.4650 C   0  0  0  0  0  0  0  0  0  0  0  0
   -9.3512   21.9031  -13.4974 H   0  0  0  0  0  0  0  0  0  0  0  0
   -2.5037   17.2988  -14.9810 C   0  0  0  0  0  0  0  0  0  0  0  0
   -1.8167   16.6667  -13.7975 C   0  0  0  0  0  0  0  0  0  0  0  0
   -2.3954   16.3399  -12.5951 C   0  0  0  0  0  0  0  0  0  0  0  0
   -1.4672   15.7944  -11.7749 N   0  0  0  0  0  0  0  0  0  0  0  0
   -0.2870   15.7537  -12.4105 C   0  0  0  0  0  0  0  0  0  0  0  0
    0.9324   15.2895  -11.9869 C   0  0  0  0  0  0  0  0  0  0  0  0
    2.0267   15.3589  -12.8579 C   0  0  0  0  0  0  0  0  0  0  0  0
    1.8049   15.8990  -14.1077 C   0  0  0  0  0  0  0  0  0  0  0  0
    0.5749   16.3656  -14.5303 C   0  0  0  0  0  0  0  0  0  0  0  0
   -0.4954   16.2940  -13.6687 C   0  0  0  0  0  0  0  0  0  0  0  0
   -1.6746   15.4638  -10.7978 H   0  0  0  0  0  0  0  0  0  0  0  0
    0.1294   19.8473  -13.6745 C   0  0  0  0  0  0  0  0  0  0  0  0
   -0.5284   20.4555  -12.5091 C   0  0  0  0  0  0  0  0  0  0  0  0
   -1.2241   19.6979  -11.5968 C   0  0  0  0  0  0  0  0  0  0  0  0
   -1.8514   20.2682  -10.4933 C   0  0  0  0  0  0  0  0  0  0  0  0
   -1.7842   21.6223  -10.2943 C   0  0  0  0  0  0  0  0  0  0  0  0
   -1.0940   22.4007  -11.1926 C   0  0  0  0  0  0  0  0  0  0  0  0
   -0.4771   21.8105  -12.2845 C   0  0  0  0  0  0  0  0  0  0  0  0
    1.7428   21.3224  -20.6059 C   0  0  0  0  0  0  0  0  0  0  0  0
    2.8716   20.4211  -20.8465 C   0  0  0  0  0  0  0  0  0  0  0  0
    2.7629   19.3771  -21.7670 C   0  0  0  0  0  0  0  0  0  0  0  0
    3.8377   18.5456  -22.0190 C   0  0  0  0  0  0  0  0  0  0  0  0
    5.0368   18.7136  -21.3813 C   0  0  0  0  0  0  0  0  0  0  0  0
    5.1602   19.7286  -20.4795 C   0  0  0  0  0  0  0  0  0  0  0  0
    4.0787   20.5575  -20.2330 C   0  0  0  0  0  0  0  0  0  0  0  0
 38 39  1  0  0  0
 39 40  1  0  0  0
 39  1  1  0  0  0
  1  2  1  0  0  0
  2  3  1  0  0  0
  3  4  2  0  0  0
  3  5  1  0  0  0
  5 41  1  0  0  0
 41 42  1  0  0  0
 42 43  2  0  0  0
 43 44  1  0  0  0
 44 45  2  0  0  0
 45 46  1  0  0  0
 46 47  2  0  0  0
  5  6  1  0  0  0
  6  7  1  0  0  0
  7  8  2  0  0  0
  7  9  1  0  0  0
  9 48  1  0  0  0
 48 49  1  0  0  0
 49 50  2  0  0  0
 50 51  1  0  0  0
 51 52  1  0  0  0
 52 53  2  0  0  0
 53 54  1  0  0  0
 54 55  2  0  0  0
 55 56  1  0  0  0
 56 57  2  0  0  0
  9 10  1  0  0  0
 10 11  1  0  0  0
 11 12  2  0  0  0
 11 13  1  0  0  0
 13 59  1  0  0  0
 59 60  1  0  0  0
 60 61  2  0  0  0
 61 62  1  0  0  0
 62 63  1  0  0  0
 63 64  2  0  0  0
 64 65  1  0  0  0
 65 66  2  0  0  0
 66 67  1  0  0  0
 67 68  2  0  0  0
 13 14  1  0  0  0
 14 15  1  0  0  0
 15 16  2  0  0  0
 15 17  1  0  0  0
 17 70  1  0  0  0
 70 71  1  0  0  0
 71 72  2  0  0  0
 72 73  1  0  0  0
 73 74  2  0  0  0
 74 75  1  0  0  0
 75 76  2  0  0  0
 17 18  1  0  0  0
 18 19  1  0  0  0
 19 20  2  0  0  0
 19 21  1  0  0  0
 21 22  1  0  0  0
 22 23  1  0  0  0
 23 24  1  0  0  0
 24 25  1  0  0  0
 25 26  1  0  0  0
 26 27  2  0  0  0
 26 28  1  0  0  0
 28 77  1  0  0  0
 77 78  1  0  0  0
 78 79  2  0  0  0
 79 80  1  0  0  0
 80 81  2  0  0  0
 81 82  1  0  0  0
 82 83  2  0  0  0
 28 29  1  0  0  0
 29 30  1  0  0  0
 30 31  2  0  0  0
 30  1  1  0  0  0
 47 42  1  0  0  0
 57 49  1  0  0  0
 68 60  1  0  0  0
 76 71  1  0  0  0
 25 21  1  0  0  0
 83 78  1  0  0  0
 57 52  1  0  0  0
 68 63  1  0  0  0
  2 32  1  0  0  0
  6 33  1  0  0  0
 51 58  1  0  0  0
 10 34  1  0  0  0
 62 69  1  0  0  0
 14 35  1  0  0  0
 18 36  1  0  0  0
 29 37  1  0  0  0
M  END
> <minimizedAffinity>
-6.40505

> <CNNscore>
0.1687865704

> <CNNaffinity>
7.3388490677

> <CNN_VS>
1.2386991978

> <CNNaffinity_variance>
1.3816943169

$$$$
[H]c1nc(OC([H])([H])c2c(-c3c([H])c([H])c([H])c(F)c3[H])noc2C([H])([H])[H])c([H])c([H])c1C(=O)N1C([H])([H])C([H])([H])OC([H])([H])C1([H])[H]


 29 32  0  0  0  0  0  0  0  0999 V2000
   -2.8238   23.3072  -28.6602 O   0  0  0  0  0  0  0  0  0  0  0  0
   -2.2042   22.8500  -27.4479 C   0  0  0  0  0  0  0  0  0  0  0  0
   -2.8052   22.2422  -26.3950 C   0  0  0  0  0  0  0  0  0  0  0  0
   -2.0849   21.8199  -25.2906 C   0  0  0  0  0  0  0  0  0  0  0  0
   -0.7289   21.9859  -25.1907 C   0  0  0  0  0  0  0  0  0  0  0  0
   -0.1216   22.6261  -26.3017 C   0  0  0  0  0  0  0  0  0  0  0  0
   -0.8606   23.0103  -27.3259 N   0  0  0  0  0  0  0  0  0  0  0  0
    0.1418   21.6567  -24.1195 C   0  0  0  0  0  0  0  0  0  0  0  0
    1.3493   21.1995  -24.5963 O   0  0  0  0  0  0  0  0  0  0  0  0
    0.1186   21.6812  -22.7344 N   0  0  0  0  0  0  0  0  0  0  0  0
   -0.8985   22.1128  -21.8739 C   0  0  0  0  0  0  0  0  0  0  0  0
   -1.2014   21.0727  -20.7894 C   0  0  0  0  0  0  0  0  0  0  0  0
   -0.0873   20.4055  -20.3822 O   0  0  0  0  0  0  0  0  0  0  0  0
    1.0875   21.1154  -20.6163 C   0  0  0  0  0  0  0  0  0  0  0  0
    1.3639   21.1482  -22.0851 C   0  0  0  0  0  0  0  0  0  0  0  0
   -4.2756   23.0574  -28.6710 C   0  0  0  0  0  0  0  0  0  0  0  0
   -5.5733   24.6741  -31.1592 C   0  0  0  0  0  0  0  0  0  0  0  0
   -5.6927   24.9215  -29.7006 C   0  0  0  0  0  0  0  0  0  0  0  0
   -6.4805   25.8521  -29.1586 O   0  0  0  0  0  0  0  0  0  0  0  0
   -6.3918   25.8709  -27.9009 N   0  0  0  0  0  0  0  0  0  0  0  0
   -5.4966   24.9019  -27.4693 C   0  0  0  0  0  0  0  0  0  0  0  0
   -5.0490   24.2977  -28.6551 C   0  0  0  0  0  0  0  0  0  0  0  0
   -5.2660   24.5793  -26.0816 C   0  0  0  0  0  0  0  0  0  0  0  0
   -6.1008   23.5689  -25.5604 C   0  0  0  0  0  0  0  0  0  0  0  0
   -6.0667   23.1539  -24.2432 C   0  0  0  0  0  0  0  0  0  0  0  0
   -5.1695   23.7617  -23.3983 C   0  0  0  0  0  0  0  0  0  0  0  0
   -4.3500   24.7444  -23.8792 C   0  0  0  0  0  0  0  0  0  0  0  0
   -3.4829   25.3425  -23.0196 F   0  0  0  0  0  0  0  0  0  0  0  0
   -4.3930   25.1562  -25.2185 C   0  0  0  0  0  0  0  0  0  0  0  0
 17 18  1  0  0  0
 18 19  1  0  0  0
 19 20  1  0  0  0
 20 21  2  0  0  0
 21 22  1  0  0  0
 22 16  1  0  0  0
 16  1  1  0  0  0
  1  2  1  0  0  0
  2  3  2  0  0  0
  3  4  1  0  0  0
  4  5  2  0  0  0
  5  6  1  0  0  0
  6  7  2  0  0  0
  5  8  1  0  0  0
  8  9  2  0  0  0
  8 10  1  0  0  0
 10 11  1  0  0  0
 11 12  1  0  0  0
 12 13  1  0  0  0
 13 14  1  0  0  0
 14 15  1  0  0  0
 21 23  1  0  0  0
 23 24  2  0  0  0
 24 25  1  0  0  0
 25 26  2  0  0  0
 26 27  1  0  0  0
 27 28  1  0  0  0
 27 29  2  0  0  0
 22 18  2  0  0  0
  7  2  1  0  0  0
 15 10  1  0  0  0
 29 23  1  0  0  0
M  END
> <minimizedAffinity>
-9.07316

> <CNNscore>
0.6935902238

> <CNNaffinity>
6.9986381531

> <CNN_VS>
4.8541870117

> <CNNaffinity_variance>
0.2740644813

$$$$
[H]c1nc(OC([H])([H])c2c(-c3c([H])c([H])c([H])c(F)c3[H])noc2C([H])([H])[H])c([H])c([H])c1C(=O)N1C([H])([H])C([H])([H])OC([H])([H])C1([H])[H]


 29 32  0  0  0  0  0  0  0  0999 V2000
   -2.1286   23.0306  -23.5033 O   0  0  0  0  0  0  0  0  0  0  0  0
   -1.6027   22.6074  -22.2356 C   0  0  0  0  0  0  0  0  0  0  0  0
   -1.1410   21.3756  -21.9061 C   0  0  0  0  0  0  0  0  0  0  0  0
   -0.6285   21.1032  -20.6491 C   0  0  0  0  0  0  0  0  0  0  0  0
   -0.5537   22.0526  -19.6647 C   0  0  0  0  0  0  0  0  0  0  0  0
   -1.0445   23.3327  -20.0302 C   0  0  0  0  0  0  0  0  0  0  0  0
   -1.5251   23.5324  -21.2435 N   0  0  0  0  0  0  0  0  0  0  0  0
   -0.1051   21.9263  -18.3243 C   0  0  0  0  0  0  0  0  0  0  0  0
    1.1666   22.4343  -18.1863 O   0  0  0  0  0  0  0  0  0  0  0  0
   -0.5952   21.4488  -17.1195 N   0  0  0  0  0  0  0  0  0  0  0  0
   -1.8491   20.8957  -16.8310 C   0  0  0  0  0  0  0  0  0  0  0  0
   -1.7216   19.5692  -16.0734 C   0  0  0  0  0  0  0  0  0  0  0  0
   -0.6658   19.5595  -15.2146 O   0  0  0  0  0  0  0  0  0  0  0  0
   -0.2702   20.8364  -14.8250 C   0  0  0  0  0  0  0  0  0  0  0  0
    0.3797   21.5292  -15.9794 C   0  0  0  0  0  0  0  0  0  0  0  0
   -1.9763   21.9966  -24.5415 C   0  0  0  0  0  0  0  0  0  0  0  0
    1.2449   21.6641  -24.5900 C   0  0  0  0  0  0  0  0  0  0  0  0
    0.3248   22.1514  -25.6478 C   0  0  0  0  0  0  0  0  0  0  0  0
    0.7034   22.4566  -26.8904 O   0  0  0  0  0  0  0  0  0  0  0  0
   -0.2633   22.8604  -27.5922 N   0  0  0  0  0  0  0  0  0  0  0  0
   -1.4331   22.8544  -26.8450 C   0  0  0  0  0  0  0  0  0  0  0  0
   -1.0292   22.3943  -25.5815 C   0  0  0  0  0  0  0  0  0  0  0  0
   -2.7387   23.1386  -27.3905 C   0  0  0  0  0  0  0  0  0  0  0  0
   -3.5578   23.9499  -26.5777 C   0  0  0  0  0  0  0  0  0  0  0  0
   -4.8560   24.2928  -26.9026 C   0  0  0  0  0  0  0  0  0  0  0  0
   -5.3735   23.8147  -28.0823 C   0  0  0  0  0  0  0  0  0  0  0  0
   -4.6000   23.0257  -28.8871 C   0  0  0  0  0  0  0  0  0  0  0  0
   -5.1405   22.5508  -30.0408 F   0  0  0  0  0  0  0  0  0  0  0  0
   -3.2832   22.6855  -28.5473 C   0  0  0  0  0  0  0  0  0  0  0  0
 17 18  1  0  0  0
 18 19  1  0  0  0
 19 20  1  0  0  0
 20 21  2  0  0  0
 21 22  1  0  0  0
 22 16  1  0  0  0
 16  1  1  0  0  0
  1  2  1  0  0  0
  2  3  2  0  0  0
  3  4  1  0  0  0
  4  5  2  0  0  0
  5  6  1  0  0  0
  6  7  2  0  0  0
  5  8  1  0  0  0
  8  9  2  0  0  0
  8 10  1  0  0  0
 10 11  1  0  0  0
 11 12  1  0  0  0
 12 13  1  0  0  0
 13 14  1  0  0  0
 14 15  1  0  0  0
 21 23  1  0  0  0
 23 24  2  0  0  0
 24 25  1  0  0  0
 25 26  2  0  0  0
 26 27  1  0  0  0
 27 28  1  0  0  0
 27 29  2  0  0  0
 22 18  2  0  0  0
  7  2  1  0  0  0
 15 10  1  0  0  0
 29 23  1  0  0  0
M  END
> <minimizedAffinity>
-7.82924

> <CNNscore>
0.6816711426

> <CNNaffinity>
6.2442150116

> <CNN_VS>
4.2565011978

> <CNNaffinity_variance>
0.1680020541

$$$$
[H]c1nc(OC([H])([H])c2c(-c3c([H])c([H])c([H])c(F)c3[H])noc2C([H])([H])[H])c([H])c([H])c1C(=O)N1C([H])([H])C([H])([H])OC([H])([H])C1([H])[H]


 29 32  0  0  0  0  0  0  0  0999 V2000
   -2.7582   23.1913  -24.0736 O   0  0  0  0  0  0  0  0  0  0  0  0
   -4.0803   23.1207  -23.5170 C   0  0  0  0  0  0  0  0  0  0  0  0
   -5.2191   23.6470  -24.0319 C   0  0  0  0  0  0  0  0  0  0  0  0
   -6.4440   23.4813  -23.4080 C   0  0  0  0  0  0  0  0  0  0  0  0
   -6.5845   22.7797  -22.2401 C   0  0  0  0  0  0  0  0  0  0  0  0
   -5.3805   22.2404  -21.7181 C   0  0  0  0  0  0  0  0  0  0  0  0
   -4.2408   22.4341  -22.3556 N   0  0  0  0  0  0  0  0  0  0  0  0
   -7.7470   22.5596  -21.4565 C   0  0  0  0  0  0  0  0  0  0  0  0
   -8.1717   21.2553  -21.5706 O   0  0  0  0  0  0  0  0  0  0  0  0
   -8.5603   23.2860  -20.6018 N   0  0  0  0  0  0  0  0  0  0  0  0
   -8.4465   24.6207  -20.1933 C   0  0  0  0  0  0  0  0  0  0  0  0
   -9.7689   25.3781  -20.3594 C   0  0  0  0  0  0  0  0  0  0  0  0
  -10.8530   24.5929  -20.1133 O   0  0  0  0  0  0  0  0  0  0  0  0
  -10.5606   23.5021  -19.2988 C   0  0  0  0  0  0  0  0  0  0  0  0
   -9.7341   22.5186  -20.0633 C   0  0  0  0  0  0  0  0  0  0  0  0
   -2.5130   22.1259  -25.0609 C   0  0  0  0  0  0  0  0  0  0  0  0
    0.6974   21.7119  -25.1633 C   0  0  0  0  0  0  0  0  0  0  0  0
   -0.2216   22.2647  -26.1893 C   0  0  0  0  0  0  0  0  0  0  0  0
    0.1505   22.6094  -27.4235 O   0  0  0  0  0  0  0  0  0  0  0  0
   -0.8133   23.0658  -28.0965 N   0  0  0  0  0  0  0  0  0  0  0  0
   -1.9741   23.0605  -27.3354 C   0  0  0  0  0  0  0  0  0  0  0  0
   -1.5678   22.5399  -26.0962 C   0  0  0  0  0  0  0  0  0  0  0  0
   -3.2779   23.4001  -27.8526 C   0  0  0  0  0  0  0  0  0  0  0  0
   -3.7241   22.5889  -28.9167 C   0  0  0  0  0  0  0  0  0  0  0  0
   -4.9220   22.7849  -29.5763 C   0  0  0  0  0  0  0  0  0  0  0  0
   -5.7186   23.8285  -29.1708 C   0  0  0  0  0  0  0  0  0  0  0  0
   -5.3079   24.6298  -28.1422 C   0  0  0  0  0  0  0  0  0  0  0  0
   -6.1056   25.6663  -27.7707 F   0  0  0  0  0  0  0  0  0  0  0  0
   -4.0905   24.4201  -27.4795 C   0  0  0  0  0  0  0  0  0  0  0  0
 17 18  1  0  0  0
 18 19  1  0  0  0
 19 20  1  0  0  0
 20 21  2  0  0  0
 21 22  1  0  0  0
 22 16  1  0  0  0
 16  1  1  0  0  0
  1  2  1  0  0  0
  2  3  2  0  0  0
  3  4  1  0  0  0
  4  5  2  0  0  0
  5  6  1  0  0  0
  6  7  2  0  0  0
  5  8  1  0  0  0
  8  9  2  0  0  0
  8 10  1  0  0  0
 10 11  1  0  0  0
 11 12  1  0  0  0
 12 13  1  0  0  0
 13 14  1  0  0  0
 14 15  1  0  0  0
 21 23  1  0  0  0
 23 24  2  0  0  0
 24 25  1  0  0  0
 25 26  2  0  0  0
 26 27  1  0  0  0
 27 28  1  0  0  0
 27 29  2  0  0  0
 22 18  2  0  0  0
  7  2  1  0  0  0
 15 10  1  0  0  0
 29 23  1  0  0  0
M  END
> <minimizedAffinity>
-8.66990

> <CNNscore>
0.6183878779

> <CNNaffinity>
6.5500869751

> <CNN_VS>
4.0504941940

> <CNNaffinity_variance>
0.3005215526

$$$$
[H]c1nc(OC([H])([H])c2c(-c3c([H])c([H])c([H])c(F)c3[H])noc2C([H])([H])[H])c([H])c([H])c1C(=O)N1C([H])([H])C([H])([H])OC([H])([H])C1([H])[H]


 29 32  0  0  0  0  0  0  0  0999 V2000
   -2.6899   22.9410  -26.6476 O   0  0  0  0  0  0  0  0  0  0  0  0
   -1.8362   22.4817  -25.5878 C   0  0  0  0  0  0  0  0  0  0  0  0
   -2.2075   22.0867  -24.3447 C   0  0  0  0  0  0  0  0  0  0  0  0
   -1.2830   21.6338  -23.4189 C   0  0  0  0  0  0  0  0  0  0  0  0
    0.0560   21.5547  -23.6962 C   0  0  0  0  0  0  0  0  0  0  0  0
    0.4222   21.9754  -25.0009 C   0  0  0  0  0  0  0  0  0  0  0  0
   -0.5036   22.4011  -25.8401 N   0  0  0  0  0  0  0  0  0  0  0  0
    1.1283   21.1625  -22.8534 C   0  0  0  0  0  0  0  0  0  0  0  0
    2.3315   21.5952  -23.3627 O   0  0  0  0  0  0  0  0  0  0  0  0
    1.2975   20.4808  -21.6592 N   0  0  0  0  0  0  0  0  0  0  0  0
    0.3302   19.9224  -20.8142 C   0  0  0  0  0  0  0  0  0  0  0  0
    0.6683   18.4730  -20.4471 C   0  0  0  0  0  0  0  0  0  0  0  0
    2.0075   18.2676  -20.3172 O   0  0  0  0  0  0  0  0  0  0  0  0
    2.7111   19.4345  -20.0305 C   0  0  0  0  0  0  0  0  0  0  0  0
    2.7302   20.3130  -21.2400 C   0  0  0  0  0  0  0  0  0  0  0  0
   -3.4425   24.1500  -26.2708 C   0  0  0  0  0  0  0  0  0  0  0  0
   -4.0735   24.7989  -29.3805 C   0  0  0  0  0  0  0  0  0  0  0  0
   -4.9945   24.3935  -28.2895 C   0  0  0  0  0  0  0  0  0  0  0  0
   -6.2908   24.1275  -28.4608 O   0  0  0  0  0  0  0  0  0  0  0  0
   -6.8564   23.8196  -27.3767 N   0  0  0  0  0  0  0  0  0  0  0  0
   -5.9408   23.8479  -26.3338 C   0  0  0  0  0  0  0  0  0  0  0  0
   -4.7361   24.2277  -26.9469 C   0  0  0  0  0  0  0  0  0  0  0  0
   -6.2399   23.4222  -24.9876 C   0  0  0  0  0  0  0  0  0  0  0  0
   -5.8734   22.0930  -24.6902 C   0  0  0  0  0  0  0  0  0  0  0  0
   -6.1196   21.4868  -23.4735 C   0  0  0  0  0  0  0  0  0  0  0  0
   -6.7570   22.2223  -22.5035 C   0  0  0  0  0  0  0  0  0  0  0  0
   -7.1232   23.5126  -22.7676 C   0  0  0  0  0  0  0  0  0  0  0  0
   -7.7681   24.2140  -21.7977 F   0  0  0  0  0  0  0  0  0  0  0  0
   -6.8668   24.1174  -24.0059 C   0  0  0  0  0  0  0  0  0  0  0  0
 17 18  1  0  0  0
 18 19  1  0  0  0
 19 20  1  0  0  0
 20 21  2  0  0  0
 21 22  1  0  0  0
 22 16  1  0  0  0
 16  1  1  0  0  0
  1  2  1  0  0  0
  2  3  2  0  0  0
  3  4  1  0  0  0
  4  5  2  0  0  0
  5  6  1  0  0  0
  6  7  2  0  0  0
  5  8  1  0  0  0
  8  9  2  0  0  0
  8 10  1  0  0  0
 10 11  1  0  0  0
 11 12  1  0  0  0
 12 13  1  0  0  0
 13 14  1  0  0  0
 14 15  1  0  0  0
 21 23  1  0  0  0
 23 24  2  0  0  0
 24 25  1  0  0  0
 25 26  2  0  0  0
 26 27  1  0  0  0
 27 28  1  0  0  0
 27 29  2  0  0  0
 22 18  2  0  0  0
  7  2  1  0  0  0
 15 10  1  0  0  0
 29 23  1  0  0  0
M  END
> <minimizedAffinity>
-8.29018

> <CNNscore>
0.5826177597

> <CNNaffinity>
6.6065530777

> <CNN_VS>
3.8490951061

> <CNNaffinity_variance>
0.4288746715

$$$$
[H]c1nc(OC([H])([H])c2c(-c3c([H])c([H])c([H])c(F)c3[H])noc2C([H])([H])[H])c([H])c([H])c1C(=O)N1C([H])([H])C([H])([H])OC([H])([H])C1([H])[H]


 29 32  0  0  0  0  0  0  0  0999 V2000
   -5.5775   26.3770  -28.3383 O   0  0  0  0  0  0  0  0  0  0  0  0
   -5.8711   25.8889  -27.0199 C   0  0  0  0  0  0  0  0  0  0  0  0
   -5.1588   26.1023  -25.8858 C   0  0  0  0  0  0  0  0  0  0  0  0
   -5.5684   25.5972  -24.6635 C   0  0  0  0  0  0  0  0  0  0  0  0
   -6.7114   24.8560  -24.5208 C   0  0  0  0  0  0  0  0  0  0  0  0
   -7.4392   24.6429  -25.7200 C   0  0  0  0  0  0  0  0  0  0  0  0
   -6.9974   25.1466  -26.8574 N   0  0  0  0  0  0  0  0  0  0  0  0
   -7.2411   24.2324  -23.3614 C   0  0  0  0  0  0  0  0  0  0  0  0
   -6.7120   22.9718  -23.2015 O   0  0  0  0  0  0  0  0  0  0  0  0
   -8.1275   24.5444  -22.3433 N   0  0  0  0  0  0  0  0  0  0  0  0
   -8.8392   25.7301  -22.1220 C   0  0  0  0  0  0  0  0  0  0  0  0
  -10.3281   25.4592  -21.8781 C   0  0  0  0  0  0  0  0  0  0  0  0
  -10.5417   24.3008  -21.1964 O   0  0  0  0  0  0  0  0  0  0  0  0
   -9.4404   23.9021  -20.4435 C   0  0  0  0  0  0  0  0  0  0  0  0
   -8.3560   23.4326  -21.3593 C   0  0  0  0  0  0  0  0  0  0  0  0
   -4.4516   25.6581  -28.9593 C   0  0  0  0  0  0  0  0  0  0  0  0
   -6.1938   24.8971  -31.5812 C   0  0  0  0  0  0  0  0  0  0  0  0
   -5.4872   24.0125  -30.6214 C   0  0  0  0  0  0  0  0  0  0  0  0
   -5.3796   22.6896  -30.7583 O   0  0  0  0  0  0  0  0  0  0  0  0
   -4.7446   22.1667  -29.8026 N   0  0  0  0  0  0  0  0  0  0  0  0
   -4.3463   23.1436  -28.9006 C   0  0  0  0  0  0  0  0  0  0  0  0
   -4.8427   24.3374  -29.4484 C   0  0  0  0  0  0  0  0  0  0  0  0
   -3.4923   22.8913  -27.7649 C   0  0  0  0  0  0  0  0  0  0  0  0
   -4.1717   22.6746  -26.5479 C   0  0  0  0  0  0  0  0  0  0  0  0
   -3.5309   22.4647  -25.3422 C   0  0  0  0  0  0  0  0  0  0  0  0
   -2.1568   22.4688  -25.3326 C   0  0  0  0  0  0  0  0  0  0  0  0
   -1.4752   22.6775  -26.4990 C   0  0  0  0  0  0  0  0  0  0  0  0
   -0.1162   22.6942  -26.4606 F   0  0  0  0  0  0  0  0  0  0  0  0
   -2.1367   22.8881  -27.7168 C   0  0  0  0  0  0  0  0  0  0  0  0
 17 18  1  0  0  0
 18 19  1  0  0  0
 19 20  1  0  0  0
 20 21  2  0  0  0
 21 22  1  0  0  0
 22 16  1  0  0  0
 16  1  1  0  0  0
  1  2  1  0  0  0
  2  3  2  0  0  0
  3  4  1  0  0  0
  4  5  2  0  0  0
  5  6  1  0  0  0
  6  7  2  0  0  0
  5  8  1  0  0  0
  8  9  2  0  0  0
  8 10  1  0  0  0
 10 11  1  0  0  0
 11 12  1  0  0  0
 12 13  1  0  0  0
 13 14  1  0  0  0
 14 15  1  0  0  0
 21 23  1  0  0  0
 23 24  2  0  0  0
 24 25  1  0  0  0
 25 26  2  0  0  0
 26 27  1  0  0  0
 27 28  1  0  0  0
 27 29  2  0  0  0
 22 18  2  0  0  0
  7  2  1  0  0  0
 15 10  1  0  0  0
 29 23  1  0  0  0
M  END
> <minimizedAffinity>
-8.99421

> <CNNscore>
0.5579191446

> <CNNaffinity>
6.4581322670

> <CNN_VS>
3.6031155586

> <CNNaffinity_variance>
0.2517010570

$$$$
[H]c1nc(OC([H])([H])c2c(-c3c([H])c([H])c([H])c(F)c3[H])noc2C([H])([H])[H])c([H])c([H])c1C(=O)N1C([H])([H])C([H])([H])OC([H])([H])C1([H])[H]


 29 32  0  0  0  0  0  0  0  0999 V2000
   -1.9731   22.9344  -22.8987 O   0  0  0  0  0  0  0  0  0  0  0  0
   -1.2905   22.6251  -21.6736 C   0  0  0  0  0  0  0  0  0  0  0  0
   -0.5578   21.5181  -21.3966 C   0  0  0  0  0  0  0  0  0  0  0  0
    0.0791   21.3533  -20.1784 C   0  0  0  0  0  0  0  0  0  0  0  0
    0.0123   22.2906  -19.1818 C   0  0  0  0  0  0  0  0  0  0  0  0
   -0.7614   23.4388  -19.4920 C   0  0  0  0  0  0  0  0  0  0  0  0
   -1.3489   23.5390  -20.6699 N   0  0  0  0  0  0  0  0  0  0  0  0
    0.5610   22.2543  -17.8736 C   0  0  0  0  0  0  0  0  0  0  0  0
   -0.3887   21.8621  -16.9577 O   0  0  0  0  0  0  0  0  0  0  0  0
    1.7847   22.4891  -17.2679 N   0  0  0  0  0  0  0  0  0  0  0  0
    3.0030   22.8620  -17.8495 C   0  0  0  0  0  0  0  0  0  0  0  0
    3.6292   24.0624  -17.1307 C   0  0  0  0  0  0  0  0  0  0  0  0
    3.3951   24.0467  -15.7901 O   0  0  0  0  0  0  0  0  0  0  0  0
    3.1245   22.7716  -15.3004 C   0  0  0  0  0  0  0  0  0  0  0  0
    1.7758   22.3335  -15.7737 C   0  0  0  0  0  0  0  0  0  0  0  0
   -1.8570   21.8499  -23.8889 C   0  0  0  0  0  0  0  0  0  0  0  0
    1.3558   21.5665  -24.1830 C   0  0  0  0  0  0  0  0  0  0  0  0
    0.3454   21.9969  -25.1815 C   0  0  0  0  0  0  0  0  0  0  0  0
    0.6181   22.2586  -26.4612 O   0  0  0  0  0  0  0  0  0  0  0  0
   -0.4089   22.6189  -27.0981 N   0  0  0  0  0  0  0  0  0  0  0  0
   -1.5152   22.6241  -26.2597 C   0  0  0  0  0  0  0  0  0  0  0  0
   -1.0034   22.2209  -25.0160 C   0  0  0  0  0  0  0  0  0  0  0  0
   -2.8651   22.8659  -26.7091 C   0  0  0  0  0  0  0  0  0  0  0  0
   -3.0157   22.9688  -28.1078 C   0  0  0  0  0  0  0  0  0  0  0  0
   -4.2186   23.2455  -28.7283 C   0  0  0  0  0  0  0  0  0  0  0  0
   -5.3258   23.4303  -27.9358 C   0  0  0  0  0  0  0  0  0  0  0  0
   -5.2057   23.3365  -26.5773 C   0  0  0  0  0  0  0  0  0  0  0  0
   -6.3121   23.5406  -25.8139 F   0  0  0  0  0  0  0  0  0  0  0  0
   -3.9797   23.0540  -25.9591 C   0  0  0  0  0  0  0  0  0  0  0  0
 17 18  1  0  0  0
 18 19  1  0  0  0
 19 20  1  0  0  0
 20 21  2  0  0  0
 21 22  1  0  0  0
 22 16  1  0  0  0
 16  1  1  0  0  0
  1  2  1  0  0  0
  2  3  2  0  0  0
  3  4  1  0  0  0
  4  5  2  0  0  0
  5  6  1  0  0  0
  6  7  2  0  0  0
  5  8  1  0  0  0
  8  9  2  0  0  0
  8 10  1  0  0  0
 10 11  1  0  0  0
 11 12  1  0  0  0
 12 13  1  0  0  0
 13 14  1  0  0  0
 14 15  1  0  0  0
 21 23  1  0  0  0
 23 24  2  0  0  0
 24 25  1  0  0  0
 25 26  2  0  0  0
 26 27  1  0  0  0
 27 28  1  0  0  0
 27 29  2  0  0  0
 22 18  2  0  0  0
  7  2  1  0  0  0
 15 10  1  0  0  0
 29 23  1  0  0  0
M  END
> <minimizedAffinity>
-8.56562

> <CNNscore>
0.5556746721

> <CNNaffinity>
6.1649808884

> <CNN_VS>
3.4257237911

> <CNNaffinity_variance>
0.2062164247

$$$$
[H]c1nc(OC([H])([H])c2c(-c3c([H])c([H])c([H])c(F)c3[H])noc2C([H])([H])[H])c([H])c([H])c1C(=O)N1C([H])([H])C([H])([H])OC([H])([H])C1([H])[H]


 29 32  0  0  0  0  0  0  0  0999 V2000
   -3.3950   24.3053  -27.4936 O   0  0  0  0  0  0  0  0  0  0  0  0
   -4.3100   24.5173  -26.4070 C   0  0  0  0  0  0  0  0  0  0  0  0
   -4.0813   25.2053  -25.2610 C   0  0  0  0  0  0  0  0  0  0  0  0
   -5.0642   25.3628  -24.2987 C   0  0  0  0  0  0  0  0  0  0  0  0
   -6.3220   24.8393  -24.4407 C   0  0  0  0  0  0  0  0  0  0  0  0
   -6.5381   24.1215  -25.6453 C   0  0  0  0  0  0  0  0  0  0  0  0
   -5.5613   24.0014  -26.5252 N   0  0  0  0  0  0  0  0  0  0  0  0
   -7.4167   24.8693  -23.5383 C   0  0  0  0  0  0  0  0  0  0  0  0
   -8.6053   25.0068  -24.2187 O   0  0  0  0  0  0  0  0  0  0  0  0
   -7.6209   24.7845  -22.1705 N   0  0  0  0  0  0  0  0  0  0  0  0
   -6.6842   24.6015  -21.1456 C   0  0  0  0  0  0  0  0  0  0  0  0
   -6.8645   25.6308  -20.0239 C   0  0  0  0  0  0  0  0  0  0  0  0
   -8.1707   25.9525  -19.8175 O   0  0  0  0  0  0  0  0  0  0  0  0
   -9.0494   24.9646  -20.2541 C   0  0  0  0  0  0  0  0  0  0  0  0
   -9.0553   24.9301  -21.7487 C   0  0  0  0  0  0  0  0  0  0  0  0
   -3.0623   22.8811  -27.6704 C   0  0  0  0  0  0  0  0  0  0  0  0
    0.0406   23.0587  -28.5810 C   0  0  0  0  0  0  0  0  0  0  0  0
   -0.5439   22.6777  -27.2710 C   0  0  0  0  0  0  0  0  0  0  0  0
    0.1722   22.4255  -26.1738 O   0  0  0  0  0  0  0  0  0  0  0  0
   -0.5585   22.1098  -25.1958 N   0  0  0  0  0  0  0  0  0  0  0  0
   -1.8950   22.1302  -25.5702 C   0  0  0  0  0  0  0  0  0  0  0  0
   -1.8648   22.4976  -26.9251 C   0  0  0  0  0  0  0  0  0  0  0  0
   -2.9918   21.9413  -24.6515 C   0  0  0  0  0  0  0  0  0  0  0  0
   -2.7327   22.3485  -23.3261 C   0  0  0  0  0  0  0  0  0  0  0  0
   -3.6376   22.2049  -22.2921 C   0  0  0  0  0  0  0  0  0  0  0  0
   -4.8548   21.6334  -22.5748 C   0  0  0  0  0  0  0  0  0  0  0  0
   -5.1297   21.2297  -23.8516 C   0  0  0  0  0  0  0  0  0  0  0  0
   -6.3343   20.6512  -24.1025 F   0  0  0  0  0  0  0  0  0  0  0  0
   -4.2036   21.3818  -24.8929 C   0  0  0  0  0  0  0  0  0  0  0  0
 17 18  1  0  0  0
 18 19  1  0  0  0
 19 20  1  0  0  0
 20 21  2  0  0  0
 21 22  1  0  0  0
 22 16  1  0  0  0
 16  1  1  0  0  0
  1  2  1  0  0  0
  2  3  2  0  0  0
  3  4  1  0  0  0
  4  5  2  0  0  0
  5  6  1  0  0  0
  6  7  2  0  0  0
  5  8  1  0  0  0
  8  9  2  0  0  0
  8 10  1  0  0  0
 10 11  1  0  0  0
 11 12  1  0  0  0
 12 13  1  0  0  0
 13 14  1  0  0  0
 14 15  1  0  0  0
 21 23  1  0  0  0
 23 24  2  0  0  0
 24 25  1  0  0  0
 25 26  2  0  0  0
 26 27  1  0  0  0
 27 28  1  0  0  0
 27 29  2  0  0  0
 22 18  2  0  0  0
  7  2  1  0  0  0
 15 10  1  0  0  0
 29 23  1  0  0  0
M  END
> <minimizedAffinity>
-8.26081

> <CNNscore>
0.5534501672

> <CNNaffinity>
6.3931035995

> <CNN_VS>
3.5382642746

> <CNNaffinity_variance>
0.1843046993

$$$$
[H]c1nc(OC([H])([H])c2c(-c3c([H])c([H])c([H])c(F)c3[H])noc2C([H])([H])[H])c([H])c([H])c1C(=O)N1C([H])([H])C([H])([H])OC([H])([H])C1([H])[H]


 29 32  0  0  0  0  0  0  0  0999 V2000
   -2.4705   22.6767  -23.5697 O   0  0  0  0  0  0  0  0  0  0  0  0
   -3.8050   23.1735  -23.3827 C   0  0  0  0  0  0  0  0  0  0  0  0
   -4.9645   22.5796  -23.7595 C   0  0  0  0  0  0  0  0  0  0  0  0
   -6.1959   23.1529  -23.4917 C   0  0  0  0  0  0  0  0  0  0  0  0
   -6.3225   24.3472  -22.8329 C   0  0  0  0  0  0  0  0  0  0  0  0
   -5.0973   24.9519  -22.4507 C   0  0  0  0  0  0  0  0  0  0  0  0
   -3.9527   24.3595  -22.7365 N   0  0  0  0  0  0  0  0  0  0  0  0
   -7.4946   25.0856  -22.5251 C   0  0  0  0  0  0  0  0  0  0  0  0
   -7.4392   26.3425  -23.0833 O   0  0  0  0  0  0  0  0  0  0  0  0
   -8.6792   24.8881  -21.8341 N   0  0  0  0  0  0  0  0  0  0  0  0
   -9.1336   23.7446  -21.1654 C   0  0  0  0  0  0  0  0  0  0  0  0
   -9.6131   24.0719  -19.7466 C   0  0  0  0  0  0  0  0  0  0  0  0
  -10.2108   25.2920  -19.6675 O   0  0  0  0  0  0  0  0  0  0  0  0
  -10.7145   25.7309  -20.8891 C   0  0  0  0  0  0  0  0  0  0  0  0
   -9.5801   26.0896  -21.7943 C   0  0  0  0  0  0  0  0  0  0  0  0
   -2.3492   21.8523  -24.7845 C   0  0  0  0  0  0  0  0  0  0  0  0
    0.8778   21.6519  -24.5959 C   0  0  0  0  0  0  0  0  0  0  0  0
    0.0220   22.1912  -25.6821 C   0  0  0  0  0  0  0  0  0  0  0  0
    0.4823   22.6161  -26.8602 O   0  0  0  0  0  0  0  0  0  0  0  0
   -0.4439   23.0400  -27.6035 N   0  0  0  0  0  0  0  0  0  0  0  0
   -1.6672   22.9243  -26.9577 C   0  0  0  0  0  0  0  0  0  0  0  0
   -1.3428   22.3742  -25.7072 C   0  0  0  0  0  0  0  0  0  0  0  0
   -2.9377   23.2026  -27.5832 C   0  0  0  0  0  0  0  0  0  0  0  0
   -3.7590   24.1093  -26.8811 C   0  0  0  0  0  0  0  0  0  0  0  0
   -5.0291   24.4652  -27.2918 C   0  0  0  0  0  0  0  0  0  0  0  0
   -5.5148   23.9023  -28.4474 C   0  0  0  0  0  0  0  0  0  0  0  0
   -4.7385   23.0199  -29.1455 C   0  0  0  0  0  0  0  0  0  0  0  0
   -5.2481   22.4633  -30.2764 F   0  0  0  0  0  0  0  0  0  0  0  0
   -3.4504   22.6674  -28.7193 C   0  0  0  0  0  0  0  0  0  0  0  0
 17 18  1  0  0  0
 18 19  1  0  0  0
 19 20  1  0  0  0
 20 21  2  0  0  0
 21 22  1  0  0  0
 22 16  1  0  0  0
 16  1  1  0  0  0
  1  2  1  0  0  0
  2  3  2  0  0  0
  3  4  1  0  0  0
  4  5  2  0  0  0
  5  6  1  0  0  0
  6  7  2  0  0  0
  5  8  1  0  0  0
  8  9  2  0  0  0
  8 10  1  0  0  0
 10 11  1  0  0  0
 11 12  1  0  0  0
 12 13  1  0  0  0
 13 14  1  0  0  0
 14 15  1  0  0  0
 21 23  1  0  0  0
 23 24  2  0  0  0
 24 25  1  0  0  0
 25 26  2  0  0  0
 26 27  1  0  0  0
 27 28  1  0  0  0
 27 29  2  0  0  0
 22 18  2  0  0  0
  7  2  1  0  0  0
 15 10  1  0  0  0
 29 23  1  0  0  0
M  END
> <minimizedAffinity>
-8.94642

> <CNNscore>
0.5029844642

> <CNNaffinity>
6.4659843445

> <CNN_VS>
3.2522897720

> <CNNaffinity_variance>
0.3023862243

$$$$
[H]c1nc(OC([H])([H])c2c(-c3c([H])c([H])c([H])c(F)c3[H])noc2C([H])([H])[H])c([H])c([H])c1C(=O)N1C([H])([H])C([H])([H])OC([H])([H])C1([H])[H]


 29 32  0  0  0  0  0  0  0  0999 V2000
   -2.8193   22.6668  -26.2732 O   0  0  0  0  0  0  0  0  0  0  0  0
   -1.8604   22.2576  -25.2853 C   0  0  0  0  0  0  0  0  0  0  0  0
   -2.1116   21.8185  -24.0270 C   0  0  0  0  0  0  0  0  0  0  0  0
   -1.0924   21.4230  -23.1776 C   0  0  0  0  0  0  0  0  0  0  0  0
    0.2255   21.4479  -23.5500 C   0  0  0  0  0  0  0  0  0  0  0  0
    0.4653   21.9130  -24.8688 C   0  0  0  0  0  0  0  0  0  0  0  0
   -0.5471   22.2802  -25.6323 N   0  0  0  0  0  0  0  0  0  0  0  0
    1.3813   21.1249  -22.7926 C   0  0  0  0  0  0  0  0  0  0  0  0
    2.5132   21.6285  -23.3924 O   0  0  0  0  0  0  0  0  0  0  0  0
    1.6832   20.4591  -21.6157 N   0  0  0  0  0  0  0  0  0  0  0  0
    0.8197   19.8456  -20.6994 C   0  0  0  0  0  0  0  0  0  0  0  0
    1.2731   18.4209  -20.3612 C   0  0  0  0  0  0  0  0  0  0  0  0
    2.6283   18.2982  -20.3348 O   0  0  0  0  0  0  0  0  0  0  0  0
    3.2791   19.5069  -20.1017 C   0  0  0  0  0  0  0  0  0  0  0  0
    3.1515   20.3806  -21.3081 C   0  0  0  0  0  0  0  0  0  0  0  0
   -3.4581   23.9491  -25.9302 C   0  0  0  0  0  0  0  0  0  0  0  0
   -5.0550   23.6675  -23.1267 C   0  0  0  0  0  0  0  0  0  0  0  0
   -5.5795   23.7991  -24.5089 C   0  0  0  0  0  0  0  0  0  0  0  0
   -6.8728   23.9233  -24.8129 O   0  0  0  0  0  0  0  0  0  0  0  0
   -7.0592   24.0042  -26.0574 N   0  0  0  0  0  0  0  0  0  0  0  0
   -5.8456   23.9444  -26.7284 C   0  0  0  0  0  0  0  0  0  0  0  0
   -4.8952   23.8066  -25.7041 C   0  0  0  0  0  0  0  0  0  0  0  0
   -5.7016   24.1375  -28.1513 C   0  0  0  0  0  0  0  0  0  0  0  0
   -5.7065   25.4842  -28.5711 C   0  0  0  0  0  0  0  0  0  0  0  0
   -5.6286   25.8720  -29.8947 C   0  0  0  0  0  0  0  0  0  0  0  0
   -5.5424   24.8890  -30.8510 C   0  0  0  0  0  0  0  0  0  0  0  0
   -5.5367   23.5763  -30.4697 C   0  0  0  0  0  0  0  0  0  0  0  0
   -5.4681   22.6218  -31.4355 F   0  0  0  0  0  0  0  0  0  0  0  0
   -5.6149   23.1950  -29.1230 C   0  0  0  0  0  0  0  0  0  0  0  0
 17 18  1  0  0  0
 18 19  1  0  0  0
 19 20  1  0  0  0
 20 21  2  0  0  0
 21 22  1  0  0  0
 22 16  1  0  0  0
 16  1  1  0  0  0
  1  2  1  0  0  0
  2  3  2  0  0  0
  3  4  1  0  0  0
  4  5  2  0  0  0
  5  6  1  0  0  0
  6  7  2  0  0  0
  5  8  1  0  0  0
  8  9  2  0  0  0
  8 10  1  0  0  0
 10 11  1  0  0  0
 11 12  1  0  0  0
 12 13  1  0  0  0
 13 14  1  0  0  0
 14 15  1  0  0  0
 21 23  1  0  0  0
 23 24  2  0  0  0
 24 25  1  0  0  0
 25 26  2  0  0  0
 26 27  1  0  0  0
 27 28  1  0  0  0
 27 29  2  0  0  0
 22 18  2  0  0  0
  7  2  1  0  0  0
 15 10  1  0  0  0
 29 23  1  0  0  0
M  END
> <minimizedAffinity>
-8.55260

> <CNNscore>
0.4580022693

> <CNNaffinity>
6.4944200516

> <CNN_VS>
2.9744591713

> <CNNaffinity_variance>
0.4428420067

$$$$
[H]c1nc(OC([H])([H])[H])c([H])c(N([H])c2nc([H])c(F)c(N([H])c3nc4c(c([H])c3[H])OC(C([H])([H])[H])(C([H])([H])[H])C(=O)N4[H])n2)c1[H]


 33 36  0  0  0  0  0  0  0  0999 V2000
   -1.6070   22.5983  -27.1339 C   0  0  0  0  0  0  0  0  0  0  0  0
   -0.2300   22.6207  -27.1393 N   0  0  0  0  0  0  0  0  0  0  0  0
    0.4076   22.2790  -26.0218 C   0  0  0  0  0  0  0  0  0  0  0  0
   -0.2204   21.9066  -24.8657 C   0  0  0  0  0  0  0  0  0  0  0  0
    0.5095   21.5749  -23.7763 F   0  0  0  0  0  0  0  0  0  0  0  0
   -1.6342   21.8821  -24.8513 C   0  0  0  0  0  0  0  0  0  0  0  0
   -2.2148   22.2335  -25.9985 N   0  0  0  0  0  0  0  0  0  0  0  0
   -2.1970   22.9909  -28.3445 N   0  0  0  0  0  0  0  0  0  0  0  0
   -1.5925   22.8693  -29.2356 H   0  0  0  0  0  0  0  0  0  0  0  0
   -5.2806   25.1407  -28.1670 C   0  0  0  0  0  0  0  0  0  0  0  0
   -3.9778   24.6782  -27.9699 C   0  0  0  0  0  0  0  0  0  0  0  0
   -3.4855   23.5159  -28.4824 C   0  0  0  0  0  0  0  0  0  0  0  0
   -4.3857   22.7617  -29.2558 C   0  0  0  0  0  0  0  0  0  0  0  0
   -5.6525   23.2368  -29.4321 C   0  0  0  0  0  0  0  0  0  0  0  0
   -6.1093   24.3932  -28.9110 N   0  0  0  0  0  0  0  0  0  0  0  0
   -5.2029   26.6091  -26.2734 C   0  0  0  0  0  0  0  0  0  0  0  0
   -5.6632   26.3526  -27.5860 O   0  0  0  0  0  0  0  0  0  0  0  0
   -2.2811   21.4810  -23.6928 N   0  0  0  0  0  0  0  0  0  0  0  0
   -1.9904   20.4907  -23.3410 H   0  0  0  0  0  0  0  0  0  0  0  0
   -3.2428   22.1019  -22.8775 C   0  0  0  0  0  0  0  0  0  0  0  0
   -3.3813   21.9427  -21.5242 C   0  0  0  0  0  0  0  0  0  0  0  0
   -4.3464   22.6243  -20.7671 C   0  0  0  0  0  0  0  0  0  0  0  0
   -5.2078   23.4978  -21.3824 C   0  0  0  0  0  0  0  0  0  0  0  0
   -6.1820   24.2003  -20.6880 O   0  0  0  0  0  0  0  0  0  0  0  0
   -7.2806   24.8342  -21.3037 C   0  0  0  0  0  0  0  0  0  0  0  0
   -8.4540   23.8721  -21.3566 C   0  0  0  0  0  0  0  0  0  0  0  0
   -7.7395   26.0463  -20.5214 C   0  0  0  0  0  0  0  0  0  0  0  0
   -6.9571   25.2829  -22.6820 C   0  0  0  0  0  0  0  0  0  0  0  0
   -7.5643   26.2702  -23.1733 O   0  0  0  0  0  0  0  0  0  0  0  0
   -5.9635   24.5657  -23.3894 N   0  0  0  0  0  0  0  0  0  0  0  0
   -5.0589   23.6475  -22.7413 C   0  0  0  0  0  0  0  0  0  0  0  0
   -4.1325   22.9872  -23.4357 N   0  0  0  0  0  0  0  0  0  0  0  0
   -5.8619   24.6882  -24.4153 H   0  0  0  0  0  0  0  0  0  0  0  0
 16 17  1  0  0  0
 17 10  1  0  0  0
 10 11  2  0  0  0
 11 12  1  0  0  0
 12  8  1  0  0  0
  8  1  1  0  0  0
  1  2  2  0  0  0
  2  3  1  0  0  0
  3  4  2  0  0  0
  4  5  1  0  0  0
  4  6  1  0  0  0
  6 18  1  0  0  0
 18 20  1  0  0  0
 20 21  2  0  0  0
 21 22  1  0  0  0
 22 23  2  0  0  0
 23 24  1  0  0  0
 24 25  1  0  0  0
 25 26  1  0  0  0
 25 27  1  0  0  0
 25 28  1  0  0  0
 28 29  2  0  0  0
 28 30  1  0  0  0
 30 31  1  0  0  0
 31 32  2  0  0  0
  6  7  2  0  0  0
 12 13  2  0  0  0
 13 14  1  0  0  0
 14 15  2  0  0  0
 15 10  1  0  0  0
  7  1  1  0  0  0
 32 20  1  0  0  0
 31 23  1  0  0  0
  8  9  1  0  0  0
 18 19  1  0  0  0
 30 33  1  0  0  0
M  END
> <minimizedAffinity>
-8.78888

> <CNNscore>
0.4565354586

> <CNNaffinity>
7.1495347023

> <CNN_VS>
3.2640161514

> <CNNaffinity_variance>
0.0449398570

$$$$
[H]c1nc(OC([H])([H])[H])c([H])c(N([H])c2nc([H])c(F)c(N([H])c3nc4c(c([H])c3[H])OC(C([H])([H])[H])(C([H])([H])[H])C(=O)N4[H])n2)c1[H]


 33 36  0  0  0  0  0  0  0  0999 V2000
   -1.5545   22.6820  -27.2223 C   0  0  0  0  0  0  0  0  0  0  0  0
   -0.2059   22.4323  -27.3458 N   0  0  0  0  0  0  0  0  0  0  0  0
    0.4785   22.1235  -26.2465 C   0  0  0  0  0  0  0  0  0  0  0  0
   -0.0749   22.0390  -24.9990 C   0  0  0  0  0  0  0  0  0  0  0  0
    0.6984   21.7180  -23.9366 F   0  0  0  0  0  0  0  0  0  0  0  0
   -1.4589   22.2952  -24.8633 C   0  0  0  0  0  0  0  0  0  0  0  0
   -2.0891   22.5982  -25.9980 N   0  0  0  0  0  0  0  0  0  0  0  0
   -2.1934   23.0184  -28.4249 N   0  0  0  0  0  0  0  0  0  0  0  0
   -1.6260   22.8533  -29.3333 H   0  0  0  0  0  0  0  0  0  0  0  0
   -5.2776   25.1613  -28.1838 C   0  0  0  0  0  0  0  0  0  0  0  0
   -3.9693   24.7029  -28.0155 C   0  0  0  0  0  0  0  0  0  0  0  0
   -3.4861   23.5397  -28.5347 C   0  0  0  0  0  0  0  0  0  0  0  0
   -4.4022   22.7802  -29.2838 C   0  0  0  0  0  0  0  0  0  0  0  0
   -5.6741   23.2513  -29.4323 C   0  0  0  0  0  0  0  0  0  0  0  0
   -6.1215   24.4087  -28.9052 N   0  0  0  0  0  0  0  0  0  0  0  0
   -5.3085   26.5632  -26.2392 C   0  0  0  0  0  0  0  0  0  0  0  0
   -5.6496   26.3746  -27.5988 O   0  0  0  0  0  0  0  0  0  0  0  0
   -2.0357   22.1867  -23.6075 N   0  0  0  0  0  0  0  0  0  0  0  0
   -1.5072   21.5137  -22.9317 H   0  0  0  0  0  0  0  0  0  0  0  0
   -3.1733   22.7762  -23.0298 C   0  0  0  0  0  0  0  0  0  0  0  0
   -3.3645   24.1129  -22.8007 C   0  0  0  0  0  0  0  0  0  0  0  0
   -4.5449   24.6349  -22.2498 C   0  0  0  0  0  0  0  0  0  0  0  0
   -5.5745   23.7923  -21.9132 C   0  0  0  0  0  0  0  0  0  0  0  0
   -6.7648   24.2484  -21.3656 O   0  0  0  0  0  0  0  0  0  0  0  0
   -7.6944   23.4176  -20.7073 C   0  0  0  0  0  0  0  0  0  0  0  0
   -7.3832   23.3900  -19.2215 C   0  0  0  0  0  0  0  0  0  0  0  0
   -9.1098   23.9351  -20.8516 C   0  0  0  0  0  0  0  0  0  0  0  0
   -7.6654   22.0301  -21.2362 C   0  0  0  0  0  0  0  0  0  0  0  0
   -8.7025   21.3191  -21.1744 O   0  0  0  0  0  0  0  0  0  0  0  0
   -6.4509   21.5658  -21.7943 N   0  0  0  0  0  0  0  0  0  0  0  0
   -5.3692   22.4527  -22.1473 C   0  0  0  0  0  0  0  0  0  0  0  0
   -4.2374   21.9843  -22.6724 N   0  0  0  0  0  0  0  0  0  0  0  0
   -6.3092   20.5518  -21.9658 H   0  0  0  0  0  0  0  0  0  0  0  0
 16 17  1  0  0  0
 17 10  1  0  0  0
 10 11  2  0  0  0
 11 12  1  0  0  0
 12  8  1  0  0  0
  8  1  1  0  0  0
  1  2  2  0  0  0
  2  3  1  0  0  0
  3  4  2  0  0  0
  4  5  1  0  0  0
  4  6  1  0  0  0
  6 18  1  0  0  0
 18 20  1  0  0  0
 20 21  2  0  0  0
 21 22  1  0  0  0
 22 23  2  0  0  0
 23 24  1  0  0  0
 24 25  1  0  0  0
 25 26  1  0  0  0
 25 27  1  0  0  0
 25 28  1  0  0  0
 28 29  2  0  0  0
 28 30  1  0  0  0
 30 31  1  0  0  0
 31 32  2  0  0  0
  6  7  2  0  0  0
 12 13  2  0  0  0
 13 14  1  0  0  0
 14 15  2  0  0  0
 15 10  1  0  0  0
  7  1  1  0  0  0
 32 20  1  0  0  0
 31 23  1  0  0  0
  8  9  1  0  0  0
 18 19  1  0  0  0
 30 33  1  0  0  0
M  END
> <minimizedAffinity>
-8.83062

> <CNNscore>
0.4169322252

> <CNNaffinity>
7.0486969948

> <CNN_VS>
2.9388289452

> <CNNaffinity_variance>
0.1525253952

$$$$
[H]c1nc(OC([H])([H])[H])c([H])c(N([H])c2nc([H])c(F)c(N([H])c3nc4c(c([H])c3[H])OC(C([H])([H])[H])(C([H])([H])[H])C(=O)N4[H])n2)c1[H]


 33 36  0  0  0  0  0  0  0  0999 V2000
   -0.4903   21.0781  -21.7900 C   0  0  0  0  0  0  0  0  0  0  0  0
    0.6311   20.6217  -21.1335 N   0  0  0  0  0  0  0  0  0  0  0  0
    1.7939   20.6537  -21.7809 C   0  0  0  0  0  0  0  0  0  0  0  0
    1.9451   21.1119  -23.0603 C   0  0  0  0  0  0  0  0  0  0  0  0
    3.1672   21.1075  -23.6401 F   0  0  0  0  0  0  0  0  0  0  0  0
    0.7984   21.5811  -23.7419 C   0  0  0  0  0  0  0  0  0  0  0  0
   -0.3347   21.5244  -23.0423 N   0  0  0  0  0  0  0  0  0  0  0  0
   -1.6742   20.9904  -21.0427 N   0  0  0  0  0  0  0  0  0  0  0  0
   -1.7264   20.1872  -20.3172 H   0  0  0  0  0  0  0  0  0  0  0  0
   -4.3489   23.3082  -22.3217 C   0  0  0  0  0  0  0  0  0  0  0  0
   -3.2316   22.4714  -22.2837 C   0  0  0  0  0  0  0  0  0  0  0  0
   -2.7706   21.8497  -21.1625 C   0  0  0  0  0  0  0  0  0  0  0  0
   -3.4998   22.0964  -19.9858 C   0  0  0  0  0  0  0  0  0  0  0  0
   -4.5871   22.9181  -20.0512 C   0  0  0  0  0  0  0  0  0  0  0  0
   -5.0183   23.5187  -21.1786 N   0  0  0  0  0  0  0  0  0  0  0  0
   -4.5588   25.2864  -23.6599 C   0  0  0  0  0  0  0  0  0  0  0  0
   -4.7197   23.8864  -23.5386 O   0  0  0  0  0  0  0  0  0  0  0  0
    0.9444   22.0724  -25.0299 N   0  0  0  0  0  0  0  0  0  0  0  0
    1.9800   22.2377  -25.3283 H   0  0  0  0  0  0  0  0  0  0  0  0
    0.0162   22.4011  -26.0327 C   0  0  0  0  0  0  0  0  0  0  0  0
    0.2871   22.5601  -27.3658 C   0  0  0  0  0  0  0  0  0  0  0  0
   -0.7000   22.8555  -28.3185 C   0  0  0  0  0  0  0  0  0  0  0  0
   -2.0078   22.9990  -27.9277 C   0  0  0  0  0  0  0  0  0  0  0  0
   -3.0273   23.2906  -28.8223 O   0  0  0  0  0  0  0  0  0  0  0  0
   -4.2962   23.7690  -28.4365 C   0  0  0  0  0  0  0  0  0  0  0  0
   -4.2847   25.2872  -28.4361 C   0  0  0  0  0  0  0  0  0  0  0  0
   -5.3768   23.3367  -29.4046 C   0  0  0  0  0  0  0  0  0  0  0  0
   -4.6808   23.2851  -27.0860 C   0  0  0  0  0  0  0  0  0  0  0  0
   -5.8988   23.1552  -26.7954 O   0  0  0  0  0  0  0  0  0  0  0  0
   -3.6403   22.9882  -26.1743 N   0  0  0  0  0  0  0  0  0  0  0  0
   -2.2659   22.8380  -26.5865 C   0  0  0  0  0  0  0  0  0  0  0  0
   -1.3082   22.5572  -25.7032 N   0  0  0  0  0  0  0  0  0  0  0  0
   -3.8491   22.8692  -25.1644 H   0  0  0  0  0  0  0  0  0  0  0  0
 16 17  1  0  0  0
 17 10  1  0  0  0
 10 11  2  0  0  0
 11 12  1  0  0  0
 12  8  1  0  0  0
  8  1  1  0  0  0
  1  2  2  0  0  0
  2  3  1  0  0  0
  3  4  2  0  0  0
  4  5  1  0  0  0
  4  6  1  0  0  0
  6 18  1  0  0  0
 18 20  1  0  0  0
 20 21  2  0  0  0
 21 22  1  0  0  0
 22 23  2  0  0  0
 23 24  1  0  0  0
 24 25  1  0  0  0
 25 26  1  0  0  0
 25 27  1  0  0  0
 25 28  1  0  0  0
 28 29  2  0  0  0
 28 30  1  0  0  0
 30 31  1  0  0  0
 31 32  2  0  0  0
  6  7  2  0  0  0
 12 13  2  0  0  0
 13 14  1  0  0  0
 14 15  2  0  0  0
 15 10  1  0  0  0
  7  1  1  0  0  0
 32 20  1  0  0  0
 31 23  1  0  0  0
  8  9  1  0  0  0
 18 19  1  0  0  0
 30 33  1  0  0  0
M  END
> <minimizedAffinity>
-8.52615

> <CNNscore>
0.3261481225

> <CNNaffinity>
6.8064851761

> <CNN_VS>
2.2199223042

> <CNNaffinity_variance>
0.2491661012

$$$$
[H]c1nc(OC([H])([H])[H])c([H])c(N([H])c2nc([H])c(F)c(N([H])c3nc4c(c([H])c3[H])OC(C([H])([H])[H])(C([H])([H])[H])C(=O)N4[H])n2)c1[H]


 33 36  0  0  0  0  0  0  0  0999 V2000
   -0.0742   20.8818  -21.5564 C   0  0  0  0  0  0  0  0  0  0  0  0
    1.0782   20.3265  -21.0464 N   0  0  0  0  0  0  0  0  0  0  0  0
    2.1830   20.3825  -21.7871 C   0  0  0  0  0  0  0  0  0  0  0  0
    2.2454   20.9579  -23.0259 C   0  0  0  0  0  0  0  0  0  0  0  0
    3.4133   20.9691  -23.7081 F   0  0  0  0  0  0  0  0  0  0  0  0
    1.0662   21.5293  -23.5574 C   0  0  0  0  0  0  0  0  0  0  0  0
   -0.0056   21.4426  -22.7699 N   0  0  0  0  0  0  0  0  0  0  0  0
   -1.1940   20.7614  -20.7202 N   0  0  0  0  0  0  0  0  0  0  0  0
   -2.1215   20.4684  -21.1978 H   0  0  0  0  0  0  0  0  0  0  0  0
   -0.2820   21.6811  -17.1868 C   0  0  0  0  0  0  0  0  0  0  0  0
   -0.1905   21.4720  -18.5645 C   0  0  0  0  0  0  0  0  0  0  0  0
   -1.1995   20.9860  -19.3401 C   0  0  0  0  0  0  0  0  0  0  0  0
   -2.3966   20.6872  -18.6655 C   0  0  0  0  0  0  0  0  0  0  0  0
   -2.4586   20.9007  -17.3193 C   0  0  0  0  0  0  0  0  0  0  0  0
   -1.4405   21.3843  -16.5795 N   0  0  0  0  0  0  0  0  0  0  0  0
    2.0529   22.2248  -17.2099 C   0  0  0  0  0  0  0  0  0  0  0  0
    0.8277   22.1865  -16.5043 O   0  0  0  0  0  0  0  0  0  0  0  0
    1.1241   22.1386  -24.8012 N   0  0  0  0  0  0  0  0  0  0  0  0
    2.1234   22.4649  -25.0908 H   0  0  0  0  0  0  0  0  0  0  0  0
    0.1439   22.4203  -25.7682 C   0  0  0  0  0  0  0  0  0  0  0  0
    0.3482   22.5393  -27.1173 C   0  0  0  0  0  0  0  0  0  0  0  0
   -0.6879   22.7885  -28.0303 C   0  0  0  0  0  0  0  0  0  0  0  0
   -1.9777   22.9254  -27.5817 C   0  0  0  0  0  0  0  0  0  0  0  0
   -3.0434   23.1721  -28.4350 O   0  0  0  0  0  0  0  0  0  0  0  0
   -4.3001   23.6440  -28.0041 C   0  0  0  0  0  0  0  0  0  0  0  0
   -4.3135   25.1615  -28.0531 C   0  0  0  0  0  0  0  0  0  0  0  0
   -5.4184   23.1641  -28.9046 C   0  0  0  0  0  0  0  0  0  0  0  0
   -4.6119   23.1993  -26.6218 C   0  0  0  0  0  0  0  0  0  0  0  0
   -5.8124   23.0609  -26.2688 O   0  0  0  0  0  0  0  0  0  0  0  0
   -3.5244   22.9481  -25.7522 N   0  0  0  0  0  0  0  0  0  0  0  0
   -2.1689   22.8048  -26.2252 C   0  0  0  0  0  0  0  0  0  0  0  0
   -1.1658   22.5675  -25.3804 N   0  0  0  0  0  0  0  0  0  0  0  0
   -3.6828   22.8593  -24.7301 H   0  0  0  0  0  0  0  0  0  0  0  0
 16 17  1  0  0  0
 17 10  1  0  0  0
 10 11  2  0  0  0
 11 12  1  0  0  0
 12  8  1  0  0  0
  8  1  1  0  0  0
  1  2  2  0  0  0
  2  3  1  0  0  0
  3  4  2  0  0  0
  4  5  1  0  0  0
  4  6  1  0  0  0
  6 18  1  0  0  0
 18 20  1  0  0  0
 20 21  2  0  0  0
 21 22  1  0  0  0
 22 23  2  0  0  0
 23 24  1  0  0  0
 24 25  1  0  0  0
 25 26  1  0  0  0
 25 27  1  0  0  0
 25 28  1  0  0  0
 28 29  2  0  0  0
 28 30  1  0  0  0
 30 31  1  0  0  0
 31 32  2  0  0  0
  6  7  2  0  0  0
 12 13  2  0  0  0
 13 14  1  0  0  0
 14 15  2  0  0  0
 15 10  1  0  0  0
  7  1  1  0  0  0
 32 20  1  0  0  0
 31 23  1  0  0  0
  8  9  1  0  0  0
 18 19  1  0  0  0
 30 33  1  0  0  0
M  END
> <minimizedAffinity>
-7.94632

> <CNNscore>
0.2491165251

> <CNNaffinity>
6.5823678970

> <CNN_VS>
1.6397765875

> <CNNaffinity_variance>
0.0464303456

$$$$
[H]c1nc(OC([H])([H])[H])c([H])c(N([H])c2nc([H])c(F)c(N([H])c3nc4c(c([H])c3[H])OC(C([H])([H])[H])(C([H])([H])[H])C(=O)N4[H])n2)c1[H]


 33 36  0  0  0  0  0  0  0  0999 V2000
   -1.4868   22.5427  -26.2986 C   0  0  0  0  0  0  0  0  0  0  0  0
   -1.0180   22.6401  -27.5899 N   0  0  0  0  0  0  0  0  0  0  0  0
   -1.8642   23.0407  -28.5363 C   0  0  0  0  0  0  0  0  0  0  0  0
   -3.1732   23.3620  -28.3062 C   0  0  0  0  0  0  0  0  0  0  0  0
   -3.9617   23.7606  -29.3305 F   0  0  0  0  0  0  0  0  0  0  0  0
   -3.6629   23.2635  -26.9833 C   0  0  0  0  0  0  0  0  0  0  0  0
   -2.7694   22.8581  -26.0812 N   0  0  0  0  0  0  0  0  0  0  0  0
   -0.5357   22.0951  -25.3698 N   0  0  0  0  0  0  0  0  0  0  0  0
    0.3599   21.6426  -25.7789 H   0  0  0  0  0  0  0  0  0  0  0  0
   -1.5806   22.9971  -21.8688 C   0  0  0  0  0  0  0  0  0  0  0  0
   -1.5135   22.9702  -23.2634 C   0  0  0  0  0  0  0  0  0  0  0  0
   -0.6563   22.1908  -23.9801 C   0  0  0  0  0  0  0  0  0  0  0  0
    0.2020   21.3739  -23.2229 C   0  0  0  0  0  0  0  0  0  0  0  0
    0.1156   21.4200  -21.8621 C   0  0  0  0  0  0  0  0  0  0  0  0
   -0.7456   22.2033  -21.1820 N   0  0  0  0  0  0  0  0  0  0  0  0
   -3.8309   23.8152  -21.7487 C   0  0  0  0  0  0  0  0  0  0  0  0
   -2.5068   23.8426  -21.2524 O   0  0  0  0  0  0  0  0  0  0  0  0
   -4.9812   23.6119  -26.7340 N   0  0  0  0  0  0  0  0  0  0  0  0
   -5.6865   23.2490  -27.4823 H   0  0  0  0  0  0  0  0  0  0  0  0
   -5.5920   24.3443  -25.7016 C   0  0  0  0  0  0  0  0  0  0  0  0
   -5.6516   25.7090  -25.6029 C   0  0  0  0  0  0  0  0  0  0  0  0
   -6.3109   26.3737  -24.5575 C   0  0  0  0  0  0  0  0  0  0  0  0
   -6.9342   25.6507  -23.5716 C   0  0  0  0  0  0  0  0  0  0  0  0
   -7.6018   26.2504  -22.5136 O   0  0  0  0  0  0  0  0  0  0  0  0
   -7.9581   25.5761  -21.3278 C   0  0  0  0  0  0  0  0  0  0  0  0
   -6.8457   25.7296  -20.3060 C   0  0  0  0  0  0  0  0  0  0  0  0
   -9.2103   26.1574  -20.7066 C   0  0  0  0  0  0  0  0  0  0  0  0
   -8.2025   24.1309  -21.5673 C   0  0  0  0  0  0  0  0  0  0  0  0
   -8.9942   23.5014  -20.8176 O   0  0  0  0  0  0  0  0  0  0  0  0
   -7.5211   23.5201  -22.6464 N   0  0  0  0  0  0  0  0  0  0  0  0
   -6.8659   24.2816  -23.6820 C   0  0  0  0  0  0  0  0  0  0  0  0
   -6.2328   23.6763  -24.6865 N   0  0  0  0  0  0  0  0  0  0  0  0
   -7.4772   22.4853  -22.7176 H   0  0  0  0  0  0  0  0  0  0  0  0
 16 17  1  0  0  0
 17 10  1  0  0  0
 10 11  2  0  0  0
 11 12  1  0  0  0
 12  8  1  0  0  0
  8  1  1  0  0  0
  1  2  2  0  0  0
  2  3  1  0  0  0
  3  4  2  0  0  0
  4  5  1  0  0  0
  4  6  1  0  0  0
  6 18  1  0  0  0
 18 20  1  0  0  0
 20 21  2  0  0  0
 21 22  1  0  0  0
 22 23  2  0  0  0
 23 24  1  0  0  0
 24 25  1  0  0  0
 25 26  1  0  0  0
 25 27  1  0  0  0
 25 28  1  0  0  0
 28 29  2  0  0  0
 28 30  1  0  0  0
 30 31  1  0  0  0
 31 32  2  0  0  0
  6  7  2  0  0  0
 12 13  2  0  0  0
 13 14  1  0  0  0
 14 15  2  0  0  0
 15 10  1  0  0  0
  7  1  1  0  0  0
 32 20  1  0  0  0
 31 23  1  0  0  0
  8  9  1  0  0  0
 18 19  1  0  0  0
 30 33  1  0  0  0
M  END
> <minimizedAffinity>
-8.30554

> <CNNscore>
0.2363390326

> <CNNaffinity>
6.7392473221

> <CNN_VS>
1.5927472115

> <CNNaffinity_variance>
0.2647801340

$$$$
[H]c1nc(OC([H])([H])[H])c([H])c(N([H])c2nc([H])c(F)c(N([H])c3nc4c(c([H])c3[H])OC(C([H])([H])[H])(C([H])([H])[H])C(=O)N4[H])n2)c1[H]


 33 36  0  0  0  0  0  0  0  0999 V2000
   -5.0056   23.2770  -26.1154 C   0  0  0  0  0  0  0  0  0  0  0  0
   -5.1924   23.3144  -27.4793 N   0  0  0  0  0  0  0  0  0  0  0  0
   -4.1191   23.2302  -28.2623 C   0  0  0  0  0  0  0  0  0  0  0  0
   -2.8394   23.1090  -27.7961 C   0  0  0  0  0  0  0  0  0  0  0  0
   -1.8073   23.0296  -28.6668 F   0  0  0  0  0  0  0  0  0  0  0  0
   -2.6388   23.0711  -26.3969 C   0  0  0  0  0  0  0  0  0  0  0  0
   -3.7502   23.1590  -25.6664 N   0  0  0  0  0  0  0  0  0  0  0  0
   -6.1860   23.3913  -25.3662 N   0  0  0  0  0  0  0  0  0  0  0  0
   -7.0967   23.5645  -25.9273 H   0  0  0  0  0  0  0  0  0  0  0  0
   -6.3221   24.1287  -21.6784 C   0  0  0  0  0  0  0  0  0  0  0  0
   -6.2140   24.3059  -23.0593 C   0  0  0  0  0  0  0  0  0  0  0  0
   -6.2714   23.2977  -23.9737 C   0  0  0  0  0  0  0  0  0  0  0  0
   -6.4522   22.0067  -23.4464 C   0  0  0  0  0  0  0  0  0  0  0  0
   -6.5546   21.8621  -22.0936 C   0  0  0  0  0  0  0  0  0  0  0  0
   -6.4941   22.8821  -21.2141 N   0  0  0  0  0  0  0  0  0  0  0  0
   -7.4708   25.8377  -20.4504 C   0  0  0  0  0  0  0  0  0  0  0  0
   -6.2473   25.2479  -20.8450 O   0  0  0  0  0  0  0  0  0  0  0  0
   -1.3482   22.9221  -25.9135 N   0  0  0  0  0  0  0  0  0  0  0  0
   -0.5838   23.3913  -26.5336 H   0  0  0  0  0  0  0  0  0  0  0  0
   -0.8273   22.2824  -24.7756 C   0  0  0  0  0  0  0  0  0  0  0  0
   -1.5374   21.8853  -23.6738 C   0  0  0  0  0  0  0  0  0  0  0  0
   -0.9542   21.2183  -22.5856 C   0  0  0  0  0  0  0  0  0  0  0  0
    0.3890   20.9368  -22.5950 C   0  0  0  0  0  0  0  0  0  0  0  0
    1.0223   20.2804  -21.5496 O   0  0  0  0  0  0  0  0  0  0  0  0
    2.4197   20.2680  -21.3632 C   0  0  0  0  0  0  0  0  0  0  0  0
    2.8198   21.4260  -20.4664 C   0  0  0  0  0  0  0  0  0  0  0  0
    2.8830   18.9998  -20.6783 C   0  0  0  0  0  0  0  0  0  0  0  0
    3.1492   20.3766  -22.6523 C   0  0  0  0  0  0  0  0  0  0  0  0
    4.3007   19.8792  -22.7592 O   0  0  0  0  0  0  0  0  0  0  0  0
    2.5026   21.0464  -23.7178 N   0  0  0  0  0  0  0  0  0  0  0  0
    1.0905   21.3420  -23.7063 C   0  0  0  0  0  0  0  0  0  0  0  0
    0.5104   21.9738  -24.7264 N   0  0  0  0  0  0  0  0  0  0  0  0
    3.0442   21.3468  -24.5510 H   0  0  0  0  0  0  0  0  0  0  0  0
 16 17  1  0  0  0
 17 10  1  0  0  0
 10 11  2  0  0  0
 11 12  1  0  0  0
 12  8  1  0  0  0
  8  1  1  0  0  0
  1  2  2  0  0  0
  2  3  1  0  0  0
  3  4  2  0  0  0
  4  5  1  0  0  0
  4  6  1  0  0  0
  6 18  1  0  0  0
 18 20  1  0  0  0
 20 21  2  0  0  0
 21 22  1  0  0  0
 22 23  2  0  0  0
 23 24  1  0  0  0
 24 25  1  0  0  0
 25 26  1  0  0  0
 25 27  1  0  0  0
 25 28  1  0  0  0
 28 29  2  0  0  0
 28 30  1  0  0  0
 30 31  1  0  0  0
 31 32  2  0  0  0
  6  7  2  0  0  0
 12 13  2  0  0  0
 13 14  1  0  0  0
 14 15  2  0  0  0
 15 10  1  0  0  0
  7  1  1  0  0  0
 32 20  1  0  0  0
 31 23  1  0  0  0
  8  9  1  0  0  0
 18 19  1  0  0  0
 30 33  1  0  0  0
M  END
> <minimizedAffinity>
-7.89373

> <CNNscore>
0.2331105471

> <CNNaffinity>
6.7455205917

> <CNN_VS>
1.5724519491

> <CNNaffinity_variance>
0.0850060135

$$$$
[H]c1nc(OC([H])([H])[H])c([H])c(N([H])c2nc([H])c(F)c(N([H])c3nc4c(c([H])c3[H])OC(C([H])([H])[H])(C([H])([H])[H])C(=O)N4[H])n2)c1[H]


 33 36  0  0  0  0  0  0  0  0999 V2000
    0.9694   21.7069  -23.9871 C   0  0  0  0  0  0  0  0  0  0  0  0
    2.1930   21.2925  -23.5101 N   0  0  0  0  0  0  0  0  0  0  0  0
    2.2373   20.7211  -22.3085 C   0  0  0  0  0  0  0  0  0  0  0  0
    1.1414   20.5198  -21.5159 C   0  0  0  0  0  0  0  0  0  0  0  0
    1.2806   19.9299  -20.3067 F   0  0  0  0  0  0  0  0  0  0  0  0
   -0.1186   20.9437  -21.9978 C   0  0  0  0  0  0  0  0  0  0  0  0
   -0.0987   21.5073  -23.2055 N   0  0  0  0  0  0  0  0  0  0  0  0
    1.0165   22.3152  -25.2503 N   0  0  0  0  0  0  0  0  0  0  0  0
    1.9891   22.6588  -25.5824 H   0  0  0  0  0  0  0  0  0  0  0  0
   -2.4431   22.6030  -26.7030 C   0  0  0  0  0  0  0  0  0  0  0  0
   -1.4031   22.3811  -25.7979 C   0  0  0  0  0  0  0  0  0  0  0  0
   -0.0798   22.5048  -26.0971 C   0  0  0  0  0  0  0  0  0  0  0  0
    0.2129   22.8829  -27.4195 C   0  0  0  0  0  0  0  0  0  0  0  0
   -0.8222   23.0931  -28.2831 C   0  0  0  0  0  0  0  0  0  0  0  0
   -2.1233   22.9626  -27.9550 N   0  0  0  0  0  0  0  0  0  0  0  0
   -3.9674   21.6529  -25.1150 C   0  0  0  0  0  0  0  0  0  0  0  0
   -3.7621   22.4426  -26.2703 O   0  0  0  0  0  0  0  0  0  0  0  0
   -1.2401   20.7210  -21.2141 N   0  0  0  0  0  0  0  0  0  0  0  0
   -1.8201   19.8450  -21.5059 H   0  0  0  0  0  0  0  0  0  0  0  0
   -1.7802   21.4048  -20.1114 C   0  0  0  0  0  0  0  0  0  0  0  0
   -1.0980   21.8036  -18.9927 C   0  0  0  0  0  0  0  0  0  0  0  0
   -1.6976   22.5156  -17.9426 C   0  0  0  0  0  0  0  0  0  0  0  0
   -3.0289   22.8424  -18.0092 C   0  0  0  0  0  0  0  0  0  0  0  0
   -3.6772   23.5446  -17.0035 O   0  0  0  0  0  0  0  0  0  0  0  0
   -5.0793   23.6090  -16.8705 C   0  0  0  0  0  0  0  0  0  0  0  0
   -5.5526   22.4868  -15.9639 C   0  0  0  0  0  0  0  0  0  0  0  0
   -5.5231   24.9081  -16.2323 C   0  0  0  0  0  0  0  0  0  0  0  0
   -5.7638   23.4948  -18.1836 C   0  0  0  0  0  0  0  0  0  0  0  0
   -6.8925   24.0285  -18.3452 O   0  0  0  0  0  0  0  0  0  0  0  0
   -5.1019   22.7782  -19.2086 N   0  0  0  0  0  0  0  0  0  0  0  0
   -3.7024   22.4351  -19.1370 C   0  0  0  0  0  0  0  0  0  0  0  0
   -3.1073   21.7599  -20.1199 N   0  0  0  0  0  0  0  0  0  0  0  0
   -5.6223   22.4768  -20.0548 H   0  0  0  0  0  0  0  0  0  0  0  0
 16 17  1  0  0  0
 17 10  1  0  0  0
 10 11  2  0  0  0
 11 12  1  0  0  0
 12  8  1  0  0  0
  8  1  1  0  0  0
  1  2  2  0  0  0
  2  3  1  0  0  0
  3  4  2  0  0  0
  4  5  1  0  0  0
  4  6  1  0  0  0
  6 18  1  0  0  0
 18 20  1  0  0  0
 20 21  2  0  0  0
 21 22  1  0  0  0
 22 23  2  0  0  0
 23 24  1  0  0  0
 24 25  1  0  0  0
 25 26  1  0  0  0
 25 27  1  0  0  0
 25 28  1  0  0  0
 28 29  2  0  0  0
 28 30  1  0  0  0
 30 31  1  0  0  0
 31 32  2  0  0  0
  6  7  2  0  0  0
 12 13  2  0  0  0
 13 14  1  0  0  0
 14 15  2  0  0  0
 15 10  1  0  0  0
  7  1  1  0  0  0
 32 20  1  0  0  0
 31 23  1  0  0  0
  8  9  1  0  0  0
 18 19  1  0  0  0
 30 33  1  0  0  0
M  END
> <minimizedAffinity>
-7.48555

> <CNNscore>
0.1837120205

> <CNNaffinity>
6.1713037491

> <CNN_VS>
1.1337426901

> <CNNaffinity_variance>
0.0172642544

$$$$
[H]c1nc(OC([H])([H])[H])c([H])c(N([H])c2nc([H])c(F)c(N([H])c3nc4c(c([H])c3[H])OC(C([H])([H])[H])(C([H])([H])[H])C(=O)N4[H])n2)c1[H]


 33 36  0  0  0  0  0  0  0  0999 V2000
   -0.1458   20.4422  -21.8372 C   0  0  0  0  0  0  0  0  0  0  0  0
    1.1494   20.6334  -22.2644 N   0  0  0  0  0  0  0  0  0  0  0  0
    1.3648   21.5108  -23.2421 C   0  0  0  0  0  0  0  0  0  0  0  0
    0.3781   22.2358  -23.8508 C   0  0  0  0  0  0  0  0  0  0  0  0
    0.6897   23.1067  -24.8378 F   0  0  0  0  0  0  0  0  0  0  0  0
   -0.9548   22.0445  -23.4190 C   0  0  0  0  0  0  0  0  0  0  0  0
   -1.1064   21.1547  -22.4382 N   0  0  0  0  0  0  0  0  0  0  0  0
   -0.2844   19.4874  -20.8190 N   0  0  0  0  0  0  0  0  0  0  0  0
   -1.2817   19.3554  -20.4163 H   0  0  0  0  0  0  0  0  0  0  0  0
    2.4139   16.9182  -20.2890 C   0  0  0  0  0  0  0  0  0  0  0  0
    1.3715   17.6398  -20.8746 C   0  0  0  0  0  0  0  0  0  0  0  0
    0.7515   18.7066  -20.2972 C   0  0  0  0  0  0  0  0  0  0  0  0
    1.2252   19.0708  -19.0243 C   0  0  0  0  0  0  0  0  0  0  0  0
    2.2444   18.3487  -18.4754 C   0  0  0  0  0  0  0  0  0  0  0  0
    2.8380   17.2966  -19.0741 N   0  0  0  0  0  0  0  0  0  0  0  0
    2.9241   15.9020  -22.3997 C   0  0  0  0  0  0  0  0  0  0  0  0
    2.9668   15.8415  -20.9872 O   0  0  0  0  0  0  0  0  0  0  0  0
   -1.9600   22.7932  -24.0110 N   0  0  0  0  0  0  0  0  0  0  0  0
   -2.5394   23.3940  -23.3092 H   0  0  0  0  0  0  0  0  0  0  0  0
   -2.3823   22.9320  -25.3442 C   0  0  0  0  0  0  0  0  0  0  0  0
   -1.9297   22.2095  -26.4162 C   0  0  0  0  0  0  0  0  0  0  0  0
   -2.4240   22.3792  -27.7185 C   0  0  0  0  0  0  0  0  0  0  0  0
   -3.4068   23.3055  -27.9627 C   0  0  0  0  0  0  0  0  0  0  0  0
   -3.9352   23.5187  -29.2276 O   0  0  0  0  0  0  0  0  0  0  0  0
   -4.6831   24.6597  -29.5830 C   0  0  0  0  0  0  0  0  0  0  0  0
   -3.7503   25.7236  -30.1338 C   0  0  0  0  0  0  0  0  0  0  0  0
   -5.6921   24.3531  -30.6692 C   0  0  0  0  0  0  0  0  0  0  0  0
   -5.4247   25.2165  -28.4229 C   0  0  0  0  0  0  0  0  0  0  0  0
   -6.4927   25.8546  -28.6155 O   0  0  0  0  0  0  0  0  0  0  0  0
   -4.8850   24.9987  -27.1332 N   0  0  0  0  0  0  0  0  0  0  0  0
   -3.8515   24.0248  -26.8782 C   0  0  0  0  0  0  0  0  0  0  0  0
   -3.3641   23.8425  -25.6512 N   0  0  0  0  0  0  0  0  0  0  0  0
   -5.2299   25.5487  -26.3231 H   0  0  0  0  0  0  0  0  0  0  0  0
 16 17  1  0  0  0
 17 10  1  0  0  0
 10 11  2  0  0  0
 11 12  1  0  0  0
 12  8  1  0  0  0
  8  1  1  0  0  0
  1  2  2  0  0  0
  2  3  1  0  0  0
  3  4  2  0  0  0
  4  5  1  0  0  0
  4  6  1  0  0  0
  6 18  1  0  0  0
 18 20  1  0  0  0
 20 21  2  0  0  0
 21 22  1  0  0  0
 22 23  2  0  0  0
 23 24  1  0  0  0
 24 25  1  0  0  0
 25 26  1  0  0  0
 25 27  1  0  0  0
 25 28  1  0  0  0
 28 29  2  0  0  0
 28 30  1  0  0  0
 30 31  1  0  0  0
 31 32  2  0  0  0
  6  7  2  0  0  0
 12 13  2  0  0  0
 13 14  1  0  0  0
 14 15  2  0  0  0
 15 10  1  0  0  0
  7  1  1  0  0  0
 32 20  1  0  0  0
 31 23  1  0  0  0
  8  9  1  0  0  0
 18 19  1  0  0  0
 30 33  1  0  0  0
M  END
> <minimizedAffinity>
-8.04960

> <CNNscore>
0.1802246273

> <CNNaffinity>
6.4401893616

> <CNN_VS>
1.1606807709

> <CNNaffinity_variance>
0.0245172679

$$$$
[H]c1nc(OC([H])([H])[H])c([H])c(N([H])c2nc([H])c(F)c(N([H])c3nc4c(c([H])c3[H])OC(C([H])([H])[H])(C([H])([H])[H])C(=O)N4[H])n2)c1[H]


 33 36  0  0  0  0  0  0  0  0999 V2000
   -3.7768   23.0912  -27.1250 C   0  0  0  0  0  0  0  0  0  0  0  0
   -3.3952   23.2443  -28.4394 N   0  0  0  0  0  0  0  0  0  0  0  0
   -2.1031   23.1227  -28.7361 C   0  0  0  0  0  0  0  0  0  0  0  0
   -1.1284   22.8551  -27.8152 C   0  0  0  0  0  0  0  0  0  0  0  0
    0.1616   22.7483  -28.2076 F   0  0  0  0  0  0  0  0  0  0  0  0
   -1.5117   22.6977  -26.4632 C   0  0  0  0  0  0  0  0  0  0  0  0
   -2.8171   22.8302  -26.2292 N   0  0  0  0  0  0  0  0  0  0  0  0
   -5.1515   23.2546  -26.8987 N   0  0  0  0  0  0  0  0  0  0  0  0
   -5.7873   23.2487  -27.7762 H   0  0  0  0  0  0  0  0  0  0  0  0
   -6.5071   22.7411  -23.4258 C   0  0  0  0  0  0  0  0  0  0  0  0
   -5.9070   22.4907  -24.6617 C   0  0  0  0  0  0  0  0  0  0  0  0
   -5.7500   23.4194  -25.6459 C   0  0  0  0  0  0  0  0  0  0  0  0
   -6.2410   24.7045  -25.3546 C   0  0  0  0  0  0  0  0  0  0  0  0
   -6.8229   24.9216  -24.1398 C   0  0  0  0  0  0  0  0  0  0  0  0
   -6.9627   23.9796  -23.1855 N   0  0  0  0  0  0  0  0  0  0  0  0
   -7.6990   21.7421  -21.6012 C   0  0  0  0  0  0  0  0  0  0  0  0
   -6.6070   21.7000  -22.4991 O   0  0  0  0  0  0  0  0  0  0  0  0
   -0.5355   22.4002  -25.5251 N   0  0  0  0  0  0  0  0  0  0  0  0
    0.4844   22.5411  -25.8842 H   0  0  0  0  0  0  0  0  0  0  0  0
   -0.6007   21.9507  -24.1951 C   0  0  0  0  0  0  0  0  0  0  0  0
   -1.7404   21.7638  -23.4587 C   0  0  0  0  0  0  0  0  0  0  0  0
   -1.7311   21.2774  -22.1424 C   0  0  0  0  0  0  0  0  0  0  0  0
   -0.5401   20.9659  -21.5358 C   0  0  0  0  0  0  0  0  0  0  0  0
   -0.4668   20.4813  -20.2379 O   0  0  0  0  0  0  0  0  0  0  0  0
    0.7167   20.4667  -19.4719 C   0  0  0  0  0  0  0  0  0  0  0  0
    0.8127   21.7502  -18.6665 C   0  0  0  0  0  0  0  0  0  0  0  0
    0.7294   19.3225  -18.4808 C   0  0  0  0  0  0  0  0  0  0  0  0
    1.9249   20.3370  -20.3259 C   0  0  0  0  0  0  0  0  0  0  0  0
    2.9631   19.8007  -19.8574 O   0  0  0  0  0  0  0  0  0  0  0  0
    1.8492   20.8316  -21.6494 N   0  0  0  0  0  0  0  0  0  0  0  0
    0.5964   21.1591  -22.2856 C   0  0  0  0  0  0  0  0  0  0  0  0
    0.5583   21.6224  -23.5347 N   0  0  0  0  0  0  0  0  0  0  0  0
    2.7151   20.9728  -22.2044 H   0  0  0  0  0  0  0  0  0  0  0  0
 16 17  1  0  0  0
 17 10  1  0  0  0
 10 11  2  0  0  0
 11 12  1  0  0  0
 12  8  1  0  0  0
  8  1  1  0  0  0
  1  2  2  0  0  0
  2  3  1  0  0  0
  3  4  2  0  0  0
  4  5  1  0  0  0
  4  6  1  0  0  0
  6 18  1  0  0  0
 18 20  1  0  0  0
 20 21  2  0  0  0
 21 22  1  0  0  0
 22 23  2  0  0  0
 23 24  1  0  0  0
 24 25  1  0  0  0
 25 26  1  0  0  0
 25 27  1  0  0  0
 25 28  1  0  0  0
 28 29  2  0  0  0
 28 30  1  0  0  0
 30 31  1  0  0  0
 31 32  2  0  0  0
  6  7  2  0  0  0
 12 13  2  0  0  0
 13 14  1  0  0  0
 14 15  2  0  0  0
 15 10  1  0  0  0
  7  1  1  0  0  0
 32 20  1  0  0  0
 31 23  1  0  0  0
  8  9  1  0  0  0
 18 19  1  0  0  0
 30 33  1  0  0  0
M  END
> <minimizedAffinity>
-7.45843

> <CNNscore>
0.1702602208

> <CNNaffinity>
6.7516608238

> <CNN_VS>
1.1495392323

> <CNNaffinity_variance>
0.1204795390

$$$$
[H]OC(=O)c1[se]c(-c2c([H])c([H])c([H])c(C#N)c2[H])nc1C([H])([H])[H]


 18 19  0  0  0  0  0  0  0  0999 V2000
   -7.6445   24.5469  -22.9375 C   0  0  0  0  0  0  0  0  0  0  0  0
   -6.6685   23.5324  -23.5428 C   0  0  0  0  0  0  0  0  0  0  0  0
   -6.0003   23.7681  -24.5782 N   0  0  0  0  0  0  0  0  0  0  0  0
   -5.1758   23.2315  -25.3015 C   0  0  0  0  0  0  0  0  0  0  0  0
   -5.2146   21.3708  -24.0044 Se  0  0  0  0  0  0  0  0  0  0  0  0
   -6.5899   22.3533  -22.8565 C   0  0  0  0  0  0  0  0  0  0  0  0
   -4.2918   23.1606  -26.4149 C   0  0  0  0  0  0  0  0  0  0  0  0
   -4.8407   23.2215  -27.7051 C   0  0  0  0  0  0  0  0  0  0  0  0
   -4.0253   23.1566  -28.7829 C   0  0  0  0  0  0  0  0  0  0  0  0
   -2.6489   23.0302  -28.6567 C   0  0  0  0  0  0  0  0  0  0  0  0
   -2.1025   22.9699  -27.4158 C   0  0  0  0  0  0  0  0  0  0  0  0
   -2.9261   23.0354  -26.3242 C   0  0  0  0  0  0  0  0  0  0  0  0
   -0.6749   22.8384  -27.2380 C   0  0  0  0  0  0  0  0  0  0  0  0
    0.4800   22.7425  -27.1116 N   0  0  0  0  0  0  0  0  0  0  0  0
   -7.2171   21.8140  -21.6750 C   0  0  0  0  0  0  0  0  0  0  0  0
   -6.6530   22.0765  -20.4382 O   0  0  0  0  0  0  0  0  0  0  0  0
   -8.2445   21.1278  -21.7770 O   0  0  0  0  0  0  0  0  0  0  0  0
   -6.5072   21.3758  -19.7504 H   0  0  0  0  0  0  0  0  0  0  0  0
  1  2  1  0  0  0
  2  3  1  0  0  0
  3  4  2  0  0  0
  4  5  1  0  0  0
  5  6  1  0  0  0
  6 15  1  0  0  0
 15 16  1  0  0  0
 15 17  2  0  0  0
  4  7  1  0  0  0
  7  8  2  0  0  0
  8  9  1  0  0  0
  9 10  2  0  0  0
 10 11  1  0  0  0
 11 12  2  0  0  0
 11 13  1  0  0  0
 13 14  3  0  0  0
  6  2  2  0  0  0
 12  7  1  0  0  0
 16 18  1  0  0  0
M  END
> <minimizedAffinity>
-6.76383

> <CNNscore>
0.7522633672

> <CNNaffinity>
5.3853554726

> <CNN_VS>
4.0512056351

> <CNNaffinity_variance>
0.2572514415

$$$$
[H]OC(=O)c1[se]c(-c2c([H])c([H])c([H])c(C#N)c2[H])nc1C([H])([H])[H]


 18 19  0  0  0  0  0  0  0  0999 V2000
   -6.9973   22.5648  -22.6699 C   0  0  0  0  0  0  0  0  0  0  0  0
   -5.8542   23.1967  -23.4712 C   0  0  0  0  0  0  0  0  0  0  0  0
   -4.7293   22.6544  -23.5918 N   0  0  0  0  0  0  0  0  0  0  0  0
   -3.6475   22.8526  -24.1221 C   0  0  0  0  0  0  0  0  0  0  0  0
   -4.3959   24.8206  -24.9666 Se  0  0  0  0  0  0  0  0  0  0  0  0
   -6.1681   24.3982  -24.0417 C   0  0  0  0  0  0  0  0  0  0  0  0
   -2.3009   22.5363  -24.4581 C   0  0  0  0  0  0  0  0  0  0  0  0
   -1.4746   21.9989  -23.4591 C   0  0  0  0  0  0  0  0  0  0  0  0
   -0.1899   21.6883  -23.7487 C   0  0  0  0  0  0  0  0  0  0  0  0
    0.3465   21.8846  -25.0137 C   0  0  0  0  0  0  0  0  0  0  0  0
   -0.4396   22.4036  -25.9908 C   0  0  0  0  0  0  0  0  0  0  0  0
   -1.7397   22.7184  -25.6995 C   0  0  0  0  0  0  0  0  0  0  0  0
    0.0773   22.6246  -27.3216 C   0  0  0  0  0  0  0  0  0  0  0  0
    0.4935   22.8227  -28.3924 N   0  0  0  0  0  0  0  0  0  0  0  0
   -7.3385   25.2403  -24.0738 C   0  0  0  0  0  0  0  0  0  0  0  0
   -8.2935   25.0228  -25.0524 O   0  0  0  0  0  0  0  0  0  0  0  0
   -7.4770   26.1414  -23.2337 O   0  0  0  0  0  0  0  0  0  0  0  0
   -8.6912   25.7546  -25.5923 H   0  0  0  0  0  0  0  0  0  0  0  0
  1  2  1  0  0  0
  2  3  1  0  0  0
  3  4  2  0  0  0
  4  5  1  0  0  0
  5  6  1  0  0  0
  6 15  1  0  0  0
 15 16  1  0  0  0
 15 17  2  0  0  0
  4  7  1  0  0  0
  7  8  2  0  0  0
  8  9  1  0  0  0
  9 10  2  0  0  0
 10 11  1  0  0  0
 11 12  2  0  0  0
 11 13  1  0  0  0
 13 14  3  0  0  0
  6  2  2  0  0  0
 12  7  1  0  0  0
 16 18  1  0  0  0
M  END
> <minimizedAffinity>
-6.55176

> <CNNscore>
0.4843657017

> <CNNaffinity>
5.3445730209

> <CNN_VS>
2.5887279510

> <CNNaffinity_variance>
0.5167150497

$$$$
[H]OC(=O)c1[se]c(-c2c([H])c([H])c([H])c(C#N)c2[H])nc1C([H])([H])[H]


 18 19  0  0  0  0  0  0  0  0999 V2000
   -3.7972   24.8739  -22.8996 C   0  0  0  0  0  0  0  0  0  0  0  0
   -4.8994   24.8739  -23.9641 C   0  0  0  0  0  0  0  0  0  0  0  0
   -4.6610   24.7313  -25.1876 N   0  0  0  0  0  0  0  0  0  0  0  0
   -5.2506   24.6813  -26.2557 C   0  0  0  0  0  0  0  0  0  0  0  0
   -7.2371   24.9709  -25.1992 Se  0  0  0  0  0  0  0  0  0  0  0  0
   -6.1602   25.0410  -23.4643 C   0  0  0  0  0  0  0  0  0  0  0  0
   -5.3440   24.5509  -27.6701 C   0  0  0  0  0  0  0  0  0  0  0  0
   -5.2312   23.2685  -28.2289 C   0  0  0  0  0  0  0  0  0  0  0  0
   -5.3160   23.1132  -29.5703 C   0  0  0  0  0  0  0  0  0  0  0  0
   -5.5128   24.1899  -30.4238 C   0  0  0  0  0  0  0  0  0  0  0  0
   -5.6238   25.4366  -29.8991 C   0  0  0  0  0  0  0  0  0  0  0  0
   -5.5382   25.5955  -28.5420 C   0  0  0  0  0  0  0  0  0  0  0  0
   -5.8292   26.5856  -30.7503 C   0  0  0  0  0  0  0  0  0  0  0  0
   -5.9927   27.5249  -31.4212 N   0  0  0  0  0  0  0  0  0  0  0  0
   -6.7228   25.2249  -22.1491 C   0  0  0  0  0  0  0  0  0  0  0  0
   -7.1702   26.4826  -21.7819 O   0  0  0  0  0  0  0  0  0  0  0  0
   -6.7995   24.2652  -21.3680 O   0  0  0  0  0  0  0  0  0  0  0  0
   -6.9487   26.9025  -20.9101 H   0  0  0  0  0  0  0  0  0  0  0  0
  1  2  1  0  0  0
  2  3  1  0  0  0
  3  4  2  0  0  0
  4  5  1  0  0  0
  5  6  1  0  0  0
  6 15  1  0  0  0
 15 16  1  0  0  0
 15 17  2  0  0  0
  4  7  1  0  0  0
  7  8  2  0  0  0
  8  9  1  0  0  0
  9 10  2  0  0  0
 10 11  1  0  0  0
 11 12  2  0  0  0
 11 13  1  0  0  0
 13 14  3  0  0  0
  6  2  2  0  0  0
 12  7  1  0  0  0
 16 18  1  0  0  0
M  END
> <minimizedAffinity>
-6.68629

> <CNNscore>
0.4743660390

> <CNNaffinity>
5.2411193848

> <CNN_VS>
2.4862091541

> <CNNaffinity_variance>
0.2097978294

$$$$
[H]OC(=O)c1[se]c(-c2c([H])c([H])c([H])c(C#N)c2[H])nc1C([H])([H])[H]


 18 19  0  0  0  0  0  0  0  0999 V2000
   -7.0513   22.3373  -22.2393 C   0  0  0  0  0  0  0  0  0  0  0  0
   -6.0169   23.1799  -22.9929 C   0  0  0  0  0  0  0  0  0  0  0  0
   -5.5333   22.8326  -24.0972 N   0  0  0  0  0  0  0  0  0  0  0  0
   -4.7382   23.2271  -24.9357 C   0  0  0  0  0  0  0  0  0  0  0  0
   -4.3229   25.0846  -23.7015 Se  0  0  0  0  0  0  0  0  0  0  0  0
   -5.6702   24.3395  -22.3584 C   0  0  0  0  0  0  0  0  0  0  0  0
   -4.0067   23.1482  -26.1543 C   0  0  0  0  0  0  0  0  0  0  0  0
   -4.7113   23.2673  -27.3621 C   0  0  0  0  0  0  0  0  0  0  0  0
   -4.0430   23.1965  -28.5365 C   0  0  0  0  0  0  0  0  0  0  0  0
   -2.6690   23.0079  -28.5899 C   0  0  0  0  0  0  0  0  0  0  0  0
   -1.9731   22.8908  -27.4306 C   0  0  0  0  0  0  0  0  0  0  0  0
   -2.6477   22.9623  -26.2415 C   0  0  0  0  0  0  0  0  0  0  0  0
   -0.5419   22.6936  -27.4395 C   0  0  0  0  0  0  0  0  0  0  0  0
    0.6154   22.5542  -27.4496 N   0  0  0  0  0  0  0  0  0  0  0  0
   -6.0454   24.9801  -21.1219 C   0  0  0  0  0  0  0  0  0  0  0  0
   -6.9124   26.0588  -21.1626 O   0  0  0  0  0  0  0  0  0  0  0  0
   -5.5927   24.5634  -20.0456 O   0  0  0  0  0  0  0  0  0  0  0  0
   -6.7527   26.9005  -20.6614 H   0  0  0  0  0  0  0  0  0  0  0  0
  1  2  1  0  0  0
  2  3  1  0  0  0
  3  4  2  0  0  0
  4  5  1  0  0  0
  5  6  1  0  0  0
  6 15  1  0  0  0
 15 16  1  0  0  0
 15 17  2  0  0  0
  4  7  1  0  0  0
  7  8  2  0  0  0
  8  9  1  0  0  0
  9 10  2  0  0  0
 10 11  1  0  0  0
 11 12  2  0  0  0
 11 13  1  0  0  0
 13 14  3  0  0  0
  6  2  2  0  0  0
 12  7  1  0  0  0
 16 18  1  0  0  0
M  END
> <minimizedAffinity>
-6.74855

> <CNNscore>
0.4559830427

> <CNNaffinity>
5.1461691856

> <CNN_VS>
2.3465659618

> <CNNaffinity_variance>
0.4121918678

$$$$
[H]OC(=O)c1[se]c(-c2c([H])c([H])c([H])c(C#N)c2[H])nc1C([H])([H])[H]


 18 19  0  0  0  0  0  0  0  0999 V2000
    0.2612   22.4581  -26.3478 C   0  0  0  0  0  0  0  0  0  0  0  0
   -1.2431   22.7387  -26.4265 C   0  0  0  0  0  0  0  0  0  0  0  0
   -1.8330   22.9785  -27.5075 N   0  0  0  0  0  0  0  0  0  0  0  0
   -2.9518   23.2306  -27.9266 C   0  0  0  0  0  0  0  0  0  0  0  0
   -3.7906   23.1190  -25.8218 Se  0  0  0  0  0  0  0  0  0  0  0  0
   -1.8830   22.7032  -25.2195 C   0  0  0  0  0  0  0  0  0  0  0  0
   -3.9130   23.5277  -28.9336 C   0  0  0  0  0  0  0  0  0  0  0  0
   -4.5982   22.4606  -29.5348 C   0  0  0  0  0  0  0  0  0  0  0  0
   -5.5177   22.7118  -30.4950 C   0  0  0  0  0  0  0  0  0  0  0  0
   -5.8110   24.0028  -30.9119 C   0  0  0  0  0  0  0  0  0  0  0  0
   -5.1571   25.0457  -30.3404 C   0  0  0  0  0  0  0  0  0  0  0  0
   -4.2264   24.7932  -29.3686 C   0  0  0  0  0  0  0  0  0  0  0  0
   -5.4310   26.4056  -30.7436 C   0  0  0  0  0  0  0  0  0  0  0  0
   -5.6678   27.4965  -31.0796 N   0  0  0  0  0  0  0  0  0  0  0  0
   -1.4805   22.4636  -23.8554 C   0  0  0  0  0  0  0  0  0  0  0  0
   -1.4762   21.1645  -23.3768 O   0  0  0  0  0  0  0  0  0  0  0  0
   -1.1458   23.4131  -23.1321 O   0  0  0  0  0  0  0  0  0  0  0  0
   -1.8668   20.9095  -22.5006 H   0  0  0  0  0  0  0  0  0  0  0  0
  1  2  1  0  0  0
  2  3  1  0  0  0
  3  4  2  0  0  0
  4  5  1  0  0  0
  5  6  1  0  0  0
  6 15  1  0  0  0
 15 16  1  0  0  0
 15 17  2  0  0  0
  4  7  1  0  0  0
  7  8  2  0  0  0
  8  9  1  0  0  0
  9 10  2  0  0  0
 10 11  1  0  0  0
 11 12  2  0  0  0
 11 13  1  0  0  0
 13 14  3  0  0  0
  6  2  2  0  0  0
 12  7  1  0  0  0
 16 18  1  0  0  0
M  END
> <minimizedAffinity>
-6.99177

> <CNNscore>
0.4557870626

> <CNNaffinity>
5.4216570854

> <CNN_VS>
2.4711210728

> <CNNaffinity_variance>
0.1480190754

$$$$
[H]OC(=O)c1[se]c(-c2c([H])c([H])c([H])c(C#N)c2[H])nc1C([H])([H])[H]


 18 19  0  0  0  0  0  0  0  0999 V2000
   -5.2691   23.0187  -29.8828 C   0  0  0  0  0  0  0  0  0  0  0  0
   -4.5917   23.4375  -28.5737 C   0  0  0  0  0  0  0  0  0  0  0  0
   -3.5691   22.8653  -28.1254 N   0  0  0  0  0  0  0  0  0  0  0  0
   -2.8050   22.9247  -27.1750 C   0  0  0  0  0  0  0  0  0  0  0  0
   -3.9752   24.6667  -26.3134 Se  0  0  0  0  0  0  0  0  0  0  0  0
   -5.1971   24.4866  -27.9409 C   0  0  0  0  0  0  0  0  0  0  0  0
   -1.6823   22.5217  -26.3981 C   0  0  0  0  0  0  0  0  0  0  0  0
   -0.4155   22.5371  -27.0019 C   0  0  0  0  0  0  0  0  0  0  0  0
    0.6704   22.1595  -26.2885 C   0  0  0  0  0  0  0  0  0  0  0  0
    0.5751   21.7524  -24.9650 C   0  0  0  0  0  0  0  0  0  0  0  0
   -0.6429   21.7319  -24.3667 C   0  0  0  0  0  0  0  0  0  0  0  0
   -1.7426   22.1137  -25.0870 C   0  0  0  0  0  0  0  0  0  0  0  0
   -0.7883   21.3153  -22.9910 C   0  0  0  0  0  0  0  0  0  0  0  0
   -0.8862   20.9736  -21.8808 N   0  0  0  0  0  0  0  0  0  0  0  0
   -6.3471   25.3154  -28.2070 C   0  0  0  0  0  0  0  0  0  0  0  0
   -6.4650   25.9191  -29.4474 O   0  0  0  0  0  0  0  0  0  0  0  0
   -7.2100   25.4778  -27.3318 O   0  0  0  0  0  0  0  0  0  0  0  0
   -6.7048   26.8754  -29.5630 H   0  0  0  0  0  0  0  0  0  0  0  0
  1  2  1  0  0  0
  2  3  1  0  0  0
  3  4  2  0  0  0
  4  5  1  0  0  0
  5  6  1  0  0  0
  6 15  1  0  0  0
 15 16  1  0  0  0
 15 17  2  0  0  0
  4  7  1  0  0  0
  7  8  2  0  0  0
  8  9  1  0  0  0
  9 10  2  0  0  0
 10 11  1  0  0  0
 11 12  2  0  0  0
 11 13  1  0  0  0
 13 14  3  0  0  0
  6  2  2  0  0  0
 12  7  1  0  0  0
 16 18  1  0  0  0
M  END
> <minimizedAffinity>
-7.37480

> <CNNscore>
0.4062415957

> <CNNaffinity>
5.3152322769

> <CNN_VS>
2.1592683792

> <CNNaffinity_variance>
0.1611598432

$$$$
[H]OC(=O)c1[se]c(-c2c([H])c([H])c([H])c(C#N)c2[H])nc1C([H])([H])[H]


 18 19  0  0  0  0  0  0  0  0999 V2000
   -5.0539   22.7854  -29.7679 C   0  0  0  0  0  0  0  0  0  0  0  0
   -4.6308   23.3531  -28.4089 C   0  0  0  0  0  0  0  0  0  0  0  0
   -4.0345   22.6681  -27.5433 N   0  0  0  0  0  0  0  0  0  0  0  0
   -3.5712   22.7790  -26.4191 C   0  0  0  0  0  0  0  0  0  0  0  0
   -4.2143   24.9532  -26.3435 Se  0  0  0  0  0  0  0  0  0  0  0  0
   -4.9582   24.6670  -28.2248 C   0  0  0  0  0  0  0  0  0  0  0  0
   -2.9084   22.3151  -25.2479 C   0  0  0  0  0  0  0  0  0  0  0  0
   -3.6921   21.9022  -24.1593 C   0  0  0  0  0  0  0  0  0  0  0  0
   -3.0903   21.4562  -23.0325 C   0  0  0  0  0  0  0  0  0  0  0  0
   -1.7090   21.3918  -22.9132 C   0  0  0  0  0  0  0  0  0  0  0  0
   -0.9371   21.7874  -23.9570 C   0  0  0  0  0  0  0  0  0  0  0  0
   -1.5443   22.2389  -25.0978 C   0  0  0  0  0  0  0  0  0  0  0  0
    0.5045   21.7370  -23.8763 C   0  0  0  0  0  0  0  0  0  0  0  0
    1.6669   21.7055  -23.7932 N   0  0  0  0  0  0  0  0  0  0  0  0
   -5.6230   25.6754  -29.0130 C   0  0  0  0  0  0  0  0  0  0  0  0
   -4.9095   26.3303  -30.0024 O   0  0  0  0  0  0  0  0  0  0  0  0
   -6.8144   25.9434  -28.7995 O   0  0  0  0  0  0  0  0  0  0  0  0
   -4.9281   27.3157  -30.1206 H   0  0  0  0  0  0  0  0  0  0  0  0
  1  2  1  0  0  0
  2  3  1  0  0  0
  3  4  2  0  0  0
  4  5  1  0  0  0
  5  6  1  0  0  0
  6 15  1  0  0  0
 15 16  1  0  0  0
 15 17  2  0  0  0
  4  7  1  0  0  0
  7  8  2  0  0  0
  8  9  1  0  0  0
  9 10  2  0  0  0
 10 11  1  0  0  0
 11 12  2  0  0  0
 11 13  1  0  0  0
 13 14  3  0  0  0
  6  2  2  0  0  0
 12  7  1  0  0  0
 16 18  1  0  0  0
M  END
> <minimizedAffinity>
-6.39169

> <CNNscore>
0.4037690759

> <CNNaffinity>
5.2739281654

> <CNN_VS>
2.1294491291

> <CNNaffinity_variance>
0.2025376260

$$$$
[H]OC(=O)c1[se]c(-c2c([H])c([H])c([H])c(C#N)c2[H])nc1C([H])([H])[H]


 18 19  0  0  0  0  0  0  0  0999 V2000
   -7.2357   24.7332  -23.4207 C   0  0  0  0  0  0  0  0  0  0  0  0
   -6.1422   23.6599  -23.4038 C   0  0  0  0  0  0  0  0  0  0  0  0
   -5.1417   23.6985  -24.1598 N   0  0  0  0  0  0  0  0  0  0  0  0
   -4.1318   23.0587  -24.4081 C   0  0  0  0  0  0  0  0  0  0  0  0
   -4.6912   21.5216  -22.8364 Se  0  0  0  0  0  0  0  0  0  0  0  0
   -6.3520   22.6616  -22.4945 C   0  0  0  0  0  0  0  0  0  0  0  0
   -2.9121   22.7918  -25.0917 C   0  0  0  0  0  0  0  0  0  0  0  0
   -2.9009   22.8820  -26.4922 C   0  0  0  0  0  0  0  0  0  0  0  0
   -1.7562   22.6340  -27.1696 C   0  0  0  0  0  0  0  0  0  0  0  0
   -0.5785   22.2892  -26.5211 C   0  0  0  0  0  0  0  0  0  0  0  0
   -0.5728   22.1977  -25.1671 C   0  0  0  0  0  0  0  0  0  0  0  0
   -1.7301   22.4484  -24.4801 C   0  0  0  0  0  0  0  0  0  0  0  0
    0.6306   21.8419  -24.4512 C   0  0  0  0  0  0  0  0  0  0  0  0
    1.6050   21.5402  -23.8869 N   0  0  0  0  0  0  0  0  0  0  0  0
   -7.3762   22.3602  -21.5248 C   0  0  0  0  0  0  0  0  0  0  0  0
   -8.1226   21.2040  -21.6764 O   0  0  0  0  0  0  0  0  0  0  0  0
   -7.5765   23.1312  -20.5748 O   0  0  0  0  0  0  0  0  0  0  0  0
   -9.1116   21.1838  -21.5938 H   0  0  0  0  0  0  0  0  0  0  0  0
  1  2  1  0  0  0
  2  3  1  0  0  0
  3  4  2  0  0  0
  4  5  1  0  0  0
  5  6  1  0  0  0
  6 15  1  0  0  0
 15 16  1  0  0  0
 15 17  2  0  0  0
  4  7  1  0  0  0
  7  8  2  0  0  0
  8  9  1  0  0  0
  9 10  2  0  0  0
 10 11  1  0  0  0
 11 12  2  0  0  0
 11 13  1  0  0  0
 13 14  3  0  0  0
  6  2  2  0  0  0
 12  7  1  0  0  0
 16 18  1  0  0  0
M  END
> <minimizedAffinity>
-6.05754

> <CNNscore>
0.3768922985

> <CNNaffinity>
4.8024706841

> <CNN_VS>
1.8100142479

> <CNNaffinity_variance>
0.0272416659

$$$$
[H]OC(=O)c1[se]c(-c2c([H])c([H])c([H])c(C#N)c2[H])nc1C([H])([H])[H]


 18 19  0  0  0  0  0  0  0  0999 V2000
   -0.0753   20.4130  -20.9459 C   0  0  0  0  0  0  0  0  0  0  0  0
   -0.6401   21.5078  -21.8571 C   0  0  0  0  0  0  0  0  0  0  0  0
   -0.5657   21.4545  -23.1084 N   0  0  0  0  0  0  0  0  0  0  0  0
   -0.8851   22.1024  -24.0928 C   0  0  0  0  0  0  0  0  0  0  0  0
   -1.8075   23.6990  -22.7713 Se  0  0  0  0  0  0  0  0  0  0  0  0
   -1.2312   22.5427  -21.1885 C   0  0  0  0  0  0  0  0  0  0  0  0
   -0.9768   22.3620  -25.4894 C   0  0  0  0  0  0  0  0  0  0  0  0
    0.2115   22.4295  -26.2329 C   0  0  0  0  0  0  0  0  0  0  0  0
    0.1561   22.6747  -27.5624 C   0  0  0  0  0  0  0  0  0  0  0  0
   -1.0486   22.8644  -28.2251 C   0  0  0  0  0  0  0  0  0  0  0  0
   -2.2068   22.8022  -27.5202 C   0  0  0  0  0  0  0  0  0  0  0  0
   -2.1524   22.5542  -26.1750 C   0  0  0  0  0  0  0  0  0  0  0  0
   -3.4831   22.9934  -28.1694 C   0  0  0  0  0  0  0  0  0  0  0  0
   -4.5157   23.1277  -28.6935 N   0  0  0  0  0  0  0  0  0  0  0  0
   -1.4573   22.8678  -19.8016 C   0  0  0  0  0  0  0  0  0  0  0  0
   -2.4229   22.1678  -19.0984 O   0  0  0  0  0  0  0  0  0  0  0  0
   -0.7921   23.7617  -19.2580 O   0  0  0  0  0  0  0  0  0  0  0  0
   -3.0973   22.6096  -18.5194 H   0  0  0  0  0  0  0  0  0  0  0  0
  1  2  1  0  0  0
  2  3  1  0  0  0
  3  4  2  0  0  0
  4  5  1  0  0  0
  5  6  1  0  0  0
  6 15  1  0  0  0
 15 16  1  0  0  0
 15 17  2  0  0  0
  4  7  1  0  0  0
  7  8  2  0  0  0
  8  9  1  0  0  0
  9 10  2  0  0  0
 10 11  1  0  0  0
 11 12  2  0  0  0
 11 13  1  0  0  0
 13 14  3  0  0  0
  6  2  2  0  0  0
 12  7  1  0  0  0
 16 18  1  0  0  0
M  END
> <minimizedAffinity>
-6.57288

> <CNNscore>
0.3496624529

> <CNNaffinity>
4.7874431610

> <CNN_VS>
1.6739891768

> <CNNaffinity_variance>
0.1207007542

$$$$
[H]c1nc(-c2c([H])c3c([H])c(Oc4c([H])nc(S(=O)(=O)C([H])([H])[H])c([H])c4[H])c(C4([H])N(C([H])([H])[H])C(=O)C([H])([H])C4([H])[H])c([H])c3n2[H])c([H])c([H])c1F


 35 39  0  0  0  0  0  0  0  0999 V2000
   -3.7821   23.0746  -25.3754 C   0  0  0  0  0  0  0  0  0  0  0  0
   -2.4327   23.1547  -25.3104 C   0  0  0  0  0  0  0  0  0  0  0  0
   -1.6638   22.4696  -24.3363 C   0  0  0  0  0  0  0  0  0  0  0  0
   -0.3404   22.3602  -24.1007 N   0  0  0  0  0  0  0  0  0  0  0  0
   -0.1493   21.5296  -23.0383 C   0  0  0  0  0  0  0  0  0  0  0  0
   -1.3607   21.0958  -22.5830 C   0  0  0  0  0  0  0  0  0  0  0  0
   -2.2983   21.6817  -23.3956 C   0  0  0  0  0  0  0  0  0  0  0  0
   -3.6775   21.5852  -23.4426 C   0  0  0  0  0  0  0  0  0  0  0  0
   -4.3725   22.2542  -24.3931 C   0  0  0  0  0  0  0  0  0  0  0  0
    0.3911   22.8470  -24.6587 H   0  0  0  0  0  0  0  0  0  0  0  0
   -3.2845   22.9866  -28.6157 C   0  0  0  0  0  0  0  0  0  0  0  0
   -4.3343   23.4416  -27.7897 N   0  0  0  0  0  0  0  0  0  0  0  0
   -4.6517   23.5735  -26.3806 C   0  0  0  0  0  0  0  0  0  0  0  0
   -4.7442   25.1348  -26.4429 C   0  0  0  0  0  0  0  0  0  0  0  0
   -5.9738   25.1458  -27.3975 C   0  0  0  0  0  0  0  0  0  0  0  0
   -5.5200   24.1031  -28.3909 C   0  0  0  0  0  0  0  0  0  0  0  0
   -6.0445   23.8621  -29.4885 O   0  0  0  0  0  0  0  0  0  0  0  0
    1.1658   21.1036  -22.5381 C   0  0  0  0  0  0  0  0  0  0  0  0
    2.2469   21.1047  -23.3753 C   0  0  0  0  0  0  0  0  0  0  0  0
    3.4579   20.6340  -22.8248 C   0  0  0  0  0  0  0  0  0  0  0  0
    3.4914   20.2092  -21.5339 C   0  0  0  0  0  0  0  0  0  0  0  0
    4.6883   19.7402  -21.0301 F   0  0  0  0  0  0  0  0  0  0  0  0
    2.4000   20.2160  -20.7204 C   0  0  0  0  0  0  0  0  0  0  0  0
    1.2350   20.6800  -21.2763 N   0  0  0  0  0  0  0  0  0  0  0  0
   -5.7384   22.1538  -24.4130 O   0  0  0  0  0  0  0  0  0  0  0  0
   -6.5448   22.7483  -23.4560 C   0  0  0  0  0  0  0  0  0  0  0  0
   -6.9229   24.0719  -23.5208 C   0  0  0  0  0  0  0  0  0  0  0  0
   -7.7191   24.5934  -22.5438 C   0  0  0  0  0  0  0  0  0  0  0  0
   -8.1457   23.7907  -21.4922 C   0  0  0  0  0  0  0  0  0  0  0  0
   -7.7619   22.5111  -21.4564 N   0  0  0  0  0  0  0  0  0  0  0  0
   -6.9787   21.9533  -22.3943 C   0  0  0  0  0  0  0  0  0  0  0  0
   -9.1788   24.4697  -20.2543 S   0  0  0  0  0  0  0  0  0  0  0  0
  -10.7880   24.8264  -20.9080 C   0  0  0  0  0  0  0  0  0  0  0  0
   -8.5751   25.7761  -19.7334 O   0  0  0  0  0  0  0  0  0  0  0  0
   -9.3247   23.5649  -19.0816 O   0  0  0  0  0  0  0  0  0  0  0  0
 11 12  1  0  0  0
 12 13  1  0  0  0
 13 14  1  0  0  0
 14 15  1  0  0  0
 15 16  1  0  0  0
 16 17  2  0  0  0
 13  1  1  0  0  0
  1  2  2  0  0  0
  2  3  1  0  0  0
  3  4  1  0  0  0
  4  5  1  0  0  0
  5  6  2  0  0  0
  6  7  1  0  0  0
  7  8  1  0  0  0
  8  9  2  0  0  0
  9 25  1  0  0  0
 25 26  1  0  0  0
 26 27  2  0  0  0
 27 28  1  0  0  0
 28 29  2  0  0  0
 29 30  1  0  0  0
 30 31  2  0  0  0
 29 32  1  0  0  0
 32 33  1  0  0  0
 32 34  2  0  0  0
 32 35  2  0  0  0
  5 18  1  0  0  0
 18 19  2  0  0  0
 19 20  1  0  0  0
 20 21  2  0  0  0
 21 22  1  0  0  0
 21 23  1  0  0  0
 23 24  2  0  0  0
 16 12  1  0  0  0
  9  1  1  0  0  0
 31 26  1  0  0  0
 24 18  1  0  0  0
  7  3  2  0  0  0
  4 10  1  0  0  0
M  END
> <minimizedAffinity>
-9.02011

> <CNNscore>
0.1801753044

> <CNNaffinity>
6.7369322777

> <CNN_VS>
1.2138288021

> <CNNaffinity_variance>
0.1444032937

$$$$
[H]c1nc(-c2c([H])c3c([H])c(Oc4c([H])nc(S(=O)(=O)C([H])([H])[H])c([H])c4[H])c(C4([H])N(C([H])([H])[H])C(=O)C([H])([H])C4([H])[H])c([H])c3n2[H])c([H])c([H])c1F


 35 39  0  0  0  0  0  0  0  0999 V2000
   -3.8867   23.3326  -25.6969 C   0  0  0  0  0  0  0  0  0  0  0  0
   -2.5360   23.3220  -25.6126 C   0  0  0  0  0  0  0  0  0  0  0  0
   -1.8302   22.6228  -24.6016 C   0  0  0  0  0  0  0  0  0  0  0  0
   -0.5209   22.4315  -24.3405 N   0  0  0  0  0  0  0  0  0  0  0  0
   -0.4027   21.6302  -23.2455 C   0  0  0  0  0  0  0  0  0  0  0  0
   -1.6475   21.2981  -22.7946 C   0  0  0  0  0  0  0  0  0  0  0  0
   -2.5308   21.9162  -23.6435 C   0  0  0  0  0  0  0  0  0  0  0  0
   -3.9126   21.9132  -23.7096 C   0  0  0  0  0  0  0  0  0  0  0  0
   -4.5462   22.5922  -24.6952 C   0  0  0  0  0  0  0  0  0  0  0  0
    0.2503   22.8456  -24.9037 H   0  0  0  0  0  0  0  0  0  0  0  0
   -3.4735   22.9002  -28.9214 C   0  0  0  0  0  0  0  0  0  0  0  0
   -4.4378   23.5583  -28.1287 N   0  0  0  0  0  0  0  0  0  0  0  0
   -4.7056   23.8520  -26.7338 C   0  0  0  0  0  0  0  0  0  0  0  0
   -4.5966   25.4008  -26.9333 C   0  0  0  0  0  0  0  0  0  0  0  0
   -5.8344   25.4898  -27.8731 C   0  0  0  0  0  0  0  0  0  0  0  0
   -5.5405   24.3146  -28.7746 C   0  0  0  0  0  0  0  0  0  0  0  0
   -6.1148   24.0502  -29.8414 O   0  0  0  0  0  0  0  0  0  0  0  0
    0.8726   21.1338  -22.7085 C   0  0  0  0  0  0  0  0  0  0  0  0
    0.9303   20.6407  -21.4345 C   0  0  0  0  0  0  0  0  0  0  0  0
    2.2039   20.2322  -20.9847 C   0  0  0  0  0  0  0  0  0  0  0  0
    3.2791   20.3500  -21.8081 C   0  0  0  0  0  0  0  0  0  0  0  0
    4.5140   19.9557  -21.3325 F   0  0  0  0  0  0  0  0  0  0  0  0
    3.1963   20.8463  -23.0729 C   0  0  0  0  0  0  0  0  0  0  0  0
    1.9482   21.2345  -23.4890 N   0  0  0  0  0  0  0  0  0  0  0  0
   -5.9154   22.5853  -24.7339 O   0  0  0  0  0  0  0  0  0  0  0  0
   -6.6896   23.3917  -23.9155 C   0  0  0  0  0  0  0  0  0  0  0  0
   -7.1484   24.6295  -24.3108 C   0  0  0  0  0  0  0  0  0  0  0  0
   -7.9068   25.3718  -23.4540 C   0  0  0  0  0  0  0  0  0  0  0  0
   -8.2141   24.8781  -22.1914 C   0  0  0  0  0  0  0  0  0  0  0  0
   -7.7541   23.6747  -21.8363 N   0  0  0  0  0  0  0  0  0  0  0  0
   -7.0039   22.9080  -22.6447 C   0  0  0  0  0  0  0  0  0  0  0  0
   -9.2003   25.8352  -21.1087 S   0  0  0  0  0  0  0  0  0  0  0  0
  -10.4669   24.8386  -20.3696 C   0  0  0  0  0  0  0  0  0  0  0  0
   -9.8766   26.9669  -21.8863 O   0  0  0  0  0  0  0  0  0  0  0  0
   -8.3982   26.4735  -20.0297 O   0  0  0  0  0  0  0  0  0  0  0  0
 11 12  1  0  0  0
 12 13  1  0  0  0
 13 14  1  0  0  0
 14 15  1  0  0  0
 15 16  1  0  0  0
 16 17  2  0  0  0
 13  1  1  0  0  0
  1  2  2  0  0  0
  2  3  1  0  0  0
  3  4  1  0  0  0
  4  5  1  0  0  0
  5  6  2  0  0  0
  6  7  1  0  0  0
  7  8  1  0  0  0
  8  9  2  0  0  0
  9 25  1  0  0  0
 25 26  1  0  0  0
 26 27  2  0  0  0
 27 28  1  0  0  0
 28 29  2  0  0  0
 29 30  1  0  0  0
 30 31  2  0  0  0
 29 32  1  0  0  0
 32 33  1  0  0  0
 32 34  2  0  0  0
 32 35  2  0  0  0
  5 18  1  0  0  0
 18 19  2  0  0  0
 19 20  1  0  0  0
 20 21  2  0  0  0
 21 22  1  0  0  0
 21 23  1  0  0  0
 23 24  2  0  0  0
 16 12  1  0  0  0
  9  1  1  0  0  0
 31 26  1  0  0  0
 24 18  1  0  0  0
  7  3  2  0  0  0
  4 10  1  0  0  0
M  END
> <minimizedAffinity>
-9.18190

> <CNNscore>
0.1591899991

> <CNNaffinity>
6.7705917358

> <CNN_VS>
1.0778105259

> <CNNaffinity_variance>
0.1235285997

$$$$
[H]c1nc(-c2c([H])c3c([H])c(Oc4c([H])nc(S(=O)(=O)C([H])([H])[H])c([H])c4[H])c(C4([H])N(C([H])([H])[H])C(=O)C([H])([H])C4([H])[H])c([H])c3n2[H])c([H])c([H])c1F


 35 39  0  0  0  0  0  0  0  0999 V2000
   -5.1369   22.4697  -22.6690 C   0  0  0  0  0  0  0  0  0  0  0  0
   -4.1744   21.7198  -22.0835 C   0  0  0  0  0  0  0  0  0  0  0  0
   -2.8263   21.7131  -22.5216 C   0  0  0  0  0  0  0  0  0  0  0  0
   -1.7070   21.1003  -22.0853 N   0  0  0  0  0  0  0  0  0  0  0  0
   -0.6608   21.4842  -22.8684 C   0  0  0  0  0  0  0  0  0  0  0  0
   -1.1071   22.3554  -23.8196 C   0  0  0  0  0  0  0  0  0  0  0  0
   -2.4538   22.4957  -23.5972 C   0  0  0  0  0  0  0  0  0  0  0  0
   -3.4212   23.2704  -24.2118 C   0  0  0  0  0  0  0  0  0  0  0  0
   -4.6969   23.2491  -23.7578 C   0  0  0  0  0  0  0  0  0  0  0  0
   -1.6812   20.4436  -21.2780 H   0  0  0  0  0  0  0  0  0  0  0  0
   -6.2032   24.9156  -20.7622 C   0  0  0  0  0  0  0  0  0  0  0  0
   -6.8256   23.8350  -21.4229 N   0  0  0  0  0  0  0  0  0  0  0  0
   -6.4721   22.6898  -22.2398 C   0  0  0  0  0  0  0  0  0  0  0  0
   -6.9970   21.6519  -21.1921 C   0  0  0  0  0  0  0  0  0  0  0  0
   -8.4817   22.1060  -21.3042 C   0  0  0  0  0  0  0  0  0  0  0  0
   -8.2827   23.6022  -21.2574 C   0  0  0  0  0  0  0  0  0  0  0  0
   -9.1719   24.4534  -21.1070 O   0  0  0  0  0  0  0  0  0  0  0  0
    0.7372   21.0873  -22.6468 C   0  0  0  0  0  0  0  0  0  0  0  0
    1.6790   21.3444  -23.6040 C   0  0  0  0  0  0  0  0  0  0  0  0
    2.9845   20.8850  -23.3287 C   0  0  0  0  0  0  0  0  0  0  0  0
    3.2357   20.2246  -22.1674 C   0  0  0  0  0  0  0  0  0  0  0  0
    4.5202   19.7745  -21.9350 F   0  0  0  0  0  0  0  0  0  0  0  0
    2.2797   19.9789  -21.2300 C   0  0  0  0  0  0  0  0  0  0  0  0
    1.0193   20.4368  -21.5182 N   0  0  0  0  0  0  0  0  0  0  0  0
   -5.6407   24.0149  -24.3893 O   0  0  0  0  0  0  0  0  0  0  0  0
   -5.5136   24.4193  -25.7084 C   0  0  0  0  0  0  0  0  0  0  0  0
   -4.9037   25.6015  -26.0679 C   0  0  0  0  0  0  0  0  0  0  0  0
   -4.8126   25.9386  -27.3864 C   0  0  0  0  0  0  0  0  0  0  0  0
   -5.3316   25.0909  -28.3582 C   0  0  0  0  0  0  0  0  0  0  0  0
   -5.9180   23.9517  -27.9786 N   0  0  0  0  0  0  0  0  0  0  0  0
   -6.0318   23.5776  -26.6936 C   0  0  0  0  0  0  0  0  0  0  0  0
   -5.1941   25.5294  -30.0463 S   0  0  0  0  0  0  0  0  0  0  0  0
   -5.8425   24.2444  -31.0818 C   0  0  0  0  0  0  0  0  0  0  0  0
   -3.7222   25.7384  -30.4101 O   0  0  0  0  0  0  0  0  0  0  0  0
   -5.8997   26.8021  -30.3585 O   0  0  0  0  0  0  0  0  0  0  0  0
 11 12  1  0  0  0
 12 13  1  0  0  0
 13 14  1  0  0  0
 14 15  1  0  0  0
 15 16  1  0  0  0
 16 17  2  0  0  0
 13  1  1  0  0  0
  1  2  2  0  0  0
  2  3  1  0  0  0
  3  4  1  0  0  0
  4  5  1  0  0  0
  5  6  2  0  0  0
  6  7  1  0  0  0
  7  8  1  0  0  0
  8  9  2  0  0  0
  9 25  1  0  0  0
 25 26  1  0  0  0
 26 27  2  0  0  0
 27 28  1  0  0  0
 28 29  2  0  0  0
 29 30  1  0  0  0
 30 31  2  0  0  0
 29 32  1  0  0  0
 32 33  1  0  0  0
 32 34  2  0  0  0
 32 35  2  0  0  0
  5 18  1  0  0  0
 18 19  2  0  0  0
 19 20  1  0  0  0
 20 21  2  0  0  0
 21 22  1  0  0  0
 21 23  1  0  0  0
 23 24  2  0  0  0
 16 12  1  0  0  0
  9  1  1  0  0  0
 31 26  1  0  0  0
 24 18  1  0  0  0
  7  3  2  0  0  0
  4 10  1  0  0  0
M  END
> <minimizedAffinity>
-9.23566

> <CNNscore>
0.1400642395

> <CNNaffinity>
6.8017868996

> <CNN_VS>
0.9526870847

> <CNNaffinity_variance>
0.0399100929

$$$$
[H]c1nc(-c2c([H])c3c([H])c(Oc4c([H])nc(S(=O)(=O)C([H])([H])[H])c([H])c4[H])c(C4([H])N(C([H])([H])[H])C(=O)C([H])([H])C4([H])[H])c([H])c3n2[H])c([H])c([H])c1F


 35 39  0  0  0  0  0  0  0  0999 V2000
   -1.3233   21.8273  -23.5903 C   0  0  0  0  0  0  0  0  0  0  0  0
   -1.1784   22.2276  -24.8750 C   0  0  0  0  0  0  0  0  0  0  0  0
   -2.2736   22.5817  -25.7024 C   0  0  0  0  0  0  0  0  0  0  0  0
   -2.3774   23.0402  -26.9664 N   0  0  0  0  0  0  0  0  0  0  0  0
   -3.6920   23.2549  -27.2505 C   0  0  0  0  0  0  0  0  0  0  0  0
   -4.4463   22.9341  -26.1591 C   0  0  0  0  0  0  0  0  0  0  0  0
   -3.5585   22.5186  -25.1989 C   0  0  0  0  0  0  0  0  0  0  0  0
   -3.7307   22.1116  -23.8880 C   0  0  0  0  0  0  0  0  0  0  0  0
   -2.6555   21.7860  -23.1318 C   0  0  0  0  0  0  0  0  0  0  0  0
   -1.5640   23.1926  -27.5977 H   0  0  0  0  0  0  0  0  0  0  0  0
    1.8469   21.2053  -24.1541 C   0  0  0  0  0  0  0  0  0  0  0  0
    1.0642   21.3694  -22.9914 N   0  0  0  0  0  0  0  0  0  0  0  0
   -0.3175   21.5992  -22.6147 C   0  0  0  0  0  0  0  0  0  0  0  0
   -0.4446   20.2350  -21.8576 C   0  0  0  0  0  0  0  0  0  0  0  0
    0.6038   20.6029  -20.7673 C   0  0  0  0  0  0  0  0  0  0  0  0
    1.6777   21.1912  -21.6510 C   0  0  0  0  0  0  0  0  0  0  0  0
    2.8382   21.4631  -21.3086 O   0  0  0  0  0  0  0  0  0  0  0  0
   -4.1907   23.8335  -28.5066 C   0  0  0  0  0  0  0  0  0  0  0  0
   -3.7456   25.0596  -28.9166 C   0  0  0  0  0  0  0  0  0  0  0  0
   -4.3140   25.5592  -30.1076 C   0  0  0  0  0  0  0  0  0  0  0  0
   -5.2508   24.8267  -30.7663 C   0  0  0  0  0  0  0  0  0  0  0  0
   -5.7987   25.3505  -31.9204 F   0  0  0  0  0  0  0  0  0  0  0  0
   -5.6792   23.6082  -30.3365 C   0  0  0  0  0  0  0  0  0  0  0  0
   -5.1110   23.1421  -29.1783 N   0  0  0  0  0  0  0  0  0  0  0  0
   -2.8507   21.3741  -21.8402 O   0  0  0  0  0  0  0  0  0  0  0  0
   -3.8500   21.8940  -21.0336 C   0  0  0  0  0  0  0  0  0  0  0  0
   -4.7638   21.0990  -20.3766 C   0  0  0  0  0  0  0  0  0  0  0  0
   -5.7226   21.6774  -19.5976 C   0  0  0  0  0  0  0  0  0  0  0  0
   -5.7726   23.0606  -19.4688 C   0  0  0  0  0  0  0  0  0  0  0  0
   -4.8732   23.8052  -20.1188 N   0  0  0  0  0  0  0  0  0  0  0  0
   -3.9118   23.2815  -20.8971 C   0  0  0  0  0  0  0  0  0  0  0  0
   -6.9988   23.7875  -18.4544 S   0  0  0  0  0  0  0  0  0  0  0  0
   -8.1302   22.5580  -17.8611 C   0  0  0  0  0  0  0  0  0  0  0  0
   -7.7936   24.8188  -19.2590 O   0  0  0  0  0  0  0  0  0  0  0  0
   -6.4146   24.5071  -17.2899 O   0  0  0  0  0  0  0  0  0  0  0  0
 11 12  1  0  0  0
 12 13  1  0  0  0
 13 14  1  0  0  0
 14 15  1  0  0  0
 15 16  1  0  0  0
 16 17  2  0  0  0
 13  1  1  0  0  0
  1  2  2  0  0  0
  2  3  1  0  0  0
  3  4  1  0  0  0
  4  5  1  0  0  0
  5  6  2  0  0  0
  6  7  1  0  0  0
  7  8  1  0  0  0
  8  9  2  0  0  0
  9 25  1  0  0  0
 25 26  1  0  0  0
 26 27  2  0  0  0
 27 28  1  0  0  0
 28 29  2  0  0  0
 29 30  1  0  0  0
 30 31  2  0  0  0
 29 32  1  0  0  0
 32 33  1  0  0  0
 32 34  2  0  0  0
 32 35  2  0  0  0
  5 18  1  0  0  0
 18 19  2  0  0  0
 19 20  1  0  0  0
 20 21  2  0  0  0
 21 22  1  0  0  0
 21 23  1  0  0  0
 23 24  2  0  0  0
 16 12  1  0  0  0
  9  1  1  0  0  0
 31 26  1  0  0  0
 24 18  1  0  0  0
  7  3  2  0  0  0
  4 10  1  0  0  0
M  END
> <minimizedAffinity>
-8.98111

> <CNNscore>
0.1053067893

> <CNNaffinity>
6.5427885056

> <CNN_VS>
0.6890000701

> <CNNaffinity_variance>
0.2426544726

$$$$
[H]c1nc(-c2c([H])c3c([H])c(Oc4c([H])nc(S(=O)(=O)C([H])([H])[H])c([H])c4[H])c(C4([H])N(C([H])([H])[H])C(=O)C([H])([H])C4([H])[H])c([H])c3n2[H])c([H])c([H])c1F


 35 39  0  0  0  0  0  0  0  0999 V2000
   -1.1567   21.7277  -19.5162 C   0  0  0  0  0  0  0  0  0  0  0  0
   -0.5066   21.4551  -20.6714 C   0  0  0  0  0  0  0  0  0  0  0  0
   -0.9837   21.8643  -21.9419 C   0  0  0  0  0  0  0  0  0  0  0  0
   -0.5050   21.7532  -23.1979 N   0  0  0  0  0  0  0  0  0  0  0  0
   -1.3669   22.3693  -24.0538 C   0  0  0  0  0  0  0  0  0  0  0  0
   -2.4126   22.8859  -23.3448 C   0  0  0  0  0  0  0  0  0  0  0  0
   -2.1673   22.5708  -22.0319 C   0  0  0  0  0  0  0  0  0  0  0  0
   -2.8494   22.8607  -20.8638 C   0  0  0  0  0  0  0  0  0  0  0  0
   -2.3551   22.4533  -19.6707 C   0  0  0  0  0  0  0  0  0  0  0  0
    0.3827   21.2667  -23.4403 H   0  0  0  0  0  0  0  0  0  0  0  0
    1.5719   22.9212  -18.1429 C   0  0  0  0  0  0  0  0  0  0  0  0
    0.4957   22.1346  -17.6797 N   0  0  0  0  0  0  0  0  0  0  0  0
   -0.7179   21.5193  -18.1822 C   0  0  0  0  0  0  0  0  0  0  0  0
   -0.2266   20.0641  -17.8800 C   0  0  0  0  0  0  0  0  0  0  0  0
   -0.1833   20.2682  -16.3374 C   0  0  0  0  0  0  0  0  0  0  0  0
    0.4999   21.6140  -16.2891 C   0  0  0  0  0  0  0  0  0  0  0  0
    0.9683   22.1600  -15.2790 O   0  0  0  0  0  0  0  0  0  0  0  0
   -1.1394   22.5266  -25.4976 C   0  0  0  0  0  0  0  0  0  0  0  0
    0.1305   22.4551  -25.9996 C   0  0  0  0  0  0  0  0  0  0  0  0
    0.2609   22.6664  -27.3887 C   0  0  0  0  0  0  0  0  0  0  0  0
   -0.8431   22.9291  -28.1371 C   0  0  0  0  0  0  0  0  0  0  0  0
   -0.6796   23.1464  -29.4908 F   0  0  0  0  0  0  0  0  0  0  0  0
   -2.0976   22.9971  -27.6132 C   0  0  0  0  0  0  0  0  0  0  0  0
   -2.2002   22.7858  -26.2618 N   0  0  0  0  0  0  0  0  0  0  0  0
   -3.0536   22.7409  -18.5280 O   0  0  0  0  0  0  0  0  0  0  0  0
   -4.4071   22.4769  -18.3939 C   0  0  0  0  0  0  0  0  0  0  0  0
   -5.3794   23.4027  -18.7046 C   0  0  0  0  0  0  0  0  0  0  0  0
   -6.6945   23.0763  -18.5487 C   0  0  0  0  0  0  0  0  0  0  0  0
   -7.0473   21.8158  -18.0809 C   0  0  0  0  0  0  0  0  0  0  0  0
   -6.0819   20.9396  -17.7872 N   0  0  0  0  0  0  0  0  0  0  0  0
   -4.7744   21.2153  -17.9237 C   0  0  0  0  0  0  0  0  0  0  0  0
   -8.7386   21.4062  -17.9002 S   0  0  0  0  0  0  0  0  0  0  0  0
   -8.9215   19.7351  -17.3366 C   0  0  0  0  0  0  0  0  0  0  0  0
   -9.4509   21.5357  -19.2487 O   0  0  0  0  0  0  0  0  0  0  0  0
   -9.4415   22.3140  -16.9531 O   0  0  0  0  0  0  0  0  0  0  0  0
 11 12  1  0  0  0
 12 13  1  0  0  0
 13 14  1  0  0  0
 14 15  1  0  0  0
 15 16  1  0  0  0
 16 17  2  0  0  0
 13  1  1  0  0  0
  1  2  2  0  0  0
  2  3  1  0  0  0
  3  4  1  0  0  0
  4  5  1  0  0  0
  5  6  2  0  0  0
  6  7  1  0  0  0
  7  8  1  0  0  0
  8  9  2  0  0  0
  9 25  1  0  0  0
 25 26  1  0  0  0
 26 27  2  0  0  0
 27 28  1  0  0  0
 28 29  2  0  0  0
 29 30  1  0  0  0
 30 31  2  0  0  0
 29 32  1  0  0  0
 32 33  1  0  0  0
 32 34  2  0  0  0
 32 35  2  0  0  0
  5 18  1  0  0  0
 18 19  2  0  0  0
 19 20  1  0  0  0
 20 21  2  0  0  0
 21 22  1  0  0  0
 21 23  1  0  0  0
 23 24  2  0  0  0
 16 12  1  0  0  0
  9  1  1  0  0  0
 31 26  1  0  0  0
 24 18  1  0  0  0
  7  3  2  0  0  0
  4 10  1  0  0  0
M  END
> <minimizedAffinity>
-6.98806

> <CNNscore>
0.1039896309

> <CNNaffinity>
6.1024546623

> <CNN_VS>
0.6345919967

> <CNNaffinity_variance>
0.0300674736

$$$$
[H]c1nc(-c2c([H])c3c([H])c(Oc4c([H])nc(S(=O)(=O)C([H])([H])[H])c([H])c4[H])c(C4([H])N(C([H])([H])[H])C(=O)C([H])([H])C4([H])[H])c([H])c3n2[H])c([H])c([H])c1F


 35 39  0  0  0  0  0  0  0  0999 V2000
   -2.4068   22.3917  -24.9800 C   0  0  0  0  0  0  0  0  0  0  0  0
   -1.0569   22.2962  -24.9723 C   0  0  0  0  0  0  0  0  0  0  0  0
   -0.3249   21.7780  -23.8745 C   0  0  0  0  0  0  0  0  0  0  0  0
    0.9853   21.5477  -23.6526 N   0  0  0  0  0  0  0  0  0  0  0  0
    1.1319   20.9931  -22.4173 C   0  0  0  0  0  0  0  0  0  0  0  0
   -0.0954   20.8613  -21.8348 C   0  0  0  0  0  0  0  0  0  0  0  0
   -0.9974   21.3488  -22.7467 C   0  0  0  0  0  0  0  0  0  0  0  0
   -2.3778   21.4372  -22.7321 C   0  0  0  0  0  0  0  0  0  0  0  0
   -3.0372   21.9357  -23.8047 C   0  0  0  0  0  0  0  0  0  0  0  0
    1.7382   21.7713  -24.3357 H   0  0  0  0  0  0  0  0  0  0  0  0
   -1.5409   22.8140  -28.1147 C   0  0  0  0  0  0  0  0  0  0  0  0
   -2.7644   22.8605  -27.4132 N   0  0  0  0  0  0  0  0  0  0  0  0
   -3.2643   22.7378  -26.0572 C   0  0  0  0  0  0  0  0  0  0  0  0
   -3.8013   24.2075  -26.0134 C   0  0  0  0  0  0  0  0  0  0  0  0
   -4.8638   23.9821  -27.1285 C   0  0  0  0  0  0  0  0  0  0  0  0
   -4.0155   23.2275  -28.1240 C   0  0  0  0  0  0  0  0  0  0  0  0
   -4.3185   22.9754  -29.2998 O   0  0  0  0  0  0  0  0  0  0  0  0
    2.4092   20.5273  -21.8580 C   0  0  0  0  0  0  0  0  0  0  0  0
    2.7915   20.9255  -20.6071 C   0  0  0  0  0  0  0  0  0  0  0  0
    4.0538   20.4706  -20.1703 C   0  0  0  0  0  0  0  0  0  0  0  0
    4.8088   19.6899  -20.9879 C   0  0  0  0  0  0  0  0  0  0  0  0
    6.0458   19.2741  -20.5368 F   0  0  0  0  0  0  0  0  0  0  0  0
    4.4066   19.3082  -22.2310 C   0  0  0  0  0  0  0  0  0  0  0  0
    3.1755   19.7601  -22.6330 N   0  0  0  0  0  0  0  0  0  0  0  0
   -4.4034   22.0252  -23.7632 O   0  0  0  0  0  0  0  0  0  0  0  0
   -5.0855   22.5337  -22.6697 C   0  0  0  0  0  0  0  0  0  0  0  0
   -6.1343   21.8685  -22.0728 C   0  0  0  0  0  0  0  0  0  0  0  0
   -6.7621   22.4272  -20.9984 C   0  0  0  0  0  0  0  0  0  0  0  0
   -6.3418   23.6592  -20.5108 C   0  0  0  0  0  0  0  0  0  0  0  0
   -5.3224   24.2805  -21.1112 N   0  0  0  0  0  0  0  0  0  0  0  0
   -4.6741   23.7707  -22.1714 C   0  0  0  0  0  0  0  0  0  0  0  0
   -7.1469   24.3564  -19.1228 S   0  0  0  0  0  0  0  0  0  0  0  0
   -6.0656   24.3792  -17.7178 C   0  0  0  0  0  0  0  0  0  0  0  0
   -8.3785   23.5217  -18.7635 O   0  0  0  0  0  0  0  0  0  0  0  0
   -7.6265   25.7409  -19.3845 O   0  0  0  0  0  0  0  0  0  0  0  0
 11 12  1  0  0  0
 12 13  1  0  0  0
 13 14  1  0  0  0
 14 15  1  0  0  0
 15 16  1  0  0  0
 16 17  2  0  0  0
 13  1  1  0  0  0
  1  2  2  0  0  0
  2  3  1  0  0  0
  3  4  1  0  0  0
  4  5  1  0  0  0
  5  6  2  0  0  0
  6  7  1  0  0  0
  7  8  1  0  0  0
  8  9  2  0  0  0
  9 25  1  0  0  0
 25 26  1  0  0  0
 26 27  2  0  0  0
 27 28  1  0  0  0
 28 29  2  0  0  0
 29 30  1  0  0  0
 30 31  2  0  0  0
 29 32  1  0  0  0
 32 33  1  0  0  0
 32 34  2  0  0  0
 32 35  2  0  0  0
  5 18  1  0  0  0
 18 19  2  0  0  0
 19 20  1  0  0  0
 20 21  2  0  0  0
 21 22  1  0  0  0
 21 23  1  0  0  0
 23 24  2  0  0  0
 16 12  1  0  0  0
  9  1  1  0  0  0
 31 26  1  0  0  0
 24 18  1  0  0  0
  7  3  2  0  0  0
  4 10  1  0  0  0
M  END
> <minimizedAffinity>
-8.51305

> <CNNscore>
0.1039650515

> <CNNaffinity>
6.5669646263

> <CNN_VS>
0.6827347875

> <CNNaffinity_variance>
0.1393925548

$$$$
[H]c1nc(-c2c([H])c3c([H])c(Oc4c([H])nc(S(=O)(=O)C([H])([H])[H])c([H])c4[H])c(C4([H])N(C([H])([H])[H])C(=O)C([H])([H])C4([H])[H])c([H])c3n2[H])c([H])c([H])c1F


 35 39  0  0  0  0  0  0  0  0999 V2000
   -2.3910   21.6635  -19.6793 C   0  0  0  0  0  0  0  0  0  0  0  0
   -2.7925   22.2514  -20.8303 C   0  0  0  0  0  0  0  0  0  0  0  0
   -2.0545   22.1706  -22.0378 C   0  0  0  0  0  0  0  0  0  0  0  0
   -2.2642   22.6227  -23.2910 N   0  0  0  0  0  0  0  0  0  0  0  0
   -1.2319   22.2201  -24.0830 C   0  0  0  0  0  0  0  0  0  0  0  0
   -0.3465   21.4987  -23.3357 C   0  0  0  0  0  0  0  0  0  0  0  0
   -0.8647   21.4692  -22.0655 C   0  0  0  0  0  0  0  0  0  0  0  0
   -0.4343   20.8601  -20.9004 C   0  0  0  0  0  0  0  0  0  0  0  0
   -1.1730   20.9601  -19.7698 C   0  0  0  0  0  0  0  0  0  0  0  0
   -3.0914   23.1877  -23.5739 H   0  0  0  0  0  0  0  0  0  0  0  0
   -5.5901   21.0317  -19.3301 C   0  0  0  0  0  0  0  0  0  0  0  0
   -4.5158   21.2145  -18.4335 N   0  0  0  0  0  0  0  0  0  0  0  0
   -3.1009   21.5327  -18.4569 C   0  0  0  0  0  0  0  0  0  0  0  0
   -3.2848   22.8712  -17.6663 C   0  0  0  0  0  0  0  0  0  0  0  0
   -3.7807   22.1765  -16.3645 C   0  0  0  0  0  0  0  0  0  0  0  0
   -4.7589   21.1975  -16.9687 C   0  0  0  0  0  0  0  0  0  0  0  0
   -5.5948   20.5229  -16.3490 O   0  0  0  0  0  0  0  0  0  0  0  0
   -1.1520   22.4531  -25.5324 C   0  0  0  0  0  0  0  0  0  0  0  0
    0.0646   22.4573  -26.1563 C   0  0  0  0  0  0  0  0  0  0  0  0
    0.0514   22.7379  -27.5392 C   0  0  0  0  0  0  0  0  0  0  0  0
   -1.1291   22.9891  -28.1646 C   0  0  0  0  0  0  0  0  0  0  0  0
   -1.1064   23.2753  -29.5152 F   0  0  0  0  0  0  0  0  0  0  0  0
   -2.3283   22.9810  -27.5205 C   0  0  0  0  0  0  0  0  0  0  0  0
   -2.2910   22.7035  -26.1777 N   0  0  0  0  0  0  0  0  0  0  0  0
   -0.7214   20.3591  -18.6247 O   0  0  0  0  0  0  0  0  0  0  0  0
    0.2368   20.9358  -17.8069 C   0  0  0  0  0  0  0  0  0  0  0  0
    0.8308   22.1450  -18.0962 C   0  0  0  0  0  0  0  0  0  0  0  0
    1.7678   22.6556  -17.2466 C   0  0  0  0  0  0  0  0  0  0  0  0
    2.1169   21.9578  -16.0961 C   0  0  0  0  0  0  0  0  0  0  0  0
    1.5240   20.7873  -15.8428 N   0  0  0  0  0  0  0  0  0  0  0  0
    0.5970   20.2445  -16.6493 C   0  0  0  0  0  0  0  0  0  0  0  0
    3.3094   22.6323  -15.0081 S   0  0  0  0  0  0  0  0  0  0  0  0
    3.9300   21.3868  -13.9093 C   0  0  0  0  0  0  0  0  0  0  0  0
    2.6744   23.7399  -14.1639 O   0  0  0  0  0  0  0  0  0  0  0  0
    4.4534   23.2472  -15.7350 O   0  0  0  0  0  0  0  0  0  0  0  0
 11 12  1  0  0  0
 12 13  1  0  0  0
 13 14  1  0  0  0
 14 15  1  0  0  0
 15 16  1  0  0  0
 16 17  2  0  0  0
 13  1  1  0  0  0
  1  2  2  0  0  0
  2  3  1  0  0  0
  3  4  1  0  0  0
  4  5  1  0  0  0
  5  6  2  0  0  0
  6  7  1  0  0  0
  7  8  1  0  0  0
  8  9  2  0  0  0
  9 25  1  0  0  0
 25 26  1  0  0  0
 26 27  2  0  0  0
 27 28  1  0  0  0
 28 29  2  0  0  0
 29 30  1  0  0  0
 30 31  2  0  0  0
 29 32  1  0  0  0
 32 33  1  0  0  0
 32 34  2  0  0  0
 32 35  2  0  0  0
  5 18  1  0  0  0
 18 19  2  0  0  0
 19 20  1  0  0  0
 20 21  2  0  0  0
 21 22  1  0  0  0
 21 23  1  0  0  0
 23 24  2  0  0  0
 16 12  1  0  0  0
  9  1  1  0  0  0
 31 26  1  0  0  0
 24 18  1  0  0  0
  7  3  2  0  0  0
  4 10  1  0  0  0
M  END
> <minimizedAffinity>
-6.97943

> <CNNscore>
0.1000300124

> <CNNaffinity>
6.0934028625

> <CNN_VS>
0.6095231771

> <CNNaffinity_variance>
0.0758465677

$$$$
[H]c1nc(-c2c([H])c3c([H])c(Oc4c([H])nc(S(=O)(=O)C([H])([H])[H])c([H])c4[H])c(C4([H])N(C([H])([H])[H])C(=O)C([H])([H])C4([H])[H])c([H])c3n2[H])c([H])c([H])c1F


 35 39  0  0  0  0  0  0  0  0999 V2000
   -7.2239   21.9314  -18.7451 C   0  0  0  0  0  0  0  0  0  0  0  0
   -7.5109   22.3120  -20.0117 C   0  0  0  0  0  0  0  0  0  0  0  0
   -6.5580   22.9108  -20.8735 C   0  0  0  0  0  0  0  0  0  0  0  0
   -6.5916   23.3255  -22.1564 N   0  0  0  0  0  0  0  0  0  0  0  0
   -5.3609   23.7977  -22.4990 C   0  0  0  0  0  0  0  0  0  0  0  0
   -4.5220   23.6857  -21.4282 C   0  0  0  0  0  0  0  0  0  0  0  0
   -5.2715   23.1313  -20.4213 C   0  0  0  0  0  0  0  0  0  0  0  0
   -4.9554   22.7504  -19.1295 C   0  0  0  0  0  0  0  0  0  0  0  0
   -5.8962   22.1782  -18.3414 C   0  0  0  0  0  0  0  0  0  0  0  0
   -7.4387   23.2800  -22.7596 H   0  0  0  0  0  0  0  0  0  0  0  0
   -7.4042   18.6646  -18.5192 C   0  0  0  0  0  0  0  0  0  0  0  0
   -7.9904   19.7373  -17.8141 N   0  0  0  0  0  0  0  0  0  0  0  0
   -8.0258   21.1870  -17.8405 C   0  0  0  0  0  0  0  0  0  0  0  0
   -9.5622   21.2458  -18.1349 C   0  0  0  0  0  0  0  0  0  0  0  0
   -9.9709   20.6030  -16.7774 C   0  0  0  0  0  0  0  0  0  0  0  0
   -8.9754   19.4683  -16.7359 C   0  0  0  0  0  0  0  0  0  0  0  0
   -8.9938   18.5082  -15.9512 O   0  0  0  0  0  0  0  0  0  0  0  0
   -4.9892   24.2600  -23.8441 C   0  0  0  0  0  0  0  0  0  0  0  0
   -4.6850   25.5766  -24.0529 C   0  0  0  0  0  0  0  0  0  0  0  0
   -4.3878   25.9410  -25.3833 C   0  0  0  0  0  0  0  0  0  0  0  0
   -4.4231   25.0000  -26.3637 C   0  0  0  0  0  0  0  0  0  0  0  0
   -4.1424   25.3921  -27.6576 F   0  0  0  0  0  0  0  0  0  0  0  0
   -4.7310   23.6947  -26.1308 C   0  0  0  0  0  0  0  0  0  0  0  0
   -5.0137   23.3635  -24.8301 N   0  0  0  0  0  0  0  0  0  0  0  0
   -5.5641   21.8202  -17.0616 O   0  0  0  0  0  0  0  0  0  0  0  0
   -5.6357   22.7037  -15.9968 C   0  0  0  0  0  0  0  0  0  0  0  0
   -6.0480   24.0105  -16.1416 C   0  0  0  0  0  0  0  0  0  0  0  0
   -6.0950   24.8269  -15.0499 C   0  0  0  0  0  0  0  0  0  0  0  0
   -5.7301   24.3388  -13.8006 C   0  0  0  0  0  0  0  0  0  0  0  0
   -5.3338   23.0672  -13.6918 N   0  0  0  0  0  0  0  0  0  0  0  0
   -5.2707   22.2263  -14.7372 C   0  0  0  0  0  0  0  0  0  0  0  0
   -5.8097   25.3935  -12.4069 S   0  0  0  0  0  0  0  0  0  0  0  0
   -7.3856   25.2551  -11.6061 C   0  0  0  0  0  0  0  0  0  0  0  0
   -5.6233   26.8480  -12.8453 O   0  0  0  0  0  0  0  0  0  0  0  0
   -4.7381   25.1017  -11.4160 O   0  0  0  0  0  0  0  0  0  0  0  0
 11 12  1  0  0  0
 12 13  1  0  0  0
 13 14  1  0  0  0
 14 15  1  0  0  0
 15 16  1  0  0  0
 16 17  2  0  0  0
 13  1  1  0  0  0
  1  2  2  0  0  0
  2  3  1  0  0  0
  3  4  1  0  0  0
  4  5  1  0  0  0
  5  6  2  0  0  0
  6  7  1  0  0  0
  7  8  1  0  0  0
  8  9  2  0  0  0
  9 25  1  0  0  0
 25 26  1  0  0  0
 26 27  2  0  0  0
 27 28  1  0  0  0
 28 29  2  0  0  0
 29 30  1  0  0  0
 30 31  2  0  0  0
 29 32  1  0  0  0
 32 33  1  0  0  0
 32 34  2  0  0  0
 32 35  2  0  0  0
  5 18  1  0  0  0
 18 19  2  0  0  0
 19 20  1  0  0  0
 20 21  2  0  0  0
 21 22  1  0  0  0
 21 23  1  0  0  0
 23 24  2  0  0  0
 16 12  1  0  0  0
  9  1  1  0  0  0
 31 26  1  0  0  0
 24 18  1  0  0  0
  7  3  2  0  0  0
  4 10  1  0  0  0
M  END
> <minimizedAffinity>
-6.69816

> <CNNscore>
0.0952022895

> <CNNaffinity>
5.5632929802

> <CNN_VS>
0.5296382308

> <CNNaffinity_variance>
0.1616802663

$$$$
[H]c1nc(-c2c([H])c3c([H])c(Oc4c([H])nc(S(=O)(=O)C([H])([H])[H])c([H])c4[H])c(C4([H])N(C([H])([H])[H])C(=O)C([H])([H])C4([H])[H])c([H])c3n2[H])c([H])c([H])c1F


 35 39  0  0  0  0  0  0  0  0999 V2000
   -0.1543   22.3343  -24.2777 C   0  0  0  0  0  0  0  0  0  0  0  0
    0.8778   21.5576  -23.8737 C   0  0  0  0  0  0  0  0  0  0  0  0
    1.0501   21.1385  -22.5306 C   0  0  0  0  0  0  0  0  0  0  0  0
    1.9489   20.3489  -21.9081 N   0  0  0  0  0  0  0  0  0  0  0  0
    1.6136   20.2528  -20.5915 C   0  0  0  0  0  0  0  0  0  0  0  0
    0.4857   20.9858  -20.3600 C   0  0  0  0  0  0  0  0  0  0  0  0
    0.1387   21.5320  -21.5700 C   0  0  0  0  0  0  0  0  0  0  0  0
   -0.9244   22.3266  -21.9601 C   0  0  0  0  0  0  0  0  0  0  0  0
   -1.0524   22.7008  -23.2552 C   0  0  0  0  0  0  0  0  0  0  0  0
    2.7585   19.9017  -22.3857 H   0  0  0  0  0  0  0  0  0  0  0  0
   -2.8311   21.3375  -25.8891 C   0  0  0  0  0  0  0  0  0  0  0  0
   -1.7640   22.2102  -26.1914 N   0  0  0  0  0  0  0  0  0  0  0  0
   -0.5302   22.6909  -25.5995 C   0  0  0  0  0  0  0  0  0  0  0  0
    0.3689   22.0697  -26.7203 C   0  0  0  0  0  0  0  0  0  0  0  0
   -0.2104   22.9674  -27.8524 C   0  0  0  0  0  0  0  0  0  0  0  0
   -1.6808   22.8469  -27.5302 C   0  0  0  0  0  0  0  0  0  0  0  0
   -2.6198   23.2108  -28.2539 O   0  0  0  0  0  0  0  0  0  0  0  0
    2.3131   19.4092  -19.6116 C   0  0  0  0  0  0  0  0  0  0  0  0
    2.0621   18.0659  -19.5657 C   0  0  0  0  0  0  0  0  0  0  0  0
    2.7407   17.3422  -18.5623 C   0  0  0  0  0  0  0  0  0  0  0  0
    3.5788   17.9925  -17.7123 C   0  0  0  0  0  0  0  0  0  0  0  0
    4.2158   17.2581  -16.7318 F   0  0  0  0  0  0  0  0  0  0  0  0
    3.8109   19.3323  -17.7770 C   0  0  0  0  0  0  0  0  0  0  0  0
    3.1424   20.0143  -18.7616 N   0  0  0  0  0  0  0  0  0  0  0  0
   -2.1062   23.4978  -23.6165 O   0  0  0  0  0  0  0  0  0  0  0  0
   -3.2081   23.6943  -22.7998 C   0  0  0  0  0  0  0  0  0  0  0  0
   -3.8694   22.6556  -22.1812 C   0  0  0  0  0  0  0  0  0  0  0  0
   -4.9482   22.9204  -21.3896 C   0  0  0  0  0  0  0  0  0  0  0  0
   -5.3732   24.2315  -21.2095 C   0  0  0  0  0  0  0  0  0  0  0  0
   -4.7121   25.2175  -21.8231 N   0  0  0  0  0  0  0  0  0  0  0  0
   -3.6456   25.0061  -22.6119 C   0  0  0  0  0  0  0  0  0  0  0  0
   -6.7494   24.5571  -20.1794 S   0  0  0  0  0  0  0  0  0  0  0  0
   -7.9560   25.5335  -21.0365 C   0  0  0  0  0  0  0  0  0  0  0  0
   -6.2983   25.3352  -18.9410 O   0  0  0  0  0  0  0  0  0  0  0  0
   -7.3974   23.3093  -19.6915 O   0  0  0  0  0  0  0  0  0  0  0  0
 11 12  1  0  0  0
 12 13  1  0  0  0
 13 14  1  0  0  0
 14 15  1  0  0  0
 15 16  1  0  0  0
 16 17  2  0  0  0
 13  1  1  0  0  0
  1  2  2  0  0  0
  2  3  1  0  0  0
  3  4  1  0  0  0
  4  5  1  0  0  0
  5  6  2  0  0  0
  6  7  1  0  0  0
  7  8  1  0  0  0
  8  9  2  0  0  0
  9 25  1  0  0  0
 25 26  1  0  0  0
 26 27  2  0  0  0
 27 28  1  0  0  0
 28 29  2  0  0  0
 29 30  1  0  0  0
 30 31  2  0  0  0
 29 32  1  0  0  0
 32 33  1  0  0  0
 32 34  2  0  0  0
 32 35  2  0  0  0
  5 18  1  0  0  0
 18 19  2  0  0  0
 19 20  1  0  0  0
 20 21  2  0  0  0
 21 22  1  0  0  0
 21 23  1  0  0  0
 23 24  2  0  0  0
 16 12  1  0  0  0
  9  1  1  0  0  0
 31 26  1  0  0  0
 24 18  1  0  0  0
  7  3  2  0  0  0
  4 10  1  0  0  0
M  END
> <minimizedAffinity>
-7.45484

> <CNNscore>
0.0941068605

> <CNNaffinity>
6.1469354630

> <CNN_VS>
0.5784687996

> <CNNaffinity_variance>
0.1527032703

$$$$
[H]c1nc(C([H])([H])N2C([H])([H])C([H])([H])C3(C(=O)N(c4c([H])c([H])c(C#N)c([H])c4[H])C(=O)N3c3nc([H])n([H])c(=O)c3[H])C([H])([H])C2([H])[H])c(C([H])([H])[H])c([H])c1[H]


 36 40  0  0  0  0  0  0  0  0999 V2000
   -6.9226   24.7573  -24.7178 N   0  0  0  0  0  0  0  0  0  0  0  0
   -6.5027   25.9976  -25.3848 C   0  0  0  0  0  0  0  0  0  0  0  0
   -5.7749   25.7242  -26.6588 C   0  0  0  0  0  0  0  0  0  0  0  0
   -5.0284   24.4133  -26.6643 C   0  0  0  0  0  0  0  0  0  0  0  0
   -5.8891   23.2373  -26.2425 C   0  0  0  0  0  0  0  0  0  0  0  0
   -7.2130   23.8198  -25.7980 C   0  0  0  0  0  0  0  0  0  0  0  0
   -4.5266   24.1453  -27.9919 N   0  0  0  0  0  0  0  0  0  0  0  0
   -3.3253   23.3928  -27.7990 C   0  0  0  0  0  0  0  0  0  0  0  0
   -2.7708   22.6735  -28.6961 O   0  0  0  0  0  0  0  0  0  0  0  0
   -2.8494   23.5697  -26.4639 N   0  0  0  0  0  0  0  0  0  0  0  0
   -3.7965   24.4516  -25.8508 C   0  0  0  0  0  0  0  0  0  0  0  0
   -3.5970   25.1221  -24.8159 O   0  0  0  0  0  0  0  0  0  0  0  0
   -5.0600   24.5182  -29.2611 C   0  0  0  0  0  0  0  0  0  0  0  0
   -5.1212   25.8495  -29.6473 C   0  0  0  0  0  0  0  0  0  0  0  0
   -5.6387   26.2012  -30.8778 C   0  0  0  0  0  0  0  0  0  0  0  0
   -5.7046   27.4157  -31.2535 O   0  0  0  0  0  0  0  0  0  0  0  0
   -6.1027   25.2699  -31.7475 N   0  0  0  0  0  0  0  0  0  0  0  0
   -6.0323   23.9868  -31.3495 C   0  0  0  0  0  0  0  0  0  0  0  0
   -5.5301   23.6253  -30.1520 N   0  0  0  0  0  0  0  0  0  0  0  0
   -6.4989   25.5322  -32.6900 H   0  0  0  0  0  0  0  0  0  0  0  0
   -1.6871   22.9890  -25.8883 C   0  0  0  0  0  0  0  0  0  0  0  0
   -0.4996   22.8791  -26.5503 C   0  0  0  0  0  0  0  0  0  0  0  0
    0.5961   22.3035  -25.9349 C   0  0  0  0  0  0  0  0  0  0  0  0
    0.5194   21.8217  -24.6276 C   0  0  0  0  0  0  0  0  0  0  0  0
   -0.6753   21.9335  -23.9644 C   0  0  0  0  0  0  0  0  0  0  0  0
   -1.7536   22.5038  -24.5798 C   0  0  0  0  0  0  0  0  0  0  0  0
    1.6710   21.2244  -23.9991 C   0  0  0  0  0  0  0  0  0  0  0  0
    2.5950   20.7627  -23.4925 N   0  0  0  0  0  0  0  0  0  0  0  0
   -8.1135   25.0461  -23.9498 C   0  0  0  0  0  0  0  0  0  0  0  0
  -10.3263   25.4262  -22.1811 C   0  0  0  0  0  0  0  0  0  0  0  0
   -8.9667   25.2772  -21.6275 C   0  0  0  0  0  0  0  0  0  0  0  0
   -8.7538   25.3305  -20.2699 C   0  0  0  0  0  0  0  0  0  0  0  0
   -7.4756   25.1908  -19.7328 C   0  0  0  0  0  0  0  0  0  0  0  0
   -6.4598   24.9997  -20.6322 C   0  0  0  0  0  0  0  0  0  0  0  0
   -6.6945   24.9517  -21.9529 N   0  0  0  0  0  0  0  0  0  0  0  0
   -7.9124   25.0831  -22.4940 C   0  0  0  0  0  0  0  0  0  0  0  0
 30 31  1  0  0  0
 31 32  2  0  0  0
 32 33  1  0  0  0
 33 34  2  0  0  0
 34 35  1  0  0  0
 35 36  2  0  0  0
 36 29  1  0  0  0
 29  1  1  0  0  0
  1  2  1  0  0  0
  2  3  1  0  0  0
  3  4  1  0  0  0
  4  5  1  0  0  0
  5  6  1  0  0  0
  4  7  1  0  0  0
  7  8  1  0  0  0
  8  9  2  0  0  0
  8 10  1  0  0  0
 10 11  1  0  0  0
 11 12  2  0  0  0
 10 21  1  0  0  0
 21 22  2  0  0  0
 22 23  1  0  0  0
 23 24  2  0  0  0
 24 25  1  0  0  0
 25 26  2  0  0  0
 24 27  1  0  0  0
 27 28  3  0  0  0
  7 13  1  0  0  0
 13 14  2  0  0  0
 14 15  1  0  0  0
 15 16  2  0  0  0
 15 17  1  0  0  0
 17 18  1  0  0  0
 18 19  2  0  0  0
 36 31  1  0  0  0
  6  1  1  0  0  0
 26 21  1  0  0  0
 19 13  1  0  0  0
 11  4  1  0  0  0
 17 20  1  0  0  0
M  END
> <minimizedAffinity>
-10.76734

> <CNNscore>
0.6349508166

> <CNNaffinity>
7.5752882957

> <CNN_VS>
4.8099355698

> <CNNaffinity_variance>
0.1272026151

$$$$
[H]c1nc(C([H])([H])N2C([H])([H])C([H])([H])C3(C(=O)N(c4c([H])c([H])c(C#N)c([H])c4[H])C(=O)N3c3nc([H])n([H])c(=O)c3[H])C([H])([H])C2([H])[H])c(C([H])([H])[H])c([H])c1[H]


 36 40  0  0  0  0  0  0  0  0999 V2000
   -5.9101   22.8613  -22.5894 N   0  0  0  0  0  0  0  0  0  0  0  0
   -5.2866   24.0769  -23.1307 C   0  0  0  0  0  0  0  0  0  0  0  0
   -3.9514   23.7946  -23.7349 C   0  0  0  0  0  0  0  0  0  0  0  0
   -3.2307   22.6302  -23.1021 C   0  0  0  0  0  0  0  0  0  0  0  0
   -4.0852   21.3799  -23.0123 C   0  0  0  0  0  0  0  0  0  0  0  0
   -5.4714   21.7811  -23.4675 C   0  0  0  0  0  0  0  0  0  0  0  0
   -2.0522   22.3107  -23.8736 N   0  0  0  0  0  0  0  0  0  0  0  0
   -1.1110   21.7892  -22.9307 C   0  0  0  0  0  0  0  0  0  0  0  0
   -0.0952   21.0806  -23.2398 O   0  0  0  0  0  0  0  0  0  0  0  0
   -1.4804   22.1802  -21.6075 N   0  0  0  0  0  0  0  0  0  0  0  0
   -2.6736   22.9544  -21.7734 C   0  0  0  0  0  0  0  0  0  0  0  0
   -3.1410   23.7529  -20.9342 O   0  0  0  0  0  0  0  0  0  0  0  0
   -1.8101   22.4566  -25.2716 C   0  0  0  0  0  0  0  0  0  0  0  0
   -0.5188   22.5795  -25.7643 C   0  0  0  0  0  0  0  0  0  0  0  0
   -0.2938   22.7198  -27.1190 C   0  0  0  0  0  0  0  0  0  0  0  0
    0.8818   22.8338  -27.5936 O   0  0  0  0  0  0  0  0  0  0  0  0
   -1.3146   22.7432  -28.0115 N   0  0  0  0  0  0  0  0  0  0  0  0
   -2.5565   22.6224  -27.5087 C   0  0  0  0  0  0  0  0  0  0  0  0
   -2.7947   22.4844  -26.1892 N   0  0  0  0  0  0  0  0  0  0  0  0
   -1.1493   22.8496  -29.0485 H   0  0  0  0  0  0  0  0  0  0  0  0
   -0.7992   21.8609  -20.4019 C   0  0  0  0  0  0  0  0  0  0  0  0
   -0.6976   20.5913  -19.9138 C   0  0  0  0  0  0  0  0  0  0  0  0
   -0.0209   20.3452  -18.7340 C   0  0  0  0  0  0  0  0  0  0  0  0
    0.5738   21.3815  -18.0133 C   0  0  0  0  0  0  0  0  0  0  0  0
    0.4704   22.6567  -18.5061 C   0  0  0  0  0  0  0  0  0  0  0  0
   -0.2002   22.8915  -19.6730 C   0  0  0  0  0  0  0  0  0  0  0  0
    1.2767   21.1090  -16.7845 C   0  0  0  0  0  0  0  0  0  0  0  0
    1.8235   20.8861  -15.7972 N   0  0  0  0  0  0  0  0  0  0  0  0
   -7.3449   23.0299  -22.6546 C   0  0  0  0  0  0  0  0  0  0  0  0
   -9.2504   24.8013  -21.4711 C   0  0  0  0  0  0  0  0  0  0  0  0
   -8.9785   23.4952  -20.8409 C   0  0  0  0  0  0  0  0  0  0  0  0
   -9.6253   23.1277  -19.6843 C   0  0  0  0  0  0  0  0  0  0  0  0
   -9.3790   21.8974  -19.0782 C   0  0  0  0  0  0  0  0  0  0  0  0
   -8.4641   21.0894  -19.7006 C   0  0  0  0  0  0  0  0  0  0  0  0
   -7.8463   21.4721  -20.8293 N   0  0  0  0  0  0  0  0  0  0  0  0
   -8.0651   22.6482  -21.4311 C   0  0  0  0  0  0  0  0  0  0  0  0
 30 31  1  0  0  0
 31 32  2  0  0  0
 32 33  1  0  0  0
 33 34  2  0  0  0
 34 35  1  0  0  0
 35 36  2  0  0  0
 36 29  1  0  0  0
 29  1  1  0  0  0
  1  2  1  0  0  0
  2  3  1  0  0  0
  3  4  1  0  0  0
  4  5  1  0  0  0
  5  6  1  0  0  0
  4  7  1  0  0  0
  7  8  1  0  0  0
  8  9  2  0  0  0
  8 10  1  0  0  0
 10 11  1  0  0  0
 11 12  2  0  0  0
 10 21  1  0  0  0
 21 22  2  0  0  0
 22 23  1  0  0  0
 23 24  2  0  0  0
 24 25  1  0  0  0
 25 26  2  0  0  0
 24 27  1  0  0  0
 27 28  3  0  0  0
  7 13  1  0  0  0
 13 14  2  0  0  0
 14 15  1  0  0  0
 15 16  2  0  0  0
 15 17  1  0  0  0
 17 18  1  0  0  0
 18 19  2  0  0  0
 36 31  1  0  0  0
  6  1  1  0  0  0
 26 21  1  0  0  0
 19 13  1  0  0  0
 11  4  1  0  0  0
 17 20  1  0  0  0
M  END
> <minimizedAffinity>
-8.24243

> <CNNscore>
0.5939634442

> <CNNaffinity>
6.9977827072

> <CNN_VS>
4.1564269066

> <CNNaffinity_variance>
0.0312962718

$$$$
[H]c1nc(C([H])([H])N2C([H])([H])C([H])([H])C3(C(=O)N(c4c([H])c([H])c(C#N)c([H])c4[H])C(=O)N3c3nc([H])n([H])c(=O)c3[H])C([H])([H])C2([H])[H])c(C([H])([H])[H])c([H])c1[H]


 36 40  0  0  0  0  0  0  0  0999 V2000
   -1.9379   21.6587  -17.8800 N   0  0  0  0  0  0  0  0  0  0  0  0
   -2.8597   22.8026  -17.8444 C   0  0  0  0  0  0  0  0  0  0  0  0
   -3.9794   22.6443  -18.8184 C   0  0  0  0  0  0  0  0  0  0  0  0
   -3.6170   21.8301  -20.0357 C   0  0  0  0  0  0  0  0  0  0  0  0
   -2.9762   20.4989  -19.6912 C   0  0  0  0  0  0  0  0  0  0  0  0
   -2.7725   20.5026  -18.1918 C   0  0  0  0  0  0  0  0  0  0  0  0
   -4.8042   21.5655  -20.8145 N   0  0  0  0  0  0  0  0  0  0  0  0
   -4.3573   21.4805  -22.1709 C   0  0  0  0  0  0  0  0  0  0  0  0
   -5.0145   20.9272  -23.1152 O   0  0  0  0  0  0  0  0  0  0  0  0
   -3.0785   22.1031  -22.3018 N   0  0  0  0  0  0  0  0  0  0  0  0
   -2.7609   22.5690  -20.9854 C   0  0  0  0  0  0  0  0  0  0  0  0
   -1.9107   23.4423  -20.7121 O   0  0  0  0  0  0  0  0  0  0  0  0
   -6.1573   21.4106  -20.3907 C   0  0  0  0  0  0  0  0  0  0  0  0
   -7.1422   22.2950  -20.8067 C   0  0  0  0  0  0  0  0  0  0  0  0
   -8.4493   22.1370  -20.3918 C   0  0  0  0  0  0  0  0  0  0  0  0
   -9.3694   22.9356  -20.7608 O   0  0  0  0  0  0  0  0  0  0  0  0
   -8.8179   21.1229  -19.5704 N   0  0  0  0  0  0  0  0  0  0  0  0
   -7.8448   20.2795  -19.1814 C   0  0  0  0  0  0  0  0  0  0  0  0
   -6.5636   20.4184  -19.5767 N   0  0  0  0  0  0  0  0  0  0  0  0
   -9.8156   20.9963  -19.2501 H   0  0  0  0  0  0  0  0  0  0  0  0
   -2.3058   22.2241  -23.4883 C   0  0  0  0  0  0  0  0  0  0  0  0
   -1.0202   21.7806  -23.5922 C   0  0  0  0  0  0  0  0  0  0  0  0
   -0.3206   21.9277  -24.7752 C   0  0  0  0  0  0  0  0  0  0  0  0
   -0.9056   22.5301  -25.8896 C   0  0  0  0  0  0  0  0  0  0  0  0
   -2.1980   22.9750  -25.7826 C   0  0  0  0  0  0  0  0  0  0  0  0
   -2.8826   22.8258  -24.6097 C   0  0  0  0  0  0  0  0  0  0  0  0
   -0.1633   22.6760  -27.1167 C   0  0  0  0  0  0  0  0  0  0  0  0
    0.4176   22.7836  -28.1039 N   0  0  0  0  0  0  0  0  0  0  0  0
   -1.3411   21.5269  -16.5694 C   0  0  0  0  0  0  0  0  0  0  0  0
    0.0585   21.5108  -14.0773 C   0  0  0  0  0  0  0  0  0  0  0  0
    0.7816   21.8485  -15.3183 C   0  0  0  0  0  0  0  0  0  0  0  0
    2.1193   22.1659  -15.2849 C   0  0  0  0  0  0  0  0  0  0  0  0
    2.8153   22.4864  -16.4487 C   0  0  0  0  0  0  0  0  0  0  0  0
    2.0909   22.4649  -17.6115 C   0  0  0  0  0  0  0  0  0  0  0  0
    0.7856   22.1517  -17.6168 N   0  0  0  0  0  0  0  0  0  0  0  0
    0.0942   21.8403  -16.5130 C   0  0  0  0  0  0  0  0  0  0  0  0
 30 31  1  0  0  0
 31 32  2  0  0  0
 32 33  1  0  0  0
 33 34  2  0  0  0
 34 35  1  0  0  0
 35 36  2  0  0  0
 36 29  1  0  0  0
 29  1  1  0  0  0
  1  2  1  0  0  0
  2  3  1  0  0  0
  3  4  1  0  0  0
  4  5  1  0  0  0
  5  6  1  0  0  0
  4  7  1  0  0  0
  7  8  1  0  0  0
  8  9  2  0  0  0
  8 10  1  0  0  0
 10 11  1  0  0  0
 11 12  2  0  0  0
 10 21  1  0  0  0
 21 22  2  0  0  0
 22 23  1  0  0  0
 23 24  2  0  0  0
 24 25  1  0  0  0
 25 26  2  0  0  0
 24 27  1  0  0  0
 27 28  3  0  0  0
  7 13  1  0  0  0
 13 14  2  0  0  0
 14 15  1  0  0  0
 15 16  2  0  0  0
 15 17  1  0  0  0
 17 18  1  0  0  0
 18 19  2  0  0  0
 36 31  1  0  0  0
  6  1  1  0  0  0
 26 21  1  0  0  0
 19 13  1  0  0  0
 11  4  1  0  0  0
 17 20  1  0  0  0
M  END
> <minimizedAffinity>
-7.06750

> <CNNscore>
0.2850330770

> <CNNaffinity>
6.3126139641

> <CNN_VS>
1.7993037701

> <CNNaffinity_variance>
0.0266151633

$$$$
[H]c1nc(C([H])([H])N2C([H])([H])C([H])([H])C3(C(=O)N(c4c([H])c([H])c(C#N)c([H])c4[H])C(=O)N3c3nc([H])n([H])c(=O)c3[H])C([H])([H])C2([H])[H])c(C([H])([H])[H])c([H])c1[H]


 36 40  0  0  0  0  0  0  0  0999 V2000
   -6.3354   23.6595  -23.1712 N   0  0  0  0  0  0  0  0  0  0  0  0
   -5.9215   24.9756  -23.6775 C   0  0  0  0  0  0  0  0  0  0  0  0
   -5.0785   24.8591  -24.9035 C   0  0  0  0  0  0  0  0  0  0  0  0
   -4.2721   23.5858  -24.9692 C   0  0  0  0  0  0  0  0  0  0  0  0
   -5.1074   22.3406  -24.7383 C   0  0  0  0  0  0  0  0  0  0  0  0
   -6.4900   22.8231  -24.3572 C   0  0  0  0  0  0  0  0  0  0  0  0
   -3.6498   23.4710  -26.2675 N   0  0  0  0  0  0  0  0  0  0  0  0
   -2.4339   22.7513  -26.0435 C   0  0  0  0  0  0  0  0  0  0  0  0
   -1.7732   22.1472  -26.9535 O   0  0  0  0  0  0  0  0  0  0  0  0
   -2.0793   22.8135  -24.6613 N   0  0  0  0  0  0  0  0  0  0  0  0
   -3.1151   23.5919  -24.0515 C   0  0  0  0  0  0  0  0  0  0  0  0
   -3.0343   24.1637  -22.9439 O   0  0  0  0  0  0  0  0  0  0  0  0
   -4.0935   23.9467  -27.5369 C   0  0  0  0  0  0  0  0  0  0  0  0
   -4.6226   23.0780  -28.4806 C   0  0  0  0  0  0  0  0  0  0  0  0
   -5.0499   23.5473  -29.7064 C   0  0  0  0  0  0  0  0  0  0  0  0
   -5.5387   22.7693  -30.5873 O   0  0  0  0  0  0  0  0  0  0  0  0
   -4.9701   24.8612  -30.0329 N   0  0  0  0  0  0  0  0  0  0  0  0
   -4.4536   25.6825  -29.1010 C   0  0  0  0  0  0  0  0  0  0  0  0
   -4.0317   25.2418  -27.8992 N   0  0  0  0  0  0  0  0  0  0  0  0
   -5.2957   25.2265  -30.9681 H   0  0  0  0  0  0  0  0  0  0  0  0
   -0.9422   22.2250  -24.0447 C   0  0  0  0  0  0  0  0  0  0  0  0
    0.3076   22.2625  -24.5897 C   0  0  0  0  0  0  0  0  0  0  0  0
    1.3744   21.6706  -23.9402 C   0  0  0  0  0  0  0  0  0  0  0  0
    1.2047   21.0221  -22.7164 C   0  0  0  0  0  0  0  0  0  0  0  0
   -0.0524   20.9860  -22.1706 C   0  0  0  0  0  0  0  0  0  0  0  0
   -1.1017   21.5735  -22.8190 C   0  0  0  0  0  0  0  0  0  0  0  0
    2.3273   20.4098  -22.0507 C   0  0  0  0  0  0  0  0  0  0  0  0
    3.2331   19.9270  -21.5313 N   0  0  0  0  0  0  0  0  0  0  0  0
   -7.5983   23.8232  -22.4858 C   0  0  0  0  0  0  0  0  0  0  0  0
   -7.1960   25.3505  -20.1037 C   0  0  0  0  0  0  0  0  0  0  0  0
   -7.4648   23.9031  -20.0058 C   0  0  0  0  0  0  0  0  0  0  0  0
   -7.5127   23.2811  -18.7803 C   0  0  0  0  0  0  0  0  0  0  0  0
   -7.7660   21.9151  -18.6724 C   0  0  0  0  0  0  0  0  0  0  0  0
   -7.9616   21.2420  -19.8497 C   0  0  0  0  0  0  0  0  0  0  0  0
   -7.9095   21.8729  -21.0333 N   0  0  0  0  0  0  0  0  0  0  0  0
   -7.6679   23.1837  -21.1639 C   0  0  0  0  0  0  0  0  0  0  0  0
 30 31  1  0  0  0
 31 32  2  0  0  0
 32 33  1  0  0  0
 33 34  2  0  0  0
 34 35  1  0  0  0
 35 36  2  0  0  0
 36 29  1  0  0  0
 29  1  1  0  0  0
  1  2  1  0  0  0
  2  3  1  0  0  0
  3  4  1  0  0  0
  4  5  1  0  0  0
  5  6  1  0  0  0
  4  7  1  0  0  0
  7  8  1  0  0  0
  8  9  2  0  0  0
  8 10  1  0  0  0
 10 11  1  0  0  0
 11 12  2  0  0  0
 10 21  1  0  0  0
 21 22  2  0  0  0
 22 23  1  0  0  0
 23 24  2  0  0  0
 24 25  1  0  0  0
 25 26  2  0  0  0
 24 27  1  0  0  0
 27 28  3  0  0  0
  7 13  1  0  0  0
 13 14  2  0  0  0
 14 15  1  0  0  0
 15 16  2  0  0  0
 15 17  1  0  0  0
 17 18  1  0  0  0
 18 19  2  0  0  0
 36 31  1  0  0  0
  6  1  1  0  0  0
 26 21  1  0  0  0
 19 13  1  0  0  0
 11  4  1  0  0  0
 17 20  1  0  0  0
M  END
> <minimizedAffinity>
-9.04141

> <CNNscore>
0.2714385986

> <CNNaffinity>
7.1000266075

> <CNN_VS>
1.9272212982

> <CNNaffinity_variance>
0.0726819485

$$$$
[H]c1nc(C([H])([H])N2C([H])([H])C([H])([H])C3(C(=O)N(c4c([H])c([H])c(C#N)c([H])c4[H])C(=O)N3c3nc([H])n([H])c(=O)c3[H])C([H])([H])C2([H])[H])c(C([H])([H])[H])c([H])c1[H]


 36 40  0  0  0  0  0  0  0  0999 V2000
   -6.8390   24.8605  -23.8441 N   0  0  0  0  0  0  0  0  0  0  0  0
   -6.2022   25.9638  -24.5768 C   0  0  0  0  0  0  0  0  0  0  0  0
   -5.3769   25.4696  -25.7179 C   0  0  0  0  0  0  0  0  0  0  0  0
   -4.7974   24.0940  -25.4993 C   0  0  0  0  0  0  0  0  0  0  0  0
   -5.8343   23.0736  -25.0692 C   0  0  0  0  0  0  0  0  0  0  0  0
   -7.1195   23.8421  -24.8513 C   0  0  0  0  0  0  0  0  0  0  0  0
   -4.1885   23.6233  -26.7215 N   0  0  0  0  0  0  0  0  0  0  0  0
   -3.1148   22.7731  -26.3078 C   0  0  0  0  0  0  0  0  0  0  0  0
   -2.5556   21.9003  -27.0529 O   0  0  0  0  0  0  0  0  0  0  0  0
   -2.7710   23.0496  -24.9493 N   0  0  0  0  0  0  0  0  0  0  0  0
   -3.6669   24.0926  -24.5491 C   0  0  0  0  0  0  0  0  0  0  0  0
   -3.5032   24.8518  -23.5708 O   0  0  0  0  0  0  0  0  0  0  0  0
   -4.5303   23.9036  -28.0775 C   0  0  0  0  0  0  0  0  0  0  0  0
   -4.0554   25.0417  -28.7137 C   0  0  0  0  0  0  0  0  0  0  0  0
   -4.3911   25.3047  -30.0266 C   0  0  0  0  0  0  0  0  0  0  0  0
   -3.9672   26.3419  -30.6306 O   0  0  0  0  0  0  0  0  0  0  0  0
   -5.1894   24.4707  -30.7381 N   0  0  0  0  0  0  0  0  0  0  0  0
   -5.6366   23.3748  -30.0989 C   0  0  0  0  0  0  0  0  0  0  0  0
   -5.3189   23.1021  -28.8176 N   0  0  0  0  0  0  0  0  0  0  0  0
   -5.4492   24.6657  -31.7423 H   0  0  0  0  0  0  0  0  0  0  0  0
   -1.7573   22.4170  -24.1800 C   0  0  0  0  0  0  0  0  0  0  0  0
   -2.0109   21.7287  -23.0300 C   0  0  0  0  0  0  0  0  0  0  0  0
   -0.9804   21.1349  -22.3259 C   0  0  0  0  0  0  0  0  0  0  0  0
    0.3402   21.2219  -22.7683 C   0  0  0  0  0  0  0  0  0  0  0  0
    0.5924   21.9142  -23.9245 C   0  0  0  0  0  0  0  0  0  0  0  0
   -0.4319   22.4983  -24.6146 C   0  0  0  0  0  0  0  0  0  0  0  0
    1.4043   20.5967  -22.0233 C   0  0  0  0  0  0  0  0  0  0  0  0
    2.2429   20.0861  -21.4238 N   0  0  0  0  0  0  0  0  0  0  0  0
   -8.0638   25.3617  -23.2609 C   0  0  0  0  0  0  0  0  0  0  0  0
  -10.7414   25.7193  -22.3272 C   0  0  0  0  0  0  0  0  0  0  0  0
   -9.8621   24.7378  -21.6636 C   0  0  0  0  0  0  0  0  0  0  0  0
  -10.3157   24.0021  -20.5939 C   0  0  0  0  0  0  0  0  0  0  0  0
   -9.4969   23.0713  -19.9577 C   0  0  0  0  0  0  0  0  0  0  0  0
   -8.2290   22.9387  -20.4600 C   0  0  0  0  0  0  0  0  0  0  0  0
   -7.8107   23.6693  -21.5055 N   0  0  0  0  0  0  0  0  0  0  0  0
   -8.5774   24.5696  -22.1339 C   0  0  0  0  0  0  0  0  0  0  0  0
 30 31  1  0  0  0
 31 32  2  0  0  0
 32 33  1  0  0  0
 33 34  2  0  0  0
 34 35  1  0  0  0
 35 36  2  0  0  0
 36 29  1  0  0  0
 29  1  1  0  0  0
  1  2  1  0  0  0
  2  3  1  0  0  0
  3  4  1  0  0  0
  4  5  1  0  0  0
  5  6  1  0  0  0
  4  7  1  0  0  0
  7  8  1  0  0  0
  8  9  2  0  0  0
  8 10  1  0  0  0
 10 11  1  0  0  0
 11 12  2  0  0  0
 10 21  1  0  0  0
 21 22  2  0  0  0
 22 23  1  0  0  0
 23 24  2  0  0  0
 24 25  1  0  0  0
 25 26  2  0  0  0
 24 27  1  0  0  0
 27 28  3  0  0  0
  7 13  1  0  0  0
 13 14  2  0  0  0
 14 15  1  0  0  0
 15 16  2  0  0  0
 15 17  1  0  0  0
 17 18  1  0  0  0
 18 19  2  0  0  0
 36 31  1  0  0  0
  6  1  1  0  0  0
 26 21  1  0  0  0
 19 13  1  0  0  0
 11  4  1  0  0  0
 17 20  1  0  0  0
M  END
> <minimizedAffinity>
-9.40024

> <CNNscore>
0.2508354783

> <CNNaffinity>
7.0034079552

> <CNN_VS>
1.7567031384

> <CNNaffinity_variance>
0.0640719607

$$$$
[H]c1nc(C([H])([H])N2C([H])([H])C([H])([H])C3(C(=O)N(c4c([H])c([H])c(C#N)c([H])c4[H])C(=O)N3c3nc([H])n([H])c(=O)c3[H])C([H])([H])C2([H])[H])c(C([H])([H])[H])c([H])c1[H]


 36 40  0  0  0  0  0  0  0  0999 V2000
   -3.5144   21.6607  -18.0101 N   0  0  0  0  0  0  0  0  0  0  0  0
   -4.3618   22.7006  -17.4102 C   0  0  0  0  0  0  0  0  0  0  0  0
   -5.7964   22.5339  -17.7866 C   0  0  0  0  0  0  0  0  0  0  0  0
   -6.0011   21.8855  -19.1333 C   0  0  0  0  0  0  0  0  0  0  0  0
   -5.2211   20.5946  -19.2963 C   0  0  0  0  0  0  0  0  0  0  0  0
   -4.3521   20.4667  -18.0641 C   0  0  0  0  0  0  0  0  0  0  0  0
   -7.4017   21.5872  -19.3212 N   0  0  0  0  0  0  0  0  0  0  0  0
   -7.6244   21.6831  -20.7312 C   0  0  0  0  0  0  0  0  0  0  0  0
   -8.6191   21.1669  -21.3426 O   0  0  0  0  0  0  0  0  0  0  0  0
   -6.5745   22.4364  -21.3395 N   0  0  0  0  0  0  0  0  0  0  0  0
   -5.7068   22.7957  -20.2584 C   0  0  0  0  0  0  0  0  0  0  0  0
   -4.8616   23.7151  -20.2832 O   0  0  0  0  0  0  0  0  0  0  0  0
   -8.4018   21.2602  -18.3582 C   0  0  0  0  0  0  0  0  0  0  0  0
   -9.3210   22.2084  -17.9324 C   0  0  0  0  0  0  0  0  0  0  0  0
  -10.2858   21.8828  -17.0003 C   0  0  0  0  0  0  0  0  0  0  0  0
  -11.1394   22.7358  -16.5952 O   0  0  0  0  0  0  0  0  0  0  0  0
  -10.3719   20.6377  -16.4699 N   0  0  0  0  0  0  0  0  0  0  0  0
   -9.4695   19.7370  -16.8990 C   0  0  0  0  0  0  0  0  0  0  0  0
   -8.5209   20.0373  -17.8084 N   0  0  0  0  0  0  0  0  0  0  0  0
  -11.1075   20.3822  -15.7575 H   0  0  0  0  0  0  0  0  0  0  0  0
   -6.4382   22.7507  -22.7187 C   0  0  0  0  0  0  0  0  0  0  0  0
   -5.6446   22.0424  -23.5725 C   0  0  0  0  0  0  0  0  0  0  0  0
   -5.5543   22.3986  -24.9049 C   0  0  0  0  0  0  0  0  0  0  0  0
   -6.2676   23.4856  -25.4115 C   0  0  0  0  0  0  0  0  0  0  0  0
   -7.0646   24.1958  -24.5513 C   0  0  0  0  0  0  0  0  0  0  0  0
   -7.1485   23.8372  -23.2357 C   0  0  0  0  0  0  0  0  0  0  0  0
   -6.1634   23.8445  -26.8039 C   0  0  0  0  0  0  0  0  0  0  0  0
   -6.0706   24.1177  -27.9175 N   0  0  0  0  0  0  0  0  0  0  0  0
   -2.3777   21.4557  -17.1399 C   0  0  0  0  0  0  0  0  0  0  0  0
    0.0021   21.4023  -15.5579 C   0  0  0  0  0  0  0  0  0  0  0  0
    0.0732   21.8273  -16.9690 C   0  0  0  0  0  0  0  0  0  0  0  0
    1.2716   22.2079  -17.5260 C   0  0  0  0  0  0  0  0  0  0  0  0
    1.3541   22.6110  -18.8574 C   0  0  0  0  0  0  0  0  0  0  0  0
    0.1808   22.6035  -19.5649 C   0  0  0  0  0  0  0  0  0  0  0  0
   -0.9761   22.2275  -18.9973 N   0  0  0  0  0  0  0  0  0  0  0  0
   -1.0820   21.8362  -17.7209 C   0  0  0  0  0  0  0  0  0  0  0  0
 30 31  1  0  0  0
 31 32  2  0  0  0
 32 33  1  0  0  0
 33 34  2  0  0  0
 34 35  1  0  0  0
 35 36  2  0  0  0
 36 29  1  0  0  0
 29  1  1  0  0  0
  1  2  1  0  0  0
  2  3  1  0  0  0
  3  4  1  0  0  0
  4  5  1  0  0  0
  5  6  1  0  0  0
  4  7  1  0  0  0
  7  8  1  0  0  0
  8  9  2  0  0  0
  8 10  1  0  0  0
 10 11  1  0  0  0
 11 12  2  0  0  0
 10 21  1  0  0  0
 21 22  2  0  0  0
 22 23  1  0  0  0
 23 24  2  0  0  0
 24 25  1  0  0  0
 25 26  2  0  0  0
 24 27  1  0  0  0
 27 28  3  0  0  0
  7 13  1  0  0  0
 13 14  2  0  0  0
 14 15  1  0  0  0
 15 16  2  0  0  0
 15 17  1  0  0  0
 17 18  1  0  0  0
 18 19  2  0  0  0
 36 31  1  0  0  0
  6  1  1  0  0  0
 26 21  1  0  0  0
 19 13  1  0  0  0
 11  4  1  0  0  0
 17 20  1  0  0  0
M  END
> <minimizedAffinity>
-7.28667

> <CNNscore>
0.1782458723

> <CNNaffinity>
5.7842187881

> <CNN_VS>
1.0310131311

> <CNNaffinity_variance>
0.1800880134

$$$$
[H]c1nc(C([H])([H])N2C([H])([H])C([H])([H])C3(C(=O)N(c4c([H])c([H])c(C#N)c([H])c4[H])C(=O)N3c3nc([H])n([H])c(=O)c3[H])C([H])([H])C2([H])[H])c(C([H])([H])[H])c([H])c1[H]


 36 40  0  0  0  0  0  0  0  0999 V2000
   -5.4163   23.4564  -26.0101 N   0  0  0  0  0  0  0  0  0  0  0  0
   -6.1575   22.5061  -25.1692 C   0  0  0  0  0  0  0  0  0  0  0  0
   -5.8182   22.6612  -23.7241 C   0  0  0  0  0  0  0  0  0  0  0  0
   -4.4169   23.1631  -23.4782 C   0  0  0  0  0  0  0  0  0  0  0  0
   -4.0847   24.4118  -24.2730 C   0  0  0  0  0  0  0  0  0  0  0  0
   -5.2625   24.6548  -25.1914 C   0  0  0  0  0  0  0  0  0  0  0  0
   -4.2491   23.4687  -22.0765 N   0  0  0  0  0  0  0  0  0  0  0  0
   -2.8674   23.2244  -21.7975 C   0  0  0  0  0  0  0  0  0  0  0  0
   -2.2400   23.6918  -20.7887 O   0  0  0  0  0  0  0  0  0  0  0  0
   -2.3071   22.3873  -22.8100 N   0  0  0  0  0  0  0  0  0  0  0  0
   -3.3884   22.1297  -23.7129 C   0  0  0  0  0  0  0  0  0  0  0  0
   -3.4335   21.1954  -24.5407 O   0  0  0  0  0  0  0  0  0  0  0  0
   -5.2066   23.9197  -21.1204 C   0  0  0  0  0  0  0  0  0  0  0  0
   -5.6800   23.0725  -20.1287 C   0  0  0  0  0  0  0  0  0  0  0  0
   -6.6064   23.5178  -19.2072 C   0  0  0  0  0  0  0  0  0  0  0  0
   -7.0545   22.7589  -18.2888 O   0  0  0  0  0  0  0  0  0  0  0  0
   -7.0850   24.7864  -19.2348 N   0  0  0  0  0  0  0  0  0  0  0  0
   -6.6104   25.5876  -20.2057 C   0  0  0  0  0  0  0  0  0  0  0  0
   -5.7059   25.1699  -21.1135 N   0  0  0  0  0  0  0  0  0  0  0  0
   -7.7928   25.1332  -18.5329 H   0  0  0  0  0  0  0  0  0  0  0  0
   -0.9666   21.9217  -22.8871 C   0  0  0  0  0  0  0  0  0  0  0  0
   -0.1523   22.1599  -23.9551 C   0  0  0  0  0  0  0  0  0  0  0  0
    1.1436   21.6795  -23.9702 C   0  0  0  0  0  0  0  0  0  0  0  0
    1.6527   20.9422  -22.9005 C   0  0  0  0  0  0  0  0  0  0  0  0
    0.8322   20.7043  -21.8282 C   0  0  0  0  0  0  0  0  0  0  0  0
   -0.4476   21.1826  -21.8211 C   0  0  0  0  0  0  0  0  0  0  0  0
    3.0067   20.4482  -22.9307 C   0  0  0  0  0  0  0  0  0  0  0  0
    4.0832   20.0429  -22.9431 N   0  0  0  0  0  0  0  0  0  0  0  0
   -6.2163   23.7309  -27.1831 C   0  0  0  0  0  0  0  0  0  0  0  0
   -3.5841   22.9215  -27.9483 C   0  0  0  0  0  0  0  0  0  0  0  0
   -4.2289   24.0547  -28.6390 C   0  0  0  0  0  0  0  0  0  0  0  0
   -3.5707   24.7311  -29.6392 C   0  0  0  0  0  0  0  0  0  0  0  0
   -4.1672   25.8028  -30.3007 C   0  0  0  0  0  0  0  0  0  0  0  0
   -5.4335   26.1338  -29.8955 C   0  0  0  0  0  0  0  0  0  0  0  0
   -6.0540   25.4573  -28.9161 N   0  0  0  0  0  0  0  0  0  0  0  0
   -5.5030   24.4246  -28.2654 C   0  0  0  0  0  0  0  0  0  0  0  0
 30 31  1  0  0  0
 31 32  2  0  0  0
 32 33  1  0  0  0
 33 34  2  0  0  0
 34 35  1  0  0  0
 35 36  2  0  0  0
 36 29  1  0  0  0
 29  1  1  0  0  0
  1  2  1  0  0  0
  2  3  1  0  0  0
  3  4  1  0  0  0
  4  5  1  0  0  0
  5  6  1  0  0  0
  4  7  1  0  0  0
  7  8  1  0  0  0
  8  9  2  0  0  0
  8 10  1  0  0  0
 10 11  1  0  0  0
 11 12  2  0  0  0
 10 21  1  0  0  0
 21 22  2  0  0  0
 22 23  1  0  0  0
 23 24  2  0  0  0
 24 25  1  0  0  0
 25 26  2  0  0  0
 24 27  1  0  0  0
 27 28  3  0  0  0
  7 13  1  0  0  0
 13 14  2  0  0  0
 14 15  1  0  0  0
 15 16  2  0  0  0
 15 17  1  0  0  0
 17 18  1  0  0  0
 18 19  2  0  0  0
 36 31  1  0  0  0
  6  1  1  0  0  0
 26 21  1  0  0  0
 19 13  1  0  0  0
 11  4  1  0  0  0
 17 20  1  0  0  0
M  END
> <minimizedAffinity>
-9.79043

> <CNNscore>
0.1511094421

> <CNNaffinity>
6.4492254257

> <CNN_VS>
0.9745388627

> <CNNaffinity_variance>
0.4251857698

$$$$
[H]c1nc(C([H])([H])N2C([H])([H])C([H])([H])C3(C(=O)N(c4c([H])c([H])c(C#N)c([H])c4[H])C(=O)N3c3nc([H])n([H])c(=O)c3[H])C([H])([H])C2([H])[H])c(C([H])([H])[H])c([H])c1[H]


 36 40  0  0  0  0  0  0  0  0999 V2000
   -3.3120   21.7603  -17.9947 N   0  0  0  0  0  0  0  0  0  0  0  0
   -4.1035   22.9803  -17.7838 C   0  0  0  0  0  0  0  0  0  0  0  0
   -5.4028   22.9332  -18.5166 C   0  0  0  0  0  0  0  0  0  0  0  0
   -5.3612   22.1054  -19.7771 C   0  0  0  0  0  0  0  0  0  0  0  0
   -4.7857   20.7188  -19.5590 C   0  0  0  0  0  0  0  0  0  0  0  0
   -4.2908   20.6860  -18.1294 C   0  0  0  0  0  0  0  0  0  0  0  0
   -6.6974   21.9559  -20.3047 N   0  0  0  0  0  0  0  0  0  0  0  0
   -6.5360   21.8487  -21.7222 C   0  0  0  0  0  0  0  0  0  0  0  0
   -7.4129   21.3671  -22.5152 O   0  0  0  0  0  0  0  0  0  0  0  0
   -5.2581   22.3579  -22.1063 N   0  0  0  0  0  0  0  0  0  0  0  0
   -4.6470   22.7777  -20.8812 C   0  0  0  0  0  0  0  0  0  0  0  0
   -3.6856   23.5694  -20.7857 O   0  0  0  0  0  0  0  0  0  0  0  0
   -7.9486   21.9154  -19.6212 C   0  0  0  0  0  0  0  0  0  0  0  0
   -8.2576   20.8747  -18.7572 C   0  0  0  0  0  0  0  0  0  0  0  0
   -9.4710   20.8440  -18.0996 C   0  0  0  0  0  0  0  0  0  0  0  0
   -9.7761   19.8997  -17.3023 O   0  0  0  0  0  0  0  0  0  0  0  0
  -10.3982   21.8187  -18.2705 N   0  0  0  0  0  0  0  0  0  0  0  0
  -10.0746   22.8162  -19.1131 C   0  0  0  0  0  0  0  0  0  0  0  0
   -8.8948   22.8624  -19.7633 N   0  0  0  0  0  0  0  0  0  0  0  0
  -11.3274   21.8014  -17.7702 H   0  0  0  0  0  0  0  0  0  0  0  0
   -4.7268   22.4251  -23.4227 C   0  0  0  0  0  0  0  0  0  0  0  0
   -3.9210   21.4616  -23.9543 C   0  0  0  0  0  0  0  0  0  0  0  0
   -3.4355   21.5850  -25.2425 C   0  0  0  0  0  0  0  0  0  0  0  0
   -3.7537   22.6914  -26.0309 C   0  0  0  0  0  0  0  0  0  0  0  0
   -4.5640   23.6585  -25.4943 C   0  0  0  0  0  0  0  0  0  0  0  0
   -5.0398   23.5289  -24.2202 C   0  0  0  0  0  0  0  0  0  0  0  0
   -3.2400   22.8058  -27.3730 C   0  0  0  0  0  0  0  0  0  0  0  0
   -2.8233   22.8821  -28.4426 N   0  0  0  0  0  0  0  0  0  0  0  0
   -2.4825   21.5603  -16.8270 C   0  0  0  0  0  0  0  0  0  0  0  0
   -1.3883   18.9463  -16.4542 C   0  0  0  0  0  0  0  0  0  0  0  0
   -0.5202   20.0395  -16.9319 C   0  0  0  0  0  0  0  0  0  0  0  0
    0.8119   19.8144  -17.1887 C   0  0  0  0  0  0  0  0  0  0  0  0
    1.6437   20.8369  -17.6407 C   0  0  0  0  0  0  0  0  0  0  0  0
    1.0564   22.0632  -17.8103 C   0  0  0  0  0  0  0  0  0  0  0  0
   -0.2466   22.2565  -17.5523 N   0  0  0  0  0  0  0  0  0  0  0  0
   -1.0666   21.2913  -17.1173 C   0  0  0  0  0  0  0  0  0  0  0  0
 30 31  1  0  0  0
 31 32  2  0  0  0
 32 33  1  0  0  0
 33 34  2  0  0  0
 34 35  1  0  0  0
 35 36  2  0  0  0
 36 29  1  0  0  0
 29  1  1  0  0  0
  1  2  1  0  0  0
  2  3  1  0  0  0
  3  4  1  0  0  0
  4  5  1  0  0  0
  5  6  1  0  0  0
  4  7  1  0  0  0
  7  8  1  0  0  0
  8  9  2  0  0  0
  8 10  1  0  0  0
 10 11  1  0  0  0
 11 12  2  0  0  0
 10 21  1  0  0  0
 21 22  2  0  0  0
 22 23  1  0  0  0
 23 24  2  0  0  0
 24 25  1  0  0  0
 25 26  2  0  0  0
 24 27  1  0  0  0
 27 28  3  0  0  0
  7 13  1  0  0  0
 13 14  2  0  0  0
 14 15  1  0  0  0
 15 16  2  0  0  0
 15 17  1  0  0  0
 17 18  1  0  0  0
 18 19  2  0  0  0
 36 31  1  0  0  0
  6  1  1  0  0  0
 26 21  1  0  0  0
 19 13  1  0  0  0
 11  4  1  0  0  0
 17 20  1  0  0  0
M  END
> <minimizedAffinity>
-6.72862

> <CNNscore>
0.1415497661

> <CNNaffinity>
5.8980274200

> <CNN_VS>
0.8348643780

> <CNNaffinity_variance>
0.2085202932

$$$$
[H]c1nc(C([H])([H])N2C([H])([H])C([H])([H])C3(C(=O)N(c4c([H])c([H])c(C#N)c([H])c4[H])C(=O)N3c3nc([H])n([H])c(=O)c3[H])C([H])([H])C2([H])[H])c(C([H])([H])[H])c([H])c1[H]


 36 40  0  0  0  0  0  0  0  0999 V2000
   -1.1796   17.3186  -18.3206 N   0  0  0  0  0  0  0  0  0  0  0  0
    0.2871   17.3763  -18.2499 C   0  0  0  0  0  0  0  0  0  0  0  0
    0.7870   18.7823  -18.2225 C   0  0  0  0  0  0  0  0  0  0  0  0
   -0.1093   19.7613  -18.9394 C   0  0  0  0  0  0  0  0  0  0  0  0
   -1.5594   19.6693  -18.5031 C   0  0  0  0  0  0  0  0  0  0  0  0
   -1.6462   18.4806  -17.5707 C   0  0  0  0  0  0  0  0  0  0  0  0
    0.3465   21.1092  -18.6914 N   0  0  0  0  0  0  0  0  0  0  0  0
   -0.0064   21.8509  -19.8628 C   0  0  0  0  0  0  0  0  0  0  0  0
   -0.0956   23.1233  -19.9132 O   0  0  0  0  0  0  0  0  0  0  0  0
   -0.2401   20.9574  -20.9524 N   0  0  0  0  0  0  0  0  0  0  0  0
   -0.0191   19.6509  -20.4093 C   0  0  0  0  0  0  0  0  0  0  0  0
    0.2071   18.6187  -21.0754 O   0  0  0  0  0  0  0  0  0  0  0  0
    1.0100   21.6524  -17.5517 C   0  0  0  0  0  0  0  0  0  0  0  0
    0.4111   21.6349  -16.3002 C   0  0  0  0  0  0  0  0  0  0  0  0
    1.0610   22.1625  -15.2026 C   0  0  0  0  0  0  0  0  0  0  0  0
    0.5314   22.1572  -14.0451 O   0  0  0  0  0  0  0  0  0  0  0  0
    2.2963   22.7128  -15.3032 N   0  0  0  0  0  0  0  0  0  0  0  0
    2.8551   22.7176  -16.5269 C   0  0  0  0  0  0  0  0  0  0  0  0
    2.2354   22.2069  -17.6094 N   0  0  0  0  0  0  0  0  0  0  0  0
    2.7988   23.1173  -14.4678 H   0  0  0  0  0  0  0  0  0  0  0  0
   -0.6100   21.3078  -22.2790 C   0  0  0  0  0  0  0  0  0  0  0  0
    0.2964   21.5721  -23.2633 C   0  0  0  0  0  0  0  0  0  0  0  0
   -0.1271   21.9079  -24.5354 C   0  0  0  0  0  0  0  0  0  0  0  0
   -1.4849   21.9855  -24.8472 C   0  0  0  0  0  0  0  0  0  0  0  0
   -2.3940   21.7193  -23.8561 C   0  0  0  0  0  0  0  0  0  0  0  0
   -1.9672   21.3881  -22.6012 C   0  0  0  0  0  0  0  0  0  0  0  0
   -1.9112   22.3366  -26.1789 C   0  0  0  0  0  0  0  0  0  0  0  0
   -2.2358   22.6212  -27.2452 N   0  0  0  0  0  0  0  0  0  0  0  0
   -1.6077   16.0900  -17.6891 C   0  0  0  0  0  0  0  0  0  0  0  0
   -1.7881   13.2375  -17.6981 C   0  0  0  0  0  0  0  0  0  0  0  0
   -2.8221   14.0364  -18.3836 C   0  0  0  0  0  0  0  0  0  0  0  0
   -3.8648   13.4207  -19.0353 C   0  0  0  0  0  0  0  0  0  0  0  0
   -4.8487   14.1621  -19.6865 C   0  0  0  0  0  0  0  0  0  0  0  0
   -4.7116   15.5244  -19.6357 C   0  0  0  0  0  0  0  0  0  0  0  0
   -3.6839   16.1006  -18.9926 N   0  0  0  0  0  0  0  0  0  0  0  0
   -2.7261   15.4112  -18.3597 C   0  0  0  0  0  0  0  0  0  0  0  0
 30 31  1  0  0  0
 31 32  2  0  0  0
 32 33  1  0  0  0
 33 34  2  0  0  0
 34 35  1  0  0  0
 35 36  2  0  0  0
 36 29  1  0  0  0
 29  1  1  0  0  0
  1  2  1  0  0  0
  2  3  1  0  0  0
  3  4  1  0  0  0
  4  5  1  0  0  0
  5  6  1  0  0  0
  4  7  1  0  0  0
  7  8  1  0  0  0
  8  9  2  0  0  0
  8 10  1  0  0  0
 10 11  1  0  0  0
 11 12  2  0  0  0
 10 21  1  0  0  0
 21 22  2  0  0  0
 22 23  1  0  0  0
 23 24  2  0  0  0
 24 25  1  0  0  0
 25 26  2  0  0  0
 24 27  1  0  0  0
 27 28  3  0  0  0
  7 13  1  0  0  0
 13 14  2  0  0  0
 14 15  1  0  0  0
 15 16  2  0  0  0
 15 17  1  0  0  0
 17 18  1  0  0  0
 18 19  2  0  0  0
 36 31  1  0  0  0
  6  1  1  0  0  0
 26 21  1  0  0  0
 19 13  1  0  0  0
 11  4  1  0  0  0
 17 20  1  0  0  0
M  END
> <minimizedAffinity>
-6.43911

> <CNNscore>
0.1374261528

> <CNNaffinity>
5.5748081207

> <CNN_VS>
0.7661244273

> <CNNaffinity_variance>
0.1305430233

$$$$
[H]c1nc([H])c(-c2c([H])c3nc(N([H])C(=O)N([H])C([H])([H])C([H])([H])[H])sc3n(C([H])([H])C3([H])C([H])([H])OC([H])([H])C3([H])[H])c2=O)c([H])c1[H]


 30 33  0  0  0  0  0  0  0  0999 V2000
   -0.3406   22.0909  -25.6175 C   0  0  0  0  0  0  0  0  0  0  0  0
   -0.7744   22.6522  -26.7224 N   0  0  0  0  0  0  0  0  0  0  0  0
   -2.0380   22.8920  -26.8847 C   0  0  0  0  0  0  0  0  0  0  0  0
   -2.6503   23.4674  -28.0186 C   0  0  0  0  0  0  0  0  0  0  0  0
   -4.0135   23.6309  -28.0282 C   0  0  0  0  0  0  0  0  0  0  0  0
   -4.8477   23.2719  -26.9996 C   0  0  0  0  0  0  0  0  0  0  0  0
   -6.0927   23.4081  -26.9804 O   0  0  0  0  0  0  0  0  0  0  0  0
   -4.2408   22.7191  -25.9123 N   0  0  0  0  0  0  0  0  0  0  0  0
   -2.8959   22.5419  -25.8693 C   0  0  0  0  0  0  0  0  0  0  0  0
   -1.7791   21.8740  -24.7287 S   0  0  0  0  0  0  0  0  0  0  0  0
    2.7377   21.1675  -23.6405 N   0  0  0  0  0  0  0  0  0  0  0  0
    1.3993   21.4856  -23.9870 C   0  0  0  0  0  0  0  0  0  0  0  0
    0.5161   21.5137  -23.0976 O   0  0  0  0  0  0  0  0  0  0  0  0
    1.0134   21.7782  -25.3227 N   0  0  0  0  0  0  0  0  0  0  0  0
    3.4995   21.1345  -24.3540 H   0  0  0  0  0  0  0  0  0  0  0  0
    1.7260   21.7600  -26.0669 H   0  0  0  0  0  0  0  0  0  0  0  0
    3.4704   19.4256  -22.1646 C   0  0  0  0  0  0  0  0  0  0  0  0
    3.0780   20.8776  -22.2666 C   0  0  0  0  0  0  0  0  0  0  0  0
   -4.6567   24.2324  -29.2084 C   0  0  0  0  0  0  0  0  0  0  0  0
   -5.3323   23.4924  -30.1194 C   0  0  0  0  0  0  0  0  0  0  0  0
   -5.9107   24.1109  -31.2040 C   0  0  0  0  0  0  0  0  0  0  0  0
   -5.7934   25.4612  -31.3429 C   0  0  0  0  0  0  0  0  0  0  0  0
   -5.1166   26.1661  -30.4212 N   0  0  0  0  0  0  0  0  0  0  0  0
   -4.5471   25.5962  -29.3631 C   0  0  0  0  0  0  0  0  0  0  0  0
   -5.0543   22.2863  -24.8321 C   0  0  0  0  0  0  0  0  0  0  0  0
   -5.1553   23.3442  -23.7789 C   0  0  0  0  0  0  0  0  0  0  0  0
   -6.6667   23.5038  -23.5040 C   0  0  0  0  0  0  0  0  0  0  0  0
   -6.8805   22.4709  -22.4505 C   0  0  0  0  0  0  0  0  0  0  0  0
   -5.6658   22.0906  -21.9515 O   0  0  0  0  0  0  0  0  0  0  0  0
   -4.6970   22.9666  -22.4070 C   0  0  0  0  0  0  0  0  0  0  0  0
 17 18  1  0  0  0
 18 11  1  0  0  0
 11 12  1  0  0  0
 12 13  2  0  0  0
 12 14  1  0  0  0
 14  1  1  0  0  0
  1  2  2  0  0  0
  2  3  1  0  0  0
  3  4  1  0  0  0
  4  5  2  0  0  0
  5 19  1  0  0  0
 19 20  2  0  0  0
 20 21  1  0  0  0
 21 22  2  0  0  0
 22 23  1  0  0  0
 23 24  2  0  0  0
  5  6  1  0  0  0
  6  7  2  0  0  0
  6  8  1  0  0  0
  8 25  1  0  0  0
 25 26  1  0  0  0
 26 27  1  0  0  0
 27 28  1  0  0  0
 28 29  1  0  0  0
 29 30  1  0  0  0
  8  9  1  0  0  0
  9 10  1  0  0  0
 10  1  1  0  0  0
  9  3  2  0  0  0
 24 19  1  0  0  0
 30 26  1  0  0  0
 11 15  1  0  0  0
 14 16  1  0  0  0
M  END
> <minimizedAffinity>
-9.05479

> <CNNscore>
0.9427835345

> <CNNaffinity>
7.5657806396

> <CNN_VS>
7.1328935623

> <CNNaffinity_variance>
0.2572339177

$$$$
[H]c1nc([H])c(-c2c([H])c3nc(N([H])C(=O)N([H])C([H])([H])C([H])([H])[H])sc3n(C([H])([H])C3([H])C([H])([H])OC([H])([H])C3([H])[H])c2=O)c([H])c1[H]


 30 33  0  0  0  0  0  0  0  0999 V2000
   -0.6746   22.1950  -25.3699 C   0  0  0  0  0  0  0  0  0  0  0  0
   -1.5487   22.1551  -24.3911 N   0  0  0  0  0  0  0  0  0  0  0  0
   -2.8003   22.4057  -24.6180 C   0  0  0  0  0  0  0  0  0  0  0  0
   -3.8448   22.4206  -23.6690 C   0  0  0  0  0  0  0  0  0  0  0  0
   -5.1169   22.7285  -24.0838 C   0  0  0  0  0  0  0  0  0  0  0  0
   -5.4622   23.0293  -25.3772 C   0  0  0  0  0  0  0  0  0  0  0  0
   -6.6121   23.3143  -25.7845 O   0  0  0  0  0  0  0  0  0  0  0  0
   -4.4428   23.0094  -26.2809 N   0  0  0  0  0  0  0  0  0  0  0  0
   -3.1733   22.7102  -25.9054 C   0  0  0  0  0  0  0  0  0  0  0  0
   -1.6444   22.6090  -26.7094 S   0  0  0  0  0  0  0  0  0  0  0  0
    2.6492   21.3149  -23.8156 N   0  0  0  0  0  0  0  0  0  0  0  0
    1.2660   21.5783  -23.9892 C   0  0  0  0  0  0  0  0  0  0  0  0
    0.4884   21.4925  -23.0096 O   0  0  0  0  0  0  0  0  0  0  0  0
    0.7180   21.9414  -25.2488 N   0  0  0  0  0  0  0  0  0  0  0  0
    3.3264   21.3765  -24.6081 H   0  0  0  0  0  0  0  0  0  0  0  0
    1.3422   22.0170  -26.0653 H   0  0  0  0  0  0  0  0  0  0  0  0
    3.3468   19.4543  -22.4736 C   0  0  0  0  0  0  0  0  0  0  0  0
    3.1561   20.9492  -22.5131 C   0  0  0  0  0  0  0  0  0  0  0  0
   -6.2103   22.7438  -23.0977 C   0  0  0  0  0  0  0  0  0  0  0  0
   -6.6921   23.8942  -22.5701 C   0  0  0  0  0  0  0  0  0  0  0  0
   -7.7142   23.8450  -21.6502 C   0  0  0  0  0  0  0  0  0  0  0  0
   -8.2253   22.6359  -21.2849 C   0  0  0  0  0  0  0  0  0  0  0  0
   -7.7248   21.5135  -21.8272 N   0  0  0  0  0  0  0  0  0  0  0  0
   -6.7375   21.5298  -22.7181 C   0  0  0  0  0  0  0  0  0  0  0  0
   -4.7278   23.3546  -27.6283 C   0  0  0  0  0  0  0  0  0  0  0  0
   -4.3748   24.7824  -27.9026 C   0  0  0  0  0  0  0  0  0  0  0  0
   -3.9828   24.8266  -29.3959 C   0  0  0  0  0  0  0  0  0  0  0  0
   -5.3086   25.0580  -30.0371 C   0  0  0  0  0  0  0  0  0  0  0  0
   -6.1976   25.4621  -29.0802 O   0  0  0  0  0  0  0  0  0  0  0  0
   -5.5066   25.7589  -27.9193 C   0  0  0  0  0  0  0  0  0  0  0  0
 17 18  1  0  0  0
 18 11  1  0  0  0
 11 12  1  0  0  0
 12 13  2  0  0  0
 12 14  1  0  0  0
 14  1  1  0  0  0
  1  2  2  0  0  0
  2  3  1  0  0  0
  3  4  1  0  0  0
  4  5  2  0  0  0
  5 19  1  0  0  0
 19 20  2  0  0  0
 20 21  1  0  0  0
 21 22  2  0  0  0
 22 23  1  0  0  0
 23 24  2  0  0  0
  5  6  1  0  0  0
  6  7  2  0  0  0
  6  8  1  0  0  0
  8 25  1  0  0  0
 25 26  1  0  0  0
 26 27  1  0  0  0
 27 28  1  0  0  0
 28 29  1  0  0  0
 29 30  1  0  0  0
  8  9  1  0  0  0
  9 10  1  0  0  0
 10  1  1  0  0  0
  9  3  2  0  0  0
 24 19  1  0  0  0
 30 26  1  0  0  0
 11 15  1  0  0  0
 14 16  1  0  0  0
M  END
> <minimizedAffinity>
-8.55574

> <CNNscore>
0.6992396116

> <CNNaffinity>
7.2379913330

> <CNN_VS>
5.0610904694

> <CNNaffinity_variance>
0.2799767852

$$$$
[H]c1nc([H])c(-c2c([H])c3nc(N([H])C(=O)N([H])C([H])([H])C([H])([H])[H])sc3n(C([H])([H])C3([H])C([H])([H])OC([H])([H])C3([H])[H])c2=O)c([H])c1[H]


 30 33  0  0  0  0  0  0  0  0999 V2000
   -0.7896   22.3240  -25.6189 C   0  0  0  0  0  0  0  0  0  0  0  0
    0.4232   21.9657  -25.2659 N   0  0  0  0  0  0  0  0  0  0  0  0
    0.6677   21.5841  -24.0513 C   0  0  0  0  0  0  0  0  0  0  0  0
    1.9167   21.1922  -23.5237 C   0  0  0  0  0  0  0  0  0  0  0  0
    1.9981   20.8354  -22.2004 C   0  0  0  0  0  0  0  0  0  0  0  0
    0.9378   20.8285  -21.3296 C   0  0  0  0  0  0  0  0  0  0  0  0
    0.9818   20.5090  -20.1191 O   0  0  0  0  0  0  0  0  0  0  0  0
   -0.2606   21.2082  -21.8548 N   0  0  0  0  0  0  0  0  0  0  0  0
   -0.3771   21.5681  -23.1582 C   0  0  0  0  0  0  0  0  0  0  0  0
   -1.6664   22.1220  -24.1708 S   0  0  0  0  0  0  0  0  0  0  0  0
   -2.9866   23.5061  -28.4496 N   0  0  0  0  0  0  0  0  0  0  0  0
   -2.5439   23.0675  -27.1752 C   0  0  0  0  0  0  0  0  0  0  0  0
   -3.3684   22.9421  -26.2392 O   0  0  0  0  0  0  0  0  0  0  0  0
   -1.1819   22.7595  -26.9129 N   0  0  0  0  0  0  0  0  0  0  0  0
   -2.3289   23.6221  -29.2525 H   0  0  0  0  0  0  0  0  0  0  0  0
   -0.4900   22.8566  -27.6705 H   0  0  0  0  0  0  0  0  0  0  0  0
   -4.9656   22.7584  -29.5781 C   0  0  0  0  0  0  0  0  0  0  0  0
   -4.3834   23.8065  -28.6643 C   0  0  0  0  0  0  0  0  0  0  0  0
    3.2987   20.4242  -21.6458 C   0  0  0  0  0  0  0  0  0  0  0  0
    3.9081   19.2710  -22.0102 C   0  0  0  0  0  0  0  0  0  0  0  0
    5.1227   18.9387  -21.4554 C   0  0  0  0  0  0  0  0  0  0  0  0
    5.6929   19.7783  -20.5465 C   0  0  0  0  0  0  0  0  0  0  0  0
    5.0623   20.9147  -20.2067 N   0  0  0  0  0  0  0  0  0  0  0  0
    3.8881   21.2621  -20.7258 C   0  0  0  0  0  0  0  0  0  0  0  0
   -1.3882   21.2639  -20.9937 C   0  0  0  0  0  0  0  0  0  0  0  0
   -1.7076   22.6766  -20.6186 C   0  0  0  0  0  0  0  0  0  0  0  0
   -3.1137   22.6221  -19.9818 C   0  0  0  0  0  0  0  0  0  0  0  0
   -2.7761   22.3469  -18.5561 C   0  0  0  0  0  0  0  0  0  0  0  0
   -1.4460   22.5962  -18.3610 O   0  0  0  0  0  0  0  0  0  0  0  0
   -0.9427   23.2518  -19.4701 C   0  0  0  0  0  0  0  0  0  0  0  0
 17 18  1  0  0  0
 18 11  1  0  0  0
 11 12  1  0  0  0
 12 13  2  0  0  0
 12 14  1  0  0  0
 14  1  1  0  0  0
  1  2  2  0  0  0
  2  3  1  0  0  0
  3  4  1  0  0  0
  4  5  2  0  0  0
  5 19  1  0  0  0
 19 20  2  0  0  0
 20 21  1  0  0  0
 21 22  2  0  0  0
 22 23  1  0  0  0
 23 24  2  0  0  0
  5  6  1  0  0  0
  6  7  2  0  0  0
  6  8  1  0  0  0
  8 25  1  0  0  0
 25 26  1  0  0  0
 26 27  1  0  0  0
 27 28  1  0  0  0
 28 29  1  0  0  0
 29 30  1  0  0  0
  8  9  1  0  0  0
  9 10  1  0  0  0
 10  1  1  0  0  0
  9  3  2  0  0  0
 24 19  1  0  0  0
 30 26  1  0  0  0
 11 15  1  0  0  0
 14 16  1  0  0  0
M  END
> <minimizedAffinity>
-6.78814

> <CNNscore>
0.4160588980

> <CNNaffinity>
6.1926488876

> <CNN_VS>
2.5765066147

> <CNNaffinity_variance>
0.4333837628

$$$$
[H]c1nc([H])c(-c2c([H])c3nc(N([H])C(=O)N([H])C([H])([H])C([H])([H])[H])sc3n(C([H])([H])C3([H])C([H])([H])OC([H])([H])C3([H])[H])c2=O)c([H])c1[H]


 30 33  0  0  0  0  0  0  0  0999 V2000
   -2.3336   21.2108  -20.5232 C   0  0  0  0  0  0  0  0  0  0  0  0
   -1.6147   21.2881  -21.6192 N   0  0  0  0  0  0  0  0  0  0  0  0
   -2.0926   21.8622  -22.6787 C   0  0  0  0  0  0  0  0  0  0  0  0
   -1.4496   22.0019  -23.9272 C   0  0  0  0  0  0  0  0  0  0  0  0
   -2.1162   22.6244  -24.9535 C   0  0  0  0  0  0  0  0  0  0  0  0
   -3.3868   23.1338  -24.8604 C   0  0  0  0  0  0  0  0  0  0  0  0
   -4.0195   23.7053  -25.7781 O   0  0  0  0  0  0  0  0  0  0  0  0
   -3.9929   22.9918  -23.6485 N   0  0  0  0  0  0  0  0  0  0  0  0
   -3.3638   22.3810  -22.6126 C   0  0  0  0  0  0  0  0  0  0  0  0
   -3.7810   21.9869  -20.9801 S   0  0  0  0  0  0  0  0  0  0  0  0
   -0.7091   20.7940  -17.1432 N   0  0  0  0  0  0  0  0  0  0  0  0
   -1.1435   21.3487  -18.3745 C   0  0  0  0  0  0  0  0  0  0  0  0
   -0.8378   22.5287  -18.6677 O   0  0  0  0  0  0  0  0  0  0  0  0
   -1.9236   20.6090  -19.3034 N   0  0  0  0  0  0  0  0  0  0  0  0
   -0.9444   19.8152  -16.8653 H   0  0  0  0  0  0  0  0  0  0  0  0
   -2.1843   19.6375  -19.0792 H   0  0  0  0  0  0  0  0  0  0  0  0
    1.5264   21.1758  -16.3647 C   0  0  0  0  0  0  0  0  0  0  0  0
    0.0826   21.5890  -16.2329 C   0  0  0  0  0  0  0  0  0  0  0  0
   -1.4487   22.7740  -26.2575 C   0  0  0  0  0  0  0  0  0  0  0  0
   -2.1413   22.8722  -27.4171 C   0  0  0  0  0  0  0  0  0  0  0  0
   -1.4616   23.0082  -28.6058 C   0  0  0  0  0  0  0  0  0  0  0  0
   -0.0996   23.0417  -28.5955 C   0  0  0  0  0  0  0  0  0  0  0  0
    0.5571   22.9419  -27.4279 N   0  0  0  0  0  0  0  0  0  0  0  0
   -0.0723   22.8096  -26.2638 C   0  0  0  0  0  0  0  0  0  0  0  0
   -5.3254   23.4596  -23.5008 C   0  0  0  0  0  0  0  0  0  0  0  0
   -5.3519   24.8088  -22.8549 C   0  0  0  0  0  0  0  0  0  0  0  0
   -6.2130   25.6905  -23.7859 C   0  0  0  0  0  0  0  0  0  0  0  0
   -7.5790   25.4339  -23.2468 C   0  0  0  0  0  0  0  0  0  0  0  0
   -7.4656   24.8477  -22.0169 O   0  0  0  0  0  0  0  0  0  0  0  0
   -6.1504   24.9314  -21.5970 C   0  0  0  0  0  0  0  0  0  0  0  0
 17 18  1  0  0  0
 18 11  1  0  0  0
 11 12  1  0  0  0
 12 13  2  0  0  0
 12 14  1  0  0  0
 14  1  1  0  0  0
  1  2  2  0  0  0
  2  3  1  0  0  0
  3  4  1  0  0  0
  4  5  2  0  0  0
  5 19  1  0  0  0
 19 20  2  0  0  0
 20 21  1  0  0  0
 21 22  2  0  0  0
 22 23  1  0  0  0
 23 24  2  0  0  0
  5  6  1  0  0  0
  6  7  2  0  0  0
  6  8  1  0  0  0
  8 25  1  0  0  0
 25 26  1  0  0  0
 26 27  1  0  0  0
 27 28  1  0  0  0
 28 29  1  0  0  0
 29 30  1  0  0  0
  8  9  1  0  0  0
  9 10  1  0  0  0
 10  1  1  0  0  0
  9  3  2  0  0  0
 24 19  1  0  0  0
 30 26  1  0  0  0
 11 15  1  0  0  0
 14 16  1  0  0  0
M  END
> <minimizedAffinity>
-6.74469

> <CNNscore>
0.3898500204

> <CNNaffinity>
6.4937300682

> <CNN_VS>
2.5315806866

> <CNNaffinity_variance>
0.6019690633

$$$$
[H]c1nc([H])c(-c2c([H])c3nc(N([H])C(=O)N([H])C([H])([H])C([H])([H])[H])sc3n(C([H])([H])C3([H])C([H])([H])OC([H])([H])C3([H])[H])c2=O)c([H])c1[H]


 30 33  0  0  0  0  0  0  0  0999 V2000
   -1.9985   22.3082  -23.8976 C   0  0  0  0  0  0  0  0  0  0  0  0
   -2.1799   22.4545  -25.1898 N   0  0  0  0  0  0  0  0  0  0  0  0
   -3.0859   23.2664  -25.6378 C   0  0  0  0  0  0  0  0  0  0  0  0
   -3.4074   23.5110  -26.9901 C   0  0  0  0  0  0  0  0  0  0  0  0
   -4.4164   24.3940  -27.2853 C   0  0  0  0  0  0  0  0  0  0  0  0
   -5.1542   25.0740  -26.3493 C   0  0  0  0  0  0  0  0  0  0  0  0
   -6.0795   25.8838  -26.5883 O   0  0  0  0  0  0  0  0  0  0  0  0
   -4.8306   24.8275  -25.0490 N   0  0  0  0  0  0  0  0  0  0  0  0
   -3.8395   23.9601  -24.7211 C   0  0  0  0  0  0  0  0  0  0  0  0
   -3.1624   23.3679  -23.2429 S   0  0  0  0  0  0  0  0  0  0  0  0
    1.3373   20.8339  -22.9299 N   0  0  0  0  0  0  0  0  0  0  0  0
    0.3437   21.6593  -23.5166 C   0  0  0  0  0  0  0  0  0  0  0  0
    0.6835   22.6057  -24.2654 O   0  0  0  0  0  0  0  0  0  0  0  0
   -1.0430   21.4532  -23.2861 N   0  0  0  0  0  0  0  0  0  0  0  0
    1.0919   20.0368  -22.3014 H   0  0  0  0  0  0  0  0  0  0  0  0
   -1.3409   20.6799  -22.6734 H   0  0  0  0  0  0  0  0  0  0  0  0
    3.5507   19.9878  -22.5640 C   0  0  0  0  0  0  0  0  0  0  0  0
    2.7346   21.0861  -23.1965 C   0  0  0  0  0  0  0  0  0  0  0  0
   -4.7544   24.6538  -28.6947 C   0  0  0  0  0  0  0  0  0  0  0  0
   -4.1723   25.6481  -29.4064 C   0  0  0  0  0  0  0  0  0  0  0  0
   -4.5310   25.8440  -30.7203 C   0  0  0  0  0  0  0  0  0  0  0  0
   -5.4683   25.0318  -31.2842 C   0  0  0  0  0  0  0  0  0  0  0  0
   -6.0265   24.0547  -30.5506 N   0  0  0  0  0  0  0  0  0  0  0  0
   -5.7002   23.8414  -29.2791 C   0  0  0  0  0  0  0  0  0  0  0  0
   -5.5867   25.4674  -24.0318 C   0  0  0  0  0  0  0  0  0  0  0  0
   -6.6727   24.5711  -23.5261 C   0  0  0  0  0  0  0  0  0  0  0  0
   -6.6280   24.7031  -21.9879 C   0  0  0  0  0  0  0  0  0  0  0  0
   -7.5272   25.8722  -21.7709 C   0  0  0  0  0  0  0  0  0  0  0  0
   -8.2444   26.0960  -22.9132 O   0  0  0  0  0  0  0  0  0  0  0  0
   -8.0773   25.0217  -23.7682 C   0  0  0  0  0  0  0  0  0  0  0  0
 17 18  1  0  0  0
 18 11  1  0  0  0
 11 12  1  0  0  0
 12 13  2  0  0  0
 12 14  1  0  0  0
 14  1  1  0  0  0
  1  2  2  0  0  0
  2  3  1  0  0  0
  3  4  1  0  0  0
  4  5  2  0  0  0
  5 19  1  0  0  0
 19 20  2  0  0  0
 20 21  1  0  0  0
 21 22  2  0  0  0
 22 23  1  0  0  0
 23 24  2  0  0  0
  5  6  1  0  0  0
  6  7  2  0  0  0
  6  8  1  0  0  0
  8 25  1  0  0  0
 25 26  1  0  0  0
 26 27  1  0  0  0
 27 28  1  0  0  0
 28 29  1  0  0  0
 29 30  1  0  0  0
  8  9  1  0  0  0
  9 10  1  0  0  0
 10  1  1  0  0  0
  9  3  2  0  0  0
 24 19  1  0  0  0
 30 26  1  0  0  0
 11 15  1  0  0  0
 14 16  1  0  0  0
M  END
> <minimizedAffinity>
-8.29068

> <CNNscore>
0.3283275366

> <CNNaffinity>
6.7188825607

> <CNN_VS>
2.2059941292

> <CNNaffinity_variance>
0.2341445684

$$$$
[H]c1nc([H])c(-c2c([H])c3nc(N([H])C(=O)N([H])C([H])([H])C([H])([H])[H])sc3n(C([H])([H])C3([H])C([H])([H])OC([H])([H])C3([H])[H])c2=O)c([H])c1[H]


 30 33  0  0  0  0  0  0  0  0999 V2000
   -1.8610   21.1415  -19.8567 C   0  0  0  0  0  0  0  0  0  0  0  0
   -1.2422   21.1214  -21.0146 N   0  0  0  0  0  0  0  0  0  0  0  0
   -1.7216   21.7746  -22.0265 C   0  0  0  0  0  0  0  0  0  0  0  0
   -1.1819   21.8297  -23.3294 C   0  0  0  0  0  0  0  0  0  0  0  0
   -1.8364   22.5592  -24.2909 C   0  0  0  0  0  0  0  0  0  0  0  0
   -3.0001   23.2556  -24.0817 C   0  0  0  0  0  0  0  0  0  0  0  0
   -3.6191   23.9281  -24.9383 O   0  0  0  0  0  0  0  0  0  0  0  0
   -3.5072   23.1930  -22.8188 N   0  0  0  0  0  0  0  0  0  0  0  0
   -2.8868   22.4807  -21.8442 C   0  0  0  0  0  0  0  0  0  0  0  0
   -3.2081   22.1351  -20.1793 S   0  0  0  0  0  0  0  0  0  0  0  0
   -1.9673   18.9271  -16.8033 N   0  0  0  0  0  0  0  0  0  0  0  0
   -2.3405   19.6205  -17.9834 C   0  0  0  0  0  0  0  0  0  0  0  0
   -3.5005   19.4909  -18.4408 O   0  0  0  0  0  0  0  0  0  0  0  0
   -1.4379   20.4693  -18.6788 N   0  0  0  0  0  0  0  0  0  0  0  0
   -1.0105   19.0107  -16.3933 H   0  0  0  0  0  0  0  0  0  0  0  0
   -0.4802   20.5879  -18.3173 H   0  0  0  0  0  0  0  0  0  0  0  0
   -3.4372   18.7964  -14.9135 C   0  0  0  0  0  0  0  0  0  0  0  0
   -2.9233   18.0757  -16.1338 C   0  0  0  0  0  0  0  0  0  0  0  0
   -1.2763   22.6210  -25.6513 C   0  0  0  0  0  0  0  0  0  0  0  0
   -2.0580   22.5960  -26.7569 C   0  0  0  0  0  0  0  0  0  0  0  0
   -1.4763   22.6544  -28.0026 C   0  0  0  0  0  0  0  0  0  0  0  0
   -0.1200   22.7367  -28.1024 C   0  0  0  0  0  0  0  0  0  0  0  0
    0.6266   22.7595  -26.9859 N   0  0  0  0  0  0  0  0  0  0  0  0
    0.0931   22.7044  -25.7690 C   0  0  0  0  0  0  0  0  0  0  0  0
   -4.7330   23.8570  -22.5495 C   0  0  0  0  0  0  0  0  0  0  0  0
   -5.8622   23.2238  -23.2995 C   0  0  0  0  0  0  0  0  0  0  0  0
   -6.3791   22.0939  -22.3820 C   0  0  0  0  0  0  0  0  0  0  0  0
   -7.3761   22.8279  -21.5516 C   0  0  0  0  0  0  0  0  0  0  0  0
   -7.6519   24.0264  -22.1488 O   0  0  0  0  0  0  0  0  0  0  0  0
   -7.1158   24.0288  -23.4238 C   0  0  0  0  0  0  0  0  0  0  0  0
 17 18  1  0  0  0
 18 11  1  0  0  0
 11 12  1  0  0  0
 12 13  2  0  0  0
 12 14  1  0  0  0
 14  1  1  0  0  0
  1  2  2  0  0  0
  2  3  1  0  0  0
  3  4  1  0  0  0
  4  5  2  0  0  0
  5 19  1  0  0  0
 19 20  2  0  0  0
 20 21  1  0  0  0
 21 22  2  0  0  0
 22 23  1  0  0  0
 23 24  2  0  0  0
  5  6  1  0  0  0
  6  7  2  0  0  0
  6  8  1  0  0  0
  8 25  1  0  0  0
 25 26  1  0  0  0
 26 27  1  0  0  0
 27 28  1  0  0  0
 28 29  1  0  0  0
 29 30  1  0  0  0
  8  9  1  0  0  0
  9 10  1  0  0  0
 10  1  1  0  0  0
  9  3  2  0  0  0
 24 19  1  0  0  0
 30 26  1  0  0  0
 11 15  1  0  0  0
 14 16  1  0  0  0
M  END
> <minimizedAffinity>
-6.37572

> <CNNscore>
0.2919239700

> <CNNaffinity>
6.2241468430

> <CNN_VS>
1.8169776201

> <CNNaffinity_variance>
0.3546593189

$$$$
[H]c1nc([H])c(-c2c([H])c3nc(N([H])C(=O)N([H])C([H])([H])C([H])([H])[H])sc3n(C([H])([H])C3([H])C([H])([H])OC([H])([H])C3([H])[H])c2=O)c([H])c1[H]


 30 33  0  0  0  0  0  0  0  0999 V2000
   -7.0097   24.1339  -23.5501 C   0  0  0  0  0  0  0  0  0  0  0  0
   -5.7612   23.7733  -23.3627 N   0  0  0  0  0  0  0  0  0  0  0  0
   -4.9860   23.5405  -24.3753 C   0  0  0  0  0  0  0  0  0  0  0  0
   -3.6369   23.1285  -24.3299 C   0  0  0  0  0  0  0  0  0  0  0  0
   -2.9684   22.9069  -25.5085 C   0  0  0  0  0  0  0  0  0  0  0  0
   -3.5194   23.0579  -26.7560 C   0  0  0  0  0  0  0  0  0  0  0  0
   -2.9353   22.8627  -27.8468 O   0  0  0  0  0  0  0  0  0  0  0  0
   -4.8217   23.4571  -26.7824 N   0  0  0  0  0  0  0  0  0  0  0  0
   -5.5130   23.6842  -25.6367 C   0  0  0  0  0  0  0  0  0  0  0  0
   -7.1324   24.1563  -25.2503 S   0  0  0  0  0  0  0  0  0  0  0  0
   -9.3416   23.6041  -20.6313 N   0  0  0  0  0  0  0  0  0  0  0  0
   -8.4005   23.3752  -21.6679 C   0  0  0  0  0  0  0  0  0  0  0  0
   -7.9379   22.2236  -21.8453 O   0  0  0  0  0  0  0  0  0  0  0  0
   -7.9540   24.4153  -22.5267 N   0  0  0  0  0  0  0  0  0  0  0  0
   -9.7483   24.5495  -20.4540 H   0  0  0  0  0  0  0  0  0  0  0  0
   -8.3236   25.3683  -22.3957 H   0  0  0  0  0  0  0  0  0  0  0  0
   -8.9480   22.5431  -18.5175 C   0  0  0  0  0  0  0  0  0  0  0  0
   -9.7632   22.5116  -19.7852 C   0  0  0  0  0  0  0  0  0  0  0  0
   -1.5602   22.4785  -25.4662 C   0  0  0  0  0  0  0  0  0  0  0  0
   -0.7462   22.5628  -26.5451 C   0  0  0  0  0  0  0  0  0  0  0  0
    0.5609   22.1444  -26.4454 C   0  0  0  0  0  0  0  0  0  0  0  0
    1.0147   21.6510  -25.2592 C   0  0  0  0  0  0  0  0  0  0  0  0
    0.1813   21.5808  -24.2081 N   0  0  0  0  0  0  0  0  0  0  0  0
   -1.0864   21.9774  -24.2744 C   0  0  0  0  0  0  0  0  0  0  0  0
   -5.4622   23.5893  -28.0426 C   0  0  0  0  0  0  0  0  0  0  0  0
   -4.5785   24.2948  -29.0223 C   0  0  0  0  0  0  0  0  0  0  0  0
   -5.1864   23.9949  -30.4102 C   0  0  0  0  0  0  0  0  0  0  0  0
   -6.1733   25.1046  -30.5405 C   0  0  0  0  0  0  0  0  0  0  0  0
   -5.8928   26.0579  -29.6015 O   0  0  0  0  0  0  0  0  0  0  0  0
   -4.6583   25.7875  -29.0392 C   0  0  0  0  0  0  0  0  0  0  0  0
 17 18  1  0  0  0
 18 11  1  0  0  0
 11 12  1  0  0  0
 12 13  2  0  0  0
 12 14  1  0  0  0
 14  1  1  0  0  0
  1  2  2  0  0  0
  2  3  1  0  0  0
  3  4  1  0  0  0
  4  5  2  0  0  0
  5 19  1  0  0  0
 19 20  2  0  0  0
 20 21  1  0  0  0
 21 22  2  0  0  0
 22 23  1  0  0  0
 23 24  2  0  0  0
  5  6  1  0  0  0
  6  7  2  0  0  0
  6  8  1  0  0  0
  8 25  1  0  0  0
 25 26  1  0  0  0
 26 27  1  0  0  0
 27 28  1  0  0  0
 28 29  1  0  0  0
 29 30  1  0  0  0
  8  9  1  0  0  0
  9 10  1  0  0  0
 10  1  1  0  0  0
  9  3  2  0  0  0
 24 19  1  0  0  0
 30 26  1  0  0  0
 11 15  1  0  0  0
 14 16  1  0  0  0
M  END
> <minimizedAffinity>
-7.86464

> <CNNscore>
0.2775756419

> <CNNaffinity>
6.6117963791

> <CNN_VS>
1.8352736235

> <CNNaffinity_variance>
0.0473717600

$$$$
[H]c1nc([H])c(-c2c([H])c3nc(N([H])C(=O)N([H])C([H])([H])C([H])([H])[H])sc3n(C([H])([H])C3([H])C([H])([H])OC([H])([H])C3([H])[H])c2=O)c([H])c1[H]


 30 33  0  0  0  0  0  0  0  0999 V2000
   -1.8201   22.3015  -24.2845 C   0  0  0  0  0  0  0  0  0  0  0  0
   -2.0511   22.4586  -25.5674 N   0  0  0  0  0  0  0  0  0  0  0  0
   -2.9874   23.2582  -25.9729 C   0  0  0  0  0  0  0  0  0  0  0  0
   -3.3624   23.5116  -27.3097 C   0  0  0  0  0  0  0  0  0  0  0  0
   -4.3975   24.3787  -27.5579 C   0  0  0  0  0  0  0  0  0  0  0  0
   -5.1130   25.0345  -26.5879 C   0  0  0  0  0  0  0  0  0  0  0  0
   -6.0611   25.8294  -26.7839 O   0  0  0  0  0  0  0  0  0  0  0  0
   -4.7378   24.7798  -25.3032 N   0  0  0  0  0  0  0  0  0  0  0  0
   -3.7198   23.9276  -25.0215 C   0  0  0  0  0  0  0  0  0  0  0  0
   -2.9786   23.3320  -23.5758 S   0  0  0  0  0  0  0  0  0  0  0  0
    0.1138   20.3295  -21.7137 N   0  0  0  0  0  0  0  0  0  0  0  0
   -0.8538   21.1657  -22.3278 C   0  0  0  0  0  0  0  0  0  0  0  0
   -1.7686   21.6714  -21.6354 O   0  0  0  0  0  0  0  0  0  0  0  0
   -0.8274   21.4578  -23.7179 N   0  0  0  0  0  0  0  0  0  0  0  0
    0.8896   19.8911  -22.2582 H   0  0  0  0  0  0  0  0  0  0  0  0
   -0.0827   21.0511  -24.3027 H   0  0  0  0  0  0  0  0  0  0  0  0
    1.0628   20.9225  -19.5932 C   0  0  0  0  0  0  0  0  0  0  0  0
    0.0420   20.0638  -20.2954 C   0  0  0  0  0  0  0  0  0  0  0  0
   -4.7913   24.6475  -28.9511 C   0  0  0  0  0  0  0  0  0  0  0  0
   -5.5348   23.7760  -29.6732 C   0  0  0  0  0  0  0  0  0  0  0  0
   -5.8698   24.0815  -30.9724 C   0  0  0  0  0  0  0  0  0  0  0  0
   -5.4465   25.2591  -31.5113 C   0  0  0  0  0  0  0  0  0  0  0  0
   -4.7104   26.1016  -30.7678 N   0  0  0  0  0  0  0  0  0  0  0  0
   -4.3711   25.8336  -29.5101 C   0  0  0  0  0  0  0  0  0  0  0  0
   -5.4680   25.3943  -24.2519 C   0  0  0  0  0  0  0  0  0  0  0  0
   -6.5366   24.4827  -23.7366 C   0  0  0  0  0  0  0  0  0  0  0  0
   -6.4256   24.5523  -22.1976 C   0  0  0  0  0  0  0  0  0  0  0  0
   -7.3079   25.7153  -21.8954 C   0  0  0  0  0  0  0  0  0  0  0  0
   -8.0718   25.9880  -22.9960 O   0  0  0  0  0  0  0  0  0  0  0  0
   -7.9477   24.9484  -23.8999 C   0  0  0  0  0  0  0  0  0  0  0  0
 17 18  1  0  0  0
 18 11  1  0  0  0
 11 12  1  0  0  0
 12 13  2  0  0  0
 12 14  1  0  0  0
 14  1  1  0  0  0
  1  2  2  0  0  0
  2  3  1  0  0  0
  3  4  1  0  0  0
  4  5  2  0  0  0
  5 19  1  0  0  0
 19 20  2  0  0  0
 20 21  1  0  0  0
 21 22  2  0  0  0
 22 23  1  0  0  0
 23 24  2  0  0  0
  5  6  1  0  0  0
  6  7  2  0  0  0
  6  8  1  0  0  0
  8 25  1  0  0  0
 25 26  1  0  0  0
 26 27  1  0  0  0
 27 28  1  0  0  0
 28 29  1  0  0  0
 29 30  1  0  0  0
  8  9  1  0  0  0
  9 10  1  0  0  0
 10  1  1  0  0  0
  9  3  2  0  0  0
 24 19  1  0  0  0
 30 26  1  0  0  0
 11 15  1  0  0  0
 14 16  1  0  0  0
M  END
> <minimizedAffinity>
-8.06760

> <CNNscore>
0.2403225750

> <CNNaffinity>
6.6554465294

> <CNN_VS>
1.5994540453

> <CNNaffinity_variance>
0.2833822370

$$$$
[H]c1nc([H])c(-c2c([H])c3nc(N([H])C(=O)N([H])C([H])([H])C([H])([H])[H])sc3n(C([H])([H])C3([H])C([H])([H])OC([H])([H])C3([H])[H])c2=O)c([H])c1[H]


 30 33  0  0  0  0  0  0  0  0999 V2000
   -5.7750   22.7225  -23.1718 C   0  0  0  0  0  0  0  0  0  0  0  0
   -6.1815   23.3005  -24.2784 N   0  0  0  0  0  0  0  0  0  0  0  0
   -5.4434   23.2716  -25.3437 C   0  0  0  0  0  0  0  0  0  0  0  0
   -5.7369   23.8618  -26.5917 C   0  0  0  0  0  0  0  0  0  0  0  0
   -4.8254   23.7491  -27.6122 C   0  0  0  0  0  0  0  0  0  0  0  0
   -3.6243   23.0930  -27.5141 C   0  0  0  0  0  0  0  0  0  0  0  0
   -2.7739   22.9746  -28.4263 O   0  0  0  0  0  0  0  0  0  0  0  0
   -3.3568   22.5281  -26.3036 N   0  0  0  0  0  0  0  0  0  0  0  0
   -4.2347   22.6208  -25.2726 C   0  0  0  0  0  0  0  0  0  0  0  0
   -4.2595   22.0879  -23.6265 S   0  0  0  0  0  0  0  0  0  0  0  0
   -6.8261   23.5832  -19.6516 N   0  0  0  0  0  0  0  0  0  0  0  0
   -6.1439   23.5795  -20.8954 C   0  0  0  0  0  0  0  0  0  0  0  0
   -5.2029   24.3844  -21.0914 O   0  0  0  0  0  0  0  0  0  0  0  0
   -6.4896   22.6860  -21.9446 N   0  0  0  0  0  0  0  0  0  0  0  0
   -7.6142   22.9276  -19.4525 H   0  0  0  0  0  0  0  0  0  0  0  0
   -7.2605   22.0172  -21.8013 H   0  0  0  0  0  0  0  0  0  0  0  0
   -5.9597   23.7282  -17.4206 C   0  0  0  0  0  0  0  0  0  0  0  0
   -6.4352   24.5126  -18.6169 C   0  0  0  0  0  0  0  0  0  0  0  0
   -5.1279   24.3618  -28.9166 C   0  0  0  0  0  0  0  0  0  0  0  0
   -5.5682   23.6359  -29.9717 C   0  0  0  0  0  0  0  0  0  0  0  0
   -5.8321   24.2644  -31.1670 C   0  0  0  0  0  0  0  0  0  0  0  0
   -5.6454   25.6102  -31.2686 C   0  0  0  0  0  0  0  0  0  0  0  0
   -5.2076   26.3010  -30.2030 N   0  0  0  0  0  0  0  0  0  0  0  0
   -4.9442   25.7212  -29.0354 C   0  0  0  0  0  0  0  0  0  0  0  0
   -2.1104   21.8721  -26.1250 C   0  0  0  0  0  0  0  0  0  0  0  0
   -1.0191   22.8585  -25.8520 C   0  0  0  0  0  0  0  0  0  0  0  0
   -0.6101   22.6188  -24.3820 C   0  0  0  0  0  0  0  0  0  0  0  0
    0.4242   21.5566  -24.5382 C   0  0  0  0  0  0  0  0  0  0  0  0
    0.8043   21.4996  -25.8502 O   0  0  0  0  0  0  0  0  0  0  0  0
    0.2956   22.6006  -26.5153 C   0  0  0  0  0  0  0  0  0  0  0  0
 17 18  1  0  0  0
 18 11  1  0  0  0
 11 12  1  0  0  0
 12 13  2  0  0  0
 12 14  1  0  0  0
 14  1  1  0  0  0
  1  2  2  0  0  0
  2  3  1  0  0  0
  3  4  1  0  0  0
  4  5  2  0  0  0
  5 19  1  0  0  0
 19 20  2  0  0  0
 20 21  1  0  0  0
 21 22  2  0  0  0
 22 23  1  0  0  0
 23 24  2  0  0  0
  5  6  1  0  0  0
  6  7  2  0  0  0
  6  8  1  0  0  0
  8 25  1  0  0  0
 25 26  1  0  0  0
 26 27  1  0  0  0
 27 28  1  0  0  0
 28 29  1  0  0  0
 29 30  1  0  0  0
  8  9  1  0  0  0
  9 10  1  0  0  0
 10  1  1  0  0  0
  9  3  2  0  0  0
 24 19  1  0  0  0
 30 26  1  0  0  0
 11 15  1  0  0  0
 14 16  1  0  0  0
M  END
> <minimizedAffinity>
-8.50197

> <CNNscore>
0.2141404003

> <CNNaffinity>
6.5276513100

> <CNN_VS>
1.3978338242

> <CNNaffinity_variance>
0.1208560318

$$$$
[H]c1nc(N([H])c2c([H])c([H])c(-n3c([H])nc([H])c3[H])c([H])c2OC([H])([H])[H])nc2c1C([H])([H])C([H])([H])c1c(C(=O)N([H])[H])nn(C([H])([H])[H])c1-2


 34 38  0  0  0  0  0  0  0  0999 V2000
    0.0012   22.1795  -25.3238 C   0  0  0  0  0  0  0  0  0  0  0  0
    0.2270   21.9864  -26.6076 N   0  0  0  0  0  0  0  0  0  0  0  0
   -0.6002   22.2810  -27.5999 C   0  0  0  0  0  0  0  0  0  0  0  0
   -1.8501   22.8599  -27.2536 C   0  0  0  0  0  0  0  0  0  0  0  0
   -2.7764   23.2084  -28.3308 C   0  0  0  0  0  0  0  0  0  0  0  0
   -4.0702   23.7385  -27.9250 C   0  0  0  0  0  0  0  0  0  0  0  0
   -4.3053   23.9664  -26.5018 C   0  0  0  0  0  0  0  0  0  0  0  0
   -5.4081   24.5018  -25.8036 C   0  0  0  0  0  0  0  0  0  0  0  0
   -5.0784   24.4635  -24.5256 N   0  0  0  0  0  0  0  0  0  0  0  0
   -3.8817   23.9606  -24.3272 N   0  0  0  0  0  0  0  0  0  0  0  0
   -3.1694   23.7525  -23.0927 C   0  0  0  0  0  0  0  0  0  0  0  0
   -3.3911   23.6483  -25.5449 C   0  0  0  0  0  0  0  0  0  0  0  0
   -2.0995   23.0654  -25.9360 C   0  0  0  0  0  0  0  0  0  0  0  0
   -1.2007   22.7378  -24.9643 N   0  0  0  0  0  0  0  0  0  0  0  0
   -6.6148   24.9682  -26.4624 C   0  0  0  0  0  0  0  0  0  0  0  0
   -7.8831   24.7741  -25.8731 N   0  0  0  0  0  0  0  0  0  0  0  0
   -6.5903   25.5623  -27.5792 O   0  0  0  0  0  0  0  0  0  0  0  0
   -8.2208   25.4369  -25.1630 H   0  0  0  0  0  0  0  0  0  0  0  0
   -8.4818   23.9702  -26.1462 H   0  0  0  0  0  0  0  0  0  0  0  0
    0.8871   21.8615  -24.3004 N   0  0  0  0  0  0  0  0  0  0  0  0
    1.9414   22.0019  -24.5000 H   0  0  0  0  0  0  0  0  0  0  0  0
    1.6946   21.0158  -22.1630 C   0  0  0  0  0  0  0  0  0  0  0  0
    1.4921   20.5344  -20.8973 C   0  0  0  0  0  0  0  0  0  0  0  0
    0.2391   20.3623  -20.3573 C   0  0  0  0  0  0  0  0  0  0  0  0
   -0.8123   20.7037  -21.1663 C   0  0  0  0  0  0  0  0  0  0  0  0
   -0.6211   21.1988  -22.4667 C   0  0  0  0  0  0  0  0  0  0  0  0
    0.6196   21.3696  -23.0025 C   0  0  0  0  0  0  0  0  0  0  0  0
    0.0080   19.8656  -19.0494 N   0  0  0  0  0  0  0  0  0  0  0  0
   -1.1644   19.4222  -18.5597 C   0  0  0  0  0  0  0  0  0  0  0  0
   -1.0227   19.0155  -17.2570 C   0  0  0  0  0  0  0  0  0  0  0  0
    0.2726   19.2197  -16.9526 N   0  0  0  0  0  0  0  0  0  0  0  0
    0.8972   19.7386  -18.0498 C   0  0  0  0  0  0  0  0  0  0  0  0
    3.8798   20.1041  -22.5624 C   0  0  0  0  0  0  0  0  0  0  0  0
    2.9674   21.1773  -22.6769 O   0  0  0  0  0  0  0  0  0  0  0  0
 33 34  1  0  0  0
 34 22  1  0  0  0
 22 23  2  0  0  0
 23 24  1  0  0  0
 24 25  2  0  0  0
 25 26  1  0  0  0
 26 27  2  0  0  0
 27 20  1  0  0  0
 20  1  1  0  0  0
  1  2  2  0  0  0
  2  3  1  0  0  0
  3  4  2  0  0  0
  4  5  1  0  0  0
  5  6  1  0  0  0
  6  7  1  0  0  0
  7  8  1  0  0  0
  8  9  2  0  0  0
  9 10  1  0  0  0
 10 11  1  0  0  0
 10 12  1  0  0  0
 12 13  1  0  0  0
 13 14  2  0  0  0
  8 15  1  0  0  0
 15 16  1  0  0  0
 15 17  2  0  0  0
 24 28  1  0  0  0
 28 29  1  0  0  0
 29 30  2  0  0  0
 30 31  1  0  0  0
 31 32  2  0  0  0
 27 22  1  0  0  0
 14  1  1  0  0  0
 32 28  1  0  0  0
 13  4  1  0  0  0
 12  7  2  0  0  0
 20 21  1  0  0  0
 16 18  1  0  0  0
 16 19  1  0  0  0
M  END
> <minimizedAffinity>
-7.93272

> <CNNscore>
0.7173181176

> <CNNaffinity>
7.3260259628

> <CNN_VS>
5.2550911903

> <CNNaffinity_variance>
0.2155536413

$$$$
[H]c1nc(N([H])c2c([H])c([H])c(-n3c([H])nc([H])c3[H])c([H])c2OC([H])([H])[H])nc2c1C([H])([H])C([H])([H])c1c(C(=O)N([H])[H])nn(C([H])([H])[H])c1-2


 34 38  0  0  0  0  0  0  0  0999 V2000
   -0.7865   21.5574  -23.3078 C   0  0  0  0  0  0  0  0  0  0  0  0
    0.3280   21.5860  -24.0103 N   0  0  0  0  0  0  0  0  0  0  0  0
    0.4377   21.9138  -25.2894 C   0  0  0  0  0  0  0  0  0  0  0  0
   -0.7550   22.2690  -25.9737 C   0  0  0  0  0  0  0  0  0  0  0  0
   -0.6603   22.6494  -27.3830 C   0  0  0  0  0  0  0  0  0  0  0  0
   -1.9157   22.9424  -28.0596 C   0  0  0  0  0  0  0  0  0  0  0  0
   -3.1438   22.9262  -27.2696 C   0  0  0  0  0  0  0  0  0  0  0  0
   -4.4845   23.2062  -27.6078 C   0  0  0  0  0  0  0  0  0  0  0  0
   -5.1809   23.0233  -26.5010 N   0  0  0  0  0  0  0  0  0  0  0  0
   -4.4316   22.6557  -25.4873 N   0  0  0  0  0  0  0  0  0  0  0  0
   -4.8094   22.3622  -24.1287 C   0  0  0  0  0  0  0  0  0  0  0  0
   -3.1657   22.5918  -25.9504 C   0  0  0  0  0  0  0  0  0  0  0  0
   -1.9120   22.2447  -25.2657 C   0  0  0  0  0  0  0  0  0  0  0  0
   -1.9530   21.8968  -23.9479 N   0  0  0  0  0  0  0  0  0  0  0  0
   -4.9011   23.6044  -28.9404 C   0  0  0  0  0  0  0  0  0  0  0  0
   -4.6769   24.9178  -29.4073 N   0  0  0  0  0  0  0  0  0  0  0  0
   -5.4764   22.8069  -29.7367 O   0  0  0  0  0  0  0  0  0  0  0  0
   -3.7621   25.1668  -29.8056 H   0  0  0  0  0  0  0  0  0  0  0  0
   -5.4236   25.6384  -29.3544 H   0  0  0  0  0  0  0  0  0  0  0  0
   -0.8753   21.2097  -21.9645 N   0  0  0  0  0  0  0  0  0  0  0  0
   -1.6649   20.5249  -21.6840 H   0  0  0  0  0  0  0  0  0  0  0  0
   -0.5710   22.5863  -19.9776 C   0  0  0  0  0  0  0  0  0  0  0  0
    0.1639   23.0206  -18.9070 C   0  0  0  0  0  0  0  0  0  0  0  0
    1.4276   22.5533  -18.6318 C   0  0  0  0  0  0  0  0  0  0  0  0
    1.9199   21.6150  -19.5001 C   0  0  0  0  0  0  0  0  0  0  0  0
    1.1788   21.1593  -20.6026 C   0  0  0  0  0  0  0  0  0  0  0  0
   -0.0731   21.6216  -20.8760 C   0  0  0  0  0  0  0  0  0  0  0  0
    2.2046   22.9899  -17.5290 N   0  0  0  0  0  0  0  0  0  0  0  0
    3.1791   23.9175  -17.5566 C   0  0  0  0  0  0  0  0  0  0  0  0
    3.7189   24.0907  -16.3071 C   0  0  0  0  0  0  0  0  0  0  0  0
    3.0507   23.2428  -15.5031 N   0  0  0  0  0  0  0  0  0  0  0  0
    2.1276   22.5734  -16.2536 C   0  0  0  0  0  0  0  0  0  0  0  0
   -2.9182   22.5631  -19.4719 C   0  0  0  0  0  0  0  0  0  0  0  0
   -1.8390   23.0759  -20.2268 O   0  0  0  0  0  0  0  0  0  0  0  0
 33 34  1  0  0  0
 34 22  1  0  0  0
 22 23  2  0  0  0
 23 24  1  0  0  0
 24 25  2  0  0  0
 25 26  1  0  0  0
 26 27  2  0  0  0
 27 20  1  0  0  0
 20  1  1  0  0  0
  1  2  2  0  0  0
  2  3  1  0  0  0
  3  4  2  0  0  0
  4  5  1  0  0  0
  5  6  1  0  0  0
  6  7  1  0  0  0
  7  8  1  0  0  0
  8  9  2  0  0  0
  9 10  1  0  0  0
 10 11  1  0  0  0
 10 12  1  0  0  0
 12 13  1  0  0  0
 13 14  2  0  0  0
  8 15  1  0  0  0
 15 16  1  0  0  0
 15 17  2  0  0  0
 24 28  1  0  0  0
 28 29  1  0  0  0
 29 30  2  0  0  0
 30 31  1  0  0  0
 31 32  2  0  0  0
 27 22  1  0  0  0
 14  1  1  0  0  0
 32 28  1  0  0  0
 13  4  1  0  0  0
 12  7  2  0  0  0
 20 21  1  0  0  0
 16 18  1  0  0  0
 16 19  1  0  0  0
M  END
> <minimizedAffinity>
-8.66232

> <CNNscore>
0.2699631453

> <CNNaffinity>
6.6819963455

> <CNN_VS>
1.8038927317

> <CNNaffinity_variance>
0.0770781413

$$$$
[H]c1nc(N([H])c2c([H])c([H])c(-n3c([H])nc([H])c3[H])c([H])c2OC([H])([H])[H])nc2c1C([H])([H])C([H])([H])c1c(C(=O)N([H])[H])nn(C([H])([H])[H])c1-2


 34 38  0  0  0  0  0  0  0  0999 V2000
   -3.5219   22.1624  -24.0778 C   0  0  0  0  0  0  0  0  0  0  0  0
   -2.4154   21.7245  -24.6439 N   0  0  0  0  0  0  0  0  0  0  0  0
   -2.0271   21.9616  -25.8884 C   0  0  0  0  0  0  0  0  0  0  0  0
   -2.8797   22.7629  -26.6935 C   0  0  0  0  0  0  0  0  0  0  0  0
   -2.4678   23.0524  -28.0669 C   0  0  0  0  0  0  0  0  0  0  0  0
   -3.4033   23.8225  -28.8740 C   0  0  0  0  0  0  0  0  0  0  0  0
   -4.6183   24.3193  -28.2338 C   0  0  0  0  0  0  0  0  0  0  0  0
   -5.6776   25.1169  -28.7155 C   0  0  0  0  0  0  0  0  0  0  0  0
   -6.5173   25.2489  -27.7051 N   0  0  0  0  0  0  0  0  0  0  0  0
   -6.1114   24.6216  -26.6253 N   0  0  0  0  0  0  0  0  0  0  0  0
   -6.7382   24.5261  -25.3320 C   0  0  0  0  0  0  0  0  0  0  0  0
   -4.9345   24.0408  -26.9396 C   0  0  0  0  0  0  0  0  0  0  0  0
   -4.0236   23.2221  -26.1267 C   0  0  0  0  0  0  0  0  0  0  0  0
   -4.3625   22.9391  -24.8366 N   0  0  0  0  0  0  0  0  0  0  0  0
   -5.7308   25.6321  -30.0717 C   0  0  0  0  0  0  0  0  0  0  0  0
   -6.1119   24.8014  -31.1479 N   0  0  0  0  0  0  0  0  0  0  0  0
   -5.4432   26.8320  -30.3521 O   0  0  0  0  0  0  0  0  0  0  0  0
   -7.1098   24.6541  -31.3481 H   0  0  0  0  0  0  0  0  0  0  0  0
   -5.3982   24.3354  -31.7419 H   0  0  0  0  0  0  0  0  0  0  0  0
   -3.9071   21.8993  -22.7680 N   0  0  0  0  0  0  0  0  0  0  0  0
   -3.1745   21.4312  -22.1236 H   0  0  0  0  0  0  0  0  0  0  0  0
   -5.1478   22.8096  -20.8792 C   0  0  0  0  0  0  0  0  0  0  0  0
   -6.3139   23.0816  -20.2151 C   0  0  0  0  0  0  0  0  0  0  0  0
   -7.5505   22.7399  -20.7103 C   0  0  0  0  0  0  0  0  0  0  0  0
   -7.5534   22.1027  -21.9230 C   0  0  0  0  0  0  0  0  0  0  0  0
   -6.3660   21.8167  -22.6166 C   0  0  0  0  0  0  0  0  0  0  0  0
   -5.1407   22.1547  -22.1269 C   0  0  0  0  0  0  0  0  0  0  0  0
   -8.7693   23.0124  -20.0387 N   0  0  0  0  0  0  0  0  0  0  0  0
   -9.8020   23.7294  -20.5184 C   0  0  0  0  0  0  0  0  0  0  0  0
  -10.8185   23.7901  -19.5989 C   0  0  0  0  0  0  0  0  0  0  0  0
  -10.3860   23.0895  -18.5340 N   0  0  0  0  0  0  0  0  0  0  0  0
   -9.1349   22.6170  -18.8075 C   0  0  0  0  0  0  0  0  0  0  0  0
   -3.4181   22.4295  -19.2578 C   0  0  0  0  0  0  0  0  0  0  0  0
   -3.9202   23.1663  -20.3543 O   0  0  0  0  0  0  0  0  0  0  0  0
 33 34  1  0  0  0
 34 22  1  0  0  0
 22 23  2  0  0  0
 23 24  1  0  0  0
 24 25  2  0  0  0
 25 26  1  0  0  0
 26 27  2  0  0  0
 27 20  1  0  0  0
 20  1  1  0  0  0
  1  2  2  0  0  0
  2  3  1  0  0  0
  3  4  2  0  0  0
  4  5  1  0  0  0
  5  6  1  0  0  0
  6  7  1  0  0  0
  7  8  1  0  0  0
  8  9  2  0  0  0
  9 10  1  0  0  0
 10 11  1  0  0  0
 10 12  1  0  0  0
 12 13  1  0  0  0
 13 14  2  0  0  0
  8 15  1  0  0  0
 15 16  1  0  0  0
 15 17  2  0  0  0
 24 28  1  0  0  0
 28 29  1  0  0  0
 29 30  2  0  0  0
 30 31  1  0  0  0
 31 32  2  0  0  0
 27 22  1  0  0  0
 14  1  1  0  0  0
 32 28  1  0  0  0
 13  4  1  0  0  0
 12  7  2  0  0  0
 20 21  1  0  0  0
 16 18  1  0  0  0
 16 19  1  0  0  0
M  END
> <minimizedAffinity>
-8.78228

> <CNNscore>
0.2577500939

> <CNNaffinity>
6.9521956444

> <CNN_VS>
1.7919291258

> <CNNaffinity_variance>
0.0613428168

$$$$
[H]c1nc(N([H])c2c([H])c([H])c(-n3c([H])nc([H])c3[H])c([H])c2OC([H])([H])[H])nc2c1C([H])([H])C([H])([H])c1c(C(=O)N([H])[H])nn(C([H])([H])[H])c1-2


 34 38  0  0  0  0  0  0  0  0999 V2000
   -1.3013   22.2514  -24.4228 C   0  0  0  0  0  0  0  0  0  0  0  0
   -0.2899   22.1440  -25.2606 N   0  0  0  0  0  0  0  0  0  0  0  0
    0.9374   21.7467  -24.9578 C   0  0  0  0  0  0  0  0  0  0  0  0
    1.1934   21.4026  -23.6039 C   0  0  0  0  0  0  0  0  0  0  0  0
    2.5362   20.9467  -23.2450 C   0  0  0  0  0  0  0  0  0  0  0  0
    2.7692   20.6675  -21.8353 C   0  0  0  0  0  0  0  0  0  0  0  0
    1.6387   20.7714  -20.9167 C   0  0  0  0  0  0  0  0  0  0  0  0
    1.5250   20.5259  -19.5321 C   0  0  0  0  0  0  0  0  0  0  0  0
    0.2697   20.7921  -19.2210 N   0  0  0  0  0  0  0  0  0  0  0  0
   -0.4360   21.1826  -20.2572 N   0  0  0  0  0  0  0  0  0  0  0  0
   -1.8241   21.5600  -20.3297 C   0  0  0  0  0  0  0  0  0  0  0  0
    0.4012   21.1740  -21.3156 C   0  0  0  0  0  0  0  0  0  0  0  0
    0.1633   21.5077  -22.7273 C   0  0  0  0  0  0  0  0  0  0  0  0
   -1.0781   21.9244  -23.1080 N   0  0  0  0  0  0  0  0  0  0  0  0
    2.6348   20.0758  -18.7115 C   0  0  0  0  0  0  0  0  0  0  0  0
    3.3436   20.9809  -17.8919 N   0  0  0  0  0  0  0  0  0  0  0  0
    3.0156   18.8694  -18.6901 O   0  0  0  0  0  0  0  0  0  0  0  0
    2.9765   21.2194  -16.9614 H   0  0  0  0  0  0  0  0  0  0  0  0
    4.2325   21.4110  -18.2152 H   0  0  0  0  0  0  0  0  0  0  0  0
   -2.5817   22.6711  -24.7660 N   0  0  0  0  0  0  0  0  0  0  0  0
   -3.3373   22.6309  -23.9923 H   0  0  0  0  0  0  0  0  0  0  0  0
   -3.9117   24.2831  -26.0182 C   0  0  0  0  0  0  0  0  0  0  0  0
   -4.4087   24.7942  -27.1873 C   0  0  0  0  0  0  0  0  0  0  0  0
   -4.1227   24.2524  -28.4184 C   0  0  0  0  0  0  0  0  0  0  0  0
   -3.3009   23.1563  -28.4126 C   0  0  0  0  0  0  0  0  0  0  0  0
   -2.7831   22.6202  -27.2222 C   0  0  0  0  0  0  0  0  0  0  0  0
   -3.0658   23.1563  -26.0023 C   0  0  0  0  0  0  0  0  0  0  0  0
   -4.6269   24.7662  -29.6400 N   0  0  0  0  0  0  0  0  0  0  0  0
   -5.6674   24.2802  -30.3415 C   0  0  0  0  0  0  0  0  0  0  0  0
   -5.8778   25.0245  -31.4747 C   0  0  0  0  0  0  0  0  0  0  0  0
   -4.9370   25.9870  -31.4560 N   0  0  0  0  0  0  0  0  0  0  0  0
   -4.1761   25.8249  -30.3342 C   0  0  0  0  0  0  0  0  0  0  0  0
   -4.2860   26.2600  -24.7078 C   0  0  0  0  0  0  0  0  0  0  0  0
   -4.2181   24.8511  -24.7962 O   0  0  0  0  0  0  0  0  0  0  0  0
 33 34  1  0  0  0
 34 22  1  0  0  0
 22 23  2  0  0  0
 23 24  1  0  0  0
 24 25  2  0  0  0
 25 26  1  0  0  0
 26 27  2  0  0  0
 27 20  1  0  0  0
 20  1  1  0  0  0
  1  2  2  0  0  0
  2  3  1  0  0  0
  3  4  2  0  0  0
  4  5  1  0  0  0
  5  6  1  0  0  0
  6  7  1  0  0  0
  7  8  1  0  0  0
  8  9  2  0  0  0
  9 10  1  0  0  0
 10 11  1  0  0  0
 10 12  1  0  0  0
 12 13  1  0  0  0
 13 14  2  0  0  0
  8 15  1  0  0  0
 15 16  1  0  0  0
 15 17  2  0  0  0
 24 28  1  0  0  0
 28 29  1  0  0  0
 29 30  2  0  0  0
 30 31  1  0  0  0
 31 32  2  0  0  0
 27 22  1  0  0  0
 14  1  1  0  0  0
 32 28  1  0  0  0
 13  4  1  0  0  0
 12  7  2  0  0  0
 20 21  1  0  0  0
 16 18  1  0  0  0
 16 19  1  0  0  0
M  END
> <minimizedAffinity>
-8.21305

> <CNNscore>
0.2110552639

> <CNNaffinity>
6.6938109398

> <CNN_VS>
1.4127640724

> <CNNaffinity_variance>
0.1949075162

$$$$
[H]c1nc(N([H])c2c([H])c([H])c(-n3c([H])nc([H])c3[H])c([H])c2OC([H])([H])[H])nc2c1C([H])([H])C([H])([H])c1c(C(=O)N([H])[H])nn(C([H])([H])[H])c1-2


 34 38  0  0  0  0  0  0  0  0999 V2000
   -3.7452   21.5330  -24.2475 C   0  0  0  0  0  0  0  0  0  0  0  0
   -2.4688   21.3457  -24.5164 N   0  0  0  0  0  0  0  0  0  0  0  0
   -1.8240   21.7794  -25.5896 C   0  0  0  0  0  0  0  0  0  0  0  0
   -2.5738   22.5166  -26.5443 C   0  0  0  0  0  0  0  0  0  0  0  0
   -1.8832   23.0198  -27.7315 C   0  0  0  0  0  0  0  0  0  0  0  0
   -2.7053   23.7132  -28.7127 C   0  0  0  0  0  0  0  0  0  0  0  0
   -4.1146   23.9325  -28.3987 C   0  0  0  0  0  0  0  0  0  0  0  0
   -5.1430   24.5967  -29.0997 C   0  0  0  0  0  0  0  0  0  0  0  0
   -6.2241   24.4779  -28.3509 N   0  0  0  0  0  0  0  0  0  0  0  0
   -6.0010   23.8084  -27.2436 N   0  0  0  0  0  0  0  0  0  0  0  0
   -6.9108   23.4696  -26.1796 C   0  0  0  0  0  0  0  0  0  0  0  0
   -4.6962   23.4644  -27.2607 C   0  0  0  0  0  0  0  0  0  0  0  0
   -3.8898   22.7187  -26.2836 C   0  0  0  0  0  0  0  0  0  0  0  0
   -4.4910   22.2429  -25.1560 N   0  0  0  0  0  0  0  0  0  0  0  0
   -4.9398   25.2441  -30.3832 C   0  0  0  0  0  0  0  0  0  0  0  0
   -5.8663   25.0745  -31.4349 N   0  0  0  0  0  0  0  0  0  0  0  0
   -3.9384   25.9807  -30.6191 O   0  0  0  0  0  0  0  0  0  0  0  0
   -6.7114   25.6595  -31.4675 H   0  0  0  0  0  0  0  0  0  0  0  0
   -5.7072   24.3660  -32.1781 H   0  0  0  0  0  0  0  0  0  0  0  0
   -4.3990   21.0671  -23.1123 N   0  0  0  0  0  0  0  0  0  0  0  0
   -4.8627   20.0914  -23.1764 H   0  0  0  0  0  0  0  0  0  0  0  0
   -5.6952   22.4817  -21.6108 C   0  0  0  0  0  0  0  0  0  0  0  0
   -5.8985   23.1030  -20.4077 C   0  0  0  0  0  0  0  0  0  0  0  0
   -5.0183   22.9972  -19.3564 C   0  0  0  0  0  0  0  0  0  0  0  0
   -3.9095   22.2246  -19.5808 C   0  0  0  0  0  0  0  0  0  0  0  0
   -3.6867   21.5810  -20.8091 C   0  0  0  0  0  0  0  0  0  0  0  0
   -4.5579   21.6852  -21.8510 C   0  0  0  0  0  0  0  0  0  0  0  0
   -5.2103   23.6321  -18.1031 N   0  0  0  0  0  0  0  0  0  0  0  0
   -4.4767   23.4416  -16.9912 C   0  0  0  0  0  0  0  0  0  0  0  0
   -4.9438   24.2208  -15.9630 C   0  0  0  0  0  0  0  0  0  0  0  0
   -5.9893   24.9007  -16.4698 N   0  0  0  0  0  0  0  0  0  0  0  0
   -6.1477   24.5378  -17.7762 C   0  0  0  0  0  0  0  0  0  0  0  0
   -7.6227   23.5760  -22.5342 C   0  0  0  0  0  0  0  0  0  0  0  0
   -6.5995   22.6079  -22.6483 O   0  0  0  0  0  0  0  0  0  0  0  0
 33 34  1  0  0  0
 34 22  1  0  0  0
 22 23  2  0  0  0
 23 24  1  0  0  0
 24 25  2  0  0  0
 25 26  1  0  0  0
 26 27  2  0  0  0
 27 20  1  0  0  0
 20  1  1  0  0  0
  1  2  2  0  0  0
  2  3  1  0  0  0
  3  4  2  0  0  0
  4  5  1  0  0  0
  5  6  1  0  0  0
  6  7  1  0  0  0
  7  8  1  0  0  0
  8  9  2  0  0  0
  9 10  1  0  0  0
 10 11  1  0  0  0
 10 12  1  0  0  0
 12 13  1  0  0  0
 13 14  2  0  0  0
  8 15  1  0  0  0
 15 16  1  0  0  0
 15 17  2  0  0  0
 24 28  1  0  0  0
 28 29  1  0  0  0
 29 30  2  0  0  0
 30 31  1  0  0  0
 31 32  2  0  0  0
 27 22  1  0  0  0
 14  1  1  0  0  0
 32 28  1  0  0  0
 13  4  1  0  0  0
 12  7  2  0  0  0
 20 21  1  0  0  0
 16 18  1  0  0  0
 16 19  1  0  0  0
M  END
> <minimizedAffinity>
-8.32163

> <CNNscore>
0.1996554285

> <CNNaffinity>
6.5044603348

> <CNN_VS>
1.2986508608

> <CNNaffinity_variance>
0.1763750762

$$$$
[H]c1nc(N([H])c2c([H])c([H])c(-n3c([H])nc([H])c3[H])c([H])c2OC([H])([H])[H])nc2c1C([H])([H])C([H])([H])c1c(C(=O)N([H])[H])nn(C([H])([H])[H])c1-2


 34 38  0  0  0  0  0  0  0  0999 V2000
   -3.9629   21.9243  -23.7990 C   0  0  0  0  0  0  0  0  0  0  0  0
   -2.7524   21.5195  -24.1265 N   0  0  0  0  0  0  0  0  0  0  0  0
   -2.1565   21.7023  -25.2958 C   0  0  0  0  0  0  0  0  0  0  0  0
   -2.8862   22.3998  -26.2949 C   0  0  0  0  0  0  0  0  0  0  0  0
   -2.2462   22.6282  -27.5902 C   0  0  0  0  0  0  0  0  0  0  0  0
   -3.0555   23.2895  -28.6038 C   0  0  0  0  0  0  0  0  0  0  0  0
   -4.3888   23.7510  -28.2271 C   0  0  0  0  0  0  0  0  0  0  0  0
   -5.3801   24.4524  -28.9453 C   0  0  0  0  0  0  0  0  0  0  0  0
   -6.3946   24.5959  -28.1124 N   0  0  0  0  0  0  0  0  0  0  0  0
   -6.1619   24.0619  -26.9356 N   0  0  0  0  0  0  0  0  0  0  0  0
   -7.0076   24.0089  -25.7709 C   0  0  0  0  0  0  0  0  0  0  0  0
   -4.9210   23.5345  -26.9932 C   0  0  0  0  0  0  0  0  0  0  0  0
   -4.1346   22.8236  -25.9749 C   0  0  0  0  0  0  0  0  0  0  0  0
   -4.6881   22.6009  -24.7487 N   0  0  0  0  0  0  0  0  0  0  0  0
   -5.2109   24.8789  -30.3227 C   0  0  0  0  0  0  0  0  0  0  0  0
   -6.1016   24.4469  -31.3294 N   0  0  0  0  0  0  0  0  0  0  0  0
   -4.2721   25.6467  -30.6834 O   0  0  0  0  0  0  0  0  0  0  0  0
   -6.9928   24.9414  -31.4664 H   0  0  0  0  0  0  0  0  0  0  0  0
   -5.8700   23.6353  -31.9353 H   0  0  0  0  0  0  0  0  0  0  0  0
   -4.5664   21.7199  -22.5632 N   0  0  0  0  0  0  0  0  0  0  0  0
   -4.0763   21.0358  -21.8827 H   0  0  0  0  0  0  0  0  0  0  0  0
   -5.7183   23.5751  -21.4830 C   0  0  0  0  0  0  0  0  0  0  0  0
   -6.8386   24.1661  -20.9629 C   0  0  0  0  0  0  0  0  0  0  0  0
   -8.0673   23.5486  -20.9461 C   0  0  0  0  0  0  0  0  0  0  0  0
   -8.1111   22.2904  -21.4861 C   0  0  0  0  0  0  0  0  0  0  0  0
   -6.9710   21.6706  -22.0233 C   0  0  0  0  0  0  0  0  0  0  0  0
   -5.7536   22.2814  -22.0404 C   0  0  0  0  0  0  0  0  0  0  0  0
   -9.2389   24.1431  -20.4126 N   0  0  0  0  0  0  0  0  0  0  0  0
  -10.3228   23.4943  -19.9490 C   0  0  0  0  0  0  0  0  0  0  0  0
  -11.2688   24.3849  -19.5079 C   0  0  0  0  0  0  0  0  0  0  0  0
  -10.7399   25.6059  -19.7117 N   0  0  0  0  0  0  0  0  0  0  0  0
   -9.5009   25.4527  -20.2640 C   0  0  0  0  0  0  0  0  0  0  0  0
   -4.2647   25.2157  -22.4632 C   0  0  0  0  0  0  0  0  0  0  0  0
   -4.4975   24.2226  -21.4849 O   0  0  0  0  0  0  0  0  0  0  0  0
 33 34  1  0  0  0
 34 22  1  0  0  0
 22 23  2  0  0  0
 23 24  1  0  0  0
 24 25  2  0  0  0
 25 26  1  0  0  0
 26 27  2  0  0  0
 27 20  1  0  0  0
 20  1  1  0  0  0
  1  2  2  0  0  0
  2  3  1  0  0  0
  3  4  2  0  0  0
  4  5  1  0  0  0
  5  6  1  0  0  0
  6  7  1  0  0  0
  7  8  1  0  0  0
  8  9  2  0  0  0
  9 10  1  0  0  0
 10 11  1  0  0  0
 10 12  1  0  0  0
 12 13  1  0  0  0
 13 14  2  0  0  0
  8 15  1  0  0  0
 15 16  1  0  0  0
 15 17  2  0  0  0
 24 28  1  0  0  0
 28 29  1  0  0  0
 29 30  2  0  0  0
 30 31  1  0  0  0
 31 32  2  0  0  0
 27 22  1  0  0  0
 14  1  1  0  0  0
 32 28  1  0  0  0
 13  4  1  0  0  0
 12  7  2  0  0  0
 20 21  1  0  0  0
 16 18  1  0  0  0
 16 19  1  0  0  0
M  END
> <minimizedAffinity>
-9.11275

> <CNNscore>
0.1828064770

> <CNNaffinity>
6.7047104836

> <CNN_VS>
1.2256644964

> <CNNaffinity_variance>
0.1541551650

$$$$
[H]c1nc(N([H])c2c([H])c([H])c(-n3c([H])nc([H])c3[H])c([H])c2OC([H])([H])[H])nc2c1C([H])([H])C([H])([H])c1c(C(=O)N([H])[H])nn(C([H])([H])[H])c1-2


 34 38  0  0  0  0  0  0  0  0999 V2000
   -4.2725   23.9934  -21.8275 C   0  0  0  0  0  0  0  0  0  0  0  0
   -3.3162   23.5815  -21.0197 N   0  0  0  0  0  0  0  0  0  0  0  0
   -2.1320   23.1128  -21.3852 C   0  0  0  0  0  0  0  0  0  0  0  0
   -1.8614   23.0456  -22.7778 C   0  0  0  0  0  0  0  0  0  0  0  0
   -0.5558   22.5457  -23.2084 C   0  0  0  0  0  0  0  0  0  0  0  0
   -0.3479   22.4338  -24.6449 C   0  0  0  0  0  0  0  0  0  0  0  0
   -1.4052   22.9094  -25.5329 C   0  0  0  0  0  0  0  0  0  0  0  0
   -1.4913   22.9835  -26.9391 C   0  0  0  0  0  0  0  0  0  0  0  0
   -2.6827   23.4890  -27.2010 N   0  0  0  0  0  0  0  0  0  0  0  0
   -3.3719   23.7479  -26.1137 N   0  0  0  0  0  0  0  0  0  0  0  0
   -4.6962   24.2980  -25.9787 C   0  0  0  0  0  0  0  0  0  0  0  0
   -2.5909   23.3932  -25.0719 C   0  0  0  0  0  0  0  0  0  0  0  0
   -2.8351   23.4654  -23.6241 C   0  0  0  0  0  0  0  0  0  0  0  0
   -4.0342   23.9379  -23.1786 N   0  0  0  0  0  0  0  0  0  0  0  0
   -0.4222   22.5571  -27.8240 C   0  0  0  0  0  0  0  0  0  0  0  0
   -0.1883   23.2189  -29.0490 N   0  0  0  0  0  0  0  0  0  0  0  0
    0.3409   21.5869  -27.5456 O   0  0  0  0  0  0  0  0  0  0  0  0
    0.3758   24.0786  -29.0630 H   0  0  0  0  0  0  0  0  0  0  0  0
   -0.5782   22.8499  -29.9386 H   0  0  0  0  0  0  0  0  0  0  0  0
   -5.5083   24.4820  -21.4184 N   0  0  0  0  0  0  0  0  0  0  0  0
   -5.7748   25.4800  -21.7410 H   0  0  0  0  0  0  0  0  0  0  0  0
   -7.7347   23.5153  -21.2086 C   0  0  0  0  0  0  0  0  0  0  0  0
   -8.7297   22.9134  -20.4857 C   0  0  0  0  0  0  0  0  0  0  0  0
   -8.5999   22.6062  -19.1516 C   0  0  0  0  0  0  0  0  0  0  0  0
   -7.4028   22.9399  -18.5752 C   0  0  0  0  0  0  0  0  0  0  0  0
   -6.3725   23.5575  -19.3030 C   0  0  0  0  0  0  0  0  0  0  0  0
   -6.5002   23.8622  -20.6246 C   0  0  0  0  0  0  0  0  0  0  0  0
   -9.6177   21.9834  -18.3855 N   0  0  0  0  0  0  0  0  0  0  0  0
   -9.4370   21.1839  -17.3182 C   0  0  0  0  0  0  0  0  0  0  0  0
  -10.6432   20.7575  -16.8224 C   0  0  0  0  0  0  0  0  0  0  0  0
  -11.5780   21.3160  -17.6138 N   0  0  0  0  0  0  0  0  0  0  0  0
  -10.9469   22.0631  -18.5661 C   0  0  0  0  0  0  0  0  0  0  0  0
   -8.5004   25.0401  -22.8980 C   0  0  0  0  0  0  0  0  0  0  0  0
   -7.8964   23.8110  -22.5489 O   0  0  0  0  0  0  0  0  0  0  0  0
 33 34  1  0  0  0
 34 22  1  0  0  0
 22 23  2  0  0  0
 23 24  1  0  0  0
 24 25  2  0  0  0
 25 26  1  0  0  0
 26 27  2  0  0  0
 27 20  1  0  0  0
 20  1  1  0  0  0
  1  2  2  0  0  0
  2  3  1  0  0  0
  3  4  2  0  0  0
  4  5  1  0  0  0
  5  6  1  0  0  0
  6  7  1  0  0  0
  7  8  1  0  0  0
  8  9  2  0  0  0
  9 10  1  0  0  0
 10 11  1  0  0  0
 10 12  1  0  0  0
 12 13  1  0  0  0
 13 14  2  0  0  0
  8 15  1  0  0  0
 15 16  1  0  0  0
 15 17  2  0  0  0
 24 28  1  0  0  0
 28 29  1  0  0  0
 29 30  2  0  0  0
 30 31  1  0  0  0
 31 32  2  0  0  0
 27 22  1  0  0  0
 14  1  1  0  0  0
 32 28  1  0  0  0
 13  4  1  0  0  0
 12  7  2  0  0  0
 20 21  1  0  0  0
 16 18  1  0  0  0
 16 19  1  0  0  0
M  END
> <minimizedAffinity>
-7.27698

> <CNNscore>
0.1788297594

> <CNNaffinity>
6.2803788185

> <CNN_VS>
1.1231186390

> <CNNaffinity_variance>
0.2876668870

$$$$
[H]c1nc(N([H])c2c([H])c([H])c(-n3c([H])nc([H])c3[H])c([H])c2OC([H])([H])[H])nc2c1C([H])([H])C([H])([H])c1c(C(=O)N([H])[H])nn(C([H])([H])[H])c1-2


 34 38  0  0  0  0  0  0  0  0999 V2000
   -0.0368   21.4187  -22.9786 C   0  0  0  0  0  0  0  0  0  0  0  0
    1.0719   21.4956  -23.6868 N   0  0  0  0  0  0  0  0  0  0  0  0
    1.1637   21.8549  -24.9589 C   0  0  0  0  0  0  0  0  0  0  0  0
   -0.0434   22.1900  -25.6281 C   0  0  0  0  0  0  0  0  0  0  0  0
    0.0311   22.6042  -27.0291 C   0  0  0  0  0  0  0  0  0  0  0  0
   -1.2367   22.8750  -27.6916 C   0  0  0  0  0  0  0  0  0  0  0  0
   -2.4587   22.8052  -26.8951 C   0  0  0  0  0  0  0  0  0  0  0  0
   -3.8092   23.0531  -27.2191 C   0  0  0  0  0  0  0  0  0  0  0  0
   -4.4928   22.8253  -26.1126 N   0  0  0  0  0  0  0  0  0  0  0  0
   -3.7265   22.4575  -25.1118 N   0  0  0  0  0  0  0  0  0  0  0  0
   -4.0867   22.1229  -23.7580 C   0  0  0  0  0  0  0  0  0  0  0  0
   -2.4622   22.4411  -25.5836 C   0  0  0  0  0  0  0  0  0  0  0  0
   -1.1946   22.1159  -24.9141 C   0  0  0  0  0  0  0  0  0  0  0  0
   -1.2168   21.7377  -23.6042 N   0  0  0  0  0  0  0  0  0  0  0  0
   -4.2458   23.4684  -28.5400 C   0  0  0  0  0  0  0  0  0  0  0  0
   -4.9178   22.5696  -29.3967 N   0  0  0  0  0  0  0  0  0  0  0  0
   -4.0492   24.6376  -28.9817 O   0  0  0  0  0  0  0  0  0  0  0  0
   -5.9315   22.4304  -29.2937 H   0  0  0  0  0  0  0  0  0  0  0  0
   -4.4028   22.0453  -30.1312 H   0  0  0  0  0  0  0  0  0  0  0  0
   -0.1066   21.0387  -21.6430 N   0  0  0  0  0  0  0  0  0  0  0  0
   -0.7146   21.6493  -20.9882 H   0  0  0  0  0  0  0  0  0  0  0  0
    1.7121   20.1568  -20.2828 C   0  0  0  0  0  0  0  0  0  0  0  0
    2.3503   19.1365  -19.6298 C   0  0  0  0  0  0  0  0  0  0  0  0
    1.8706   17.8478  -19.6122 C   0  0  0  0  0  0  0  0  0  0  0  0
    0.7014   17.6361  -20.2939 C   0  0  0  0  0  0  0  0  0  0  0  0
    0.0349   18.6719  -20.9687 C   0  0  0  0  0  0  0  0  0  0  0  0
    0.5093   19.9487  -20.9867 C   0  0  0  0  0  0  0  0  0  0  0  0
    2.5159   16.7776  -18.9422 N   0  0  0  0  0  0  0  0  0  0  0  0
    3.8380   16.6540  -18.7239 C   0  0  0  0  0  0  0  0  0  0  0  0
    4.1107   15.4930  -18.0454 C   0  0  0  0  0  0  0  0  0  0  0  0
    2.9185   14.8995  -17.8493 N   0  0  0  0  0  0  0  0  0  0  0  0
    1.9486   15.6875  -18.3985 C   0  0  0  0  0  0  0  0  0  0  0  0
    2.3047   22.1303  -19.0501 C   0  0  0  0  0  0  0  0  0  0  0  0
    2.2204   21.4419  -20.2815 O   0  0  0  0  0  0  0  0  0  0  0  0
 33 34  1  0  0  0
 34 22  1  0  0  0
 22 23  2  0  0  0
 23 24  1  0  0  0
 24 25  2  0  0  0
 25 26  1  0  0  0
 26 27  2  0  0  0
 27 20  1  0  0  0
 20  1  1  0  0  0
  1  2  2  0  0  0
  2  3  1  0  0  0
  3  4  2  0  0  0
  4  5  1  0  0  0
  5  6  1  0  0  0
  6  7  1  0  0  0
  7  8  1  0  0  0
  8  9  2  0  0  0
  9 10  1  0  0  0
 10 11  1  0  0  0
 10 12  1  0  0  0
 12 13  1  0  0  0
 13 14  2  0  0  0
  8 15  1  0  0  0
 15 16  1  0  0  0
 15 17  2  0  0  0
 24 28  1  0  0  0
 28 29  1  0  0  0
 29 30  2  0  0  0
 30 31  1  0  0  0
 31 32  2  0  0  0
 27 22  1  0  0  0
 14  1  1  0  0  0
 32 28  1  0  0  0
 13  4  1  0  0  0
 12  7  2  0  0  0
 20 21  1  0  0  0
 16 18  1  0  0  0
 16 19  1  0  0  0
M  END
> <minimizedAffinity>
-7.12742

> <CNNscore>
0.1598130912

> <CNNaffinity>
6.3458237648

> <CNN_VS>
1.0141457319

> <CNNaffinity_variance>
0.0618933551

$$$$
[H]c1nc(N([H])c2c([H])c([H])c(-n3c([H])nc([H])c3[H])c([H])c2OC([H])([H])[H])nc2c1C([H])([H])C([H])([H])c1c(C(=O)N([H])[H])nn(C([H])([H])[H])c1-2


 34 38  0  0  0  0  0  0  0  0999 V2000
   -0.9874   21.4082  -23.1685 C   0  0  0  0  0  0  0  0  0  0  0  0
    0.1837   21.4913  -23.7670 N   0  0  0  0  0  0  0  0  0  0  0  0
    0.3978   21.8793  -25.0157 C   0  0  0  0  0  0  0  0  0  0  0  0
   -0.7382   22.2412  -25.7875 C   0  0  0  0  0  0  0  0  0  0  0  0
   -0.5289   22.6873  -27.1647 C   0  0  0  0  0  0  0  0  0  0  0  0
   -1.7264   22.9855  -27.9370 C   0  0  0  0  0  0  0  0  0  0  0  0
   -3.0187   22.9086  -27.2611 C   0  0  0  0  0  0  0  0  0  0  0  0
   -4.3307   23.1766  -27.7049 C   0  0  0  0  0  0  0  0  0  0  0  0
   -5.1174   22.9294  -26.6735 N   0  0  0  0  0  0  0  0  0  0  0  0
   -4.4516   22.5311  -25.6141 N   0  0  0  0  0  0  0  0  0  0  0  0
   -4.9404   22.1684  -24.3087 C   0  0  0  0  0  0  0  0  0  0  0  0
   -3.1486   22.5140  -25.9650 C   0  0  0  0  0  0  0  0  0  0  0  0
   -1.9522   22.1613  -25.1871 C   0  0  0  0  0  0  0  0  0  0  0  0
   -2.1007   21.7528  -23.8946 N   0  0  0  0  0  0  0  0  0  0  0  0
   -4.6378   23.6267  -29.0506 C   0  0  0  0  0  0  0  0  0  0  0  0
   -4.3109   24.9349  -29.4691 N   0  0  0  0  0  0  0  0  0  0  0  0
   -5.2042   22.8809  -29.9014 O   0  0  0  0  0  0  0  0  0  0  0  0
   -3.3599   25.1396  -29.8026 H   0  0  0  0  0  0  0  0  0  0  0  0
   -5.0180   25.6958  -29.4454 H   0  0  0  0  0  0  0  0  0  0  0  0
   -1.1857   20.9978  -21.8549 N   0  0  0  0  0  0  0  0  0  0  0  0
   -2.1945   21.0563  -21.4675 H   0  0  0  0  0  0  0  0  0  0  0  0
    0.2875   21.3737  -19.9513 C   0  0  0  0  0  0  0  0  0  0  0  0
    1.1968   20.9455  -19.0215 C   0  0  0  0  0  0  0  0  0  0  0  0
    1.6479   19.6477  -18.9631 C   0  0  0  0  0  0  0  0  0  0  0  0
    1.1307   18.7925  -19.9000 C   0  0  0  0  0  0  0  0  0  0  0  0
    0.1974   19.2163  -20.8602 C   0  0  0  0  0  0  0  0  0  0  0  0
   -0.2500   20.5016  -20.9188 C   0  0  0  0  0  0  0  0  0  0  0  0
    2.5887   19.1844  -18.0086 N   0  0  0  0  0  0  0  0  0  0  0  0
    2.3485   18.9316  -16.7089 C   0  0  0  0  0  0  0  0  0  0  0  0
    3.4885   18.4973  -16.0810 C   0  0  0  0  0  0  0  0  0  0  0  0
    4.4436   18.4881  -17.0296 N   0  0  0  0  0  0  0  0  0  0  0  0
    3.8892   18.9083  -18.2041 C   0  0  0  0  0  0  0  0  0  0  0  0
   -0.7950   23.2073  -18.8415 C   0  0  0  0  0  0  0  0  0  0  0  0
   -0.1462   22.6855  -19.9835 O   0  0  0  0  0  0  0  0  0  0  0  0
 33 34  1  0  0  0
 34 22  1  0  0  0
 22 23  2  0  0  0
 23 24  1  0  0  0
 24 25  2  0  0  0
 25 26  1  0  0  0
 26 27  2  0  0  0
 27 20  1  0  0  0
 20  1  1  0  0  0
  1  2  2  0  0  0
  2  3  1  0  0  0
  3  4  2  0  0  0
  4  5  1  0  0  0
  5  6  1  0  0  0
  6  7  1  0  0  0
  7  8  1  0  0  0
  8  9  2  0  0  0
  9 10  1  0  0  0
 10 11  1  0  0  0
 10 12  1  0  0  0
 12 13  1  0  0  0
 13 14  2  0  0  0
  8 15  1  0  0  0
 15 16  1  0  0  0
 15 17  2  0  0  0
 24 28  1  0  0  0
 28 29  1  0  0  0
 29 30  2  0  0  0
 30 31  1  0  0  0
 31 32  2  0  0  0
 27 22  1  0  0  0
 14  1  1  0  0  0
 32 28  1  0  0  0
 13  4  1  0  0  0
 12  7  2  0  0  0
 20 21  1  0  0  0
 16 18  1  0  0  0
 16 19  1  0  0  0
M  END
> <minimizedAffinity>
-7.59475

> <CNNscore>
0.1597055048

> <CNNaffinity>
6.4522910118

> <CNN_VS>
1.0304664373

> <CNNaffinity_variance>
0.1048870310

$$$$
[H]N=C(N([H])[H])N([H])C([H])([H])C([H])([H])C([H])([H])[C@@]([H])(C(=O)O[H])N([H])C(=O)[C@@]1([H])N([H])C([H])([H])c2c([H])c([H])c([H])c([H])c2C1([H])[H]


 31 32  0  0  0  0  0  0  0  0999 V2000
   -6.4294   24.8996  -20.7121 C   0  0  0  0  0  0  0  0  0  0  0  0
   -6.1830   24.7941  -22.1064 N   0  0  0  0  0  0  0  0  0  0  0  0
   -4.8841   24.8910  -22.7418 C   0  0  0  0  0  0  0  0  0  0  0  0
   -3.8783   25.1836  -22.0079 O   0  0  0  0  0  0  0  0  0  0  0  0
   -6.9965   24.6104  -22.7751 H   0  0  0  0  0  0  0  0  0  0  0  0
   -4.7104   24.6310  -24.1484 C   0  0  0  0  0  0  0  0  0  0  0  0
   -3.8917   23.6508  -24.8104 C   0  0  0  0  0  0  0  0  0  0  0  0
   -3.9345   23.9579  -26.3162 C   0  0  0  0  0  0  0  0  0  0  0  0
   -3.3096   23.0354  -27.1672 C   0  0  0  0  0  0  0  0  0  0  0  0
   -3.2979   23.3251  -28.5363 C   0  0  0  0  0  0  0  0  0  0  0  0
   -3.8772   24.4648  -29.0119 C   0  0  0  0  0  0  0  0  0  0  0  0
   -4.4968   25.3715  -28.1473 C   0  0  0  0  0  0  0  0  0  0  0  0
   -4.5138   25.0894  -26.8155 C   0  0  0  0  0  0  0  0  0  0  0  0
   -5.2758   26.0472  -25.9171 C   0  0  0  0  0  0  0  0  0  0  0  0
   -4.5213   26.0431  -24.7162 N   0  0  0  0  0  0  0  0  0  0  0  0
   -3.4666   26.0709  -24.9382 H   0  0  0  0  0  0  0  0  0  0  0  0
   -6.0136   23.7605  -19.9204 C   0  0  0  0  0  0  0  0  0  0  0  0
   -5.3268   23.9299  -18.6906 O   0  0  0  0  0  0  0  0  0  0  0  0
   -6.2196   22.5727  -20.2552 O   0  0  0  0  0  0  0  0  0  0  0  0
   -4.3664   24.2803  -18.7555 H   0  0  0  0  0  0  0  0  0  0  0  0
   -7.6534   25.6254  -20.3657 C   0  0  0  0  0  0  0  0  0  0  0  0
   -8.8418   25.3873  -21.2996 C   0  0  0  0  0  0  0  0  0  0  0  0
  -10.0221   26.0910  -20.7165 C   0  0  0  0  0  0  0  0  0  0  0  0
  -10.3681   27.3214  -21.2944 N   0  0  0  0  0  0  0  0  0  0  0  0
  -10.0778   28.2419  -20.7467 H   0  0  0  0  0  0  0  0  0  0  0  0
  -11.5760   26.5074  -23.2573 N   0  0  0  0  0  0  0  0  0  0  0  0
  -11.0338   27.6151  -22.4893 C   0  0  0  0  0  0  0  0  0  0  0  0
  -11.2354   28.7909  -22.9071 N   0  0  0  0  0  0  0  0  0  0  0  0
  -12.4543   26.0265  -22.9288 H   0  0  0  0  0  0  0  0  0  0  0  0
  -11.0767   26.2202  -24.1188 H   0  0  0  0  0  0  0  0  0  0  0  0
  -11.7874   28.9618  -23.7865 H   0  0  0  0  0  0  0  0  0  0  0  0
 26 27  1  0  0  0
 27 28  2  0  0  0
 27 24  1  0  0  0
 24 23  1  0  0  0
 23 22  1  0  0  0
 22 21  1  0  0  0
 21  1  1  0  0  0
  1  2  1  0  0  0
  2  3  1  0  0  0
  3  4  2  0  0  0
  3  6  1  0  0  0
  6  7  1  0  0  0
  7  8  1  0  0  0
  8  9  2  0  0  0
  9 10  1  0  0  0
 10 11  2  0  0  0
 11 12  1  0  0  0
 12 13  2  0  0  0
 13 14  1  0  0  0
 14 15  1  0  0  0
  1 17  1  0  0  0
 17 18  1  0  0  0
 17 19  2  0  0  0
 15  6  1  0  0  0
 13  8  1  0  0  0
 26 29  1  0  0  0
 26 30  1  0  0  0
 28 31  1  0  0  0
 24 25  1  0  0  0
  2  5  1  0  0  0
 15 16  1  0  0  0
 18 20  1  0  0  0
M  END
> <minimizedAffinity>
-6.60394

> <CNNscore>
0.2627248764

> <CNNaffinity>
5.0994186401

> <CNN_VS>
1.3397440910

> <CNNaffinity_variance>
0.2002808601

$$$$
[H]N=C(N([H])[H])N([H])C([H])([H])C([H])([H])C([H])([H])[C@@]([H])(C(=O)O[H])N([H])C(=O)[C@@]1([H])N([H])C([H])([H])c2c([H])c([H])c([H])c([H])c2C1([H])[H]


 31 32  0  0  0  0  0  0  0  0999 V2000
   -2.7351   22.0410  -19.2819 C   0  0  0  0  0  0  0  0  0  0  0  0
   -2.4149   21.8582  -20.6531 N   0  0  0  0  0  0  0  0  0  0  0  0
   -2.6575   22.8198  -21.7099 C   0  0  0  0  0  0  0  0  0  0  0  0
   -3.2921   23.8897  -21.4126 O   0  0  0  0  0  0  0  0  0  0  0  0
   -1.9377   20.9556  -20.9693 H   0  0  0  0  0  0  0  0  0  0  0  0
   -2.1716   22.6077  -23.0497 C   0  0  0  0  0  0  0  0  0  0  0  0
   -0.8242   22.4459  -23.5268 C   0  0  0  0  0  0  0  0  0  0  0  0
   -0.8763   22.4577  -25.0633 C   0  0  0  0  0  0  0  0  0  0  0  0
    0.3197   22.1754  -25.7383 C   0  0  0  0  0  0  0  0  0  0  0  0
    0.3002   22.2297  -27.1365 C   0  0  0  0  0  0  0  0  0  0  0  0
   -0.8460   22.5454  -27.8053 C   0  0  0  0  0  0  0  0  0  0  0  0
   -2.0290   22.8221  -27.1141 C   0  0  0  0  0  0  0  0  0  0  0  0
   -2.0137   22.7651  -25.7540 C   0  0  0  0  0  0  0  0  0  0  0  0
   -3.3364   22.9787  -25.0396 C   0  0  0  0  0  0  0  0  0  0  0  0
   -2.9624   23.6514  -23.8484 N   0  0  0  0  0  0  0  0  0  0  0  0
   -2.2181   24.4017  -24.0616 H   0  0  0  0  0  0  0  0  0  0  0  0
   -1.6781   22.6034  -18.4673 C   0  0  0  0  0  0  0  0  0  0  0  0
   -1.2262   21.9485  -17.2926 O   0  0  0  0  0  0  0  0  0  0  0  0
   -1.1024   23.6830  -18.7292 O   0  0  0  0  0  0  0  0  0  0  0  0
   -1.8783   21.9393  -16.5028 H   0  0  0  0  0  0  0  0  0  0  0  0
   -3.6245   21.0190  -18.7255 C   0  0  0  0  0  0  0  0  0  0  0  0
   -4.9078   21.5484  -18.0820 C   0  0  0  0  0  0  0  0  0  0  0  0
   -5.1523   22.9179  -18.6232 C   0  0  0  0  0  0  0  0  0  0  0  0
   -6.0132   23.7413  -17.8826 N   0  0  0  0  0  0  0  0  0  0  0  0
   -6.9770   24.0259  -18.3533 H   0  0  0  0  0  0  0  0  0  0  0  0
   -4.6605   25.0180  -16.2969 N   0  0  0  0  0  0  0  0  0  0  0  0
   -5.8785   24.2871  -16.6016 C   0  0  0  0  0  0  0  0  0  0  0  0
   -6.7790   24.2254  -15.7166 N   0  0  0  0  0  0  0  0  0  0  0  0
   -4.5245   25.9884  -16.6850 H   0  0  0  0  0  0  0  0  0  0  0  0
   -3.9520   24.5575  -15.6969 H   0  0  0  0  0  0  0  0  0  0  0  0
   -6.6503   24.6972  -14.7849 H   0  0  0  0  0  0  0  0  0  0  0  0
 26 27  1  0  0  0
 27 28  2  0  0  0
 27 24  1  0  0  0
 24 23  1  0  0  0
 23 22  1  0  0  0
 22 21  1  0  0  0
 21  1  1  0  0  0
  1  2  1  0  0  0
  2  3  1  0  0  0
  3  4  2  0  0  0
  3  6  1  0  0  0
  6  7  1  0  0  0
  7  8  1  0  0  0
  8  9  2  0  0  0
  9 10  1  0  0  0
 10 11  2  0  0  0
 11 12  1  0  0  0
 12 13  2  0  0  0
 13 14  1  0  0  0
 14 15  1  0  0  0
  1 17  1  0  0  0
 17 18  1  0  0  0
 17 19  2  0  0  0
 15  6  1  0  0  0
 13  8  1  0  0  0
 26 29  1  0  0  0
 26 30  1  0  0  0
 28 31  1  0  0  0
 24 25  1  0  0  0
  2  5  1  0  0  0
 15 16  1  0  0  0
 18 20  1  0  0  0
M  END
> <minimizedAffinity>
-6.25845

> <CNNscore>
0.2082178146

> <CNNaffinity>
4.4571585655

> <CNN_VS>
0.9280598164

> <CNNaffinity_variance>
0.2674542367

$$$$
[H]N=C(N([H])[H])N([H])C([H])([H])C([H])([H])C([H])([H])[C@@]([H])(C(=O)O[H])N([H])C(=O)[C@@]1([H])N([H])C([H])([H])c2c([H])c([H])c([H])c([H])c2C1([H])[H]


 31 32  0  0  0  0  0  0  0  0999 V2000
   -0.7142   21.7370  -19.8219 C   0  0  0  0  0  0  0  0  0  0  0  0
   -0.6009   21.7529  -21.2372 N   0  0  0  0  0  0  0  0  0  0  0  0
   -1.7049   21.6595  -22.1715 C   0  0  0  0  0  0  0  0  0  0  0  0
   -2.8754   21.4568  -21.6977 O   0  0  0  0  0  0  0  0  0  0  0  0
    0.3616   21.8588  -21.6899 H   0  0  0  0  0  0  0  0  0  0  0  0
   -1.5100   21.8260  -23.5895 C   0  0  0  0  0  0  0  0  0  0  0  0
   -0.3326   22.2147  -24.3188 C   0  0  0  0  0  0  0  0  0  0  0  0
   -0.7492   22.4293  -25.7831 C   0  0  0  0  0  0  0  0  0  0  0  0
    0.2791   22.6823  -26.7019 C   0  0  0  0  0  0  0  0  0  0  0  0
   -0.0878   22.9276  -28.0300 C   0  0  0  0  0  0  0  0  0  0  0  0
   -1.3997   22.9169  -28.4034 C   0  0  0  0  0  0  0  0  0  0  0  0
   -2.4104   22.6609  -27.4725 C   0  0  0  0  0  0  0  0  0  0  0  0
   -2.0556   22.4171  -26.1809 C   0  0  0  0  0  0  0  0  0  0  0  0
   -3.1699   22.0506  -25.2168 C   0  0  0  0  0  0  0  0  0  0  0  0
   -2.7509   22.6320  -23.9929 N   0  0  0  0  0  0  0  0  0  0  0  0
   -2.3485   23.6171  -24.1663 H   0  0  0  0  0  0  0  0  0  0  0  0
   -1.1270   22.9868  -19.2183 C   0  0  0  0  0  0  0  0  0  0  0  0
   -2.3669   23.1020  -18.5382 O   0  0  0  0  0  0  0  0  0  0  0  0
   -0.4410   24.0326  -19.2540 O   0  0  0  0  0  0  0  0  0  0  0  0
   -3.2066   23.0665  -19.1236 H   0  0  0  0  0  0  0  0  0  0  0  0
    0.2650   20.8839  -19.1448 C   0  0  0  0  0  0  0  0  0  0  0  0
    1.5465   20.6056  -19.9331 C   0  0  0  0  0  0  0  0  0  0  0  0
    2.6870   21.1737  -19.1554 C   0  0  0  0  0  0  0  0  0  0  0  0
    2.8129   22.5707  -19.1552 N   0  0  0  0  0  0  0  0  0  0  0  0
    3.0626   23.0606  -20.1190 H   0  0  0  0  0  0  0  0  0  0  0  0
    2.4124   24.8857  -18.4805 N   0  0  0  0  0  0  0  0  0  0  0  0
    2.6677   23.5014  -18.1208 C   0  0  0  0  0  0  0  0  0  0  0  0
    2.6925   23.1944  -16.8948 N   0  0  0  0  0  0  0  0  0  0  0  0
    1.4552   25.1677  -18.8193 H   0  0  0  0  0  0  0  0  0  0  0  0
    3.1900   25.5648  -18.3901 H   0  0  0  0  0  0  0  0  0  0  0  0
    2.5265   23.9235  -16.1546 H   0  0  0  0  0  0  0  0  0  0  0  0
 26 27  1  0  0  0
 27 28  2  0  0  0
 27 24  1  0  0  0
 24 23  1  0  0  0
 23 22  1  0  0  0
 22 21  1  0  0  0
 21  1  1  0  0  0
  1  2  1  0  0  0
  2  3  1  0  0  0
  3  4  2  0  0  0
  3  6  1  0  0  0
  6  7  1  0  0  0
  7  8  1  0  0  0
  8  9  2  0  0  0
  9 10  1  0  0  0
 10 11  2  0  0  0
 11 12  1  0  0  0
 12 13  2  0  0  0
 13 14  1  0  0  0
 14 15  1  0  0  0
  1 17  1  0  0  0
 17 18  1  0  0  0
 17 19  2  0  0  0
 15  6  1  0  0  0
 13  8  1  0  0  0
 26 29  1  0  0  0
 26 30  1  0  0  0
 28 31  1  0  0  0
 24 25  1  0  0  0
  2  5  1  0  0  0
 15 16  1  0  0  0
 18 20  1  0  0  0
M  END
> <minimizedAffinity>
-6.66054

> <CNNscore>
0.1866986603

> <CNNaffinity>
4.2525434494

> <CNN_VS>
0.7939441800

> <CNNaffinity_variance>
0.3775451183

$$$$
[H]N=C(N([H])[H])N([H])C([H])([H])C([H])([H])C([H])([H])[C@@]([H])(C(=O)O[H])N([H])C(=O)[C@@]1([H])N([H])C([H])([H])c2c([H])c([H])c([H])c([H])c2C1([H])[H]


 31 32  0  0  0  0  0  0  0  0999 V2000
   -1.5752   21.3747  -21.4385 C   0  0  0  0  0  0  0  0  0  0  0  0
   -2.3486   21.6242  -22.6029 N   0  0  0  0  0  0  0  0  0  0  0  0
   -1.9904   22.5337  -23.6728 C   0  0  0  0  0  0  0  0  0  0  0  0
   -0.9363   23.2434  -23.5284 O   0  0  0  0  0  0  0  0  0  0  0  0
   -3.2708   21.1034  -22.7472 H   0  0  0  0  0  0  0  0  0  0  0  0
   -2.7672   22.6184  -24.8835 C   0  0  0  0  0  0  0  0  0  0  0  0
   -2.3350   22.6658  -26.2547 C   0  0  0  0  0  0  0  0  0  0  0  0
   -3.5735   22.9598  -27.1169 C   0  0  0  0  0  0  0  0  0  0  0  0
   -3.4008   22.9132  -28.5075 C   0  0  0  0  0  0  0  0  0  0  0  0
   -4.5067   23.2256  -29.3061 C   0  0  0  0  0  0  0  0  0  0  0  0
   -5.7020   23.5601  -28.7404 C   0  0  0  0  0  0  0  0  0  0  0  0
   -5.8546   23.5993  -27.3516 C   0  0  0  0  0  0  0  0  0  0  0  0
   -4.7815   23.2909  -26.5726 C   0  0  0  0  0  0  0  0  0  0  0  0
   -5.0071   23.2520  -25.0716 C   0  0  0  0  0  0  0  0  0  0  0  0
   -3.7778   23.7203  -24.5415 N   0  0  0  0  0  0  0  0  0  0  0  0
   -3.4190   24.5588  -25.1164 H   0  0  0  0  0  0  0  0  0  0  0  0
   -1.6900   22.3693  -20.3923 C   0  0  0  0  0  0  0  0  0  0  0  0
   -1.1930   23.6862  -20.5705 O   0  0  0  0  0  0  0  0  0  0  0  0
   -2.2183   22.1463  -19.2802 O   0  0  0  0  0  0  0  0  0  0  0  0
   -0.1736   23.7828  -20.5995 H   0  0  0  0  0  0  0  0  0  0  0  0
   -0.2881   20.7240  -21.6934 C   0  0  0  0  0  0  0  0  0  0  0  0
    0.2982   19.9480  -20.5121 C   0  0  0  0  0  0  0  0  0  0  0  0
    1.6804   19.5290  -20.8888 C   0  0  0  0  0  0  0  0  0  0  0  0
    2.4708   20.4863  -21.5419 N   0  0  0  0  0  0  0  0  0  0  0  0
    2.3200   21.5494  -21.2617 H   0  0  0  0  0  0  0  0  0  0  0  0
    3.3398   21.1241  -23.7356 N   0  0  0  0  0  0  0  0  0  0  0  0
    3.4624   20.3411  -22.5180 C   0  0  0  0  0  0  0  0  0  0  0  0
    4.4833   19.6096  -22.3749 N   0  0  0  0  0  0  0  0  0  0  0  0
    3.5605   22.1544  -23.7167 H   0  0  0  0  0  0  0  0  0  0  0  0
    3.0362   20.6388  -24.5995 H   0  0  0  0  0  0  0  0  0  0  0  0
    5.2277   19.5741  -23.1177 H   0  0  0  0  0  0  0  0  0  0  0  0
 26 27  1  0  0  0
 27 28  2  0  0  0
 27 24  1  0  0  0
 24 23  1  0  0  0
 23 22  1  0  0  0
 22 21  1  0  0  0
 21  1  1  0  0  0
  1  2  1  0  0  0
  2  3  1  0  0  0
  3  4  2  0  0  0
  3  6  1  0  0  0
  6  7  1  0  0  0
  7  8  1  0  0  0
  8  9  2  0  0  0
  9 10  1  0  0  0
 10 11  2  0  0  0
 11 12  1  0  0  0
 12 13  2  0  0  0
 13 14  1  0  0  0
 14 15  1  0  0  0
  1 17  1  0  0  0
 17 18  1  0  0  0
 17 19  2  0  0  0
 15  6  1  0  0  0
 13  8  1  0  0  0
 26 29  1  0  0  0
 26 30  1  0  0  0
 28 31  1  0  0  0
 24 25  1  0  0  0
  2  5  1  0  0  0
 15 16  1  0  0  0
 18 20  1  0  0  0
M  END
> <minimizedAffinity>
-6.82466

> <CNNscore>
0.1844535768

> <CNNaffinity>
4.8123412132

> <CNN_VS>
0.8876535296

> <CNNaffinity_variance>
0.1153113618

$$$$
[H]N=C(N([H])[H])N([H])C([H])([H])C([H])([H])C([H])([H])[C@@]([H])(C(=O)O[H])N([H])C(=O)[C@@]1([H])N([H])C([H])([H])c2c([H])c([H])c([H])c([H])c2C1([H])[H]


 31 32  0  0  0  0  0  0  0  0999 V2000
   -2.2712   21.0756  -19.2530 C   0  0  0  0  0  0  0  0  0  0  0  0
   -2.0033   21.2325  -20.6385 N   0  0  0  0  0  0  0  0  0  0  0  0
   -2.1166   22.4706  -21.3832 C   0  0  0  0  0  0  0  0  0  0  0  0
   -2.5801   23.4956  -20.7748 O   0  0  0  0  0  0  0  0  0  0  0  0
   -1.6708   20.3936  -21.2115 H   0  0  0  0  0  0  0  0  0  0  0  0
   -1.6887   22.5679  -22.7557 C   0  0  0  0  0  0  0  0  0  0  0  0
   -2.4580   22.8147  -23.9459 C   0  0  0  0  0  0  0  0  0  0  0  0
   -1.5226   22.6089  -25.1485 C   0  0  0  0  0  0  0  0  0  0  0  0
   -2.0367   22.9338  -26.4117 C   0  0  0  0  0  0  0  0  0  0  0  0
   -1.2146   22.7066  -27.5212 C   0  0  0  0  0  0  0  0  0  0  0  0
    0.0379   22.1891  -27.3656 C   0  0  0  0  0  0  0  0  0  0  0  0
    0.5331   21.8732  -26.0974 C   0  0  0  0  0  0  0  0  0  0  0  0
   -0.2630   22.0979  -25.0160 C   0  0  0  0  0  0  0  0  0  0  0  0
    0.3400   21.8319  -23.6482 C   0  0  0  0  0  0  0  0  0  0  0  0
   -0.7599   21.3549  -22.8905 N   0  0  0  0  0  0  0  0  0  0  0  0
   -1.3484   20.6690  -23.4784 H   0  0  0  0  0  0  0  0  0  0  0  0
   -3.6662   20.8989  -18.9067 C   0  0  0  0  0  0  0  0  0  0  0  0
   -4.6750   21.7208  -19.4722 O   0  0  0  0  0  0  0  0  0  0  0  0
   -4.0751   20.0337  -18.1006 O   0  0  0  0  0  0  0  0  0  0  0  0
   -4.6855   22.6976  -19.1639 H   0  0  0  0  0  0  0  0  0  0  0  0
   -1.3896   21.8467  -18.3737 C   0  0  0  0  0  0  0  0  0  0  0  0
    0.1045   21.7353  -18.6841 C   0  0  0  0  0  0  0  0  0  0  0  0
    0.6313   23.1195  -18.8701 C   0  0  0  0  0  0  0  0  0  0  0  0
    2.0233   23.2766  -18.7982 N   0  0  0  0  0  0  0  0  0  0  0  0
    2.6200   22.9443  -19.6728 H   0  0  0  0  0  0  0  0  0  0  0  0
    3.0496   22.9993  -16.5972 N   0  0  0  0  0  0  0  0  0  0  0  0
    2.8325   23.8048  -17.7867 C   0  0  0  0  0  0  0  0  0  0  0  0
    3.4265   24.9171  -17.8751 N   0  0  0  0  0  0  0  0  0  0  0  0
    3.7037   22.1741  -16.6394 H   0  0  0  0  0  0  0  0  0  0  0  0
    2.5488   23.2650  -15.7297 H   0  0  0  0  0  0  0  0  0  0  0  0
    4.0663   25.2474  -17.1078 H   0  0  0  0  0  0  0  0  0  0  0  0
 26 27  1  0  0  0
 27 28  2  0  0  0
 27 24  1  0  0  0
 24 23  1  0  0  0
 23 22  1  0  0  0
 22 21  1  0  0  0
 21  1  1  0  0  0
  1  2  1  0  0  0
  2  3  1  0  0  0
  3  4  2  0  0  0
  3  6  1  0  0  0
  6  7  1  0  0  0
  7  8  1  0  0  0
  8  9  2  0  0  0
  9 10  1  0  0  0
 10 11  2  0  0  0
 11 12  1  0  0  0
 12 13  2  0  0  0
 13 14  1  0  0  0
 14 15  1  0  0  0
  1 17  1  0  0  0
 17 18  1  0  0  0
 17 19  2  0  0  0
 15  6  1  0  0  0
 13  8  1  0  0  0
 26 29  1  0  0  0
 26 30  1  0  0  0
 28 31  1  0  0  0
 24 25  1  0  0  0
  2  5  1  0  0  0
 15 16  1  0  0  0
 18 20  1  0  0  0
M  END
> <minimizedAffinity>
-6.16197

> <CNNscore>
0.1759328395

> <CNNaffinity>
4.1112999916

> <CNN_VS>
0.7233126760

> <CNNaffinity_variance>
0.2876504064

$$$$
[H]N=C(N([H])[H])N([H])C([H])([H])C([H])([H])C([H])([H])[C@@]([H])(C(=O)O[H])N([H])C(=O)[C@@]1([H])N([H])C([H])([H])c2c([H])c([H])c([H])c([H])c2C1([H])[H]


 31 32  0  0  0  0  0  0  0  0999 V2000
   -0.5270   21.4043  -20.2516 C   0  0  0  0  0  0  0  0  0  0  0  0
   -0.4716   21.4772  -21.6685 N   0  0  0  0  0  0  0  0  0  0  0  0
   -1.6104   21.6505  -22.5480 C   0  0  0  0  0  0  0  0  0  0  0  0
   -2.7773   21.6508  -22.0245 O   0  0  0  0  0  0  0  0  0  0  0  0
    0.4734   21.4210  -22.1647 H   0  0  0  0  0  0  0  0  0  0  0  0
   -1.4459   21.8553  -23.9648 C   0  0  0  0  0  0  0  0  0  0  0  0
   -0.2606   22.1609  -24.7205 C   0  0  0  0  0  0  0  0  0  0  0  0
   -0.7013   22.4729  -26.1599 C   0  0  0  0  0  0  0  0  0  0  0  0
    0.3166   22.6652  -27.1047 C   0  0  0  0  0  0  0  0  0  0  0  0
   -0.0673   22.9976  -28.4087 C   0  0  0  0  0  0  0  0  0  0  0  0
   -1.3855   23.1254  -28.7354 C   0  0  0  0  0  0  0  0  0  0  0  0
   -2.3858   22.9279  -27.7794 C   0  0  0  0  0  0  0  0  0  0  0  0
   -2.0150   22.5997  -26.5112 C   0  0  0  0  0  0  0  0  0  0  0  0
   -3.1278   22.3007  -25.5225 C   0  0  0  0  0  0  0  0  0  0  0  0
   -2.6165   22.7901  -24.2934 N   0  0  0  0  0  0  0  0  0  0  0  0
   -2.1279   23.7392  -24.4441 H   0  0  0  0  0  0  0  0  0  0  0  0
    0.0918   22.5088  -19.5486 C   0  0  0  0  0  0  0  0  0  0  0  0
   -0.5843   23.7444  -19.3779 O   0  0  0  0  0  0  0  0  0  0  0  0
    1.2409   22.4588  -19.0558 O   0  0  0  0  0  0  0  0  0  0  0  0
   -0.7126   24.3081  -20.2234 H   0  0  0  0  0  0  0  0  0  0  0  0
   -0.4344   20.0467  -19.7101 C   0  0  0  0  0  0  0  0  0  0  0  0
    0.1608   19.0033  -20.6579 C   0  0  0  0  0  0  0  0  0  0  0  0
    1.6378   18.9879  -20.4419 C   0  0  0  0  0  0  0  0  0  0  0  0
    2.4369   19.3278  -21.5434 N   0  0  0  0  0  0  0  0  0  0  0  0
    2.2709   18.7671  -22.4865 H   0  0  0  0  0  0  0  0  0  0  0  0
    4.5482   19.9976  -22.5772 N   0  0  0  0  0  0  0  0  0  0  0  0
    3.4430   20.2901  -21.6806 C   0  0  0  0  0  0  0  0  0  0  0  0
    3.4147   21.4181  -21.1107 N   0  0  0  0  0  0  0  0  0  0  0  0
    4.4023   20.0544  -23.6193 H   0  0  0  0  0  0  0  0  0  0  0  0
    5.4608   19.7398  -22.1591 H   0  0  0  0  0  0  0  0  0  0  0  0
    4.1706   22.1286  -21.2869 H   0  0  0  0  0  0  0  0  0  0  0  0
 26 27  1  0  0  0
 27 28  2  0  0  0
 27 24  1  0  0  0
 24 23  1  0  0  0
 23 22  1  0  0  0
 22 21  1  0  0  0
 21  1  1  0  0  0
  1  2  1  0  0  0
  2  3  1  0  0  0
  3  4  2  0  0  0
  3  6  1  0  0  0
  6  7  1  0  0  0
  7  8  1  0  0  0
  8  9  2  0  0  0
  9 10  1  0  0  0
 10 11  2  0  0  0
 11 12  1  0  0  0
 12 13  2  0  0  0
 13 14  1  0  0  0
 14 15  1  0  0  0
  1 17  1  0  0  0
 17 18  1  0  0  0
 17 19  2  0  0  0
 15  6  1  0  0  0
 13  8  1  0  0  0
 26 29  1  0  0  0
 26 30  1  0  0  0
 28 31  1  0  0  0
 24 25  1  0  0  0
  2  5  1  0  0  0
 15 16  1  0  0  0
 18 20  1  0  0  0
M  END
> <minimizedAffinity>
-6.58260

> <CNNscore>
0.1746378243

> <CNNaffinity>
4.3637814522

> <CNN_VS>
0.7620813251

> <CNNaffinity_variance>
0.3587624431

$$$$
[H]N=C(N([H])[H])N([H])C([H])([H])C([H])([H])C([H])([H])[C@@]([H])(C(=O)O[H])N([H])C(=O)[C@@]1([H])N([H])C([H])([H])c2c([H])c([H])c([H])c([H])c2C1([H])[H]


 31 32  0  0  0  0  0  0  0  0999 V2000
    1.4344   20.9643  -19.9605 C   0  0  0  0  0  0  0  0  0  0  0  0
    1.1291   21.0889  -21.3416 N   0  0  0  0  0  0  0  0  0  0  0  0
   -0.2032   21.1813  -21.9045 C   0  0  0  0  0  0  0  0  0  0  0  0
   -1.1988   21.0525  -21.1122 O   0  0  0  0  0  0  0  0  0  0  0  0
    1.9222   21.1399  -22.0564 H   0  0  0  0  0  0  0  0  0  0  0  0
   -0.4143   21.4476  -23.3048 C   0  0  0  0  0  0  0  0  0  0  0  0
    0.5167   21.8844  -24.3107 C   0  0  0  0  0  0  0  0  0  0  0  0
   -0.2927   22.2035  -25.5783 C   0  0  0  0  0  0  0  0  0  0  0  0
    0.4386   22.5188  -26.7322 C   0  0  0  0  0  0  0  0  0  0  0  0
   -0.2838   22.8586  -27.8815 C   0  0  0  0  0  0  0  0  0  0  0  0
   -1.6477   22.8775  -27.8666 C   0  0  0  0  0  0  0  0  0  0  0  0
   -2.3587   22.5583  -26.7064 C   0  0  0  0  0  0  0  0  0  0  0  0
   -1.6582   22.2226  -25.5884 C   0  0  0  0  0  0  0  0  0  0  0  0
   -2.4617   21.7911  -24.3744 C   0  0  0  0  0  0  0  0  0  0  0  0
   -1.7002   22.2831  -23.2837 N   0  0  0  0  0  0  0  0  0  0  0  0
   -1.3415   23.2771  -23.4974 H   0  0  0  0  0  0  0  0  0  0  0  0
    1.8944   22.1760  -19.3148 C   0  0  0  0  0  0  0  0  0  0  0  0
    3.2755   22.4921  -19.2404 O   0  0  0  0  0  0  0  0  0  0  0  0
    1.1285   23.0111  -18.7841 O   0  0  0  0  0  0  0  0  0  0  0  0
    3.8391   21.9046  -18.6187 H   0  0  0  0  0  0  0  0  0  0  0  0
    2.0030   19.6694  -19.5796 C   0  0  0  0  0  0  0  0  0  0  0  0
    1.2866   18.9518  -18.4337 C   0  0  0  0  0  0  0  0  0  0  0  0
   -0.1434   18.7866  -18.8285 C   0  0  0  0  0  0  0  0  0  0  0  0
   -0.3892   18.0895  -20.0207 N   0  0  0  0  0  0  0  0  0  0  0  0
   -0.5971   18.6909  -20.9298 H   0  0  0  0  0  0  0  0  0  0  0  0
    0.7615   16.1198  -20.8985 N   0  0  0  0  0  0  0  0  0  0  0  0
   -0.4141   16.7166  -20.2882 C   0  0  0  0  0  0  0  0  0  0  0  0
   -1.3791   15.9609  -19.9790 N   0  0  0  0  0  0  0  0  0  0  0  0
    1.6234   15.9535  -20.3153 H   0  0  0  0  0  0  0  0  0  0  0  0
    0.7164   15.8702  -21.9033 H   0  0  0  0  0  0  0  0  0  0  0  0
   -1.3282   14.9247  -20.1548 H   0  0  0  0  0  0  0  0  0  0  0  0
 26 27  1  0  0  0
 27 28  2  0  0  0
 27 24  1  0  0  0
 24 23  1  0  0  0
 23 22  1  0  0  0
 22 21  1  0  0  0
 21  1  1  0  0  0
  1  2  1  0  0  0
  2  3  1  0  0  0
  3  4  2  0  0  0
  3  6  1  0  0  0
  6  7  1  0  0  0
  7  8  1  0  0  0
  8  9  2  0  0  0
  9 10  1  0  0  0
 10 11  2  0  0  0
 11 12  1  0  0  0
 12 13  2  0  0  0
 13 14  1  0  0  0
 14 15  1  0  0  0
  1 17  1  0  0  0
 17 18  1  0  0  0
 17 19  2  0  0  0
 15  6  1  0  0  0
 13  8  1  0  0  0
 26 29  1  0  0  0
 26 30  1  0  0  0
 28 31  1  0  0  0
 24 25  1  0  0  0
  2  5  1  0  0  0
 15 16  1  0  0  0
 18 20  1  0  0  0
M  END
> <minimizedAffinity>
-6.19075

> <CNNscore>
0.1712709963

> <CNNaffinity>
4.2176637650

> <CNN_VS>
0.7223634720

> <CNNaffinity_variance>
0.1729880869

$$$$
[H]N=C(N([H])[H])N([H])C([H])([H])C([H])([H])C([H])([H])[C@@]([H])(C(=O)O[H])N([H])C(=O)[C@@]1([H])N([H])C([H])([H])c2c([H])c([H])c([H])c([H])c2C1([H])[H]


 31 32  0  0  0  0  0  0  0  0999 V2000
   -3.2728   23.6526  -23.0781 C   0  0  0  0  0  0  0  0  0  0  0  0
   -3.6449   24.0105  -24.4008 N   0  0  0  0  0  0  0  0  0  0  0  0
   -4.1004   23.0920  -25.4252 C   0  0  0  0  0  0  0  0  0  0  0  0
   -4.0871   21.8414  -25.1576 O   0  0  0  0  0  0  0  0  0  0  0  0
   -3.6168   25.0365  -24.6992 H   0  0  0  0  0  0  0  0  0  0  0  0
   -4.5914   23.5615  -26.6959 C   0  0  0  0  0  0  0  0  0  0  0  0
   -4.8244   22.8393  -27.9180 C   0  0  0  0  0  0  0  0  0  0  0  0
   -5.1522   23.8734  -29.0073 C   0  0  0  0  0  0  0  0  0  0  0  0
   -5.5496   23.3723  -30.2551 C   0  0  0  0  0  0  0  0  0  0  0  0
   -5.8049   24.2997  -31.2716 C   0  0  0  0  0  0  0  0  0  0  0  0
   -5.6697   25.6378  -31.0436 C   0  0  0  0  0  0  0  0  0  0  0  0
   -5.2739   26.1177  -29.7919 C   0  0  0  0  0  0  0  0  0  0  0  0
   -5.0298   25.2177  -28.8000 C   0  0  0  0  0  0  0  0  0  0  0  0
   -4.6935   25.7765  -27.4289 C   0  0  0  0  0  0  0  0  0  0  0  0
   -3.7670   24.8371  -26.9086 N   0  0  0  0  0  0  0  0  0  0  0  0
   -3.0657   24.5424  -27.6727 H   0  0  0  0  0  0  0  0  0  0  0  0
   -4.0550   24.2671  -22.0256 C   0  0  0  0  0  0  0  0  0  0  0  0
   -4.5258   25.6005  -22.1408 O   0  0  0  0  0  0  0  0  0  0  0  0
   -4.3625   23.6846  -20.9617 O   0  0  0  0  0  0  0  0  0  0  0  0
   -3.8141   26.3354  -22.0895 H   0  0  0  0  0  0  0  0  0  0  0  0
   -1.8372   23.4316  -22.8907 C   0  0  0  0  0  0  0  0  0  0  0  0
   -1.3873   21.9703  -22.9472 C   0  0  0  0  0  0  0  0  0  0  0  0
   -0.3886   21.8478  -24.0499 C   0  0  0  0  0  0  0  0  0  0  0  0
   -0.8792   21.9725  -25.3581 N   0  0  0  0  0  0  0  0  0  0  0  0
   -1.8677   21.5185  -25.5777 H   0  0  0  0  0  0  0  0  0  0  0  0
   -1.2132   22.8739  -27.6055 N   0  0  0  0  0  0  0  0  0  0  0  0
   -0.3321   22.5975  -26.4838 C   0  0  0  0  0  0  0  0  0  0  0  0
    0.8698   22.9820  -26.5557 N   0  0  0  0  0  0  0  0  0  0  0  0
   -1.9014   23.6696  -27.5434 H   0  0  0  0  0  0  0  0  0  0  0  0
   -1.1365   22.2727  -28.4461 H   0  0  0  0  0  0  0  0  0  0  0  0
    1.2205   23.4945  -27.4051 H   0  0  0  0  0  0  0  0  0  0  0  0
 26 27  1  0  0  0
 27 28  2  0  0  0
 27 24  1  0  0  0
 24 23  1  0  0  0
 23 22  1  0  0  0
 22 21  1  0  0  0
 21  1  1  0  0  0
  1  2  1  0  0  0
  2  3  1  0  0  0
  3  4  2  0  0  0
  3  6  1  0  0  0
  6  7  1  0  0  0
  7  8  1  0  0  0
  8  9  2  0  0  0
  9 10  1  0  0  0
 10 11  2  0  0  0
 11 12  1  0  0  0
 12 13  2  0  0  0
 13 14  1  0  0  0
 14 15  1  0  0  0
  1 17  1  0  0  0
 17 18  1  0  0  0
 17 19  2  0  0  0
 15  6  1  0  0  0
 13  8  1  0  0  0
 26 29  1  0  0  0
 26 30  1  0  0  0
 28 31  1  0  0  0
 24 25  1  0  0  0
  2  5  1  0  0  0
 15 16  1  0  0  0
 18 20  1  0  0  0
M  END
> <minimizedAffinity>
-7.36065

> <CNNscore>
0.1651913673

> <CNNaffinity>
5.4335746765

> <CNN_VS>
0.8975796103

> <CNNaffinity_variance>
0.1020009369

$$$$
[H]N=C(N([H])[H])N([H])C([H])([H])C([H])([H])C([H])([H])[C@@]([H])(C(=O)O[H])N([H])C(=O)[C@@]1([H])N([H])C([H])([H])c2c([H])c([H])c([H])c([H])c2C1([H])[H]


 31 32  0  0  0  0  0  0  0  0999 V2000
   -2.8260   21.4516  -19.4623 C   0  0  0  0  0  0  0  0  0  0  0  0
   -2.5896   21.4454  -20.8624 N   0  0  0  0  0  0  0  0  0  0  0  0
   -2.1383   22.5784  -21.6453 C   0  0  0  0  0  0  0  0  0  0  0  0
   -2.0240   23.7073  -21.0551 O   0  0  0  0  0  0  0  0  0  0  0  0
   -2.7282   20.5431  -21.4184 H   0  0  0  0  0  0  0  0  0  0  0  0
   -1.7893   22.4435  -23.0368 C   0  0  0  0  0  0  0  0  0  0  0  0
   -0.4960   22.3259  -23.6556 C   0  0  0  0  0  0  0  0  0  0  0  0
   -0.7042   22.4173  -25.1761 C   0  0  0  0  0  0  0  0  0  0  0  0
    0.4194   22.1877  -25.9826 C   0  0  0  0  0  0  0  0  0  0  0  0
    0.2574   22.3146  -27.3668 C   0  0  0  0  0  0  0  0  0  0  0  0
   -0.9537   22.6485  -27.8984 C   0  0  0  0  0  0  0  0  0  0  0  0
   -2.0626   22.8719  -27.0775 C   0  0  0  0  0  0  0  0  0  0  0  0
   -1.9086   22.7441  -25.7308 C   0  0  0  0  0  0  0  0  0  0  0  0
   -3.1536   22.9013  -24.8761 C   0  0  0  0  0  0  0  0  0  0  0  0
   -2.6663   23.5161  -23.6945 N   0  0  0  0  0  0  0  0  0  0  0  0
   -1.9542   24.2870  -23.9415 H   0  0  0  0  0  0  0  0  0  0  0  0
   -1.7531   20.9177  -18.6494 C   0  0  0  0  0  0  0  0  0  0  0  0
   -1.1812   21.6752  -17.5948 O   0  0  0  0  0  0  0  0  0  0  0  0
   -1.2601   19.7796  -18.8146 O   0  0  0  0  0  0  0  0  0  0  0  0
   -0.6152   22.4816  -17.8752 H   0  0  0  0  0  0  0  0  0  0  0  0
   -4.2206   21.2170  -19.0817 C   0  0  0  0  0  0  0  0  0  0  0  0
   -4.9469   22.4227  -18.4816 C   0  0  0  0  0  0  0  0  0  0  0  0
   -5.8379   22.9850  -19.5390 C   0  0  0  0  0  0  0  0  0  0  0  0
   -5.2340   23.8214  -20.4894 N   0  0  0  0  0  0  0  0  0  0  0  0
   -4.3607   24.4213  -20.1595 H   0  0  0  0  0  0  0  0  0  0  0  0
   -5.0879   25.2845  -22.4421 N   0  0  0  0  0  0  0  0  0  0  0  0
   -5.5381   24.0427  -21.8369 C   0  0  0  0  0  0  0  0  0  0  0  0
   -6.1333   23.2002  -22.5674 N   0  0  0  0  0  0  0  0  0  0  0  0
   -4.0706   25.4043  -22.6896 H   0  0  0  0  0  0  0  0  0  0  0  0
   -5.7911   26.0255  -22.6164 H   0  0  0  0  0  0  0  0  0  0  0  0
   -6.2930   23.3925  -23.5895 H   0  0  0  0  0  0  0  0  0  0  0  0
 26 27  1  0  0  0
 27 28  2  0  0  0
 27 24  1  0  0  0
 24 23  1  0  0  0
 23 22  1  0  0  0
 22 21  1  0  0  0
 21  1  1  0  0  0
  1  2  1  0  0  0
  2  3  1  0  0  0
  3  4  2  0  0  0
  3  6  1  0  0  0
  6  7  1  0  0  0
  7  8  1  0  0  0
  8  9  2  0  0  0
  9 10  1  0  0  0
 10 11  2  0  0  0
 11 12  1  0  0  0
 12 13  2  0  0  0
 13 14  1  0  0  0
 14 15  1  0  0  0
  1 17  1  0  0  0
 17 18  1  0  0  0
 17 19  2  0  0  0
 15  6  1  0  0  0
 13  8  1  0  0  0
 26 29  1  0  0  0
 26 30  1  0  0  0
 28 31  1  0  0  0
 24 25  1  0  0  0
  2  5  1  0  0  0
 15 16  1  0  0  0
 18 20  1  0  0  0
M  END
> <minimizedAffinity>
-5.97180

> <CNNscore>
0.1426184177

> <CNNaffinity>
4.4246678352

> <CNN_VS>
0.6310391426

> <CNNaffinity_variance>
0.3088577390

$$$$
[H]O[C@@]1([H])C([H])([H])C([H])([H])[C@]2([H])[C@]1(C([H])([H])[H])C([H])([H])C([H])([H])[C@]1([H])[C@@]3(C([H])([H])[H])C([H])=C([H])C(=O)C([H])=C3C([H])([H])C([H])([H])[C@]12[H]


 22 25  0  0  0  0  0  0  0  0999 V2000
    2.0450   20.8589  -12.4744 C   0  0  0  0  0  0  0  0  0  0  0  0
    1.2598   22.1000  -12.6857 C   0  0  0  0  0  0  0  0  0  0  0  0
   -0.1554   21.8635  -13.1589 C   0  0  0  0  0  0  0  0  0  0  0  0
   -0.0110   21.2449  -14.5622 C   0  0  0  0  0  0  0  0  0  0  0  0
    0.6163   22.2111  -15.4990 C   0  0  0  0  0  0  0  0  0  0  0  0
    2.0554   22.4817  -15.0252 C   0  0  0  0  0  0  0  0  0  0  0  0
    2.8271   23.3635  -15.9296 C   0  0  0  0  0  0  0  0  0  0  0  0
    2.7703   22.9550  -17.3806 C   0  0  0  0  0  0  0  0  0  0  0  0
    1.3284   22.7254  -17.7780 C   0  0  0  0  0  0  0  0  0  0  0  0
    0.8012   23.3325  -18.7976 C   0  0  0  0  0  0  0  0  0  0  0  0
   -0.5848   23.1459  -19.2196 C   0  0  0  0  0  0  0  0  0  0  0  0
   -1.0789   23.7390  -20.2067 O   0  0  0  0  0  0  0  0  0  0  0  0
   -1.3449   22.2162  -18.4019 C   0  0  0  0  0  0  0  0  0  0  0  0
   -0.7988   21.6096  -17.3738 C   0  0  0  0  0  0  0  0  0  0  0  0
    0.5844   21.7871  -16.9425 C   0  0  0  0  0  0  0  0  0  0  0  0
    1.2587   20.4203  -17.1153 C   0  0  0  0  0  0  0  0  0  0  0  0
    1.8733   23.0612  -13.6769 C   0  0  0  0  0  0  0  0  0  0  0  0
    3.0593   23.5683  -12.9727 C   0  0  0  0  0  0  0  0  0  0  0  0
    2.4539   23.8980  -11.6061 C   0  0  0  0  0  0  0  0  0  0  0  0
    1.3139   22.9163  -11.4144 C   0  0  0  0  0  0  0  0  0  0  0  0
    1.6216   22.1175  -10.3093 O   0  0  0  0  0  0  0  0  0  0  0  0
    2.4745   22.3949   -9.8853 H   0  0  0  0  0  0  0  0  0  0  0  0
  2  1  1  0  0  0
  2  3  1  0  0  0
  3  4  1  0  0  0
  4  5  1  0  0  0
  5  6  1  0  0  0
  6  7  1  0  0  0
  7  8  1  0  0  0
  8  9  1  0  0  0
  9 10  2  0  0  0
 10 11  1  0  0  0
 11 12  2  0  0  0
 11 13  1  0  0  0
 13 14  2  0  0  0
 14 15  1  0  0  0
 15 16  1  0  0  0
  6 17  1  0  0  0
 17 18  1  0  0  0
 18 19  1  0  0  0
 19 20  1  0  0  0
 20 21  1  0  0  0
 17  2  1  0  0  0
 20  2  1  0  0  0
 15  5  1  0  0  0
 15  9  1  0  0  0
 21 22  1  0  0  0
M  END
> <minimizedAffinity>
-5.12035

> <CNNscore>
0.6771290302

> <CNNaffinity>
4.5017175674

> <CNN_VS>
3.0482437611

> <CNNaffinity_variance>
0.1351992786

$$$$
[H]O[C@@]1([H])C([H])([H])C([H])([H])[C@]2([H])[C@]1(C([H])([H])[H])C([H])([H])C([H])([H])[C@]1([H])[C@@]3(C([H])([H])[H])C([H])=C([H])C(=O)C([H])=C3C([H])([H])C([H])([H])[C@]12[H]


 22 25  0  0  0  0  0  0  0  0999 V2000
    4.2512   21.4162  -16.6274 C   0  0  0  0  0  0  0  0  0  0  0  0
    3.4842   22.5005  -15.9658 C   0  0  0  0  0  0  0  0  0  0  0  0
    2.5268   22.0196  -14.9005 C   0  0  0  0  0  0  0  0  0  0  0  0
    1.4689   21.1928  -15.6557 C   0  0  0  0  0  0  0  0  0  0  0  0
    0.7000   22.0532  -16.5900 C   0  0  0  0  0  0  0  0  0  0  0  0
    1.6609   22.5704  -17.6753 C   0  0  0  0  0  0  0  0  0  0  0  0
    0.9978   23.3711  -18.7291 C   0  0  0  0  0  0  0  0  0  0  0  0
   -0.2288   22.7176  -19.3157 C   0  0  0  0  0  0  0  0  0  0  0  0
   -1.1314   22.2532  -18.1936 C   0  0  0  0  0  0  0  0  0  0  0  0
   -2.3783   22.6105  -18.1345 C   0  0  0  0  0  0  0  0  0  0  0  0
   -3.2885   22.1906  -17.0719 C   0  0  0  0  0  0  0  0  0  0  0  0
   -4.4901   22.5437  -17.0292 O   0  0  0  0  0  0  0  0  0  0  0  0
   -2.6877   21.3297  -16.0676 C   0  0  0  0  0  0  0  0  0  0  0  0
   -1.4255   20.9766  -16.1400 C   0  0  0  0  0  0  0  0  0  0  0  0
   -0.5064   21.3888  -17.1965 C   0  0  0  0  0  0  0  0  0  0  0  0
   -0.1001   20.1030  -17.9274 C   0  0  0  0  0  0  0  0  0  0  0  0
    2.6623   23.3451  -16.9113 C   0  0  0  0  0  0  0  0  0  0  0  0
    3.6742   24.1026  -17.6608 C   0  0  0  0  0  0  0  0  0  0  0  0
    4.5677   24.5855  -16.5158 C   0  0  0  0  0  0  0  0  0  0  0  0
    4.4666   23.5218  -15.4395 C   0  0  0  0  0  0  0  0  0  0  0  0
    5.7378   22.9654  -15.2705 O   0  0  0  0  0  0  0  0  0  0  0  0
    6.4103   23.4107  -15.8481 H   0  0  0  0  0  0  0  0  0  0  0  0
  2  1  1  0  0  0
  2  3  1  0  0  0
  3  4  1  0  0  0
  4  5  1  0  0  0
  5  6  1  0  0  0
  6  7  1  0  0  0
  7  8  1  0  0  0
  8  9  1  0  0  0
  9 10  2  0  0  0
 10 11  1  0  0  0
 11 12  2  0  0  0
 11 13  1  0  0  0
 13 14  2  0  0  0
 14 15  1  0  0  0
 15 16  1  0  0  0
  6 17  1  0  0  0
 17 18  1  0  0  0
 18 19  1  0  0  0
 19 20  1  0  0  0
 20 21  1  0  0  0
 17  2  1  0  0  0
 20  2  1  0  0  0
 15  5  1  0  0  0
 15  9  1  0  0  0
 21 22  1  0  0  0
M  END
> <minimizedAffinity>
-5.04892

> <CNNscore>
0.5998281240

> <CNNaffinity>
4.6323766708

> <CNN_VS>
2.7786297798

> <CNNaffinity_variance>
0.1408206075

$$$$
[H]O[C@@]1([H])C([H])([H])C([H])([H])[C@]2([H])[C@]1(C([H])([H])[H])C([H])([H])C([H])([H])[C@]1([H])[C@@]3(C([H])([H])[H])C([H])=C([H])C(=O)C([H])=C3C([H])([H])C([H])([H])[C@]12[H]


 22 25  0  0  0  0  0  0  0  0999 V2000
    3.8464   21.6485  -17.1962 C   0  0  0  0  0  0  0  0  0  0  0  0
    2.9198   22.8017  -17.0817 C   0  0  0  0  0  0  0  0  0  0  0  0
    3.4795   23.9699  -16.3040 C   0  0  0  0  0  0  0  0  0  0  0  0
    3.6428   23.4510  -14.8628 C   0  0  0  0  0  0  0  0  0  0  0  0
    2.3219   23.1155  -14.2736 C   0  0  0  0  0  0  0  0  0  0  0  0
    1.7235   21.9377  -15.0632 C   0  0  0  0  0  0  0  0  0  0  0  0
    0.4403   21.4417  -14.5168 C   0  0  0  0  0  0  0  0  0  0  0  0
    0.4662   21.1798  -13.0314 C   0  0  0  0  0  0  0  0  0  0  0  0
    1.0473   22.3839  -12.3228 C   0  0  0  0  0  0  0  0  0  0  0  0
    0.4105   22.9755  -11.3582 C   0  0  0  0  0  0  0  0  0  0  0  0
    0.9280   24.1407  -10.6451 C   0  0  0  0  0  0  0  0  0  0  0  0
    0.3013   24.7005   -9.7155 O   0  0  0  0  0  0  0  0  0  0  0  0
    2.2292   24.5986  -11.1011 C   0  0  0  0  0  0  0  0  0  0  0  0
    2.8616   23.9906  -12.0776 C   0  0  0  0  0  0  0  0  0  0  0  0
    2.3556   22.8258  -12.7973 C   0  0  0  0  0  0  0  0  0  0  0  0
    3.3364   21.6855  -12.4965 C   0  0  0  0  0  0  0  0  0  0  0  0
    1.5942   22.4709  -16.4364 C   0  0  0  0  0  0  0  0  0  0  0  0
    0.9213   21.6395  -17.4441 C   0  0  0  0  0  0  0  0  0  0  0  0
    1.1628   22.4752  -18.7034 C   0  0  0  0  0  0  0  0  0  0  0  0
    2.4782   23.1939  -18.4732 C   0  0  0  0  0  0  0  0  0  0  0  0
    3.3830   22.7452  -19.4397 O   0  0  0  0  0  0  0  0  0  0  0  0
    2.9578   22.1060  -20.0681 H   0  0  0  0  0  0  0  0  0  0  0  0
  2  1  1  0  0  0
  2  3  1  0  0  0
  3  4  1  0  0  0
  4  5  1  0  0  0
  5  6  1  0  0  0
  6  7  1  0  0  0
  7  8  1  0  0  0
  8  9  1  0  0  0
  9 10  2  0  0  0
 10 11  1  0  0  0
 11 12  2  0  0  0
 11 13  1  0  0  0
 13 14  2  0  0  0
 14 15  1  0  0  0
 15 16  1  0  0  0
  6 17  1  0  0  0
 17 18  1  0  0  0
 18 19  1  0  0  0
 19 20  1  0  0  0
 20 21  1  0  0  0
 17  2  1  0  0  0
 20  2  1  0  0  0
 15  5  1  0  0  0
 15  9  1  0  0  0
 21 22  1  0  0  0
M  END
> <minimizedAffinity>
-5.07517

> <CNNscore>
0.5179075003

> <CNNaffinity>
4.1746187210

> <CNN_VS>
2.1620664597

> <CNNaffinity_variance>
0.3139961362

$$$$
[H]O[C@@]1([H])C([H])([H])C([H])([H])[C@]2([H])[C@]1(C([H])([H])[H])C([H])([H])C([H])([H])[C@]1([H])[C@@]3(C([H])([H])[H])C([H])=C([H])C(=O)C([H])=C3C([H])([H])C([H])([H])[C@]12[H]


 22 25  0  0  0  0  0  0  0  0999 V2000
   -6.0660   23.7853  -27.0795 C   0  0  0  0  0  0  0  0  0  0  0  0
   -4.8759   24.6701  -27.1301 C   0  0  0  0  0  0  0  0  0  0  0  0
   -3.7294   24.1186  -27.9450 C   0  0  0  0  0  0  0  0  0  0  0  0
   -3.2582   22.8679  -27.1793 C   0  0  0  0  0  0  0  0  0  0  0  0
   -2.7189   23.2409  -25.8472 C   0  0  0  0  0  0  0  0  0  0  0  0
   -3.8676   23.8233  -25.0045 C   0  0  0  0  0  0  0  0  0  0  0  0
   -3.4820   24.1523  -23.6137 C   0  0  0  0  0  0  0  0  0  0  0  0
   -2.7556   23.0400  -22.8989 C   0  0  0  0  0  0  0  0  0  0  0  0
   -1.6330   22.5323  -23.7773 C   0  0  0  0  0  0  0  0  0  0  0  0
   -0.4092   22.4738  -23.3473 C   0  0  0  0  0  0  0  0  0  0  0  0
    0.7083   21.9936  -24.1564 C   0  0  0  0  0  0  0  0  0  0  0  0
    1.8842   21.9427  -23.7266 O   0  0  0  0  0  0  0  0  0  0  0  0
    0.3458   21.5793  -25.5009 C   0  0  0  0  0  0  0  0  0  0  0  0
   -0.8957   21.6441  -25.9223 C   0  0  0  0  0  0  0  0  0  0  0  0
   -2.0206   22.1212  -25.1237 C   0  0  0  0  0  0  0  0  0  0  0  0
   -2.9604   20.9203  -24.9592 C   0  0  0  0  0  0  0  0  0  0  0  0
   -4.2970   25.0094  -25.7764 C   0  0  0  0  0  0  0  0  0  0  0  0
   -5.3089   25.8949  -25.1837 C   0  0  0  0  0  0  0  0  0  0  0  0
   -5.5665   26.8480  -26.3533 C   0  0  0  0  0  0  0  0  0  0  0  0
   -5.3200   26.0336  -27.6086 C   0  0  0  0  0  0  0  0  0  0  0  0
   -6.5263   25.9585  -28.3108 O   0  0  0  0  0  0  0  0  0  0  0  0
   -7.2424   26.4781  -27.8618 H   0  0  0  0  0  0  0  0  0  0  0  0
  2  1  1  0  0  0
  2  3  1  0  0  0
  3  4  1  0  0  0
  4  5  1  0  0  0
  5  6  1  0  0  0
  6  7  1  0  0  0
  7  8  1  0  0  0
  8  9  1  0  0  0
  9 10  2  0  0  0
 10 11  1  0  0  0
 11 12  2  0  0  0
 11 13  1  0  0  0
 13 14  2  0  0  0
 14 15  1  0  0  0
 15 16  1  0  0  0
  6 17  1  0  0  0
 17 18  1  0  0  0
 18 19  1  0  0  0
 19 20  1  0  0  0
 20 21  1  0  0  0
 17  2  1  0  0  0
 20  2  1  0  0  0
 15  5  1  0  0  0
 15  9  1  0  0  0
 21 22  1  0  0  0
M  END
> <minimizedAffinity>
-8.45015

> <CNNscore>
0.5069328547

> <CNNaffinity>
6.3019657135

> <CNN_VS>
3.1946735382

> <CNNaffinity_variance>
0.3322697282

$$$$
[H]O[C@@]1([H])C([H])([H])C([H])([H])[C@]2([H])[C@]1(C([H])([H])[H])C([H])([H])C([H])([H])[C@]1([H])[C@@]3(C([H])([H])[H])C([H])=C([H])C(=O)C([H])=C3C([H])([H])C([H])([H])[C@]12[H]


 22 25  0  0  0  0  0  0  0  0999 V2000
   -3.0302   21.5513  -23.2993 C   0  0  0  0  0  0  0  0  0  0  0  0
   -2.3183   22.7946  -23.6852 C   0  0  0  0  0  0  0  0  0  0  0  0
   -3.1531   24.0481  -23.5643 C   0  0  0  0  0  0  0  0  0  0  0  0
   -4.2683   23.8903  -24.6151 C   0  0  0  0  0  0  0  0  0  0  0  0
   -3.6976   23.8657  -25.9855 C   0  0  0  0  0  0  0  0  0  0  0  0
   -2.8268   22.6044  -26.1259 C   0  0  0  0  0  0  0  0  0  0  0  0
   -2.2691   22.4105  -27.4833 C   0  0  0  0  0  0  0  0  0  0  0  0
   -3.2897   22.5265  -28.5882 C   0  0  0  0  0  0  0  0  0  0  0  0
   -4.0920   23.7948  -28.3949 C   0  0  0  0  0  0  0  0  0  0  0  0
   -4.2036   24.6772  -29.3408 C   0  0  0  0  0  0  0  0  0  0  0  0
   -4.9645   25.9166  -29.2025 C   0  0  0  0  0  0  0  0  0  0  0  0
   -5.0631   26.7584  -30.1254 O   0  0  0  0  0  0  0  0  0  0  0  0
   -5.5983   26.0943  -27.9074 C   0  0  0  0  0  0  0  0  0  0  0  0
   -5.4769   25.1937  -26.9601 C   0  0  0  0  0  0  0  0  0  0  0  0
   -4.7202   23.9518  -27.0862 C   0  0  0  0  0  0  0  0  0  0  0  0
   -5.7453   22.8183  -26.9559 C   0  0  0  0  0  0  0  0  0  0  0  0
   -1.7806   22.7891  -25.0971 C   0  0  0  0  0  0  0  0  0  0  0  0
   -0.6818   21.8150  -25.0410 C   0  0  0  0  0  0  0  0  0  0  0  0
    0.0371   22.2767  -23.7711 C   0  0  0  0  0  0  0  0  0  0  0  0
   -1.0383   22.8749  -22.8848 C   0  0  0  0  0  0  0  0  0  0  0  0
   -1.1140   22.0988  -21.7247 O   0  0  0  0  0  0  0  0  0  0  0  0
   -0.4345   21.3759  -21.7248 H   0  0  0  0  0  0  0  0  0  0  0  0
  2  1  1  0  0  0
  2  3  1  0  0  0
  3  4  1  0  0  0
  4  5  1  0  0  0
  5  6  1  0  0  0
  6  7  1  0  0  0
  7  8  1  0  0  0
  8  9  1  0  0  0
  9 10  2  0  0  0
 10 11  1  0  0  0
 11 12  2  0  0  0
 11 13  1  0  0  0
 13 14  2  0  0  0
 14 15  1  0  0  0
 15 16  1  0  0  0
  6 17  1  0  0  0
 17 18  1  0  0  0
 18 19  1  0  0  0
 19 20  1  0  0  0
 20 21  1  0  0  0
 17  2  1  0  0  0
 20  2  1  0  0  0
 15  5  1  0  0  0
 15  9  1  0  0  0
 21 22  1  0  0  0
M  END
> <minimizedAffinity>
-8.62494

> <CNNscore>
0.5017268658

> <CNNaffinity>
6.3019180298

> <CNN_VS>
3.1618416309

> <CNNaffinity_variance>
0.3437415063

$$$$
[H]O[C@@]1([H])C([H])([H])C([H])([H])[C@]2([H])[C@]1(C([H])([H])[H])C([H])([H])C([H])([H])[C@]1([H])[C@@]3(C([H])([H])[H])C([H])=C([H])C(=O)C([H])=C3C([H])([H])C([H])([H])[C@]12[H]


 22 25  0  0  0  0  0  0  0  0999 V2000
   -5.5792   23.3889  -29.3138 C   0  0  0  0  0  0  0  0  0  0  0  0
   -4.9293   24.4552  -28.5125 C   0  0  0  0  0  0  0  0  0  0  0  0
   -3.5048   24.7528  -28.9185 C   0  0  0  0  0  0  0  0  0  0  0  0
   -2.7166   23.4724  -28.5836 C   0  0  0  0  0  0  0  0  0  0  0  0
   -2.7196   23.2226  -27.1200 C   0  0  0  0  0  0  0  0  0  0  0  0
   -4.1661   22.9349  -26.6800 C   0  0  0  0  0  0  0  0  0  0  0  0
   -4.2963   22.5766  -25.2497 C   0  0  0  0  0  0  0  0  0  0  0  0
   -3.3368   21.5046  -24.7959 C   0  0  0  0  0  0  0  0  0  0  0  0
   -1.9378   21.8641  -25.2468 C   0  0  0  0  0  0  0  0  0  0  0  0
   -0.9499   21.9274  -24.4065 C   0  0  0  0  0  0  0  0  0  0  0  0
    0.4165   22.2713  -24.7920 C   0  0  0  0  0  0  0  0  0  0  0  0
    1.3596   22.3277  -23.9688 O   0  0  0  0  0  0  0  0  0  0  0  0
    0.5939   22.5430  -26.2081 C   0  0  0  0  0  0  0  0  0  0  0  0
   -0.4140   22.4754  -27.0463 C   0  0  0  0  0  0  0  0  0  0  0  0
   -1.7832   22.1324  -26.6737 C   0  0  0  0  0  0  0  0  0  0  0  0
   -2.1020   20.8202  -27.4011 C   0  0  0  0  0  0  0  0  0  0  0  0
   -4.8881   24.1778  -27.0278 C   0  0  0  0  0  0  0  0  0  0  0  0
   -6.2934   24.3030  -26.6172 C   0  0  0  0  0  0  0  0  0  0  0  0
   -6.6721   25.6138  -27.3107 C   0  0  0  0  0  0  0  0  0  0  0  0
   -5.8099   25.6833  -28.5563 C   0  0  0  0  0  0  0  0  0  0  0  0
   -6.6610   25.6599  -29.6649 O   0  0  0  0  0  0  0  0  0  0  0  0
   -7.6147   25.6467  -29.3919 H   0  0  0  0  0  0  0  0  0  0  0  0
  2  1  1  0  0  0
  2  3  1  0  0  0
  3  4  1  0  0  0
  4  5  1  0  0  0
  5  6  1  0  0  0
  6  7  1  0  0  0
  7  8  1  0  0  0
  8  9  1  0  0  0
  9 10  2  0  0  0
 10 11  1  0  0  0
 11 12  2  0  0  0
 11 13  1  0  0  0
 13 14  2  0  0  0
 14 15  1  0  0  0
 15 16  1  0  0  0
  6 17  1  0  0  0
 17 18  1  0  0  0
 18 19  1  0  0  0
 19 20  1  0  0  0
 20 21  1  0  0  0
 17  2  1  0  0  0
 20  2  1  0  0  0
 15  5  1  0  0  0
 15  9  1  0  0  0
 21 22  1  0  0  0
M  END
> <minimizedAffinity>
-8.68208

> <CNNscore>
0.4998569191

> <CNNaffinity>
6.3404068947

> <CNN_VS>
3.1692962646

> <CNNaffinity_variance>
0.2889308333

$$$$
[H]O[C@@]1([H])C([H])([H])C([H])([H])[C@]2([H])[C@]1(C([H])([H])[H])C([H])([H])C([H])([H])[C@]1([H])[C@@]3(C([H])([H])[H])C([H])=C([H])C(=O)C([H])=C3C([H])([H])C([H])([H])[C@]12[H]


 22 25  0  0  0  0  0  0  0  0999 V2000
   -7.0136   22.7150  -22.9060 C   0  0  0  0  0  0  0  0  0  0  0  0
   -6.3462   23.9559  -23.3710 C   0  0  0  0  0  0  0  0  0  0  0  0
   -6.2410   24.0758  -24.8735 C   0  0  0  0  0  0  0  0  0  0  0  0
   -5.2970   22.9364  -25.3017 C   0  0  0  0  0  0  0  0  0  0  0  0
   -3.9375   23.1437  -24.7421 C   0  0  0  0  0  0  0  0  0  0  0  0
   -4.0236   23.0441  -23.2087 C   0  0  0  0  0  0  0  0  0  0  0  0
   -2.7126   23.1416  -22.5283 C   0  0  0  0  0  0  0  0  0  0  0  0
   -1.6546   22.2320  -23.1018 C   0  0  0  0  0  0  0  0  0  0  0  0
   -1.6157   22.3980  -24.6053 C   0  0  0  0  0  0  0  0  0  0  0  0
   -0.5129   22.6861  -25.2272 C   0  0  0  0  0  0  0  0  0  0  0  0
   -0.4244   22.8581  -26.6752 C   0  0  0  0  0  0  0  0  0  0  0  0
    0.6480   23.1357  -27.2610 O   0  0  0  0  0  0  0  0  0  0  0  0
   -1.6813   22.6811  -27.3820 C   0  0  0  0  0  0  0  0  0  0  0  0
   -2.7887   22.3900  -26.7401 C   0  0  0  0  0  0  0  0  0  0  0  0
   -2.8899   22.2151  -25.2944 C   0  0  0  0  0  0  0  0  0  0  0  0
   -3.2988   20.7533  -25.0741 C   0  0  0  0  0  0  0  0  0  0  0  0
   -4.9436   24.1420  -22.8411 C   0  0  0  0  0  0  0  0  0  0  0  0
   -5.1518   24.4256  -21.4143 C   0  0  0  0  0  0  0  0  0  0  0  0
   -6.2644   25.4734  -21.4965 C   0  0  0  0  0  0  0  0  0  0  0  0
   -7.0542   25.1365  -22.7465 C   0  0  0  0  0  0  0  0  0  0  0  0
   -8.3525   24.8010  -22.3521 O   0  0  0  0  0  0  0  0  0  0  0  0
   -8.4723   24.8982  -21.3720 H   0  0  0  0  0  0  0  0  0  0  0  0
  2  1  1  0  0  0
  2  3  1  0  0  0
  3  4  1  0  0  0
  4  5  1  0  0  0
  5  6  1  0  0  0
  6  7  1  0  0  0
  7  8  1  0  0  0
  8  9  1  0  0  0
  9 10  2  0  0  0
 10 11  1  0  0  0
 11 12  2  0  0  0
 11 13  1  0  0  0
 13 14  2  0  0  0
 14 15  1  0  0  0
 15 16  1  0  0  0
  6 17  1  0  0  0
 17 18  1  0  0  0
 18 19  1  0  0  0
 19 20  1  0  0  0
 20 21  1  0  0  0
 17  2  1  0  0  0
 20  2  1  0  0  0
 15  5  1  0  0  0
 15  9  1  0  0  0
 21 22  1  0  0  0
M  END
> <minimizedAffinity>
-7.92194

> <CNNscore>
0.4890736341

> <CNNaffinity>
5.9505338669

> <CNN_VS>
2.9102492332

> <CNNaffinity_variance>
0.3352546692

$$$$
[H]O[C@@]1([H])C([H])([H])C([H])([H])[C@]2([H])[C@]1(C([H])([H])[H])C([H])([H])C([H])([H])[C@]1([H])[C@@]3(C([H])([H])[H])C([H])=C([H])C(=O)C([H])=C3C([H])([H])C([H])([H])[C@]12[H]


 22 25  0  0  0  0  0  0  0  0999 V2000
    4.1450   20.8979  -15.4981 C   0  0  0  0  0  0  0  0  0  0  0  0
    3.8381   22.2905  -15.9083 C   0  0  0  0  0  0  0  0  0  0  0  0
    2.5158   22.8096  -15.3937 C   0  0  0  0  0  0  0  0  0  0  0  0
    1.4473   21.9483  -16.0931 C   0  0  0  0  0  0  0  0  0  0  0  0
    1.4725   22.1711  -17.5608 C   0  0  0  0  0  0  0  0  0  0  0  0
    2.8205   21.6656  -18.1050 C   0  0  0  0  0  0  0  0  0  0  0  0
    2.9387   21.7457  -19.5784 C   0  0  0  0  0  0  0  0  0  0  0  0
    1.7652   21.1564  -20.3210 C   0  0  0  0  0  0  0  0  0  0  0  0
    0.4808   21.7117  -19.7450 C   0  0  0  0  0  0  0  0  0  0  0  0
   -0.4067   22.2874  -20.4980 C   0  0  0  0  0  0  0  0  0  0  0  0
   -1.6598   22.8401  -19.9899 C   0  0  0  0  0  0  0  0  0  0  0  0
   -2.5069   23.3925  -20.7299 O   0  0  0  0  0  0  0  0  0  0  0  0
   -1.8449   22.6976  -18.5560 C   0  0  0  0  0  0  0  0  0  0  0  0
   -0.9390   22.1133  -17.8069 C   0  0  0  0  0  0  0  0  0  0  0  0
    0.3162   21.5568  -18.3025 C   0  0  0  0  0  0  0  0  0  0  0  0
    0.2450   20.0488  -18.0314 C   0  0  0  0  0  0  0  0  0  0  0  0
    3.8147   22.5060  -17.4035 C   0  0  0  0  0  0  0  0  0  0  0  0
    5.2270   22.3799  -17.7895 C   0  0  0  0  0  0  0  0  0  0  0  0
    5.8871   23.2654  -16.7298 C   0  0  0  0  0  0  0  0  0  0  0  0
    4.9995   23.1697  -15.5039 C   0  0  0  0  0  0  0  0  0  0  0  0
    5.7495   22.5834  -14.4803 O   0  0  0  0  0  0  0  0  0  0  0  0
    6.6824   22.4063  -14.7676 H   0  0  0  0  0  0  0  0  0  0  0  0
  2  1  1  0  0  0
  2  3  1  0  0  0
  3  4  1  0  0  0
  4  5  1  0  0  0
  5  6  1  0  0  0
  6  7  1  0  0  0
  7  8  1  0  0  0
  8  9  1  0  0  0
  9 10  2  0  0  0
 10 11  1  0  0  0
 11 12  2  0  0  0
 11 13  1  0  0  0
 13 14  2  0  0  0
 14 15  1  0  0  0
 15 16  1  0  0  0
  6 17  1  0  0  0
 17 18  1  0  0  0
 18 19  1  0  0  0
 19 20  1  0  0  0
 20 21  1  0  0  0
 17  2  1  0  0  0
 20  2  1  0  0  0
 15  5  1  0  0  0
 15  9  1  0  0  0
 21 22  1  0  0  0
M  END
> <minimizedAffinity>
-4.89825

> <CNNscore>
0.3551090360

> <CNNaffinity>
4.4719634056

> <CNN_VS>
1.5880346298

> <CNNaffinity_variance>
0.1106209308

$$$$
[H]O[C@@]1([H])C([H])([H])C([H])([H])[C@]2([H])[C@]1(C([H])([H])[H])C([H])([H])C([H])([H])[C@]1([H])[C@@]3(C([H])([H])[H])C([H])=C([H])C(=O)C([H])=C3C([H])([H])C([H])([H])[C@]12[H]


 22 25  0  0  0  0  0  0  0  0999 V2000
   -4.5044   25.2400  -26.9707 C   0  0  0  0  0  0  0  0  0  0  0  0
   -4.6864   23.7695  -26.8931 C   0  0  0  0  0  0  0  0  0  0  0  0
   -5.2850   23.2882  -25.5921 C   0  0  0  0  0  0  0  0  0  0  0  0
   -4.2271   23.6114  -24.5200 C   0  0  0  0  0  0  0  0  0  0  0  0
   -2.9866   22.8303  -24.7554 C   0  0  0  0  0  0  0  0  0  0  0  0
   -2.3683   23.2917  -26.0872 C   0  0  0  0  0  0  0  0  0  0  0  0
   -1.0695   22.6525  -26.3970 C   0  0  0  0  0  0  0  0  0  0  0  0
   -0.0779   22.6957  -25.2609 C   0  0  0  0  0  0  0  0  0  0  0  0
   -0.7496   22.2124  -23.9941 C   0  0  0  0  0  0  0  0  0  0  0  0
   -0.2467   21.2472  -23.2859 C   0  0  0  0  0  0  0  0  0  0  0  0
   -0.8577   20.7443  -22.0580 C   0  0  0  0  0  0  0  0  0  0  0  0
   -0.3596   19.8119  -21.3851 O   0  0  0  0  0  0  0  0  0  0  0  0
   -2.0906   21.4132  -21.6794 C   0  0  0  0  0  0  0  0  0  0  0  0
   -2.5875   22.3877  -22.4051 C   0  0  0  0  0  0  0  0  0  0  0  0
   -1.9865   22.8993  -23.6331 C   0  0  0  0  0  0  0  0  0  0  0  0
   -1.6068   24.3564  -23.3414 C   0  0  0  0  0  0  0  0  0  0  0  0
   -3.4148   22.9760  -27.0832 C   0  0  0  0  0  0  0  0  0  0  0  0
   -3.1008   23.1686  -28.5057 C   0  0  0  0  0  0  0  0  0  0  0  0
   -4.4704   22.8998  -29.1338 C   0  0  0  0  0  0  0  0  0  0  0  0
   -5.4894   23.3280  -28.0954 C   0  0  0  0  0  0  0  0  0  0  0  0
   -6.2252   24.3879  -28.6332 O   0  0  0  0  0  0  0  0  0  0  0  0
   -5.9497   24.5869  -29.5653 H   0  0  0  0  0  0  0  0  0  0  0  0
  2  1  1  0  0  0
  2  3  1  0  0  0
  3  4  1  0  0  0
  4  5  1  0  0  0
  5  6  1  0  0  0
  6  7  1  0  0  0
  7  8  1  0  0  0
  8  9  1  0  0  0
  9 10  2  0  0  0
 10 11  1  0  0  0
 11 12  2  0  0  0
 11 13  1  0  0  0
 13 14  2  0  0  0
 14 15  1  0  0  0
 15 16  1  0  0  0
  6 17  1  0  0  0
 17 18  1  0  0  0
 18 19  1  0  0  0
 19 20  1  0  0  0
 20 21  1  0  0  0
 17  2  1  0  0  0
 20  2  1  0  0  0
 15  5  1  0  0  0
 15  9  1  0  0  0
 21 22  1  0  0  0
M  END
> <minimizedAffinity>
-8.13831

> <CNNscore>
0.3492195904

> <CNNaffinity>
6.1220350266

> <CNN_VS>
2.1379344463

> <CNNaffinity_variance>
0.3511126935

$$$$
[H]OC([H])([H])[C@@]1([H])[C@]([H])(OP(=O)(O[H])O[H])N([H])C([H])([H])[C@]([H])(O[H])[C@@]([H])(O[H])[C@]1([H])O[H]


 24 24  0  0  0  0  0  0  0  0999 V2000
   -5.3281   25.0520  -23.1339 C   0  0  0  0  0  0  0  0  0  0  0  0
   -4.6463   24.1694  -24.1371 C   0  0  0  0  0  0  0  0  0  0  0  0
   -4.8379   24.7496  -25.3993 O   0  0  0  0  0  0  0  0  0  0  0  0
   -3.1791   24.0120  -23.9545 C   0  0  0  0  0  0  0  0  0  0  0  0
   -2.6956   23.3420  -25.0883 O   0  0  0  0  0  0  0  0  0  0  0  0
   -2.7355   23.2630  -22.7537 C   0  0  0  0  0  0  0  0  0  0  0  0
   -1.4672   23.6810  -22.3456 O   0  0  0  0  0  0  0  0  0  0  0  0
   -3.6407   23.3949  -21.5616 C   0  0  0  0  0  0  0  0  0  0  0  0
   -4.9629   23.0226  -21.9466 N   0  0  0  0  0  0  0  0  0  0  0  0
   -5.7557   24.2628  -21.9128 C   0  0  0  0  0  0  0  0  0  0  0  0
   -4.1161   25.4526  -25.4726 H   0  0  0  0  0  0  0  0  0  0  0  0
   -3.1690   22.4585  -25.0859 H   0  0  0  0  0  0  0  0  0  0  0  0
   -1.2860   23.2988  -21.4430 H   0  0  0  0  0  0  0  0  0  0  0  0
   -5.3963   22.2865  -21.3620 H   0  0  0  0  0  0  0  0  0  0  0  0
   -7.2815   26.4668  -22.9252 O   0  0  0  0  0  0  0  0  0  0  0  0
   -6.5973   25.6062  -23.7644 C   0  0  0  0  0  0  0  0  0  0  0  0
   -6.7542   27.2810  -22.7150 H   0  0  0  0  0  0  0  0  0  0  0  0
   -5.4219   25.0217  -20.7964 O   0  0  0  0  0  0  0  0  0  0  0  0
   -6.5621   24.9953  -19.5828 P   0  0  0  0  0  0  0  0  0  0  0  0
   -7.8774   26.0152  -19.8780 O   0  0  0  0  0  0  0  0  0  0  0  0
   -7.1482   23.3904  -19.4740 O   0  0  0  0  0  0  0  0  0  0  0  0
   -5.9872   25.3123  -18.2144 O   0  0  0  0  0  0  0  0  0  0  0  0
   -8.4659   25.5798  -20.5485 H   0  0  0  0  0  0  0  0  0  0  0  0
   -7.7517   23.2806  -18.6988 H   0  0  0  0  0  0  0  0  0  0  0  0
 15 16  1  0  0  0
 16  1  1  0  0  0
  1  2  1  0  0  0
  2  3  1  0  0  0
  2  4  1  0  0  0
  4  5  1  0  0  0
  4  6  1  0  0  0
  6  7  1  0  0  0
  6  8  1  0  0  0
  8  9  1  0  0  0
  9 10  1  0  0  0
 10 18  1  0  0  0
 18 19  1  0  0  0
 19 20  1  0  0  0
 19 21  1  0  0  0
 19 22  2  0  0  0
 10  1  1  0  0  0
 15 17  1  0  0  0
  3 11  1  0  0  0
  5 12  1  0  0  0
  7 13  1  0  0  0
  9 14  1  0  0  0
 20 23  1  0  0  0
 21 24  1  0  0  0
M  END
> <minimizedAffinity>
-5.43243

> <CNNscore>
0.3870625198

> <CNNaffinity>
3.8161673546

> <CNN_VS>
1.4770953655

> <CNNaffinity_variance>
0.1284303665

$$$$
[H]OC([H])([H])[C@@]1([H])[C@]([H])(OP(=O)(O[H])O[H])N([H])C([H])([H])[C@]([H])(O[H])[C@@]([H])(O[H])[C@]1([H])O[H]


 24 24  0  0  0  0  0  0  0  0999 V2000
   -5.6843   25.2988  -25.4849 C   0  0  0  0  0  0  0  0  0  0  0  0
   -5.8305   25.9714  -26.8179 C   0  0  0  0  0  0  0  0  0  0  0  0
   -5.2891   27.2591  -26.6952 O   0  0  0  0  0  0  0  0  0  0  0  0
   -5.1206   25.3121  -27.9457 C   0  0  0  0  0  0  0  0  0  0  0  0
   -5.1946   26.1850  -29.0414 O   0  0  0  0  0  0  0  0  0  0  0  0
   -5.6384   23.9903  -28.3750 C   0  0  0  0  0  0  0  0  0  0  0  0
   -4.6231   23.2169  -28.9414 O   0  0  0  0  0  0  0  0  0  0  0  0
   -6.2487   23.1679  -27.2754 C   0  0  0  0  0  0  0  0  0  0  0  0
   -7.2630   23.9396  -26.6346 N   0  0  0  0  0  0  0  0  0  0  0  0
   -6.7496   24.2391  -25.2876 C   0  0  0  0  0  0  0  0  0  0  0  0
   -4.2951   27.1349  -26.8259 H   0  0  0  0  0  0  0  0  0  0  0  0
   -6.1750   26.2846  -29.2247 H   0  0  0  0  0  0  0  0  0  0  0  0
   -4.9583   22.2835  -29.0420 H   0  0  0  0  0  0  0  0  0  0  0  0
   -8.1920   23.4856  -26.5876 H   0  0  0  0  0  0  0  0  0  0  0  0
   -7.2287   26.6373  -24.1872 O   0  0  0  0  0  0  0  0  0  0  0  0
   -5.8941   26.3399  -24.3950 C   0  0  0  0  0  0  0  0  0  0  0  0
   -7.7392   25.8524  -23.8575 H   0  0  0  0  0  0  0  0  0  0  0  0
   -6.1216   23.1217  -24.7482 O   0  0  0  0  0  0  0  0  0  0  0  0
   -6.4125   22.8877  -23.1252 P   0  0  0  0  0  0  0  0  0  0  0  0
   -5.0797   23.2440  -22.1484 O   0  0  0  0  0  0  0  0  0  0  0  0
   -7.6907   23.9377  -22.6837 O   0  0  0  0  0  0  0  0  0  0  0  0
   -6.9043   21.4890  -22.8009 O   0  0  0  0  0  0  0  0  0  0  0  0
   -5.0026   24.2309  -22.0731 H   0  0  0  0  0  0  0  0  0  0  0  0
   -7.9869   23.7717  -21.7553 H   0  0  0  0  0  0  0  0  0  0  0  0
 15 16  1  0  0  0
 16  1  1  0  0  0
  1  2  1  0  0  0
  2  3  1  0  0  0
  2  4  1  0  0  0
  4  5  1  0  0  0
  4  6  1  0  0  0
  6  7  1  0  0  0
  6  8  1  0  0  0
  8  9  1  0  0  0
  9 10  1  0  0  0
 10 18  1  0  0  0
 18 19  1  0  0  0
 19 20  1  0  0  0
 19 21  1  0  0  0
 19 22  2  0  0  0
 10  1  1  0  0  0
 15 17  1  0  0  0
  3 11  1  0  0  0
  5 12  1  0  0  0
  7 13  1  0  0  0
  9 14  1  0  0  0
 20 23  1  0  0  0
 21 24  1  0  0  0
M  END
> <minimizedAffinity>
-5.36211

> <CNNscore>
0.3866555393

> <CNNaffinity>
3.7999279499

> <CNN_VS>
1.4692631960

> <CNNaffinity_variance>
0.2067274153

$$$$
[H]OC([H])([H])[C@@]1([H])[C@]([H])(OP(=O)(O[H])O[H])N([H])C([H])([H])[C@]([H])(O[H])[C@@]([H])(O[H])[C@]1([H])O[H]


 24 24  0  0  0  0  0  0  0  0999 V2000
   -3.5837   22.2122  -25.4759 C   0  0  0  0  0  0  0  0  0  0  0  0
   -3.1329   23.1431  -26.5626 C   0  0  0  0  0  0  0  0  0  0  0  0
   -1.9086   22.6577  -27.0441 O   0  0  0  0  0  0  0  0  0  0  0  0
   -4.0447   23.2460  -27.7325 C   0  0  0  0  0  0  0  0  0  0  0  0
   -3.3656   23.9795  -28.7168 O   0  0  0  0  0  0  0  0  0  0  0  0
   -5.3565   23.8968  -27.4973 C   0  0  0  0  0  0  0  0  0  0  0  0
   -6.3186   23.4160  -28.3878 O   0  0  0  0  0  0  0  0  0  0  0  0
   -5.9121   23.7078  -26.1140 C   0  0  0  0  0  0  0  0  0  0  0  0
   -4.9392   24.1430  -25.1658 N   0  0  0  0  0  0  0  0  0  0  0  0
   -4.4745   22.9262  -24.4793 C   0  0  0  0  0  0  0  0  0  0  0  0
   -2.1591   21.9415  -27.7112 H   0  0  0  0  0  0  0  0  0  0  0  0
   -3.1934   24.8736  -28.2978 H   0  0  0  0  0  0  0  0  0  0  0  0
   -7.2141   23.7292  -28.0818 H   0  0  0  0  0  0  0  0  0  0  0  0
   -5.2764   24.8485  -24.4876 H   0  0  0  0  0  0  0  0  0  0  0  0
   -2.6433   21.4009  -23.3979 O   0  0  0  0  0  0  0  0  0  0  0  0
   -2.3579   21.7392  -24.7082 C   0  0  0  0  0  0  0  0  0  0  0  0
   -3.2645   20.6291  -23.3383 H   0  0  0  0  0  0  0  0  0  0  0  0
   -5.5463   22.0824  -24.2090 O   0  0  0  0  0  0  0  0  0  0  0  0
   -6.1124   22.1713  -22.6453 P   0  0  0  0  0  0  0  0  0  0  0  0
   -4.9637   21.7177  -21.4910 O   0  0  0  0  0  0  0  0  0  0  0  0
   -6.5421   23.8029  -22.3547 O   0  0  0  0  0  0  0  0  0  0  0  0
   -7.3819   21.3701  -22.4219 O   0  0  0  0  0  0  0  0  0  0  0  0
   -4.3176   22.4638  -21.3834 H   0  0  0  0  0  0  0  0  0  0  0  0
   -6.9877   23.9059  -21.4783 H   0  0  0  0  0  0  0  0  0  0  0  0
 15 16  1  0  0  0
 16  1  1  0  0  0
  1  2  1  0  0  0
  2  3  1  0  0  0
  2  4  1  0  0  0
  4  5  1  0  0  0
  4  6  1  0  0  0
  6  7  1  0  0  0
  6  8  1  0  0  0
  8  9  1  0  0  0
  9 10  1  0  0  0
 10 18  1  0  0  0
 18 19  1  0  0  0
 19 20  1  0  0  0
 19 21  1  0  0  0
 19 22  2  0  0  0
 10  1  1  0  0  0
 15 17  1  0  0  0
  3 11  1  0  0  0
  5 12  1  0  0  0
  7 13  1  0  0  0
  9 14  1  0  0  0
 20 23  1  0  0  0
 21 24  1  0  0  0
M  END
> <minimizedAffinity>
-5.29213

> <CNNscore>
0.3522347808

> <CNNaffinity>
3.6980452538

> <CNN_VS>
1.3025801182

> <CNNaffinity_variance>
0.1465475708

$$$$
[H]OC([H])([H])[C@@]1([H])[C@]([H])(OP(=O)(O[H])O[H])N([H])C([H])([H])[C@]([H])(O[H])[C@@]([H])(O[H])[C@]1([H])O[H]


 24 24  0  0  0  0  0  0  0  0999 V2000
   -4.1651   22.1178  -24.9889 C   0  0  0  0  0  0  0  0  0  0  0  0
   -3.4551   22.8671  -26.0775 C   0  0  0  0  0  0  0  0  0  0  0  0
   -2.2875   22.1521  -26.3807 O   0  0  0  0  0  0  0  0  0  0  0  0
   -4.2121   23.0133  -27.3489 C   0  0  0  0  0  0  0  0  0  0  0  0
   -3.3220   23.5407  -28.2963 O   0  0  0  0  0  0  0  0  0  0  0  0
   -5.4124   23.8837  -27.3112 C   0  0  0  0  0  0  0  0  0  0  0  0
   -6.3457   23.4880  -28.2715 O   0  0  0  0  0  0  0  0  0  0  0  0
   -6.1303   23.9063  -25.9913 C   0  0  0  0  0  0  0  0  0  0  0  0
   -5.2000   24.2603  -24.9694 N   0  0  0  0  0  0  0  0  0  0  0  0
   -5.0199   23.0487  -24.1525 C   0  0  0  0  0  0  0  0  0  0  0  0
   -2.5857   21.4304  -27.0217 H   0  0  0  0  0  0  0  0  0  0  0  0
   -3.0452   24.4285  -27.9224 H   0  0  0  0  0  0  0  0  0  0  0  0
   -7.2021   23.9659  -28.0927 H   0  0  0  0  0  0  0  0  0  0  0  0
   -5.4809   25.0666  -24.3843 H   0  0  0  0  0  0  0  0  0  0  0  0
   -3.6618   21.0752  -22.8627 O   0  0  0  0  0  0  0  0  0  0  0  0
   -3.1216   21.5226  -24.0548 C   0  0  0  0  0  0  0  0  0  0  0  0
   -4.3012   20.3285  -22.9996 H   0  0  0  0  0  0  0  0  0  0  0  0
   -6.2405   22.4139  -23.9503 O   0  0  0  0  0  0  0  0  0  0  0  0
   -6.8730   22.6134  -22.4227 P   0  0  0  0  0  0  0  0  0  0  0  0
   -7.8026   21.2994  -21.9065 O   0  0  0  0  0  0  0  0  0  0  0  0
   -5.5524   22.7854  -21.3468 O   0  0  0  0  0  0  0  0  0  0  0  0
   -7.6877   23.8852  -22.2736 O   0  0  0  0  0  0  0  0  0  0  0  0
   -7.1875   20.5663  -21.6419 H   0  0  0  0  0  0  0  0  0  0  0  0
   -5.8595   23.0158  -20.4358 H   0  0  0  0  0  0  0  0  0  0  0  0
 15 16  1  0  0  0
 16  1  1  0  0  0
  1  2  1  0  0  0
  2  3  1  0  0  0
  2  4  1  0  0  0
  4  5  1  0  0  0
  4  6  1  0  0  0
  6  7  1  0  0  0
  6  8  1  0  0  0
  8  9  1  0  0  0
  9 10  1  0  0  0
 10 18  1  0  0  0
 18 19  1  0  0  0
 19 20  1  0  0  0
 19 21  1  0  0  0
 19 22  2  0  0  0
 10  1  1  0  0  0
 15 17  1  0  0  0
  3 11  1  0  0  0
  5 12  1  0  0  0
  7 13  1  0  0  0
  9 14  1  0  0  0
 20 23  1  0  0  0
 21 24  1  0  0  0
M  END
> <minimizedAffinity>
-5.38997

> <CNNscore>
0.3468285799

> <CNNaffinity>
3.7044644356

> <CNN_VS>
1.2848141193

> <CNNaffinity_variance>
0.1745813489

$$$$
[H]OC([H])([H])[C@@]1([H])[C@]([H])(OP(=O)(O[H])O[H])N([H])C([H])([H])[C@]([H])(O[H])[C@@]([H])(O[H])[C@]1([H])O[H]


 24 24  0  0  0  0  0  0  0  0999 V2000
   -4.3944   23.5023  -25.6015 C   0  0  0  0  0  0  0  0  0  0  0  0
   -4.7218   24.3801  -26.7732 C   0  0  0  0  0  0  0  0  0  0  0  0
   -4.1128   23.8118  -27.9012 O   0  0  0  0  0  0  0  0  0  0  0  0
   -6.1694   24.5113  -27.0863 C   0  0  0  0  0  0  0  0  0  0  0  0
   -6.2626   25.1808  -28.3156 O   0  0  0  0  0  0  0  0  0  0  0  0
   -6.9989   25.2445  -26.0994 C   0  0  0  0  0  0  0  0  0  0  0  0
   -8.3229   24.8023  -26.1343 O   0  0  0  0  0  0  0  0  0  0  0  0
   -6.5368   25.1199  -24.6750 C   0  0  0  0  0  0  0  0  0  0  0  0
   -5.1687   25.5172  -24.6004 N   0  0  0  0  0  0  0  0  0  0  0  0
   -4.4093   24.2904  -24.3071 C   0  0  0  0  0  0  0  0  0  0  0  0
   -4.7568   23.0971  -28.2099 H   0  0  0  0  0  0  0  0  0  0  0  0
   -5.8329   26.0721  -28.1560 H   0  0  0  0  0  0  0  0  0  0  0  0
   -8.7995   25.1754  -25.3422 H   0  0  0  0  0  0  0  0  0  0  0  0
   -4.9666   26.2565  -23.9047 H   0  0  0  0  0  0  0  0  0  0  0  0
   -2.2552   22.9754  -24.5978 O   0  0  0  0  0  0  0  0  0  0  0  0
   -2.9781   22.9740  -25.7770 C   0  0  0  0  0  0  0  0  0  0  0  0
   -2.6463   22.3654  -23.9195 H   0  0  0  0  0  0  0  0  0  0  0  0
   -5.0798   23.5184  -23.3647 O   0  0  0  0  0  0  0  0  0  0  0  0
   -4.5352   23.7154  -21.8033 P   0  0  0  0  0  0  0  0  0  0  0  0
   -4.6946   22.3230  -20.8582 O   0  0  0  0  0  0  0  0  0  0  0  0
   -2.8713   24.1086  -21.8936 O   0  0  0  0  0  0  0  0  0  0  0  0
   -5.1901   24.8800  -21.0834 O   0  0  0  0  0  0  0  0  0  0  0  0
   -3.9750   21.6884  -21.1131 H   0  0  0  0  0  0  0  0  0  0  0  0
   -2.5098   24.3454  -21.0045 H   0  0  0  0  0  0  0  0  0  0  0  0
 15 16  1  0  0  0
 16  1  1  0  0  0
  1  2  1  0  0  0
  2  3  1  0  0  0
  2  4  1  0  0  0
  4  5  1  0  0  0
  4  6  1  0  0  0
  6  7  1  0  0  0
  6  8  1  0  0  0
  8  9  1  0  0  0
  9 10  1  0  0  0
 10 18  1  0  0  0
 18 19  1  0  0  0
 19 20  1  0  0  0
 19 21  1  0  0  0
 19 22  2  0  0  0
 10  1  1  0  0  0
 15 17  1  0  0  0
  3 11  1  0  0  0
  5 12  1  0  0  0
  7 13  1  0  0  0
  9 14  1  0  0  0
 20 23  1  0  0  0
 21 24  1  0  0  0
M  END
> <minimizedAffinity>
-5.48083

> <CNNscore>
0.3437474072

> <CNNaffinity>
4.0099153519

> <CNN_VS>
1.3783980608

> <CNNaffinity_variance>
0.3096067309

$$$$
[H]OC([H])([H])[C@@]1([H])[C@]([H])(OP(=O)(O[H])O[H])N([H])C([H])([H])[C@]([H])(O[H])[C@@]([H])(O[H])[C@]1([H])O[H]


 24 24  0  0  0  0  0  0  0  0999 V2000
   -5.8142   24.6262  -23.0854 C   0  0  0  0  0  0  0  0  0  0  0  0
   -4.9594   24.9357  -24.2787 C   0  0  0  0  0  0  0  0  0  0  0  0
   -3.6523   24.5329  -23.9693 O   0  0  0  0  0  0  0  0  0  0  0  0
   -5.3394   24.2351  -25.5338 C   0  0  0  0  0  0  0  0  0  0  0  0
   -4.3177   24.4791  -26.4636 O   0  0  0  0  0  0  0  0  0  0  0  0
   -6.6280   24.6314  -26.1521 C   0  0  0  0  0  0  0  0  0  0  0  0
   -7.1730   23.5774  -26.8882 O   0  0  0  0  0  0  0  0  0  0  0  0
   -7.6832   25.0713  -25.1768 C   0  0  0  0  0  0  0  0  0  0  0  0
   -7.1515   26.1191  -24.3678 N   0  0  0  0  0  0  0  0  0  0  0  0
   -7.0120   25.5520  -23.0162 C   0  0  0  0  0  0  0  0  0  0  0  0
   -3.6336   23.5423  -24.1669 H   0  0  0  0  0  0  0  0  0  0  0  0
   -4.3085   25.4746  -26.5799 H   0  0  0  0  0  0  0  0  0  0  0  0
   -8.1117   23.8135  -27.1268 H   0  0  0  0  0  0  0  0  0  0  0  0
   -7.7155   26.9869  -24.3521 H   0  0  0  0  0  0  0  0  0  0  0  0
   -5.6546   25.6653  -20.9046 O   0  0  0  0  0  0  0  0  0  0  0  0
   -4.9939   24.8756  -21.8281 C   0  0  0  0  0  0  0  0  0  0  0  0
   -6.4769   25.2287  -20.5604 H   0  0  0  0  0  0  0  0  0  0  0  0
   -8.1177   24.7694  -22.7020 O   0  0  0  0  0  0  0  0  0  0  0  0
   -9.2650   25.5430  -21.7753 P   0  0  0  0  0  0  0  0  0  0  0  0
   -8.6419   26.1950  -20.3456 O   0  0  0  0  0  0  0  0  0  0  0  0
   -9.8928   26.8282  -22.7161 O   0  0  0  0  0  0  0  0  0  0  0  0
  -10.4561   24.6640  -21.4406 O   0  0  0  0  0  0  0  0  0  0  0  0
   -8.1485   27.0267  -20.5706 H   0  0  0  0  0  0  0  0  0  0  0  0
  -10.6571   27.2633  -22.2646 H   0  0  0  0  0  0  0  0  0  0  0  0
 15 16  1  0  0  0
 16  1  1  0  0  0
  1  2  1  0  0  0
  2  3  1  0  0  0
  2  4  1  0  0  0
  4  5  1  0  0  0
  4  6  1  0  0  0
  6  7  1  0  0  0
  6  8  1  0  0  0
  8  9  1  0  0  0
  9 10  1  0  0  0
 10 18  1  0  0  0
 18 19  1  0  0  0
 19 20  1  0  0  0
 19 21  1  0  0  0
 19 22  2  0  0  0
 10  1  1  0  0  0
 15 17  1  0  0  0
  3 11  1  0  0  0
  5 12  1  0  0  0
  7 13  1  0  0  0
  9 14  1  0  0  0
 20 23  1  0  0  0
 21 24  1  0  0  0
M  END
> <minimizedAffinity>
-5.73174

> <CNNscore>
0.3332682550

> <CNNaffinity>
3.9301075935

> <CNN_VS>
1.3097801208

> <CNNaffinity_variance>
0.3797852099

$$$$
[H]OC([H])([H])[C@@]1([H])[C@]([H])(OP(=O)(O[H])O[H])N([H])C([H])([H])[C@]([H])(O[H])[C@@]([H])(O[H])[C@]1([H])O[H]


 24 24  0  0  0  0  0  0  0  0999 V2000
   -1.9196   21.7705  -24.1004 C   0  0  0  0  0  0  0  0  0  0  0  0
   -1.3281   22.5378  -25.2457 C   0  0  0  0  0  0  0  0  0  0  0  0
   -0.1057   21.9299  -25.5660 O   0  0  0  0  0  0  0  0  0  0  0  0
   -2.1407   22.5516  -26.4908 C   0  0  0  0  0  0  0  0  0  0  0  0
   -1.3427   23.1226  -27.4934 O   0  0  0  0  0  0  0  0  0  0  0  0
   -3.4208   23.2991  -26.4406 C   0  0  0  0  0  0  0  0  0  0  0  0
   -4.3428   22.7704  -27.3463 O   0  0  0  0  0  0  0  0  0  0  0  0
   -4.0899   23.3085  -25.0952 C   0  0  0  0  0  0  0  0  0  0  0  0
   -3.1644   23.7981  -24.1263 N   0  0  0  0  0  0  0  0  0  0  0  0
   -2.8338   22.6478  -23.2689 C   0  0  0  0  0  0  0  0  0  0  0  0
   -0.3520   21.1544  -26.1649 H   0  0  0  0  0  0  0  0  0  0  0  0
   -1.1440   24.0492  -27.1670 H   0  0  0  0  0  0  0  0  0  0  0  0
   -5.2361   23.1682  -27.1530 H   0  0  0  0  0  0  0  0  0  0  0  0
   -3.5044   24.5976  -23.5635 H   0  0  0  0  0  0  0  0  0  0  0  0
   -1.2341   20.5884  -22.1019 O   0  0  0  0  0  0  0  0  0  0  0  0
   -0.7887   21.3240  -23.1852 C   0  0  0  0  0  0  0  0  0  0  0  0
   -1.6571   19.7343  -22.3792 H   0  0  0  0  0  0  0  0  0  0  0  0
   -3.9761   21.9043  -22.9928 O   0  0  0  0  0  0  0  0  0  0  0  0
   -4.5338   22.0575  -21.4311 P   0  0  0  0  0  0  0  0  0  0  0  0
   -3.7576   21.0267  -20.3392 O   0  0  0  0  0  0  0  0  0  0  0  0
   -4.2347   23.6710  -20.9430 O   0  0  0  0  0  0  0  0  0  0  0  0
   -6.0347   21.8673  -21.3102 O   0  0  0  0  0  0  0  0  0  0  0  0
   -2.8602   21.4016  -20.1395 H   0  0  0  0  0  0  0  0  0  0  0  0
   -4.6400   23.8602  -20.0614 H   0  0  0  0  0  0  0  0  0  0  0  0
 15 16  1  0  0  0
 16  1  1  0  0  0
  1  2  1  0  0  0
  2  3  1  0  0  0
  2  4  1  0  0  0
  4  5  1  0  0  0
  4  6  1  0  0  0
  6  7  1  0  0  0
  6  8  1  0  0  0
  8  9  1  0  0  0
  9 10  1  0  0  0
 10 18  1  0  0  0
 18 19  1  0  0  0
 19 20  1  0  0  0
 19 21  1  0  0  0
 19 22  2  0  0  0
 10  1  1  0  0  0
 15 17  1  0  0  0
  3 11  1  0  0  0
  5 12  1  0  0  0
  7 13  1  0  0  0
  9 14  1  0  0  0
 20 23  1  0  0  0
 21 24  1  0  0  0
M  END
> <minimizedAffinity>
-5.16543

> <CNNscore>
0.3206306100

> <CNNaffinity>
3.6436266899

> <CNN_VS>
1.1682581902

> <CNNaffinity_variance>
0.1674014330

$$$$
[H]OC([H])([H])[C@@]1([H])[C@]([H])(OP(=O)(O[H])O[H])N([H])C([H])([H])[C@]([H])(O[H])[C@@]([H])(O[H])[C@]1([H])O[H]


 24 24  0  0  0  0  0  0  0  0999 V2000
   -5.1906   23.9527  -23.3185 C   0  0  0  0  0  0  0  0  0  0  0  0
   -4.7873   24.3720  -24.7013 C   0  0  0  0  0  0  0  0  0  0  0  0
   -3.7545   23.5162  -25.1103 O   0  0  0  0  0  0  0  0  0  0  0  0
   -5.8551   24.2805  -25.7319 C   0  0  0  0  0  0  0  0  0  0  0  0
   -5.2437   24.5030  -26.9748 O   0  0  0  0  0  0  0  0  0  0  0  0
   -6.9882   25.2284  -25.6006 C   0  0  0  0  0  0  0  0  0  0  0  0
   -8.1506   24.6970  -26.1632 O   0  0  0  0  0  0  0  0  0  0  0  0
   -7.3257   25.6116  -24.1874 C   0  0  0  0  0  0  0  0  0  0  0  0
   -6.1503   26.1169  -23.5563 N   0  0  0  0  0  0  0  0  0  0  0  0
   -5.7759   25.1161  -22.5435 C   0  0  0  0  0  0  0  0  0  0  0  0
   -4.2243   22.6920  -25.4577 H   0  0  0  0  0  0  0  0  0  0  0  0
   -4.8636   25.4283  -26.9122 H   0  0  0  0  0  0  0  0  0  0  0  0
   -8.9204   25.2696  -25.8926 H   0  0  0  0  0  0  0  0  0  0  0  0
   -6.2520   27.0561  -23.1332 H   0  0  0  0  0  0  0  0  0  0  0  0
   -3.9104   23.9691  -21.2639 O   0  0  0  0  0  0  0  0  0  0  0  0
   -3.9439   23.5083  -22.5675 C   0  0  0  0  0  0  0  0  0  0  0  0
   -4.6523   23.5993  -20.7180 H   0  0  0  0  0  0  0  0  0  0  0  0
   -6.9071   24.6438  -21.8868 O   0  0  0  0  0  0  0  0  0  0  0  0
   -7.2765   25.4601  -20.4830 P   0  0  0  0  0  0  0  0  0  0  0  0
   -5.9568   25.6297  -19.4404 O   0  0  0  0  0  0  0  0  0  0  0  0
   -7.8035   27.0260  -20.9319 O   0  0  0  0  0  0  0  0  0  0  0  0
   -8.4346   24.8442  -19.7195 O   0  0  0  0  0  0  0  0  0  0  0  0
   -5.3682   26.3460  -19.7954 H   0  0  0  0  0  0  0  0  0  0  0  0
   -8.1420   27.5283  -20.1507 H   0  0  0  0  0  0  0  0  0  0  0  0
 15 16  1  0  0  0
 16  1  1  0  0  0
  1  2  1  0  0  0
  2  3  1  0  0  0
  2  4  1  0  0  0
  4  5  1  0  0  0
  4  6  1  0  0  0
  6  7  1  0  0  0
  6  8  1  0  0  0
  8  9  1  0  0  0
  9 10  1  0  0  0
 10 18  1  0  0  0
 18 19  1  0  0  0
 19 20  1  0  0  0
 19 21  1  0  0  0
 19 22  2  0  0  0
 10  1  1  0  0  0
 15 17  1  0  0  0
  3 11  1  0  0  0
  5 12  1  0  0  0
  7 13  1  0  0  0
  9 14  1  0  0  0
 20 23  1  0  0  0
 21 24  1  0  0  0
M  END
> <minimizedAffinity>
-5.55280

> <CNNscore>
0.3190424740

> <CNNaffinity>
3.9190278053

> <CNN_VS>
1.2503362894

> <CNNaffinity_variance>
0.2546696365

$$$$
[H]OC([H])([H])[C@@]1([H])[C@]([H])(OP(=O)(O[H])O[H])N([H])C([H])([H])[C@]([H])(O[H])[C@@]([H])(O[H])[C@]1([H])O[H]


 24 24  0  0  0  0  0  0  0  0999 V2000
   -5.8490   23.6444  -24.9047 C   0  0  0  0  0  0  0  0  0  0  0  0
   -6.0756   24.0380  -26.3345 C   0  0  0  0  0  0  0  0  0  0  0  0
   -7.2655   23.4239  -26.7510 O   0  0  0  0  0  0  0  0  0  0  0  0
   -6.2367   25.4961  -26.5763 C   0  0  0  0  0  0  0  0  0  0  0  0
   -6.6455   25.6466  -27.9098 O   0  0  0  0  0  0  0  0  0  0  0  0
   -5.0363   26.3413  -26.3652 C   0  0  0  0  0  0  0  0  0  0  0  0
   -5.3986   27.6423  -26.0101 O   0  0  0  0  0  0  0  0  0  0  0  0
   -4.0988   25.8456  -25.3006 C   0  0  0  0  0  0  0  0  0  0  0  0
   -3.7389   24.4977  -25.5980 N   0  0  0  0  0  0  0  0  0  0  0  0
   -4.3743   23.6728  -24.5570 C   0  0  0  0  0  0  0  0  0  0  0  0
   -7.9998   24.0377  -26.4274 H   0  0  0  0  0  0  0  0  0  0  0  0
   -5.8979   25.2585  -28.4531 H   0  0  0  0  0  0  0  0  0  0  0  0
   -4.5823   28.1210  -25.6967 H   0  0  0  0  0  0  0  0  0  0  0  0
   -2.7205   24.3187  -25.6462 H   0  0  0  0  0  0  0  0  0  0  0  0
   -5.2845   21.3477  -24.3877 O   0  0  0  0  0  0  0  0  0  0  0  0
   -6.3152   22.2075  -24.7214 C   0  0  0  0  0  0  0  0  0  0  0  0
   -4.8803   21.5726  -23.5095 H   0  0  0  0  0  0  0  0  0  0  0  0
   -4.2576   24.2856  -23.3141 O   0  0  0  0  0  0  0  0  0  0  0  0
   -3.2709   23.4797  -22.2416 P   0  0  0  0  0  0  0  0  0  0  0  0
   -3.1424   21.8253  -22.5640 O   0  0  0  0  0  0  0  0  0  0  0  0
   -1.7096   24.1696  -22.3738 O   0  0  0  0  0  0  0  0  0  0  0  0
   -3.6792   23.6714  -20.7925 O   0  0  0  0  0  0  0  0  0  0  0  0
   -2.5326   21.7043  -23.3381 H   0  0  0  0  0  0  0  0  0  0  0  0
   -1.0985   23.8091  -21.6854 H   0  0  0  0  0  0  0  0  0  0  0  0
 15 16  1  0  0  0
 16  1  1  0  0  0
  1  2  1  0  0  0
  2  3  1  0  0  0
  2  4  1  0  0  0
  4  5  1  0  0  0
  4  6  1  0  0  0
  6  7  1  0  0  0
  6  8  1  0  0  0
  8  9  1  0  0  0
  9 10  1  0  0  0
 10 18  1  0  0  0
 18 19  1  0  0  0
 19 20  1  0  0  0
 19 21  1  0  0  0
 19 22  2  0  0  0
 10  1  1  0  0  0
 15 17  1  0  0  0
  3 11  1  0  0  0
  5 12  1  0  0  0
  7 13  1  0  0  0
  9 14  1  0  0  0
 20 23  1  0  0  0
 21 24  1  0  0  0
M  END
> <minimizedAffinity>
-5.51714

> <CNNscore>
0.3068695962

> <CNNaffinity>
3.8331761360

> <CNN_VS>
1.1762852669

> <CNNaffinity_variance>
0.1028942317

$$$$
[H]OC([H])([H])[C@@]1([H])N([H])C([H])([H])[C@@]([H])(O[H])[C@]([H])(O[H])[C@]([H])(O[H])[C@]1([H])O[H]


 19 19  0  0  0  0  0  0  0  0999 V2000
   -4.5324   25.9073  -24.7889 C   0  0  0  0  0  0  0  0  0  0  0  0
   -4.7481   24.6121  -25.4855 C   0  0  0  0  0  0  0  0  0  0  0  0
   -3.7117   24.4688  -26.4365 O   0  0  0  0  0  0  0  0  0  0  0  0
   -4.7464   23.4076  -24.6304 C   0  0  0  0  0  0  0  0  0  0  0  0
   -3.9900   23.4637  -23.4985 O   0  0  0  0  0  0  0  0  0  0  0  0
   -6.1918   23.1162  -24.2170 C   0  0  0  0  0  0  0  0  0  0  0  0
   -6.3085   21.8319  -23.7345 O   0  0  0  0  0  0  0  0  0  0  0  0
   -6.5202   24.1165  -23.1261 C   0  0  0  0  0  0  0  0  0  0  0  0
   -7.8000   23.7651  -22.6452 O   0  0  0  0  0  0  0  0  0  0  0  0
   -6.6267   25.5171  -23.6502 C   0  0  0  0  0  0  0  0  0  0  0  0
   -5.4233   26.2281  -23.7575 N   0  0  0  0  0  0  0  0  0  0  0  0
   -2.8601   24.4735  -25.9008 H   0  0  0  0  0  0  0  0  0  0  0  0
   -3.7502   24.3376  -23.1668 H   0  0  0  0  0  0  0  0  0  0  0  0
   -6.0748   21.1860  -24.4495 H   0  0  0  0  0  0  0  0  0  0  0  0
   -7.9021   23.9732  -21.6940 H   0  0  0  0  0  0  0  0  0  0  0  0
   -5.0565   26.6898  -22.9214 H   0  0  0  0  0  0  0  0  0  0  0  0
   -5.5024   26.6411  -26.8625 O   0  0  0  0  0  0  0  0  0  0  0  0
   -4.5949   27.0130  -25.8451 C   0  0  0  0  0  0  0  0  0  0  0  0
   -6.4279   26.6441  -26.4850 H   0  0  0  0  0  0  0  0  0  0  0  0
 17 18  1  0  0  0
 18  1  1  0  0  0
  1  2  1  0  0  0
  2  3  1  0  0  0
  2  4  1  0  0  0
  4  5  1  0  0  0
  4  6  1  0  0  0
  6  7  1  0  0  0
  6  8  1  0  0  0
  8  9  1  0  0  0
  8 10  1  0  0  0
 10 11  1  0  0  0
 11  1  1  0  0  0
 17 19  1  0  0  0
  3 12  1  0  0  0
  5 13  1  0  0  0
  7 14  1  0  0  0
  9 15  1  0  0  0
 11 16  1  0  0  0
M  END
> <minimizedAffinity>
-4.43778

> <CNNscore>
0.3937584460

> <CNNaffinity>
3.1039028168

> <CNN_VS>
1.2221879959

> <CNNaffinity_variance>
0.1157927364

$$$$
[H]OC([H])([H])[C@@]1([H])N([H])C([H])([H])[C@@]([H])(O[H])[C@]([H])(O[H])[C@]([H])(O[H])[C@]1([H])O[H]


 19 19  0  0  0  0  0  0  0  0999 V2000
   -5.3363   24.5113  -28.7309 C   0  0  0  0  0  0  0  0  0  0  0  0
   -4.8163   25.2617  -27.5579 C   0  0  0  0  0  0  0  0  0  0  0  0
   -5.6731   26.3677  -27.3532 O   0  0  0  0  0  0  0  0  0  0  0  0
   -4.7390   24.5093  -26.2891 C   0  0  0  0  0  0  0  0  0  0  0  0
   -5.6439   23.5051  -26.1187 O   0  0  0  0  0  0  0  0  0  0  0  0
   -3.3368   23.9032  -26.1807 C   0  0  0  0  0  0  0  0  0  0  0  0
   -3.0790   23.5060  -24.8879 O   0  0  0  0  0  0  0  0  0  0  0  0
   -3.3316   22.7034  -27.1074 C   0  0  0  0  0  0  0  0  0  0  0  0
   -2.0908   22.0605  -26.9084 O   0  0  0  0  0  0  0  0  0  0  0  0
   -3.3849   23.0990  -28.5526 C   0  0  0  0  0  0  0  0  0  0  0  0
   -4.6619   23.3351  -29.0802 N   0  0  0  0  0  0  0  0  0  0  0  0
   -6.5799   25.9693  -27.1764 H   0  0  0  0  0  0  0  0  0  0  0  0
   -6.0676   23.1495  -26.9095 H   0  0  0  0  0  0  0  0  0  0  0  0
   -3.1020   24.2944  -24.2872 H   0  0  0  0  0  0  0  0  0  0  0  0
   -2.1572   21.0920  -27.0353 H   0  0  0  0  0  0  0  0  0  0  0  0
   -5.2119   22.5326  -29.3968 H   0  0  0  0  0  0  0  0  0  0  0  0
   -6.5609   26.1077  -30.0467 O   0  0  0  0  0  0  0  0  0  0  0  0
   -5.3102   25.4600  -29.9315 C   0  0  0  0  0  0  0  0  0  0  0  0
   -6.6721   26.7323  -29.2745 H   0  0  0  0  0  0  0  0  0  0  0  0
 17 18  1  0  0  0
 18  1  1  0  0  0
  1  2  1  0  0  0
  2  3  1  0  0  0
  2  4  1  0  0  0
  4  5  1  0  0  0
  4  6  1  0  0  0
  6  7  1  0  0  0
  6  8  1  0  0  0
  8  9  1  0  0  0
  8 10  1  0  0  0
 10 11  1  0  0  0
 11  1  1  0  0  0
 17 19  1  0  0  0
  3 12  1  0  0  0
  5 13  1  0  0  0
  7 14  1  0  0  0
  9 15  1  0  0  0
 11 16  1  0  0  0
M  END
> <minimizedAffinity>
-5.33703

> <CNNscore>
0.3881878853

> <CNNaffinity>
3.5726642609

> <CNN_VS>
1.3868650198

> <CNNaffinity_variance>
0.0475343280

$$$$
[H]OC([H])([H])[C@@]1([H])N([H])C([H])([H])[C@@]([H])(O[H])[C@]([H])(O[H])[C@]([H])(O[H])[C@]1([H])O[H]


 19 19  0  0  0  0  0  0  0  0999 V2000
   -5.5862   24.0487  -29.4986 C   0  0  0  0  0  0  0  0  0  0  0  0
   -5.6558   25.0947  -28.4447 C   0  0  0  0  0  0  0  0  0  0  0  0
   -6.6260   26.0386  -28.8531 O   0  0  0  0  0  0  0  0  0  0  0  0
   -6.0206   24.6284  -27.0914 C   0  0  0  0  0  0  0  0  0  0  0  0
   -6.8154   23.5241  -27.0198 O   0  0  0  0  0  0  0  0  0  0  0  0
   -4.7277   24.3285  -26.3275 C   0  0  0  0  0  0  0  0  0  0  0  0
   -4.9724   24.2429  -24.9752 O   0  0  0  0  0  0  0  0  0  0  0  0
   -4.2346   22.9956  -26.8552 C   0  0  0  0  0  0  0  0  0  0  0  0
   -3.1215   22.6473  -26.0601 O   0  0  0  0  0  0  0  0  0  0  0  0
   -3.7424   23.0887  -28.2682 C   0  0  0  0  0  0  0  0  0  0  0  0
   -4.7172   22.9751  -29.2692 N   0  0  0  0  0  0  0  0  0  0  0  0
   -7.4841   25.5187  -28.9281 H   0  0  0  0  0  0  0  0  0  0  0  0
   -6.8498   22.9500  -27.7947 H   0  0  0  0  0  0  0  0  0  0  0  0
   -5.3109   25.1135  -24.6431 H   0  0  0  0  0  0  0  0  0  0  0  0
   -3.0367   21.6777  -25.9557 H   0  0  0  0  0  0  0  0  0  0  0  0
   -5.0132   22.0380  -29.5539 H   0  0  0  0  0  0  0  0  0  0  0  0
   -6.3023   24.8693  -31.6417 O   0  0  0  0  0  0  0  0  0  0  0  0
   -5.1735   24.7365  -30.8019 C   0  0  0  0  0  0  0  0  0  0  0  0
   -6.9313   25.5300  -31.2333 H   0  0  0  0  0  0  0  0  0  0  0  0
 17 18  1  0  0  0
 18  1  1  0  0  0
  1  2  1  0  0  0
  2  3  1  0  0  0
  2  4  1  0  0  0
  4  5  1  0  0  0
  4  6  1  0  0  0
  6  7  1  0  0  0
  6  8  1  0  0  0
  8  9  1  0  0  0
  8 10  1  0  0  0
 10 11  1  0  0  0
 11  1  1  0  0  0
 17 19  1  0  0  0
  3 12  1  0  0  0
  5 13  1  0  0  0
  7 14  1  0  0  0
  9 15  1  0  0  0
 11 16  1  0  0  0
M  END
> <minimizedAffinity>
-5.39175

> <CNNscore>
0.3880689442

> <CNNaffinity>
3.5962052345

> <CNN_VS>
1.3955755234

> <CNNaffinity_variance>
0.0470073931

$$$$
[H]OC([H])([H])[C@@]1([H])N([H])C([H])([H])[C@@]([H])(O[H])[C@]([H])(O[H])[C@]([H])(O[H])[C@]1([H])O[H]


 19 19  0  0  0  0  0  0  0  0999 V2000
   -3.9860   24.8876  -22.4584 C   0  0  0  0  0  0  0  0  0  0  0  0
   -4.8826   23.9909  -21.6828 C   0  0  0  0  0  0  0  0  0  0  0  0
   -4.0959   23.3706  -20.6851 O   0  0  0  0  0  0  0  0  0  0  0  0
   -6.0294   24.6400  -21.0152 C   0  0  0  0  0  0  0  0  0  0  0  0
   -5.8621   25.9393  -20.6404 O   0  0  0  0  0  0  0  0  0  0  0  0
   -7.2306   24.5740  -21.9627 C   0  0  0  0  0  0  0  0  0  0  0  0
   -8.4002   24.8249  -21.2809 O   0  0  0  0  0  0  0  0  0  0  0  0
   -6.9936   25.6470  -23.0072 C   0  0  0  0  0  0  0  0  0  0  0  0
   -8.1601   25.6850  -23.8011 O   0  0  0  0  0  0  0  0  0  0  0  0
   -5.8583   25.3076  -23.9257 C   0  0  0  0  0  0  0  0  0  0  0  0
   -4.5763   25.6500  -23.4736 N   0  0  0  0  0  0  0  0  0  0  0  0
   -3.7380   24.1256  -20.1246 H   0  0  0  0  0  0  0  0  0  0  0  0
   -5.1609   26.4405  -21.0744 H   0  0  0  0  0  0  0  0  0  0  0  0
   -8.5373   24.1283  -20.5888 H   0  0  0  0  0  0  0  0  0  0  0  0
   -8.3401   26.5847  -24.1423 H   0  0  0  0  0  0  0  0  0  0  0  0
   -4.2531   26.6106  -23.6134 H   0  0  0  0  0  0  0  0  0  0  0  0
   -1.7193   24.1036  -22.2953 O   0  0  0  0  0  0  0  0  0  0  0  0
   -2.8915   24.0170  -23.0799 C   0  0  0  0  0  0  0  0  0  0  0  0
   -1.8858   23.6553  -21.4176 H   0  0  0  0  0  0  0  0  0  0  0  0
 17 18  1  0  0  0
 18  1  1  0  0  0
  1  2  1  0  0  0
  2  3  1  0  0  0
  2  4  1  0  0  0
  4  5  1  0  0  0
  4  6  1  0  0  0
  6  7  1  0  0  0
  6  8  1  0  0  0
  8  9  1  0  0  0
  8 10  1  0  0  0
 10 11  1  0  0  0
 11  1  1  0  0  0
 17 19  1  0  0  0
  3 12  1  0  0  0
  5 13  1  0  0  0
  7 14  1  0  0  0
  9 15  1  0  0  0
 11 16  1  0  0  0
M  END
> <minimizedAffinity>
-4.89294

> <CNNscore>
0.3757028282

> <CNNaffinity>
3.1599504948

> <CNN_VS>
1.1872023344

> <CNNaffinity_variance>
0.0981585607

$$$$
[H]OC([H])([H])[C@@]1([H])N([H])C([H])([H])[C@@]([H])(O[H])[C@]([H])(O[H])[C@]([H])(O[H])[C@]1([H])O[H]


 19 19  0  0  0  0  0  0  0  0999 V2000
   -4.8619   25.4452  -28.3582 C   0  0  0  0  0  0  0  0  0  0  0  0
   -4.8821   23.9675  -28.1984 C   0  0  0  0  0  0  0  0  0  0  0  0
   -4.0227   23.4268  -29.1824 O   0  0  0  0  0  0  0  0  0  0  0  0
   -4.4461   23.4512  -26.8849 C   0  0  0  0  0  0  0  0  0  0  0  0
   -3.5397   24.2058  -26.2026 O   0  0  0  0  0  0  0  0  0  0  0  0
   -5.6867   23.2922  -26.0013 C   0  0  0  0  0  0  0  0  0  0  0  0
   -5.4098   22.4903  -24.9167 O   0  0  0  0  0  0  0  0  0  0  0  0
   -6.0482   24.6902  -25.5394 C   0  0  0  0  0  0  0  0  0  0  0  0
   -7.1045   24.5363  -24.6157 O   0  0  0  0  0  0  0  0  0  0  0  0
   -6.5732   25.5416  -26.6562 C   0  0  0  0  0  0  0  0  0  0  0  0
   -5.6102   26.1920  -27.4403 N   0  0  0  0  0  0  0  0  0  0  0  0
   -3.1168   23.8168  -28.9842 H   0  0  0  0  0  0  0  0  0  0  0  0
   -3.4601   25.1355  -26.4487 H   0  0  0  0  0  0  0  0  0  0  0  0
   -5.1576   21.5840  -25.2295 H   0  0  0  0  0  0  0  0  0  0  0  0
   -7.0861   25.2270  -23.9221 H   0  0  0  0  0  0  0  0  0  0  0  0
   -5.2238   27.0759  -27.0997 H   0  0  0  0  0  0  0  0  0  0  0  0
   -6.3706   24.8336  -30.1271 O   0  0  0  0  0  0  0  0  0  0  0  0
   -5.3674   25.7618  -29.7676 C   0  0  0  0  0  0  0  0  0  0  0  0
   -7.1780   24.9973  -29.5613 H   0  0  0  0  0  0  0  0  0  0  0  0
 17 18  1  0  0  0
 18  1  1  0  0  0
  1  2  1  0  0  0
  2  3  1  0  0  0
  2  4  1  0  0  0
  4  5  1  0  0  0
  4  6  1  0  0  0
  6  7  1  0  0  0
  6  8  1  0  0  0
  8  9  1  0  0  0
  8 10  1  0  0  0
 10 11  1  0  0  0
 11  1  1  0  0  0
 17 19  1  0  0  0
  3 12  1  0  0  0
  5 13  1  0  0  0
  7 14  1  0  0  0
  9 15  1  0  0  0
 11 16  1  0  0  0
M  END
> <minimizedAffinity>
-5.00078

> <CNNscore>
0.3706539571

> <CNNaffinity>
3.2993907928

> <CNN_VS>
1.2229322195

> <CNNaffinity_variance>
0.1043281183

$$$$
[H]OC([H])([H])[C@@]1([H])N([H])C([H])([H])[C@@]([H])(O[H])[C@]([H])(O[H])[C@]([H])(O[H])[C@]1([H])O[H]


 19 19  0  0  0  0  0  0  0  0999 V2000
   -4.0457   23.7607  -28.0549 C   0  0  0  0  0  0  0  0  0  0  0  0
   -4.7866   25.0427  -27.9238 C   0  0  0  0  0  0  0  0  0  0  0  0
   -4.2780   25.7073  -26.7842 O   0  0  0  0  0  0  0  0  0  0  0  0
   -4.6865   25.9696  -29.0696 C   0  0  0  0  0  0  0  0  0  0  0  0
   -3.5426   25.9071  -29.8072 O   0  0  0  0  0  0  0  0  0  0  0  0
   -5.8666   25.6964  -30.0064 C   0  0  0  0  0  0  0  0  0  0  0  0
   -6.0394   26.7416  -30.8860 O   0  0  0  0  0  0  0  0  0  0  0  0
   -5.5115   24.4306  -30.7615 C   0  0  0  0  0  0  0  0  0  0  0  0
   -6.5290   24.2499  -31.7230 O   0  0  0  0  0  0  0  0  0  0  0  0
   -5.5304   23.2173  -29.8811 C   0  0  0  0  0  0  0  0  0  0  0  0
   -4.3556   22.9601  -29.1608 N   0  0  0  0  0  0  0  0  0  0  0  0
   -3.3014   25.8523  -26.9777 H   0  0  0  0  0  0  0  0  0  0  0  0
   -3.0148   25.1019  -29.7418 H   0  0  0  0  0  0  0  0  0  0  0  0
   -6.2537   27.5680  -30.3819 H   0  0  0  0  0  0  0  0  0  0  0  0
   -6.1919   23.8178  -32.5342 H   0  0  0  0  0  0  0  0  0  0  0  0
   -3.5951   22.4654  -29.6339 H   0  0  0  0  0  0  0  0  0  0  0  0
   -5.5951   23.2397  -26.2922 O   0  0  0  0  0  0  0  0  0  0  0  0
   -4.3017   22.9500  -26.7824 C   0  0  0  0  0  0  0  0  0  0  0  0
   -6.2708   22.8698  -26.9290 H   0  0  0  0  0  0  0  0  0  0  0  0
 17 18  1  0  0  0
 18  1  1  0  0  0
  1  2  1  0  0  0
  2  3  1  0  0  0
  2  4  1  0  0  0
  4  5  1  0  0  0
  4  6  1  0  0  0
  6  7  1  0  0  0
  6  8  1  0  0  0
  8  9  1  0  0  0
  8 10  1  0  0  0
 10 11  1  0  0  0
 11  1  1  0  0  0
 17 19  1  0  0  0
  3 12  1  0  0  0
  5 13  1  0  0  0
  7 14  1  0  0  0
  9 15  1  0  0  0
 11 16  1  0  0  0
M  END
> <minimizedAffinity>
-5.58722

> <CNNscore>
0.3686541319

> <CNNaffinity>
3.3612663746

> <CNN_VS>
1.2391446829

> <CNNaffinity_variance>
0.2125469148

$$$$
[H]OC([H])([H])[C@@]1([H])N([H])C([H])([H])[C@@]([H])(O[H])[C@]([H])(O[H])[C@]([H])(O[H])[C@]1([H])O[H]


 19 19  0  0  0  0  0  0  0  0999 V2000
   -5.2840   24.9201  -24.9137 C   0  0  0  0  0  0  0  0  0  0  0  0
   -4.9383   23.7626  -25.7800 C   0  0  0  0  0  0  0  0  0  0  0  0
   -4.8411   22.6265  -24.9440 O   0  0  0  0  0  0  0  0  0  0  0  0
   -5.8987   23.4496  -26.8578 C   0  0  0  0  0  0  0  0  0  0  0  0
   -7.2021   23.7725  -26.6268 O   0  0  0  0  0  0  0  0  0  0  0  0
   -5.4487   24.1846  -28.1236 C   0  0  0  0  0  0  0  0  0  0  0  0
   -6.0712   23.6618  -29.2349 O   0  0  0  0  0  0  0  0  0  0  0  0
   -5.8553   25.6320  -27.9287 C   0  0  0  0  0  0  0  0  0  0  0  0
   -5.5689   26.2864  -29.1462 O   0  0  0  0  0  0  0  0  0  0  0  0
   -5.0419   26.3152  -26.8707 C   0  0  0  0  0  0  0  0  0  0  0  0
   -5.4844   26.1506  -25.5508 N   0  0  0  0  0  0  0  0  0  0  0  0
   -5.7509   22.5284  -24.5260 H   0  0  0  0  0  0  0  0  0  0  0  0
   -7.3831   24.4291  -25.9432 H   0  0  0  0  0  0  0  0  0  0  0  0
   -5.8130   22.7108  -29.3437 H   0  0  0  0  0  0  0  0  0  0  0  0
   -6.1946   27.0182  -29.3231 H   0  0  0  0  0  0  0  0  0  0  0  0
   -6.2317   26.7608  -25.2102 H   0  0  0  0  0  0  0  0  0  0  0  0
   -4.6874   25.5827  -22.6812 O   0  0  0  0  0  0  0  0  0  0  0  0
   -4.1568   25.0814  -23.8912 C   0  0  0  0  0  0  0  0  0  0  0  0
   -5.2626   24.8787  -22.2660 H   0  0  0  0  0  0  0  0  0  0  0  0
 17 18  1  0  0  0
 18  1  1  0  0  0
  1  2  1  0  0  0
  2  3  1  0  0  0
  2  4  1  0  0  0
  4  5  1  0  0  0
  4  6  1  0  0  0
  6  7  1  0  0  0
  6  8  1  0  0  0
  8  9  1  0  0  0
  8 10  1  0  0  0
 10 11  1  0  0  0
 11  1  1  0  0  0
 17 19  1  0  0  0
  3 12  1  0  0  0
  5 13  1  0  0  0
  7 14  1  0  0  0
  9 15  1  0  0  0
 11 16  1  0  0  0
M  END
> <minimizedAffinity>
-5.07388

> <CNNscore>
0.3476685882

> <CNNaffinity>
3.2199649811

> <CNN_VS>
1.1194807291

> <CNNaffinity_variance>
0.1117824465

$$$$
[H]OC([H])([H])[C@@]1([H])N([H])C([H])([H])[C@@]([H])(O[H])[C@]([H])(O[H])[C@]([H])(O[H])[C@]1([H])O[H]


 19 19  0  0  0  0  0  0  0  0999 V2000
   -5.0492   25.2674  -24.7539 C   0  0  0  0  0  0  0  0  0  0  0  0
   -5.9792   25.8647  -23.7599 C   0  0  0  0  0  0  0  0  0  0  0  0
   -6.9593   26.5845  -24.4813 O   0  0  0  0  0  0  0  0  0  0  0  0
   -6.6791   24.9130  -22.8731 C   0  0  0  0  0  0  0  0  0  0  0  0
   -6.9149   23.6693  -23.3771 O   0  0  0  0  0  0  0  0  0  0  0  0
   -5.8483   24.7540  -21.5965 C   0  0  0  0  0  0  0  0  0  0  0  0
   -6.6015   24.1812  -20.5962 O   0  0  0  0  0  0  0  0  0  0  0  0
   -4.6917   23.8461  -21.9654 C   0  0  0  0  0  0  0  0  0  0  0  0
   -4.0006   23.5841  -20.7628 O   0  0  0  0  0  0  0  0  0  0  0  0
   -3.7150   24.5129  -22.8869 C   0  0  0  0  0  0  0  0  0  0  0  0
   -4.0215   24.4587  -24.2538 N   0  0  0  0  0  0  0  0  0  0  0  0
   -7.4141   25.9005  -25.0623 H   0  0  0  0  0  0  0  0  0  0  0  0
   -6.3775   23.3837  -24.1260 H   0  0  0  0  0  0  0  0  0  0  0  0
   -7.3648   24.7738  -20.3744 H   0  0  0  0  0  0  0  0  0  0  0  0
   -3.5934   22.6938  -20.7625 H   0  0  0  0  0  0  0  0  0  0  0  0
   -3.7652   23.6166  -24.7753 H   0  0  0  0  0  0  0  0  0  0  0  0
   -4.0359   27.4451  -24.6527 O   0  0  0  0  0  0  0  0  0  0  0  0
   -4.4203   26.4177  -25.5435 C   0  0  0  0  0  0  0  0  0  0  0  0
   -3.2740   27.1185  -24.0943 H   0  0  0  0  0  0  0  0  0  0  0  0
 17 18  1  0  0  0
 18  1  1  0  0  0
  1  2  1  0  0  0
  2  3  1  0  0  0
  2  4  1  0  0  0
  4  5  1  0  0  0
  4  6  1  0  0  0
  6  7  1  0  0  0
  6  8  1  0  0  0
  8  9  1  0  0  0
  8 10  1  0  0  0
 10 11  1  0  0  0
 11  1  1  0  0  0
 17 19  1  0  0  0
  3 12  1  0  0  0
  5 13  1  0  0  0
  7 14  1  0  0  0
  9 15  1  0  0  0
 11 16  1  0  0  0
M  END
> <minimizedAffinity>
-4.73360

> <CNNscore>
0.3322813511

> <CNNaffinity>
3.1194393635

> <CNN_VS>
1.0365315676

> <CNNaffinity_variance>
0.0900892466

$$$$
[H]OC([H])([H])[C@@]1([H])N([H])C([H])([H])[C@@]([H])(O[H])[C@]([H])(O[H])[C@]([H])(O[H])[C@]1([H])O[H]


 19 19  0  0  0  0  0  0  0  0999 V2000
   -4.1973   23.1388  -26.6758 C   0  0  0  0  0  0  0  0  0  0  0  0
   -4.7545   24.5165  -26.7076 C   0  0  0  0  0  0  0  0  0  0  0  0
   -4.3393   25.1097  -27.9220 O   0  0  0  0  0  0  0  0  0  0  0  0
   -6.2260   24.6228  -26.6327 C   0  0  0  0  0  0  0  0  0  0  0  0
   -6.9400   23.5788  -27.1393 O   0  0  0  0  0  0  0  0  0  0  0  0
   -6.6161   24.7902  -25.1613 C   0  0  0  0  0  0  0  0  0  0  0  0
   -7.9087   25.2516  -25.0520 O   0  0  0  0  0  0  0  0  0  0  0  0
   -6.4989   23.4112  -24.5423 C   0  0  0  0  0  0  0  0  0  0  0  0
   -6.9888   23.5310  -23.2239 O   0  0  0  0  0  0  0  0  0  0  0  0
   -5.0751   22.9545  -24.4330 C   0  0  0  0  0  0  0  0  0  0  0  0
   -4.5343   22.3443  -25.5733 N   0  0  0  0  0  0  0  0  0  0  0  0
   -4.7267   24.5277  -28.6455 H   0  0  0  0  0  0  0  0  0  0  0  0
   -6.4837   22.7342  -27.2378 H   0  0  0  0  0  0  0  0  0  0  0  0
   -7.9792   26.1456  -25.4750 H   0  0  0  0  0  0  0  0  0  0  0  0
   -7.4151   22.7051  -22.9167 H   0  0  0  0  0  0  0  0  0  0  0  0
   -4.7223   21.3504  -25.7270 H   0  0  0  0  0  0  0  0  0  0  0  0
   -2.1455   22.1677  -27.4673 O   0  0  0  0  0  0  0  0  0  0  0  0
   -2.6729   23.2582  -26.7396 C   0  0  0  0  0  0  0  0  0  0  0  0
   -2.4142   22.2603  -28.4255 H   0  0  0  0  0  0  0  0  0  0  0  0
 17 18  1  0  0  0
 18  1  1  0  0  0
  1  2  1  0  0  0
  2  3  1  0  0  0
  2  4  1  0  0  0
  4  5  1  0  0  0
  4  6  1  0  0  0
  6  7  1  0  0  0
  6  8  1  0  0  0
  8  9  1  0  0  0
  8 10  1  0  0  0
 10 11  1  0  0  0
 11  1  1  0  0  0
 17 19  1  0  0  0
  3 12  1  0  0  0
  5 13  1  0  0  0
  7 14  1  0  0  0
  9 15  1  0  0  0
 11 16  1  0  0  0
M  END
> <minimizedAffinity>
-4.73906

> <CNNscore>
0.3309675753

> <CNNaffinity>
3.1351962090

> <CNN_VS>
1.0376483202

> <CNNaffinity_variance>
0.0741943344

$$$$
[H]OC(=O)C([H])([H])[C@@]([H])(C(=O)N([H])[C@]([H])(C(=O)N([H])[H])C([H])([H])c1c([H])c([H])c(O[H])c([H])c1[H])N([H])C(=O)[C@@]([H])(N([H])C(=O)[C@@]([H])(N([H])C(=O)c1c([H])c([H])c(Cl)c([H])c1[H])C([H])([H])c1c([H])c([H])c(O[H])c([H])c1[H])[C@@]([H])(C([H])([H])[H])C([H])([H])C([H])([H])[H]


 59 61  0  0  0  0  0  0  0  0999 V2000
   -6.7910   23.0919  -22.7704 C   0  0  0  0  0  0  0  0  0  0  0  0
   -7.0655   24.1144  -23.7999 C   0  0  0  0  0  0  0  0  0  0  0  0
   -8.1803   24.7395  -23.7646 O   0  0  0  0  0  0  0  0  0  0  0  0
   -6.1635   24.4472  -24.8192 N   0  0  0  0  0  0  0  0  0  0  0  0
   -5.2401   24.0420  -24.9626 H   0  0  0  0  0  0  0  0  0  0  0  0
   -6.5066   25.5014  -25.8218 C   0  0  0  0  0  0  0  0  0  0  0  0
   -5.9333   25.1103  -27.1122 C   0  0  0  0  0  0  0  0  0  0  0  0
   -6.5491   24.1410  -27.7066 O   0  0  0  0  0  0  0  0  0  0  0  0
   -4.8367   25.6154  -27.7837 N   0  0  0  0  0  0  0  0  0  0  0  0
   -4.2488   26.3743  -27.3994 H   0  0  0  0  0  0  0  0  0  0  0  0
   -4.3834   25.1115  -29.0916 C   0  0  0  0  0  0  0  0  0  0  0  0
   -5.3358   25.5365  -30.1130 C   0  0  0  0  0  0  0  0  0  0  0  0
   -6.1689   24.7168  -30.8887 N   0  0  0  0  0  0  0  0  0  0  0  0
   -5.4358   26.7936  -30.3455 O   0  0  0  0  0  0  0  0  0  0  0  0
   -7.1749   24.9807  -31.0593 H   0  0  0  0  0  0  0  0  0  0  0  0
   -5.8040   23.8170  -31.3145 H   0  0  0  0  0  0  0  0  0  0  0  0
   -4.0604   23.6656  -29.0179 C   0  0  0  0  0  0  0  0  0  0  0  0
   -2.7224   23.3170  -28.4994 C   0  0  0  0  0  0  0  0  0  0  0  0
   -1.5816   23.6761  -29.1977 C   0  0  0  0  0  0  0  0  0  0  0  0
   -0.3206   23.3747  -28.7061 C   0  0  0  0  0  0  0  0  0  0  0  0
   -0.1417   22.7105  -27.5131 C   0  0  0  0  0  0  0  0  0  0  0  0
    1.1425   22.4267  -27.0560 O   0  0  0  0  0  0  0  0  0  0  0  0
   -1.2721   22.3506  -26.8138 C   0  0  0  0  0  0  0  0  0  0  0  0
   -2.5294   22.6475  -27.2971 C   0  0  0  0  0  0  0  0  0  0  0  0
    1.5527   21.5289  -27.3457 H   0  0  0  0  0  0  0  0  0  0  0  0
   -6.0169   26.7768  -25.2188 C   0  0  0  0  0  0  0  0  0  0  0  0
   -4.6439   26.7777  -24.7213 C   0  0  0  0  0  0  0  0  0  0  0  0
   -4.1811   26.0358  -23.6290 O   0  0  0  0  0  0  0  0  0  0  0  0
   -3.7896   27.4961  -25.3127 O   0  0  0  0  0  0  0  0  0  0  0  0
   -4.5270   25.0843  -23.5554 H   0  0  0  0  0  0  0  0  0  0  0  0
   -5.3477   23.2236  -22.3490 N   0  0  0  0  0  0  0  0  0  0  0  0
   -4.4411   22.2094  -22.6846 C   0  0  0  0  0  0  0  0  0  0  0  0
   -4.9664   21.2394  -23.3727 O   0  0  0  0  0  0  0  0  0  0  0  0
   -5.1217   24.0668  -21.8149 H   0  0  0  0  0  0  0  0  0  0  0  0
   -3.0249   22.0898  -22.3658 C   0  0  0  0  0  0  0  0  0  0  0  0
   -2.9060   21.7161  -20.9419 N   0  0  0  0  0  0  0  0  0  0  0  0
   -2.2661   22.5188  -20.0014 C   0  0  0  0  0  0  0  0  0  0  0  0
   -1.7626   23.6054  -20.3758 O   0  0  0  0  0  0  0  0  0  0  0  0
   -3.3252   20.8164  -20.6723 H   0  0  0  0  0  0  0  0  0  0  0  0
   -2.1304   22.1874  -18.5680 C   0  0  0  0  0  0  0  0  0  0  0  0
   -3.1958   22.3191  -17.7116 C   0  0  0  0  0  0  0  0  0  0  0  0
   -3.0499   22.0138  -16.3863 C   0  0  0  0  0  0  0  0  0  0  0  0
   -1.8599   21.5654  -15.8286 C   0  0  0  0  0  0  0  0  0  0  0  0
   -1.7001   21.1805  -14.1303 Cl  0  0  0  0  0  0  0  0  0  0  0  0
   -0.8134   21.4490  -16.7347 C   0  0  0  0  0  0  0  0  0  0  0  0
   -0.9354   21.7469  -18.0580 C   0  0  0  0  0  0  0  0  0  0  0  0
   -2.1525   21.2375  -23.1837 C   0  0  0  0  0  0  0  0  0  0  0  0
   -0.7240   21.1952  -22.9306 C   0  0  0  0  0  0  0  0  0  0  0  0
   -0.1592   20.5971  -21.8154 C   0  0  0  0  0  0  0  0  0  0  0  0
    1.1889   20.5064  -21.5948 C   0  0  0  0  0  0  0  0  0  0  0  0
    2.0688   21.0382  -22.5302 C   0  0  0  0  0  0  0  0  0  0  0  0
    3.4512   20.9615  -22.3336 O   0  0  0  0  0  0  0  0  0  0  0  0
    1.5405   21.6398  -23.6506 C   0  0  0  0  0  0  0  0  0  0  0  0
    0.1639   21.7161  -23.8462 C   0  0  0  0  0  0  0  0  0  0  0  0
    3.7873   20.5055  -21.4862 H   0  0  0  0  0  0  0  0  0  0  0  0
   -7.6071   23.3917  -21.5297 C   0  0  0  0  0  0  0  0  0  0  0  0
   -8.1157   22.0544  -20.9752 C   0  0  0  0  0  0  0  0  0  0  0  0
   -7.6353   25.4097  -20.0779 C   0  0  0  0  0  0  0  0  0  0  0  0
   -6.9137   24.1171  -20.4390 C   0  0  0  0  0  0  0  0  0  0  0  0
 58 59  1  0  0  0
 59 56  1  0  0  0
 56 57  1  0  0  0
 56  1  1  0  0  0
  1 31  1  0  0  0
 31 32  1  0  0  0
 32 33  2  0  0  0
 32 35  1  0  0  0
 35 47  1  0  0  0
 47 48  1  0  0  0
 48 49  2  0  0  0
 49 50  1  0  0  0
 50 51  2  0  0  0
 51 52  1  0  0  0
 51 53  1  0  0  0
 53 54  2  0  0  0
 35 36  1  0  0  0
 36 37  1  0  0  0
 37 38  2  0  0  0
 37 40  1  0  0  0
 40 41  2  0  0  0
 41 42  1  0  0  0
 42 43  2  0  0  0
 43 44  1  0  0  0
 43 45  1  0  0  0
 45 46  2  0  0  0
  1  2  1  0  0  0
  2  3  2  0  0  0
  2  4  1  0  0  0
  4  6  1  0  0  0
  6 26  1  0  0  0
 26 27  1  0  0  0
 27 28  1  0  0  0
 27 29  2  0  0  0
  6  7  1  0  0  0
  7  8  2  0  0  0
  7  9  1  0  0  0
  9 11  1  0  0  0
 11 17  1  0  0  0
 17 18  1  0  0  0
 18 19  2  0  0  0
 19 20  1  0  0  0
 20 21  2  0  0  0
 21 22  1  0  0  0
 21 23  1  0  0  0
 23 24  2  0  0  0
 11 12  1  0  0  0
 12 13  1  0  0  0
 12 14  2  0  0  0
 54 48  1  0  0  0
 46 40  1  0  0  0
 24 18  1  0  0  0
 31 34  1  0  0  0
 52 55  1  0  0  0
 36 39  1  0  0  0
  4  5  1  0  0  0
 28 30  1  0  0  0
  9 10  1  0  0  0
 22 25  1  0  0  0
 13 15  1  0  0  0
 13 16  1  0  0  0
M  END
> <minimizedAffinity>
-9.57424

> <CNNscore>
0.3403086066

> <CNNaffinity>
7.4618024826

> <CNN_VS>
2.5393157005

> <CNNaffinity_variance>
0.4412594736

$$$$
[H]OC(=O)C([H])([H])[C@@]([H])(C(=O)N([H])[C@]([H])(C(=O)N([H])[H])C([H])([H])c1c([H])c([H])c(O[H])c([H])c1[H])N([H])C(=O)[C@@]([H])(N([H])C(=O)[C@@]([H])(N([H])C(=O)c1c([H])c([H])c(Cl)c([H])c1[H])C([H])([H])c1c([H])c([H])c(O[H])c([H])c1[H])[C@@]([H])(C([H])([H])[H])C([H])([H])C([H])([H])[H]


 59 61  0  0  0  0  0  0  0  0999 V2000
   -5.8596   23.5531  -23.6510 C   0  0  0  0  0  0  0  0  0  0  0  0
   -6.8195   23.0294  -22.6586 C   0  0  0  0  0  0  0  0  0  0  0  0
   -7.1479   21.7949  -22.7118 O   0  0  0  0  0  0  0  0  0  0  0  0
   -7.3918   23.8131  -21.6478 N   0  0  0  0  0  0  0  0  0  0  0  0
   -7.2150   24.8018  -21.4791 H   0  0  0  0  0  0  0  0  0  0  0  0
   -8.3497   23.2108  -20.6711 C   0  0  0  0  0  0  0  0  0  0  0  0
   -9.4051   24.1906  -20.4008 C   0  0  0  0  0  0  0  0  0  0  0  0
   -9.6991   24.3382  -19.1503 O   0  0  0  0  0  0  0  0  0  0  0  0
  -10.1329   24.9727  -21.2766 N   0  0  0  0  0  0  0  0  0  0  0  0
  -10.0065   24.9265  -22.3020 H   0  0  0  0  0  0  0  0  0  0  0  0
  -11.1704   25.9247  -20.8441 C   0  0  0  0  0  0  0  0  0  0  0  0
  -12.4428   25.2164  -20.7420 C   0  0  0  0  0  0  0  0  0  0  0  0
  -12.8219   24.0518  -21.4259 N   0  0  0  0  0  0  0  0  0  0  0  0
  -13.3275   25.6963  -19.9476 O   0  0  0  0  0  0  0  0  0  0  0  0
  -13.3270   23.2744  -20.9248 H   0  0  0  0  0  0  0  0  0  0  0  0
  -12.6053   23.9308  -22.4567 H   0  0  0  0  0  0  0  0  0  0  0  0
  -11.1376   27.1547  -21.6727 C   0  0  0  0  0  0  0  0  0  0  0  0
  -11.0820   28.4371  -20.9428 C   0  0  0  0  0  0  0  0  0  0  0  0
  -12.2056   29.2409  -20.8459 C   0  0  0  0  0  0  0  0  0  0  0  0
  -12.1691   30.4348  -20.1416 C   0  0  0  0  0  0  0  0  0  0  0  0
  -11.0271   30.8760  -19.5112 C   0  0  0  0  0  0  0  0  0  0  0  0
  -11.0334   32.0818  -18.8151 O   0  0  0  0  0  0  0  0  0  0  0  0
   -9.9063   30.0813  -19.6038 C   0  0  0  0  0  0  0  0  0  0  0  0
   -9.9358   28.8925  -20.3026 C   0  0  0  0  0  0  0  0  0  0  0  0
  -10.7838   32.9275  -19.3451 H   0  0  0  0  0  0  0  0  0  0  0  0
   -7.5030   22.7874  -19.5162 C   0  0  0  0  0  0  0  0  0  0  0  0
   -6.5012   23.7453  -19.0566 C   0  0  0  0  0  0  0  0  0  0  0  0
   -6.7217   24.7510  -18.1090 O   0  0  0  0  0  0  0  0  0  0  0  0
   -5.3353   23.6752  -19.5378 O   0  0  0  0  0  0  0  0  0  0  0  0
   -7.2818   24.4917  -17.3032 H   0  0  0  0  0  0  0  0  0  0  0  0
   -4.6087   22.7110  -23.5864 N   0  0  0  0  0  0  0  0  0  0  0  0
   -3.4898   23.1986  -22.8984 C   0  0  0  0  0  0  0  0  0  0  0  0
   -3.6746   24.3627  -22.3495 O   0  0  0  0  0  0  0  0  0  0  0  0
   -4.6570   21.8150  -24.0786 H   0  0  0  0  0  0  0  0  0  0  0  0
   -2.1735   22.5990  -22.7271 C   0  0  0  0  0  0  0  0  0  0  0  0
   -2.1043   22.0271  -21.3671 N   0  0  0  0  0  0  0  0  0  0  0  0
   -1.5401   22.7058  -20.2904 C   0  0  0  0  0  0  0  0  0  0  0  0
   -1.0639   23.8511  -20.4795 O   0  0  0  0  0  0  0  0  0  0  0  0
   -2.4992   21.0846  -21.2506 H   0  0  0  0  0  0  0  0  0  0  0  0
   -1.4563   22.1748  -18.9141 C   0  0  0  0  0  0  0  0  0  0  0  0
   -2.5125   22.3017  -18.0457 C   0  0  0  0  0  0  0  0  0  0  0  0
   -2.4146   21.8097  -16.7731 C   0  0  0  0  0  0  0  0  0  0  0  0
   -1.2838   21.1703  -16.2824 C   0  0  0  0  0  0  0  0  0  0  0  0
   -1.1846   20.5491  -14.6509 Cl  0  0  0  0  0  0  0  0  0  0  0  0
   -0.2442   21.0672  -17.1981 C   0  0  0  0  0  0  0  0  0  0  0  0
   -0.3192   21.5490  -18.4697 C   0  0  0  0  0  0  0  0  0  0  0  0
   -1.6703   21.6278  -23.7069 C   0  0  0  0  0  0  0  0  0  0  0  0
   -1.1890   22.0756  -25.0009 C   0  0  0  0  0  0  0  0  0  0  0  0
    0.1236   22.4465  -25.2455 C   0  0  0  0  0  0  0  0  0  0  0  0
    0.5980   22.8196  -26.4743 C   0  0  0  0  0  0  0  0  0  0  0  0
   -0.2678   22.8366  -27.5616 C   0  0  0  0  0  0  0  0  0  0  0  0
    0.1864   23.2131  -28.8295 O   0  0  0  0  0  0  0  0  0  0  0  0
   -1.5796   22.4733  -27.3532 C   0  0  0  0  0  0  0  0  0  0  0  0
   -2.0317   22.0985  -26.0906 C   0  0  0  0  0  0  0  0  0  0  0  0
    1.1673   23.4727  -28.9264 H   0  0  0  0  0  0  0  0  0  0  0  0
   -6.4147   23.3523  -25.0462 C   0  0  0  0  0  0  0  0  0  0  0  0
   -7.3829   24.5082  -25.3307 C   0  0  0  0  0  0  0  0  0  0  0  0
   -4.8602   24.6623  -26.4775 C   0  0  0  0  0  0  0  0  0  0  0  0
   -5.4276   23.2866  -26.1499 C   0  0  0  0  0  0  0  0  0  0  0  0
 58 59  1  0  0  0
 59 56  1  0  0  0
 56 57  1  0  0  0
 56  1  1  0  0  0
  1 31  1  0  0  0
 31 32  1  0  0  0
 32 33  2  0  0  0
 32 35  1  0  0  0
 35 47  1  0  0  0
 47 48  1  0  0  0
 48 49  2  0  0  0
 49 50  1  0  0  0
 50 51  2  0  0  0
 51 52  1  0  0  0
 51 53  1  0  0  0
 53 54  2  0  0  0
 35 36  1  0  0  0
 36 37  1  0  0  0
 37 38  2  0  0  0
 37 40  1  0  0  0
 40 41  2  0  0  0
 41 42  1  0  0  0
 42 43  2  0  0  0
 43 44  1  0  0  0
 43 45  1  0  0  0
 45 46  2  0  0  0
  1  2  1  0  0  0
  2  3  2  0  0  0
  2  4  1  0  0  0
  4  6  1  0  0  0
  6 26  1  0  0  0
 26 27  1  0  0  0
 27 28  1  0  0  0
 27 29  2  0  0  0
  6  7  1  0  0  0
  7  8  2  0  0  0
  7  9  1  0  0  0
  9 11  1  0  0  0
 11 17  1  0  0  0
 17 18  1  0  0  0
 18 19  2  0  0  0
 19 20  1  0  0  0
 20 21  2  0  0  0
 21 22  1  0  0  0
 21 23  1  0  0  0
 23 24  2  0  0  0
 11 12  1  0  0  0
 12 13  1  0  0  0
 12 14  2  0  0  0
 54 48  1  0  0  0
 46 40  1  0  0  0
 24 18  1  0  0  0
 31 34  1  0  0  0
 52 55  1  0  0  0
 36 39  1  0  0  0
  4  5  1  0  0  0
 28 30  1  0  0  0
  9 10  1  0  0  0
 22 25  1  0  0  0
 13 15  1  0  0  0
 13 16  1  0  0  0
M  END
> <minimizedAffinity>
-9.28358

> <CNNscore>
0.2961773872

> <CNNaffinity>
6.7715873718

> <CNN_VS>
2.0055911541

> <CNNaffinity_variance>
0.4804547727

$$$$
[H]OC(=O)C([H])([H])[C@@]([H])(C(=O)N([H])[C@]([H])(C(=O)N([H])[H])C([H])([H])c1c([H])c([H])c(O[H])c([H])c1[H])N([H])C(=O)[C@@]([H])(N([H])C(=O)[C@@]([H])(N([H])C(=O)c1c([H])c([H])c(Cl)c([H])c1[H])C([H])([H])c1c([H])c([H])c(O[H])c([H])c1[H])[C@@]([H])(C([H])([H])[H])C([H])([H])C([H])([H])[H]


 59 61  0  0  0  0  0  0  0  0999 V2000
   -4.9422   25.4584  -24.0443 C   0  0  0  0  0  0  0  0  0  0  0  0
   -6.2533   24.8460  -23.7494 C   0  0  0  0  0  0  0  0  0  0  0  0
   -7.0958   24.7074  -24.7010 O   0  0  0  0  0  0  0  0  0  0  0  0
   -6.6285   24.3977  -22.4760 N   0  0  0  0  0  0  0  0  0  0  0  0
   -6.0589   24.4337  -21.6325 H   0  0  0  0  0  0  0  0  0  0  0  0
   -7.9707   23.7781  -22.2547 C   0  0  0  0  0  0  0  0  0  0  0  0
   -8.7879   24.7185  -21.4835 C   0  0  0  0  0  0  0  0  0  0  0  0
   -8.1385   25.3982  -20.5957 O   0  0  0  0  0  0  0  0  0  0  0  0
  -10.1417   24.9833  -21.5584 N   0  0  0  0  0  0  0  0  0  0  0  0
  -10.7715   24.4868  -22.2113 H   0  0  0  0  0  0  0  0  0  0  0  0
  -10.8232   25.9729  -20.7063 C   0  0  0  0  0  0  0  0  0  0  0  0
  -11.8682   25.2951  -19.9451 C   0  0  0  0  0  0  0  0  0  0  0  0
  -13.0815   24.7896  -20.4352 N   0  0  0  0  0  0  0  0  0  0  0  0
  -11.6784   25.1365  -18.6869 O   0  0  0  0  0  0  0  0  0  0  0  0
  -13.4351   23.8463  -20.1257 H   0  0  0  0  0  0  0  0  0  0  0  0
  -13.6628   25.3444  -21.1269 H   0  0  0  0  0  0  0  0  0  0  0  0
  -11.2169   27.1667  -21.4940 C   0  0  0  0  0  0  0  0  0  0  0  0
  -11.1511   28.4658  -20.7951 C   0  0  0  0  0  0  0  0  0  0  0  0
   -9.9638   28.9022  -20.2313 C   0  0  0  0  0  0  0  0  0  0  0  0
   -9.8867   30.1317  -19.5947 C   0  0  0  0  0  0  0  0  0  0  0  0
  -10.9744   30.9701  -19.4920 C   0  0  0  0  0  0  0  0  0  0  0  0
  -10.8538   32.1963  -18.8435 O   0  0  0  0  0  0  0  0  0  0  0  0
  -12.1580   30.5420  -20.0506 C   0  0  0  0  0  0  0  0  0  0  0  0
  -12.2414   29.3203  -20.6854 C   0  0  0  0  0  0  0  0  0  0  0  0
  -11.0458   32.2100  -17.8329 H   0  0  0  0  0  0  0  0  0  0  0  0
   -7.6821   22.4544  -21.6264 C   0  0  0  0  0  0  0  0  0  0  0  0
   -6.3256   21.9382  -21.7877 C   0  0  0  0  0  0  0  0  0  0  0  0
   -5.7858   21.4471  -22.9815 O   0  0  0  0  0  0  0  0  0  0  0  0
   -5.5612   21.9291  -20.7820 O   0  0  0  0  0  0  0  0  0  0  0  0
   -6.0109   21.9691  -23.8225 H   0  0  0  0  0  0  0  0  0  0  0  0
   -3.9056   24.3617  -24.0713 N   0  0  0  0  0  0  0  0  0  0  0  0
   -3.3158   23.9472  -22.8699 C   0  0  0  0  0  0  0  0  0  0  0  0
   -3.7678   24.5664  -21.8197 O   0  0  0  0  0  0  0  0  0  0  0  0
   -3.6835   23.9905  -24.9988 H   0  0  0  0  0  0  0  0  0  0  0  0
   -2.2808   22.9480  -22.6420 C   0  0  0  0  0  0  0  0  0  0  0  0
   -2.4608   22.4045  -21.2806 N   0  0  0  0  0  0  0  0  0  0  0  0
   -1.7484   22.8733  -20.1801 C   0  0  0  0  0  0  0  0  0  0  0  0
   -0.9125   23.7939  -20.3479 O   0  0  0  0  0  0  0  0  0  0  0  0
   -3.1499   21.6474  -21.1817 H   0  0  0  0  0  0  0  0  0  0  0  0
   -1.9018   22.3639  -18.8017 C   0  0  0  0  0  0  0  0  0  0  0  0
   -3.1209   22.3981  -18.1706 C   0  0  0  0  0  0  0  0  0  0  0  0
   -3.2427   21.9279  -16.8919 C   0  0  0  0  0  0  0  0  0  0  0  0
   -2.1839   21.4015  -16.1637 C   0  0  0  0  0  0  0  0  0  0  0  0
   -2.3666   20.8057  -14.5299 Cl  0  0  0  0  0  0  0  0  0  0  0  0
   -0.9733   21.3890  -16.8451 C   0  0  0  0  0  0  0  0  0  0  0  0
   -0.8285   21.8512  -18.1179 C   0  0  0  0  0  0  0  0  0  0  0  0
   -2.0883   21.8515  -23.5996 C   0  0  0  0  0  0  0  0  0  0  0  0
   -1.4922   22.1091  -24.8976 C   0  0  0  0  0  0  0  0  0  0  0  0
   -2.2152   22.1560  -26.0788 C   0  0  0  0  0  0  0  0  0  0  0  0
   -1.6699   22.4501  -27.2996 C   0  0  0  0  0  0  0  0  0  0  0  0
   -0.3099   22.7226  -27.3897 C   0  0  0  0  0  0  0  0  0  0  0  0
    0.2769   23.0262  -28.6222 O   0  0  0  0  0  0  0  0  0  0  0  0
    0.4382   22.6846  -26.2342 C   0  0  0  0  0  0  0  0  0  0  0  0
   -0.1462   22.3821  -25.0070 C   0  0  0  0  0  0  0  0  0  0  0  0
   -0.3241   23.0401  -29.4454 H   0  0  0  0  0  0  0  0  0  0  0  0
   -4.9585   26.0387  -25.4436 C   0  0  0  0  0  0  0  0  0  0  0  0
   -4.3087   27.4271  -25.3772 C   0  0  0  0  0  0  0  0  0  0  0  0
   -4.9127   25.4666  -27.8626 C   0  0  0  0  0  0  0  0  0  0  0  0
   -4.2736   25.2515  -26.4962 C   0  0  0  0  0  0  0  0  0  0  0  0
 58 59  1  0  0  0
 59 56  1  0  0  0
 56 57  1  0  0  0
 56  1  1  0  0  0
  1 31  1  0  0  0
 31 32  1  0  0  0
 32 33  2  0  0  0
 32 35  1  0  0  0
 35 47  1  0  0  0
 47 48  1  0  0  0
 48 49  2  0  0  0
 49 50  1  0  0  0
 50 51  2  0  0  0
 51 52  1  0  0  0
 51 53  1  0  0  0
 53 54  2  0  0  0
 35 36  1  0  0  0
 36 37  1  0  0  0
 37 38  2  0  0  0
 37 40  1  0  0  0
 40 41  2  0  0  0
 41 42  1  0  0  0
 42 43  2  0  0  0
 43 44  1  0  0  0
 43 45  1  0  0  0
 45 46  2  0  0  0
  1  2  1  0  0  0
  2  3  2  0  0  0
  2  4  1  0  0  0
  4  6  1  0  0  0
  6 26  1  0  0  0
 26 27  1  0  0  0
 27 28  1  0  0  0
 27 29  2  0  0  0
  6  7  1  0  0  0
  7  8  2  0  0  0
  7  9  1  0  0  0
  9 11  1  0  0  0
 11 17  1  0  0  0
 17 18  1  0  0  0
 18 19  2  0  0  0
 19 20  1  0  0  0
 20 21  2  0  0  0
 21 22  1  0  0  0
 21 23  1  0  0  0
 23 24  2  0  0  0
 11 12  1  0  0  0
 12 13  1  0  0  0
 12 14  2  0  0  0
 54 48  1  0  0  0
 46 40  1  0  0  0
 24 18  1  0  0  0
 31 34  1  0  0  0
 52 55  1  0  0  0
 36 39  1  0  0  0
  4  5  1  0  0  0
 28 30  1  0  0  0
  9 10  1  0  0  0
 22 25  1  0  0  0
 13 15  1  0  0  0
 13 16  1  0  0  0
M  END
> <minimizedAffinity>
-9.52711

> <CNNscore>
0.2888107598

> <CNNaffinity>
6.9029717445

> <CNN_VS>
1.9936524630

> <CNNaffinity_variance>
0.3400192857

$$$$
[H]OC(=O)C([H])([H])[C@@]([H])(C(=O)N([H])[C@]([H])(C(=O)N([H])[H])C([H])([H])c1c([H])c([H])c(O[H])c([H])c1[H])N([H])C(=O)[C@@]([H])(N([H])C(=O)[C@@]([H])(N([H])C(=O)c1c([H])c([H])c(Cl)c([H])c1[H])C([H])([H])c1c([H])c([H])c(O[H])c([H])c1[H])[C@@]([H])(C([H])([H])[H])C([H])([H])C([H])([H])[H]


 59 61  0  0  0  0  0  0  0  0999 V2000
   -6.0710   23.6440  -22.9543 C   0  0  0  0  0  0  0  0  0  0  0  0
   -6.9924   23.0575  -21.9605 C   0  0  0  0  0  0  0  0  0  0  0  0
   -7.3470   21.8365  -22.0953 O   0  0  0  0  0  0  0  0  0  0  0  0
   -7.5003   23.7665  -20.8639 N   0  0  0  0  0  0  0  0  0  0  0  0
   -7.2964   24.7357  -20.6262 H   0  0  0  0  0  0  0  0  0  0  0  0
   -8.4220   23.1029  -19.8921 C   0  0  0  0  0  0  0  0  0  0  0  0
   -9.6750   23.8617  -19.8577 C   0  0  0  0  0  0  0  0  0  0  0  0
   -9.5295   25.1426  -19.7571 O   0  0  0  0  0  0  0  0  0  0  0  0
  -10.9817   23.4165  -19.9111 N   0  0  0  0  0  0  0  0  0  0  0  0
  -11.2269   22.4134  -19.9671 H   0  0  0  0  0  0  0  0  0  0  0  0
  -12.1476   24.3159  -19.8690 C   0  0  0  0  0  0  0  0  0  0  0  0
  -12.7974   24.1798  -18.5689 C   0  0  0  0  0  0  0  0  0  0  0  0
  -12.7769   25.1003  -17.5106 N   0  0  0  0  0  0  0  0  0  0  0  0
  -13.4631   23.1066  -18.3471 O   0  0  0  0  0  0  0  0  0  0  0  0
  -13.6549   25.3170  -16.9695 H   0  0  0  0  0  0  0  0  0  0  0  0
  -11.8805   25.5963  -17.2376 H   0  0  0  0  0  0  0  0  0  0  0  0
  -12.9920   24.1433  -21.0764 C   0  0  0  0  0  0  0  0  0  0  0  0
  -12.8921   25.1988  -22.1042 C   0  0  0  0  0  0  0  0  0  0  0  0
  -13.7845   25.2372  -23.1625 C   0  0  0  0  0  0  0  0  0  0  0  0
  -13.7134   26.2389  -24.1187 C   0  0  0  0  0  0  0  0  0  0  0  0
  -12.7628   27.2337  -24.0646 C   0  0  0  0  0  0  0  0  0  0  0  0
  -12.7261   28.2206  -25.0461 O   0  0  0  0  0  0  0  0  0  0  0  0
  -11.8723   27.2012  -23.0147 C   0  0  0  0  0  0  0  0  0  0  0  0
  -11.9376   26.2078  -22.0601 C   0  0  0  0  0  0  0  0  0  0  0  0
  -12.1432   28.0343  -25.8730 H   0  0  0  0  0  0  0  0  0  0  0  0
   -7.6425   23.0195  -18.6211 C   0  0  0  0  0  0  0  0  0  0  0  0
   -6.4469   23.8535  -18.5338 C   0  0  0  0  0  0  0  0  0  0  0  0
   -5.1675   23.4763  -18.9567 O   0  0  0  0  0  0  0  0  0  0  0  0
   -6.5557   25.0128  -18.0439 O   0  0  0  0  0  0  0  0  0  0  0  0
   -5.1176   22.9701  -19.8351 H   0  0  0  0  0  0  0  0  0  0  0  0
   -4.8289   22.7882  -23.0076 N   0  0  0  0  0  0  0  0  0  0  0  0
   -3.7118   23.1545  -22.2453 C   0  0  0  0  0  0  0  0  0  0  0  0
   -3.8907   24.2245  -21.5286 O   0  0  0  0  0  0  0  0  0  0  0  0
   -4.8811   21.9772  -23.6296 H   0  0  0  0  0  0  0  0  0  0  0  0
   -2.4029   22.5216  -22.1560 C   0  0  0  0  0  0  0  0  0  0  0  0
   -2.2341   22.0108  -20.7805 N   0  0  0  0  0  0  0  0  0  0  0  0
   -1.4913   22.6807  -19.8121 C   0  0  0  0  0  0  0  0  0  0  0  0
   -0.9351   23.7631  -20.1177 O   0  0  0  0  0  0  0  0  0  0  0  0
   -2.6992   21.1186  -20.5676 H   0  0  0  0  0  0  0  0  0  0  0  0
   -1.3025   22.2100  -18.4244 C   0  0  0  0  0  0  0  0  0  0  0  0
   -2.3795   22.0134  -17.5955 C   0  0  0  0  0  0  0  0  0  0  0  0
   -2.1851   21.5834  -16.3116 C   0  0  0  0  0  0  0  0  0  0  0  0
   -0.9328   21.3238  -15.7707 C   0  0  0  0  0  0  0  0  0  0  0  0
   -0.7115   20.7734  -14.1257 Cl  0  0  0  0  0  0  0  0  0  0  0  0
    0.1231   21.5375  -16.6478 C   0  0  0  0  0  0  0  0  0  0  0  0
   -0.0465   21.9649  -17.9297 C   0  0  0  0  0  0  0  0  0  0  0  0
   -2.0124   21.4910  -23.1264 C   0  0  0  0  0  0  0  0  0  0  0  0
   -1.3781   21.8655  -24.3770 C   0  0  0  0  0  0  0  0  0  0  0  0
   -0.0053   21.9424  -24.5487 C   0  0  0  0  0  0  0  0  0  0  0  0
    0.6024   22.2434  -25.7380 C   0  0  0  0  0  0  0  0  0  0  0  0
   -0.1812   22.4918  -26.8589 C   0  0  0  0  0  0  0  0  0  0  0  0
    0.4094   22.8021  -28.0879 O   0  0  0  0  0  0  0  0  0  0  0  0
   -1.5498   22.4235  -26.7229 C   0  0  0  0  0  0  0  0  0  0  0  0
   -2.1379   22.1147  -25.4990 C   0  0  0  0  0  0  0  0  0  0  0  0
    1.4272   22.8393  -28.1313 H   0  0  0  0  0  0  0  0  0  0  0  0
   -6.6897   23.5510  -24.3341 C   0  0  0  0  0  0  0  0  0  0  0  0
   -7.5415   24.8097  -24.5458 C   0  0  0  0  0  0  0  0  0  0  0  0
   -6.4597   23.6262  -26.8085 C   0  0  0  0  0  0  0  0  0  0  0  0
   -5.7516   23.4237  -25.4745 C   0  0  0  0  0  0  0  0  0  0  0  0
 58 59  1  0  0  0
 59 56  1  0  0  0
 56 57  1  0  0  0
 56  1  1  0  0  0
  1 31  1  0  0  0
 31 32  1  0  0  0
 32 33  2  0  0  0
 32 35  1  0  0  0
 35 47  1  0  0  0
 47 48  1  0  0  0
 48 49  2  0  0  0
 49 50  1  0  0  0
 50 51  2  0  0  0
 51 52  1  0  0  0
 51 53  1  0  0  0
 53 54  2  0  0  0
 35 36  1  0  0  0
 36 37  1  0  0  0
 37 38  2  0  0  0
 37 40  1  0  0  0
 40 41  2  0  0  0
 41 42  1  0  0  0
 42 43  2  0  0  0
 43 44  1  0  0  0
 43 45  1  0  0  0
 45 46  2  0  0  0
  1  2  1  0  0  0
  2  3  2  0  0  0
  2  4  1  0  0  0
  4  6  1  0  0  0
  6 26  1  0  0  0
 26 27  1  0  0  0
 27 28  1  0  0  0
 27 29  2  0  0  0
  6  7  1  0  0  0
  7  8  2  0  0  0
  7  9  1  0  0  0
  9 11  1  0  0  0
 11 17  1  0  0  0
 17 18  1  0  0  0
 18 19  2  0  0  0
 19 20  1  0  0  0
 20 21  2  0  0  0
 21 22  1  0  0  0
 21 23  1  0  0  0
 23 24  2  0  0  0
 11 12  1  0  0  0
 12 13  1  0  0  0
 12 14  2  0  0  0
 54 48  1  0  0  0
 46 40  1  0  0  0
 24 18  1  0  0  0
 31 34  1  0  0  0
 52 55  1  0  0  0
 36 39  1  0  0  0
  4  5  1  0  0  0
 28 30  1  0  0  0
  9 10  1  0  0  0
 22 25  1  0  0  0
 13 15  1  0  0  0
 13 16  1  0  0  0
M  END
> <minimizedAffinity>
-9.32663

> <CNNscore>
0.2218550593

> <CNNaffinity>
6.4139685631

> <CNN_VS>
1.4229713678

> <CNNaffinity_variance>
0.9829149246

$$$$
[H]OC(=O)C([H])([H])[C@@]([H])(C(=O)N([H])[C@]([H])(C(=O)N([H])[H])C([H])([H])c1c([H])c([H])c(O[H])c([H])c1[H])N([H])C(=O)[C@@]([H])(N([H])C(=O)[C@@]([H])(N([H])C(=O)c1c([H])c([H])c(Cl)c([H])c1[H])C([H])([H])c1c([H])c([H])c(O[H])c([H])c1[H])[C@@]([H])(C([H])([H])[H])C([H])([H])C([H])([H])[H]


 59 61  0  0  0  0  0  0  0  0999 V2000
   -2.9646   22.1090  -19.6280 C   0  0  0  0  0  0  0  0  0  0  0  0
   -4.0817   22.3006  -20.5746 C   0  0  0  0  0  0  0  0  0  0  0  0
   -4.3500   21.3678  -21.4069 O   0  0  0  0  0  0  0  0  0  0  0  0
   -4.8766   23.4539  -20.6095 N   0  0  0  0  0  0  0  0  0  0  0  0
   -4.7859   24.2668  -20.0026 H   0  0  0  0  0  0  0  0  0  0  0  0
   -5.9982   23.5731  -21.5903 C   0  0  0  0  0  0  0  0  0  0  0  0
   -5.4385   23.9937  -22.8775 C   0  0  0  0  0  0  0  0  0  0  0  0
   -4.5027   24.8824  -22.7963 O   0  0  0  0  0  0  0  0  0  0  0  0
   -5.7617   23.5895  -24.1583 N   0  0  0  0  0  0  0  0  0  0  0  0
   -6.5097   22.9027  -24.3539 H   0  0  0  0  0  0  0  0  0  0  0  0
   -5.0966   24.1096  -25.3654 C   0  0  0  0  0  0  0  0  0  0  0  0
   -5.9300   25.1591  -25.9441 C   0  0  0  0  0  0  0  0  0  0  0  0
   -5.5619   26.0871  -26.9294 N   0  0  0  0  0  0  0  0  0  0  0  0
   -7.1343   25.2645  -25.5165 O   0  0  0  0  0  0  0  0  0  0  0  0
   -6.2157   26.3157  -27.7237 H   0  0  0  0  0  0  0  0  0  0  0  0
   -4.6200   26.5727  -26.8954 H   0  0  0  0  0  0  0  0  0  0  0  0
   -4.6771   23.0007  -26.2570 C   0  0  0  0  0  0  0  0  0  0  0  0
   -3.2354   22.9142  -26.5640 C   0  0  0  0  0  0  0  0  0  0  0  0
   -2.3246   22.5769  -25.5768 C   0  0  0  0  0  0  0  0  0  0  0  0
   -0.9718   22.4693  -25.8617 C   0  0  0  0  0  0  0  0  0  0  0  0
   -0.4722   22.6903  -27.1258 C   0  0  0  0  0  0  0  0  0  0  0  0
    0.8937   22.5724  -27.3688 O   0  0  0  0  0  0  0  0  0  0  0  0
   -1.3726   23.0261  -28.1121 C   0  0  0  0  0  0  0  0  0  0  0  0
   -2.7195   23.1346  -27.8354 C   0  0  0  0  0  0  0  0  0  0  0  0
    1.4631   23.4212  -27.2517 H   0  0  0  0  0  0  0  0  0  0  0  0
   -6.9778   24.4946  -20.9412 C   0  0  0  0  0  0  0  0  0  0  0  0
   -6.8462   24.6743  -19.4980 C   0  0  0  0  0  0  0  0  0  0  0  0
   -7.4503   23.8689  -18.5263 O   0  0  0  0  0  0  0  0  0  0  0  0
   -6.1313   25.6247  -19.0721 O   0  0  0  0  0  0  0  0  0  0  0  0
   -7.4453   22.8700  -18.7067 H   0  0  0  0  0  0  0  0  0  0  0  0
   -2.7915   20.6275  -19.3975 N   0  0  0  0  0  0  0  0  0  0  0  0
   -2.6918   20.1457  -18.0856 C   0  0  0  0  0  0  0  0  0  0  0  0
   -2.7888   21.0697  -17.1760 O   0  0  0  0  0  0  0  0  0  0  0  0
   -2.7418   20.0545  -20.2440 H   0  0  0  0  0  0  0  0  0  0  0  0
   -2.4877   18.7836  -17.6116 C   0  0  0  0  0  0  0  0  0  0  0  0
   -3.3003   17.8800  -18.4512 N   0  0  0  0  0  0  0  0  0  0  0  0
   -4.1153   16.8844  -17.9194 C   0  0  0  0  0  0  0  0  0  0  0  0
   -4.1611   16.7413  -16.6737 O   0  0  0  0  0  0  0  0  0  0  0  0
   -3.2335   18.0227  -19.4676 H   0  0  0  0  0  0  0  0  0  0  0  0
   -4.9487   15.9645  -18.7209 C   0  0  0  0  0  0  0  0  0  0  0  0
   -6.2096   15.6144  -18.3047 C   0  0  0  0  0  0  0  0  0  0  0  0
   -6.9643   14.7563  -19.0564 C   0  0  0  0  0  0  0  0  0  0  0  0
   -6.5292   14.1961  -20.2502 C   0  0  0  0  0  0  0  0  0  0  0  0
   -7.5147   13.1021  -21.1933 Cl  0  0  0  0  0  0  0  0  0  0  0  0
   -5.2488   14.5808  -20.6277 C   0  0  0  0  0  0  0  0  0  0  0  0
   -4.4795   15.4336  -19.8957 C   0  0  0  0  0  0  0  0  0  0  0  0
   -1.1285   18.2474  -17.4659 C   0  0  0  0  0  0  0  0  0  0  0  0
   -0.4758   17.5925  -18.5847 C   0  0  0  0  0  0  0  0  0  0  0  0
    0.0591   18.2729  -19.6669 C   0  0  0  0  0  0  0  0  0  0  0  0
    0.7224   17.6678  -20.7004 C   0  0  0  0  0  0  0  0  0  0  0  0
    0.8841   16.2873  -20.6898 C   0  0  0  0  0  0  0  0  0  0  0  0
    1.5568   15.6397  -21.7308 O   0  0  0  0  0  0  0  0  0  0  0  0
    0.3645   15.5805  -19.6284 C   0  0  0  0  0  0  0  0  0  0  0  0
   -0.3054   16.2254  -18.5919 C   0  0  0  0  0  0  0  0  0  0  0  0
    1.9209   16.2121  -22.4916 H   0  0  0  0  0  0  0  0  0  0  0  0
   -1.6734   22.5756  -20.2686 C   0  0  0  0  0  0  0  0  0  0  0  0
   -0.8751   23.3362  -19.2015 C   0  0  0  0  0  0  0  0  0  0  0  0
   -0.8503   21.5283  -22.3678 C   0  0  0  0  0  0  0  0  0  0  0  0
   -0.8013   21.5248  -20.8448 C   0  0  0  0  0  0  0  0  0  0  0  0
 58 59  1  0  0  0
 59 56  1  0  0  0
 56 57  1  0  0  0
 56  1  1  0  0  0
  1 31  1  0  0  0
 31 32  1  0  0  0
 32 33  2  0  0  0
 32 35  1  0  0  0
 35 47  1  0  0  0
 47 48  1  0  0  0
 48 49  2  0  0  0
 49 50  1  0  0  0
 50 51  2  0  0  0
 51 52  1  0  0  0
 51 53  1  0  0  0
 53 54  2  0  0  0
 35 36  1  0  0  0
 36 37  1  0  0  0
 37 38  2  0  0  0
 37 40  1  0  0  0
 40 41  2  0  0  0
 41 42  1  0  0  0
 42 43  2  0  0  0
 43 44  1  0  0  0
 43 45  1  0  0  0
 45 46  2  0  0  0
  1  2  1  0  0  0
  2  3  2  0  0  0
  2  4  1  0  0  0
  4  6  1  0  0  0
  6 26  1  0  0  0
 26 27  1  0  0  0
 27 28  1  0  0  0
 27 29  2  0  0  0
  6  7  1  0  0  0
  7  8  2  0  0  0
  7  9  1  0  0  0
  9 11  1  0  0  0
 11 17  1  0  0  0
 17 18  1  0  0  0
 18 19  2  0  0  0
 19 20  1  0  0  0
 20 21  2  0  0  0
 21 22  1  0  0  0
 21 23  1  0  0  0
 23 24  2  0  0  0
 11 12  1  0  0  0
 12 13  1  0  0  0
 12 14  2  0  0  0
 54 48  1  0  0  0
 46 40  1  0  0  0
 24 18  1  0  0  0
 31 34  1  0  0  0
 52 55  1  0  0  0
 36 39  1  0  0  0
  4  5  1  0  0  0
 28 30  1  0  0  0
  9 10  1  0  0  0
 22 25  1  0  0  0
 13 15  1  0  0  0
 13 16  1  0  0  0
M  END
> <minimizedAffinity>
-7.86645

> <CNNscore>
0.1627250463

> <CNNaffinity>
6.7183942795

> <CNN_VS>
1.0932509899

> <CNNaffinity_variance>
0.0802552477

$$$$
[H]OC(=O)C([H])([H])[C@@]([H])(C(=O)N([H])[C@]([H])(C(=O)N([H])[H])C([H])([H])c1c([H])c([H])c(O[H])c([H])c1[H])N([H])C(=O)[C@@]([H])(N([H])C(=O)[C@@]([H])(N([H])C(=O)c1c([H])c([H])c(Cl)c([H])c1[H])C([H])([H])c1c([H])c([H])c(O[H])c([H])c1[H])[C@@]([H])(C([H])([H])[H])C([H])([H])C([H])([H])[H]


 59 61  0  0  0  0  0  0  0  0999 V2000
   -5.5146   23.2467  -18.2547 C   0  0  0  0  0  0  0  0  0  0  0  0
   -4.3247   22.6062  -18.8503 C   0  0  0  0  0  0  0  0  0  0  0  0
   -4.4688   21.9038  -19.9089 O   0  0  0  0  0  0  0  0  0  0  0  0
   -3.0332   22.7303  -18.3212 N   0  0  0  0  0  0  0  0  0  0  0  0
   -2.7694   23.2640  -17.4948 H   0  0  0  0  0  0  0  0  0  0  0  0
   -1.8735   22.0605  -18.9851 C   0  0  0  0  0  0  0  0  0  0  0  0
   -1.8072   22.5280  -20.3722 C   0  0  0  0  0  0  0  0  0  0  0  0
   -1.3178   23.7156  -20.5203 O   0  0  0  0  0  0  0  0  0  0  0  0
   -2.1914   21.8960  -21.5390 N   0  0  0  0  0  0  0  0  0  0  0  0
   -2.6187   20.9544  -21.5482 H   0  0  0  0  0  0  0  0  0  0  0  0
   -2.0552   22.5042  -22.8738 C   0  0  0  0  0  0  0  0  0  0  0  0
   -3.1689   23.4239  -23.0853 C   0  0  0  0  0  0  0  0  0  0  0  0
   -3.1567   24.8186  -22.9359 N   0  0  0  0  0  0  0  0  0  0  0  0
   -4.2932   22.9225  -23.4444 O   0  0  0  0  0  0  0  0  0  0  0  0
   -3.6264   25.4395  -23.6460 H   0  0  0  0  0  0  0  0  0  0  0  0
   -2.6731   25.2734  -22.1092 H   0  0  0  0  0  0  0  0  0  0  0  0
   -1.8213   21.4653  -23.9065 C   0  0  0  0  0  0  0  0  0  0  0  0
   -1.2888   21.9345  -25.2014 C   0  0  0  0  0  0  0  0  0  0  0  0
   -2.1427   22.1990  -26.2592 C   0  0  0  0  0  0  0  0  0  0  0  0
   -1.6539   22.6634  -27.4708 C   0  0  0  0  0  0  0  0  0  0  0  0
   -0.3105   22.8818  -27.6805 C   0  0  0  0  0  0  0  0  0  0  0  0
    0.1385   23.3482  -28.9133 O   0  0  0  0  0  0  0  0  0  0  0  0
    0.5439   22.6207  -26.6327 C   0  0  0  0  0  0  0  0  0  0  0  0
    0.0642   22.1588  -25.4248 C   0  0  0  0  0  0  0  0  0  0  0  0
    0.3848   22.6403  -29.6180 H   0  0  0  0  0  0  0  0  0  0  0  0
   -2.1005   20.6003  -18.7698 C   0  0  0  0  0  0  0  0  0  0  0  0
   -1.1975   19.9307  -17.8377 C   0  0  0  0  0  0  0  0  0  0  0  0
    0.1504   19.6469  -18.0835 O   0  0  0  0  0  0  0  0  0  0  0  0
   -1.6487   19.5745  -16.7128 O   0  0  0  0  0  0  0  0  0  0  0  0
    0.6836   20.3750  -18.5481 H   0  0  0  0  0  0  0  0  0  0  0  0
   -6.6089   23.2660  -19.2939 N   0  0  0  0  0  0  0  0  0  0  0  0
   -6.6719   24.3309  -20.2023 C   0  0  0  0  0  0  0  0  0  0  0  0
   -5.7227   25.2070  -20.0539 O   0  0  0  0  0  0  0  0  0  0  0  0
   -7.2640   22.4807  -19.2560 H   0  0  0  0  0  0  0  0  0  0  0  0
   -7.6397   24.5913  -21.2592 C   0  0  0  0  0  0  0  0  0  0  0  0
   -6.9619   24.4017  -22.5576 N   0  0  0  0  0  0  0  0  0  0  0  0
   -6.9508   25.3751  -23.5530 C   0  0  0  0  0  0  0  0  0  0  0  0
   -7.5453   26.4602  -23.3446 O   0  0  0  0  0  0  0  0  0  0  0  0
   -6.4900   23.4982  -22.6955 H   0  0  0  0  0  0  0  0  0  0  0  0
   -6.2804   25.2301  -24.8617 C   0  0  0  0  0  0  0  0  0  0  0  0
   -5.3154   26.1220  -25.2604 C   0  0  0  0  0  0  0  0  0  0  0  0
   -4.7101   25.9757  -26.4783 C   0  0  0  0  0  0  0  0  0  0  0  0
   -5.0141   24.9545  -27.3687 C   0  0  0  0  0  0  0  0  0  0  0  0
   -4.2243   24.7892  -28.9199 Cl  0  0  0  0  0  0  0  0  0  0  0  0
   -5.9953   24.0795  -26.9197 C   0  0  0  0  0  0  0  0  0  0  0  0
   -6.6113   24.2052  -25.7116 C   0  0  0  0  0  0  0  0  0  0  0  0
   -8.9348   23.8994  -21.2625 C   0  0  0  0  0  0  0  0  0  0  0  0
  -10.1616   24.6405  -21.0334 C   0  0  0  0  0  0  0  0  0  0  0  0
  -10.8597   24.6185  -19.8366 C   0  0  0  0  0  0  0  0  0  0  0  0
  -11.9881   25.3549  -19.5943 C   0  0  0  0  0  0  0  0  0  0  0  0
  -12.4867   26.1844  -20.5920 C   0  0  0  0  0  0  0  0  0  0  0  0
  -13.6373   26.9490  -20.3753 O   0  0  0  0  0  0  0  0  0  0  0  0
  -11.8165   26.2299  -21.7941 C   0  0  0  0  0  0  0  0  0  0  0  0
  -10.6709   25.4683  -22.0098 C   0  0  0  0  0  0  0  0  0  0  0  0
  -14.0934   26.8763  -19.4667 H   0  0  0  0  0  0  0  0  0  0  0  0
   -6.0403   22.3851  -17.1249 C   0  0  0  0  0  0  0  0  0  0  0  0
   -6.4885   23.3233  -15.9965 C   0  0  0  0  0  0  0  0  0  0  0  0
   -6.7124   20.0217  -17.5038 C   0  0  0  0  0  0  0  0  0  0  0  0
   -7.1643   21.4760  -17.4517 C   0  0  0  0  0  0  0  0  0  0  0  0
 58 59  1  0  0  0
 59 56  1  0  0  0
 56 57  1  0  0  0
 56  1  1  0  0  0
  1 31  1  0  0  0
 31 32  1  0  0  0
 32 33  2  0  0  0
 32 35  1  0  0  0
 35 47  1  0  0  0
 47 48  1  0  0  0
 48 49  2  0  0  0
 49 50  1  0  0  0
 50 51  2  0  0  0
 51 52  1  0  0  0
 51 53  1  0  0  0
 53 54  2  0  0  0
 35 36  1  0  0  0
 36 37  1  0  0  0
 37 38  2  0  0  0
 37 40  1  0  0  0
 40 41  2  0  0  0
 41 42  1  0  0  0
 42 43  2  0  0  0
 43 44  1  0  0  0
 43 45  1  0  0  0
 45 46  2  0  0  0
  1  2  1  0  0  0
  2  3  2  0  0  0
  2  4  1  0  0  0
  4  6  1  0  0  0
  6 26  1  0  0  0
 26 27  1  0  0  0
 27 28  1  0  0  0
 27 29  2  0  0  0
  6  7  1  0  0  0
  7  8  2  0  0  0
  7  9  1  0  0  0
  9 11  1  0  0  0
 11 17  1  0  0  0
 17 18  1  0  0  0
 18 19  2  0  0  0
 19 20  1  0  0  0
 20 21  2  0  0  0
 21 22  1  0  0  0
 21 23  1  0  0  0
 23 24  2  0  0  0
 11 12  1  0  0  0
 12 13  1  0  0  0
 12 14  2  0  0  0
 54 48  1  0  0  0
 46 40  1  0  0  0
 24 18  1  0  0  0
 31 34  1  0  0  0
 52 55  1  0  0  0
 36 39  1  0  0  0
  4  5  1  0  0  0
 28 30  1  0  0  0
  9 10  1  0  0  0
 22 25  1  0  0  0
 13 15  1  0  0  0
 13 16  1  0  0  0
M  END
> <minimizedAffinity>
-8.61560

> <CNNscore>
0.1606670767

> <CNNaffinity>
6.9486246109

> <CNN_VS>
1.1164152622

> <CNNaffinity_variance>
0.3106821477

$$$$
[H]OC(=O)C([H])([H])[C@@]([H])(C(=O)N([H])[C@]([H])(C(=O)N([H])[H])C([H])([H])c1c([H])c([H])c(O[H])c([H])c1[H])N([H])C(=O)[C@@]([H])(N([H])C(=O)[C@@]([H])(N([H])C(=O)c1c([H])c([H])c(Cl)c([H])c1[H])C([H])([H])c1c([H])c([H])c(O[H])c([H])c1[H])[C@@]([H])(C([H])([H])[H])C([H])([H])C([H])([H])[H]


 59 61  0  0  0  0  0  0  0  0999 V2000
   -5.3016   24.2159  -22.6969 C   0  0  0  0  0  0  0  0  0  0  0  0
   -6.2399   23.4144  -21.8857 C   0  0  0  0  0  0  0  0  0  0  0  0
   -6.5519   22.2407  -22.2857 O   0  0  0  0  0  0  0  0  0  0  0  0
   -6.8086   23.8674  -20.6880 N   0  0  0  0  0  0  0  0  0  0  0  0
   -6.6432   24.7700  -20.2460 H   0  0  0  0  0  0  0  0  0  0  0  0
   -7.7440   22.9952  -19.9144 C   0  0  0  0  0  0  0  0  0  0  0  0
   -9.0429   23.6692  -19.8398 C   0  0  0  0  0  0  0  0  0  0  0  0
   -8.9917   24.9015  -19.4514 O   0  0  0  0  0  0  0  0  0  0  0  0
  -10.3079   23.1874  -20.1156 N   0  0  0  0  0  0  0  0  0  0  0  0
  -10.4805   22.2113  -20.4105 H   0  0  0  0  0  0  0  0  0  0  0  0
  -11.5301   24.0007  -19.9947 C   0  0  0  0  0  0  0  0  0  0  0  0
  -12.5204   23.2474  -19.2312 C   0  0  0  0  0  0  0  0  0  0  0  0
  -13.9166   23.3381  -19.3319 N   0  0  0  0  0  0  0  0  0  0  0  0
  -12.0883   22.4066  -18.3648 O   0  0  0  0  0  0  0  0  0  0  0  0
  -14.5131   22.4693  -19.3328 H   0  0  0  0  0  0  0  0  0  0  0  0
  -14.3967   24.2800  -19.4118 H   0  0  0  0  0  0  0  0  0  0  0  0
  -11.9452   24.5308  -21.3165 C   0  0  0  0  0  0  0  0  0  0  0  0
  -11.8241   25.9901  -21.5065 C   0  0  0  0  0  0  0  0  0  0  0  0
  -11.4681   26.8103  -20.4489 C   0  0  0  0  0  0  0  0  0  0  0  0
  -11.3279   28.1786  -20.6240 C   0  0  0  0  0  0  0  0  0  0  0  0
  -11.5338   28.7834  -21.8440 C   0  0  0  0  0  0  0  0  0  0  0  0
  -11.3832   30.1613  -21.9762 O   0  0  0  0  0  0  0  0  0  0  0  0
  -11.8880   27.9734  -22.8997 C   0  0  0  0  0  0  0  0  0  0  0  0
  -12.0289   26.6115  -22.7325 C   0  0  0  0  0  0  0  0  0  0  0  0
  -12.2186   30.7393  -21.8143 H   0  0  0  0  0  0  0  0  0  0  0  0
   -7.0408   22.7295  -18.6241 C   0  0  0  0  0  0  0  0  0  0  0  0
   -6.0490   23.7169  -18.2070 C   0  0  0  0  0  0  0  0  0  0  0  0
   -6.3402   24.9803  -17.6809 O   0  0  0  0  0  0  0  0  0  0  0  0
   -4.8249   23.4252  -18.3184 O   0  0  0  0  0  0  0  0  0  0  0  0
   -7.1050   25.0224  -17.0148 H   0  0  0  0  0  0  0  0  0  0  0  0
   -4.3005   23.2766  -23.3242 N   0  0  0  0  0  0  0  0  0  0  0  0
   -3.1225   22.9688  -22.6308 C   0  0  0  0  0  0  0  0  0  0  0  0
   -3.0350   23.5344  -21.4634 O   0  0  0  0  0  0  0  0  0  0  0  0
   -4.5497   22.9260  -24.2528 H   0  0  0  0  0  0  0  0  0  0  0  0
   -2.0021   22.1299  -23.0341 C   0  0  0  0  0  0  0  0  0  0  0  0
   -1.7079   21.1962  -21.9282 N   0  0  0  0  0  0  0  0  0  0  0  0
   -0.4118   20.8418  -21.5638 C   0  0  0  0  0  0  0  0  0  0  0  0
    0.5513   21.3302  -22.2028 O   0  0  0  0  0  0  0  0  0  0  0  0
   -2.5216   20.8113  -21.4307 H   0  0  0  0  0  0  0  0  0  0  0  0
   -0.0724   19.9184  -20.4615 C   0  0  0  0  0  0  0  0  0  0  0  0
   -0.1286   20.3334  -19.1536 C   0  0  0  0  0  0  0  0  0  0  0  0
    0.1954   19.4664  -18.1464 C   0  0  0  0  0  0  0  0  0  0  0  0
    0.5906   18.1528  -18.3620 C   0  0  0  0  0  0  0  0  0  0  0  0
    0.9986   17.0640  -17.0560 Cl  0  0  0  0  0  0  0  0  0  0  0  0
    0.6317   17.7818  -19.7001 C   0  0  0  0  0  0  0  0  0  0  0  0
    0.3134   18.6273  -20.7192 C   0  0  0  0  0  0  0  0  0  0  0  0
   -2.0450   21.4018  -24.3086 C   0  0  0  0  0  0  0  0  0  0  0  0
   -1.4591   21.9817  -25.5032 C   0  0  0  0  0  0  0  0  0  0  0  0
   -0.0955   22.1460  -25.6875 C   0  0  0  0  0  0  0  0  0  0  0  0
    0.4685   22.6431  -26.8315 C   0  0  0  0  0  0  0  0  0  0  0  0
   -0.3529   23.0140  -27.8897 C   0  0  0  0  0  0  0  0  0  0  0  0
    0.1928   23.5251  -29.0715 O   0  0  0  0  0  0  0  0  0  0  0  0
   -1.7134   22.8634  -27.7397 C   0  0  0  0  0  0  0  0  0  0  0  0
   -2.2567   22.3545  -26.5628 C   0  0  0  0  0  0  0  0  0  0  0  0
    1.2065   23.6154  -29.1280 H   0  0  0  0  0  0  0  0  0  0  0  0
   -6.0470   24.8493  -23.8537 C   0  0  0  0  0  0  0  0  0  0  0  0
   -5.2285   26.0581  -24.3262 C   0  0  0  0  0  0  0  0  0  0  0  0
   -7.5175   24.4731  -25.8227 C   0  0  0  0  0  0  0  0  0  0  0  0
   -6.3169   23.9808  -25.0240 C   0  0  0  0  0  0  0  0  0  0  0  0
 58 59  1  0  0  0
 59 56  1  0  0  0
 56 57  1  0  0  0
 56  1  1  0  0  0
  1 31  1  0  0  0
 31 32  1  0  0  0
 32 33  2  0  0  0
 32 35  1  0  0  0
 35 47  1  0  0  0
 47 48  1  0  0  0
 48 49  2  0  0  0
 49 50  1  0  0  0
 50 51  2  0  0  0
 51 52  1  0  0  0
 51 53  1  0  0  0
 53 54  2  0  0  0
 35 36  1  0  0  0
 36 37  1  0  0  0
 37 38  2  0  0  0
 37 40  1  0  0  0
 40 41  2  0  0  0
 41 42  1  0  0  0
 42 43  2  0  0  0
 43 44  1  0  0  0
 43 45  1  0  0  0
 45 46  2  0  0  0
  1  2  1  0  0  0
  2  3  2  0  0  0
  2  4  1  0  0  0
  4  6  1  0  0  0
  6 26  1  0  0  0
 26 27  1  0  0  0
 27 28  1  0  0  0
 27 29  2  0  0  0
  6  7  1  0  0  0
  7  8  2  0  0  0
  7  9  1  0  0  0
  9 11  1  0  0  0
 11 17  1  0  0  0
 17 18  1  0  0  0
 18 19  2  0  0  0
 19 20  1  0  0  0
 20 21  2  0  0  0
 21 22  1  0  0  0
 21 23  1  0  0  0
 23 24  2  0  0  0
 11 12  1  0  0  0
 12 13  1  0  0  0
 12 14  2  0  0  0
 54 48  1  0  0  0
 46 40  1  0  0  0
 24 18  1  0  0  0
 31 34  1  0  0  0
 52 55  1  0  0  0
 36 39  1  0  0  0
  4  5  1  0  0  0
 28 30  1  0  0  0
  9 10  1  0  0  0
 22 25  1  0  0  0
 13 15  1  0  0  0
 13 16  1  0  0  0
M  END
> <minimizedAffinity>
-8.83165

> <CNNscore>
0.1451535821

> <CNNaffinity>
6.5559015274

> <CNN_VS>
0.9516125917

> <CNNaffinity_variance>
0.3919944465

$$$$
[H]OC(=O)C([H])([H])[C@@]([H])(C(=O)N([H])[C@]([H])(C(=O)N([H])[H])C([H])([H])c1c([H])c([H])c(O[H])c([H])c1[H])N([H])C(=O)[C@@]([H])(N([H])C(=O)[C@@]([H])(N([H])C(=O)c1c([H])c([H])c(Cl)c([H])c1[H])C([H])([H])c1c([H])c([H])c(O[H])c([H])c1[H])[C@@]([H])(C([H])([H])[H])C([H])([H])C([H])([H])[H]


 59 61  0  0  0  0  0  0  0  0999 V2000
   -5.2563   22.8600  -16.8020 C   0  0  0  0  0  0  0  0  0  0  0  0
   -4.0845   21.9979  -17.0555 C   0  0  0  0  0  0  0  0  0  0  0  0
   -2.9158   22.4670  -16.8343 O   0  0  0  0  0  0  0  0  0  0  0  0
   -4.1803   20.6803  -17.5228 N   0  0  0  0  0  0  0  0  0  0  0  0
   -5.0403   20.1755  -17.7299 H   0  0  0  0  0  0  0  0  0  0  0  0
   -2.9489   19.8633  -17.7471 C   0  0  0  0  0  0  0  0  0  0  0  0
   -2.2044   20.4535  -18.8626 C   0  0  0  0  0  0  0  0  0  0  0  0
   -0.9184   20.3609  -18.7642 O   0  0  0  0  0  0  0  0  0  0  0  0
   -2.6670   21.0952  -19.9952 N   0  0  0  0  0  0  0  0  0  0  0  0
   -3.6731   21.2526  -20.1748 H   0  0  0  0  0  0  0  0  0  0  0  0
   -1.7809   21.6369  -21.0398 C   0  0  0  0  0  0  0  0  0  0  0  0
   -1.3408   22.9690  -20.6362 C   0  0  0  0  0  0  0  0  0  0  0  0
   -0.3345   23.2853  -19.7116 N   0  0  0  0  0  0  0  0  0  0  0  0
   -1.9277   23.9758  -21.1711 O   0  0  0  0  0  0  0  0  0  0  0  0
    0.3602   24.0514  -19.9141 H   0  0  0  0  0  0  0  0  0  0  0  0
   -0.2522   22.7589  -18.7949 H   0  0  0  0  0  0  0  0  0  0  0  0
   -2.3991   21.4987  -22.3811 C   0  0  0  0  0  0  0  0  0  0  0  0
   -1.5143   21.7337  -23.5397 C   0  0  0  0  0  0  0  0  0  0  0  0
   -2.0473   22.0127  -24.7871 C   0  0  0  0  0  0  0  0  0  0  0  0
   -1.2237   22.2590  -25.8751 C   0  0  0  0  0  0  0  0  0  0  0  0
    0.1493   22.2383  -25.7710 C   0  0  0  0  0  0  0  0  0  0  0  0
    0.9397   22.4904  -26.8892 O   0  0  0  0  0  0  0  0  0  0  0  0
    0.6856   21.9614  -24.5333 C   0  0  0  0  0  0  0  0  0  0  0  0
   -0.1279   21.7157  -23.4469 C   0  0  0  0  0  0  0  0  0  0  0  0
    1.2070   21.6800  -27.4636 H   0  0  0  0  0  0  0  0  0  0  0  0
   -3.4441   18.4656  -17.9241 C   0  0  0  0  0  0  0  0  0  0  0  0
   -4.8226   18.2061  -17.5179 C   0  0  0  0  0  0  0  0  0  0  0  0
   -5.9429   18.3171  -18.3487 O   0  0  0  0  0  0  0  0  0  0  0  0
   -5.0421   17.8481  -16.3265 O   0  0  0  0  0  0  0  0  0  0  0  0
   -5.8362   17.9626  -19.2939 H   0  0  0  0  0  0  0  0  0  0  0  0
   -6.2955   22.5641  -17.8559 N   0  0  0  0  0  0  0  0  0  0  0  0
   -6.9353   23.6285  -18.5045 C   0  0  0  0  0  0  0  0  0  0  0  0
   -6.5238   24.8016  -18.1237 O   0  0  0  0  0  0  0  0  0  0  0  0
   -6.4812   21.5716  -18.0225 H   0  0  0  0  0  0  0  0  0  0  0  0
   -7.9828   23.6021  -19.5162 C   0  0  0  0  0  0  0  0  0  0  0  0
   -7.3806   23.9861  -20.8090 N   0  0  0  0  0  0  0  0  0  0  0  0
   -6.4469   23.1943  -21.4720 C   0  0  0  0  0  0  0  0  0  0  0  0
   -6.0949   22.1088  -20.9503 O   0  0  0  0  0  0  0  0  0  0  0  0
   -7.6884   24.8845  -21.2039 H   0  0  0  0  0  0  0  0  0  0  0  0
   -5.8253   23.5363  -22.7680 C   0  0  0  0  0  0  0  0  0  0  0  0
   -4.8845   24.5327  -22.8558 C   0  0  0  0  0  0  0  0  0  0  0  0
   -4.3244   24.8400  -24.0653 C   0  0  0  0  0  0  0  0  0  0  0  0
   -4.6525   24.1931  -25.2494 C   0  0  0  0  0  0  0  0  0  0  0  0
   -3.9205   24.6046  -26.7832 Cl  0  0  0  0  0  0  0  0  0  0  0  0
   -5.6078   23.1944  -25.1082 C   0  0  0  0  0  0  0  0  0  0  0  0
   -6.1786   22.8711  -23.9147 C   0  0  0  0  0  0  0  0  0  0  0  0
   -8.8166   22.4053  -19.6859 C   0  0  0  0  0  0  0  0  0  0  0  0
   -9.9124   22.1406  -18.7716 C   0  0  0  0  0  0  0  0  0  0  0  0
  -11.0404   22.9394  -18.6735 C   0  0  0  0  0  0  0  0  0  0  0  0
  -12.1018   22.6687  -17.8523 C   0  0  0  0  0  0  0  0  0  0  0  0
  -12.0733   21.5292  -17.0566 C   0  0  0  0  0  0  0  0  0  0  0  0
  -13.1418   21.2252  -16.2072 O   0  0  0  0  0  0  0  0  0  0  0  0
  -10.9666   20.7132  -17.1300 C   0  0  0  0  0  0  0  0  0  0  0  0
   -9.9026   21.0161  -17.9757 C   0  0  0  0  0  0  0  0  0  0  0  0
  -13.9356   21.8645  -16.1928 H   0  0  0  0  0  0  0  0  0  0  0  0
   -5.8923   22.4735  -15.4824 C   0  0  0  0  0  0  0  0  0  0  0  0
   -5.0929   23.1568  -14.3650 C   0  0  0  0  0  0  0  0  0  0  0  0
   -8.1279   21.6273  -14.7991 C   0  0  0  0  0  0  0  0  0  0  0  0
   -7.3239   22.8164  -15.3104 C   0  0  0  0  0  0  0  0  0  0  0  0
 58 59  1  0  0  0
 59 56  1  0  0  0
 56 57  1  0  0  0
 56  1  1  0  0  0
  1 31  1  0  0  0
 31 32  1  0  0  0
 32 33  2  0  0  0
 32 35  1  0  0  0
 35 47  1  0  0  0
 47 48  1  0  0  0
 48 49  2  0  0  0
 49 50  1  0  0  0
 50 51  2  0  0  0
 51 52  1  0  0  0
 51 53  1  0  0  0
 53 54  2  0  0  0
 35 36  1  0  0  0
 36 37  1  0  0  0
 37 38  2  0  0  0
 37 40  1  0  0  0
 40 41  2  0  0  0
 41 42  1  0  0  0
 42 43  2  0  0  0
 43 44  1  0  0  0
 43 45  1  0  0  0
 45 46  2  0  0  0
  1  2  1  0  0  0
  2  3  2  0  0  0
  2  4  1  0  0  0
  4  6  1  0  0  0
  6 26  1  0  0  0
 26 27  1  0  0  0
 27 28  1  0  0  0
 27 29  2  0  0  0
  6  7  1  0  0  0
  7  8  2  0  0  0
  7  9  1  0  0  0
  9 11  1  0  0  0
 11 17  1  0  0  0
 17 18  1  0  0  0
 18 19  2  0  0  0
 19 20  1  0  0  0
 20 21  2  0  0  0
 21 22  1  0  0  0
 21 23  1  0  0  0
 23 24  2  0  0  0
 11 12  1  0  0  0
 12 13  1  0  0  0
 12 14  2  0  0  0
 54 48  1  0  0  0
 46 40  1  0  0  0
 24 18  1  0  0  0
 31 34  1  0  0  0
 52 55  1  0  0  0
 36 39  1  0  0  0
  4  5  1  0  0  0
 28 30  1  0  0  0
  9 10  1  0  0  0
 22 25  1  0  0  0
 13 15  1  0  0  0
 13 16  1  0  0  0
M  END
> <minimizedAffinity>
-7.57804

> <CNNscore>
0.1430912763

> <CNNaffinity>
6.4105644226

> <CNN_VS>
0.9172958732

> <CNNaffinity_variance>
0.6125636697

$$$$
[H]OC(=O)C([H])([H])[C@@]([H])(C(=O)N([H])[C@]([H])(C(=O)N([H])[H])C([H])([H])c1c([H])c([H])c(O[H])c([H])c1[H])N([H])C(=O)[C@@]([H])(N([H])C(=O)[C@@]([H])(N([H])C(=O)c1c([H])c([H])c(Cl)c([H])c1[H])C([H])([H])c1c([H])c([H])c(O[H])c([H])c1[H])[C@@]([H])(C([H])([H])[H])C([H])([H])C([H])([H])[H]


 59 61  0  0  0  0  0  0  0  0999 V2000
   -5.2075   21.8543  -18.3777 C   0  0  0  0  0  0  0  0  0  0  0  0
   -6.0916   21.7816  -19.5582 C   0  0  0  0  0  0  0  0  0  0  0  0
   -6.4974   20.6354  -19.9537 O   0  0  0  0  0  0  0  0  0  0  0  0
   -6.5213   22.9075  -20.2731 N   0  0  0  0  0  0  0  0  0  0  0  0
   -6.2882   23.8772  -20.0669 H   0  0  0  0  0  0  0  0  0  0  0  0
   -7.4254   22.7571  -21.4539 C   0  0  0  0  0  0  0  0  0  0  0  0
   -6.7883   23.4039  -22.6040 C   0  0  0  0  0  0  0  0  0  0  0  0
   -7.5289   24.2679  -23.2179 O   0  0  0  0  0  0  0  0  0  0  0  0
   -5.5238   23.2269  -23.1315 N   0  0  0  0  0  0  0  0  0  0  0  0
   -4.8484   22.5466  -22.7436 H   0  0  0  0  0  0  0  0  0  0  0  0
   -5.0233   23.9645  -24.3042 C   0  0  0  0  0  0  0  0  0  0  0  0
   -4.7851   25.3520  -23.9182 C   0  0  0  0  0  0  0  0  0  0  0  0
   -5.6743   26.4301  -24.0392 N   0  0  0  0  0  0  0  0  0  0  0  0
   -3.6420   25.6403  -23.4138 O   0  0  0  0  0  0  0  0  0  0  0  0
   -5.7826   27.1280  -23.2570 H   0  0  0  0  0  0  0  0  0  0  0  0
   -6.2551   26.5612  -24.9165 H   0  0  0  0  0  0  0  0  0  0  0  0
   -5.8844   23.7226  -25.4877 C   0  0  0  0  0  0  0  0  0  0  0  0
   -5.3921   24.2485  -26.7767 C   0  0  0  0  0  0  0  0  0  0  0  0
   -4.2803   23.6909  -27.3857 C   0  0  0  0  0  0  0  0  0  0  0  0
   -3.8257   24.1621  -28.6080 C   0  0  0  0  0  0  0  0  0  0  0  0
   -4.4497   25.1963  -29.2695 C   0  0  0  0  0  0  0  0  0  0  0  0
   -3.9598   25.6395  -30.4952 O   0  0  0  0  0  0  0  0  0  0  0  0
   -5.5558   25.7551  -28.6693 C   0  0  0  0  0  0  0  0  0  0  0  0
   -6.0133   25.2910  -27.4536 C   0  0  0  0  0  0  0  0  0  0  0  0
   -3.2577   26.3910  -30.4725 H   0  0  0  0  0  0  0  0  0  0  0  0
   -8.7377   23.3097  -21.0039 C   0  0  0  0  0  0  0  0  0  0  0  0
   -8.7703   23.9097  -19.6729 C   0  0  0  0  0  0  0  0  0  0  0  0
   -9.1865   23.2606  -18.5053 O   0  0  0  0  0  0  0  0  0  0  0  0
   -8.3933   25.1084  -19.5432 O   0  0  0  0  0  0  0  0  0  0  0  0
   -8.8804   22.2992  -18.3943 H   0  0  0  0  0  0  0  0  0  0  0  0
   -3.8735   22.4033  -18.8215 N   0  0  0  0  0  0  0  0  0  0  0  0
   -2.7937   21.5264  -18.9893 C   0  0  0  0  0  0  0  0  0  0  0  0
   -3.0851   20.2808  -18.7563 O   0  0  0  0  0  0  0  0  0  0  0  0
   -3.8405   23.4166  -18.9612 H   0  0  0  0  0  0  0  0  0  0  0  0
   -1.4172   21.8134  -19.3696 C   0  0  0  0  0  0  0  0  0  0  0  0
   -1.4013   22.1580  -20.8057 N   0  0  0  0  0  0  0  0  0  0  0  0
   -0.7712   21.3694  -21.7646 C   0  0  0  0  0  0  0  0  0  0  0  0
   -0.1858   20.3222  -21.3971 O   0  0  0  0  0  0  0  0  0  0  0  0
   -1.8861   23.0259  -21.0695 H   0  0  0  0  0  0  0  0  0  0  0  0
   -0.7367   21.6726  -23.2102 C   0  0  0  0  0  0  0  0  0  0  0  0
    0.4580   21.7691  -23.8804 C   0  0  0  0  0  0  0  0  0  0  0  0
    0.4708   22.0570  -25.2176 C   0  0  0  0  0  0  0  0  0  0  0  0
   -0.6783   22.2655  -25.9687 C   0  0  0  0  0  0  0  0  0  0  0  0
   -0.6345   22.6311  -27.6782 Cl  0  0  0  0  0  0  0  0  0  0  0  0
   -1.8598   22.1572  -25.2460 C   0  0  0  0  0  0  0  0  0  0  0  0
   -1.8969   21.8714  -23.9150 C   0  0  0  0  0  0  0  0  0  0  0  0
   -0.6289   22.7915  -18.6092 C   0  0  0  0  0  0  0  0  0  0  0  0
    0.7212   22.4714  -18.1832 C   0  0  0  0  0  0  0  0  0  0  0  0
    1.0489   22.0917  -16.8914 C   0  0  0  0  0  0  0  0  0  0  0  0
    2.3100   21.7375  -16.4937 C   0  0  0  0  0  0  0  0  0  0  0  0
    3.3449   21.7502  -17.4215 C   0  0  0  0  0  0  0  0  0  0  0  0
    4.6441   21.3937  -17.0462 O   0  0  0  0  0  0  0  0  0  0  0  0
    3.0535   22.1226  -18.7147 C   0  0  0  0  0  0  0  0  0  0  0  0
    1.7598   22.4777  -19.0882 C   0  0  0  0  0  0  0  0  0  0  0  0
    4.8031   21.1266  -16.0755 H   0  0  0  0  0  0  0  0  0  0  0  0
   -5.7586   22.8669  -17.3948 C   0  0  0  0  0  0  0  0  0  0  0  0
   -6.6319   22.1073  -16.3874 C   0  0  0  0  0  0  0  0  0  0  0  0
   -4.2864   22.9392  -15.3927 C   0  0  0  0  0  0  0  0  0  0  0  0
   -4.7655   23.6689  -16.6417 C   0  0  0  0  0  0  0  0  0  0  0  0
 58 59  1  0  0  0
 59 56  1  0  0  0
 56 57  1  0  0  0
 56  1  1  0  0  0
  1 31  1  0  0  0
 31 32  1  0  0  0
 32 33  2  0  0  0
 32 35  1  0  0  0
 35 47  1  0  0  0
 47 48  1  0  0  0
 48 49  2  0  0  0
 49 50  1  0  0  0
 50 51  2  0  0  0
 51 52  1  0  0  0
 51 53  1  0  0  0
 53 54  2  0  0  0
 35 36  1  0  0  0
 36 37  1  0  0  0
 37 38  2  0  0  0
 37 40  1  0  0  0
 40 41  2  0  0  0
 41 42  1  0  0  0
 42 43  2  0  0  0
 43 44  1  0  0  0
 43 45  1  0  0  0
 45 46  2  0  0  0
  1  2  1  0  0  0
  2  3  2  0  0  0
  2  4  1  0  0  0
  4  6  1  0  0  0
  6 26  1  0  0  0
 26 27  1  0  0  0
 27 28  1  0  0  0
 27 29  2  0  0  0
  6  7  1  0  0  0
  7  8  2  0  0  0
  7  9  1  0  0  0
  9 11  1  0  0  0
 11 17  1  0  0  0
 17 18  1  0  0  0
 18 19  2  0  0  0
 19 20  1  0  0  0
 20 21  2  0  0  0
 21 22  1  0  0  0
 21 23  1  0  0  0
 23 24  2  0  0  0
 11 12  1  0  0  0
 12 13  1  0  0  0
 12 14  2  0  0  0
 54 48  1  0  0  0
 46 40  1  0  0  0
 24 18  1  0  0  0
 31 34  1  0  0  0
 52 55  1  0  0  0
 36 39  1  0  0  0
  4  5  1  0  0  0
 28 30  1  0  0  0
  9 10  1  0  0  0
 22 25  1  0  0  0
 13 15  1  0  0  0
 13 16  1  0  0  0
M  END
> <minimizedAffinity>
-8.10301

> <CNNscore>
0.1420435607

> <CNNaffinity>
6.7788934708

> <CNN_VS>
0.9628981948

> <CNNaffinity_variance>
0.4996623397

$$$$
[H]c1nc(OC([H])([H])c2c(-c3c([H])c([H])c([H])c([H])c3[H])noc2C([H])([H])[H])c([H])c([H])c1C(=O)N1C([H])([H])C([H])([H])OC([H])([H])C1([H])[H]


 28 31  0  0  0  0  0  0  0  0999 V2000
   -2.9655   21.8977  -23.6286 O   0  0  0  0  0  0  0  0  0  0  0  0
   -4.1234   21.8732  -22.9568 C   0  0  0  0  0  0  0  0  0  0  0  0
   -5.3585   21.8251  -23.5917 C   0  0  0  0  0  0  0  0  0  0  0  0
   -6.5115   21.8091  -22.8616 C   0  0  0  0  0  0  0  0  0  0  0  0
   -6.5378   21.8359  -21.4851 C   0  0  0  0  0  0  0  0  0  0  0  0
   -5.2622   21.8820  -20.8959 C   0  0  0  0  0  0  0  0  0  0  0  0
   -4.1307   21.8998  -21.6261 N   0  0  0  0  0  0  0  0  0  0  0  0
   -7.7116   21.7976  -20.6524 C   0  0  0  0  0  0  0  0  0  0  0  0
   -8.7020   21.0733  -21.1405 O   0  0  0  0  0  0  0  0  0  0  0  0
   -8.0050   22.3778  -19.4322 N   0  0  0  0  0  0  0  0  0  0  0  0
   -7.2801   23.2615  -18.5825 C   0  0  0  0  0  0  0  0  0  0  0  0
   -6.7356   22.4319  -17.4210 C   0  0  0  0  0  0  0  0  0  0  0  0
   -7.6715   21.4313  -17.1631 O   0  0  0  0  0  0  0  0  0  0  0  0
   -8.9818   21.8470  -17.3519 C   0  0  0  0  0  0  0  0  0  0  0  0
   -9.3294   21.9870  -18.8112 C   0  0  0  0  0  0  0  0  0  0  0  0
   -2.0326   22.7891  -24.0470 C   0  0  0  0  0  0  0  0  0  0  0  0
    0.9634   21.8257  -24.1955 C   0  0  0  0  0  0  0  0  0  0  0  0
    0.0257   22.0701  -25.3398 C   0  0  0  0  0  0  0  0  0  0  0  0
    0.3180   21.9472  -26.6195 O   0  0  0  0  0  0  0  0  0  0  0  0
   -0.6785   22.2167  -27.3518 N   0  0  0  0  0  0  0  0  0  0  0  0
   -1.7751   22.5557  -26.5846 C   0  0  0  0  0  0  0  0  0  0  0  0
   -1.3051   22.4589  -25.2927 C   0  0  0  0  0  0  0  0  0  0  0  0
   -3.0481   22.9294  -27.1643 C   0  0  0  0  0  0  0  0  0  0  0  0
   -3.2611   22.7531  -28.5343 C   0  0  0  0  0  0  0  0  0  0  0  0
   -4.4288   23.0863  -29.1742 C   0  0  0  0  0  0  0  0  0  0  0  0
   -5.4850   23.6367  -28.4230 C   0  0  0  0  0  0  0  0  0  0  0  0
   -5.2888   23.8117  -27.0908 C   0  0  0  0  0  0  0  0  0  0  0  0
   -4.0846   23.4648  -26.4590 C   0  0  0  0  0  0  0  0  0  0  0  0
 17 18  1  0  0  0
 18 19  1  0  0  0
 19 20  1  0  0  0
 20 21  2  0  0  0
 21 22  1  0  0  0
 22 16  1  0  0  0
 16  1  1  0  0  0
  1  2  1  0  0  0
  2  3  2  0  0  0
  3  4  1  0  0  0
  4  5  2  0  0  0
  5  6  1  0  0  0
  6  7  2  0  0  0
  5  8  1  0  0  0
  8  9  2  0  0  0
  8 10  1  0  0  0
 10 11  1  0  0  0
 11 12  1  0  0  0
 12 13  1  0  0  0
 13 14  1  0  0  0
 14 15  1  0  0  0
 21 23  1  0  0  0
 23 24  2  0  0  0
 24 25  1  0  0  0
 25 26  2  0  0  0
 26 27  1  0  0  0
 27 28  2  0  0  0
 22 18  2  0  0  0
  7  2  1  0  0  0
 15 10  1  0  0  0
 28 23  1  0  0  0
M  END
> <minimizedAffinity>
-8.23975

> <CNNscore>
0.7231310606

> <CNNaffinity>
6.2483382225

> <CNN_VS>
4.5183672905

> <CNNaffinity_variance>
0.2144445181

$$$$
[H]c1nc(OC([H])([H])c2c(-c3c([H])c([H])c([H])c([H])c3[H])noc2C([H])([H])[H])c([H])c([H])c1C(=O)N1C([H])([H])C([H])([H])OC([H])([H])C1([H])[H]


 28 31  0  0  0  0  0  0  0  0999 V2000
   -3.2278   22.9133  -28.4443 O   0  0  0  0  0  0  0  0  0  0  0  0
   -2.5078   22.6414  -27.3488 C   0  0  0  0  0  0  0  0  0  0  0  0
   -1.1477   22.9112  -27.2585 C   0  0  0  0  0  0  0  0  0  0  0  0
   -0.4563   22.6083  -26.1215 C   0  0  0  0  0  0  0  0  0  0  0  0
   -1.0355   22.0334  -25.0123 C   0  0  0  0  0  0  0  0  0  0  0  0
   -2.4114   21.7846  -25.1576 C   0  0  0  0  0  0  0  0  0  0  0  0
   -3.0836   22.0854  -26.2852 N   0  0  0  0  0  0  0  0  0  0  0  0
   -0.3747   21.7095  -23.7748 C   0  0  0  0  0  0  0  0  0  0  0  0
    0.9187   21.4716  -23.8943 O   0  0  0  0  0  0  0  0  0  0  0  0
   -0.8363   21.5972  -22.4764 N   0  0  0  0  0  0  0  0  0  0  0  0
   -2.1330   21.7081  -21.8982 C   0  0  0  0  0  0  0  0  0  0  0  0
   -2.2097   23.0698  -21.2099 C   0  0  0  0  0  0  0  0  0  0  0  0
   -0.9334   23.3521  -20.7252 O   0  0  0  0  0  0  0  0  0  0  0  0
   -0.2574   22.2260  -20.2779 C   0  0  0  0  0  0  0  0  0  0  0  0
    0.2165   21.3582  -21.4147 C   0  0  0  0  0  0  0  0  0  0  0  0
   -4.5115   22.8520  -28.8784 C   0  0  0  0  0  0  0  0  0  0  0  0
   -5.6580   24.5133  -31.2975 C   0  0  0  0  0  0  0  0  0  0  0  0
   -5.7829   24.8247  -29.8360 C   0  0  0  0  0  0  0  0  0  0  0  0
   -6.3792   25.8803  -29.3180 O   0  0  0  0  0  0  0  0  0  0  0  0
   -6.3280   25.8691  -28.0534 N   0  0  0  0  0  0  0  0  0  0  0  0
   -5.6632   24.7480  -27.5982 C   0  0  0  0  0  0  0  0  0  0  0  0
   -5.3169   24.0876  -28.7571 C   0  0  0  0  0  0  0  0  0  0  0  0
   -5.4417   24.4893  -26.1910 C   0  0  0  0  0  0  0  0  0  0  0  0
   -4.4404   25.1873  -25.5101 C   0  0  0  0  0  0  0  0  0  0  0  0
   -4.1507   25.0033  -24.1810 C   0  0  0  0  0  0  0  0  0  0  0  0
   -4.8961   24.0629  -23.4444 C   0  0  0  0  0  0  0  0  0  0  0  0
   -5.8719   23.3796  -24.0961 C   0  0  0  0  0  0  0  0  0  0  0  0
   -6.1486   23.5839  -25.4568 C   0  0  0  0  0  0  0  0  0  0  0  0
 17 18  1  0  0  0
 18 19  1  0  0  0
 19 20  1  0  0  0
 20 21  2  0  0  0
 21 22  1  0  0  0
 22 16  1  0  0  0
 16  1  1  0  0  0
  1  2  1  0  0  0
  2  3  2  0  0  0
  3  4  1  0  0  0
  4  5  2  0  0  0
  5  6  1  0  0  0
  6  7  2  0  0  0
  5  8  1  0  0  0
  8  9  2  0  0  0
  8 10  1  0  0  0
 10 11  1  0  0  0
 11 12  1  0  0  0
 12 13  1  0  0  0
 13 14  1  0  0  0
 14 15  1  0  0  0
 21 23  1  0  0  0
 23 24  2  0  0  0
 24 25  1  0  0  0
 25 26  2  0  0  0
 26 27  1  0  0  0
 27 28  2  0  0  0
 22 18  2  0  0  0
  7  2  1  0  0  0
 15 10  1  0  0  0
 28 23  1  0  0  0
M  END
> <minimizedAffinity>
-9.20695

> <CNNscore>
0.5794845819

> <CNNaffinity>
6.6578140259

> <CNN_VS>
3.8581006527

> <CNNaffinity_variance>
0.1826051772

$$$$
[H]c1nc(OC([H])([H])c2c(-c3c([H])c([H])c([H])c([H])c3[H])noc2C([H])([H])[H])c([H])c([H])c1C(=O)N1C([H])([H])C([H])([H])OC([H])([H])C1([H])[H]


 28 31  0  0  0  0  0  0  0  0999 V2000
   -3.1410   23.2562  -25.4259 O   0  0  0  0  0  0  0  0  0  0  0  0
   -3.6651   23.4273  -24.2058 C   0  0  0  0  0  0  0  0  0  0  0  0
   -2.9065   23.3428  -23.0447 C   0  0  0  0  0  0  0  0  0  0  0  0
   -3.4894   23.5181  -21.8231 C   0  0  0  0  0  0  0  0  0  0  0  0
   -4.8295   23.7860  -21.6539 C   0  0  0  0  0  0  0  0  0  0  0  0
   -5.5476   23.8626  -22.8601 C   0  0  0  0  0  0  0  0  0  0  0  0
   -4.9627   23.6856  -24.0601 N   0  0  0  0  0  0  0  0  0  0  0  0
   -5.5052   24.0051  -20.4016 C   0  0  0  0  0  0  0  0  0  0  0  0
   -5.9229   25.2442  -20.2178 O   0  0  0  0  0  0  0  0  0  0  0  0
   -5.8023   23.1631  -19.3460 N   0  0  0  0  0  0  0  0  0  0  0  0
   -5.5059   21.7942  -19.0881 C   0  0  0  0  0  0  0  0  0  0  0  0
   -6.7815   20.9951  -19.3492 C   0  0  0  0  0  0  0  0  0  0  0  0
   -7.8528   21.8121  -18.9908 O   0  0  0  0  0  0  0  0  0  0  0  0
   -7.5814   22.6198  -17.8957 C   0  0  0  0  0  0  0  0  0  0  0  0
   -6.6533   23.7549  -18.2423 C   0  0  0  0  0  0  0  0  0  0  0  0
   -2.6160   22.2704  -26.1957 C   0  0  0  0  0  0  0  0  0  0  0  0
    0.5158   21.9412  -26.0978 C   0  0  0  0  0  0  0  0  0  0  0  0
   -0.3025   22.5640  -27.1891 C   0  0  0  0  0  0  0  0  0  0  0  0
    0.1676   23.1115  -28.2923 O   0  0  0  0  0  0  0  0  0  0  0  0
   -0.7646   23.5505  -29.0271 N   0  0  0  0  0  0  0  0  0  0  0  0
   -1.9968   23.3185  -28.4492 C   0  0  0  0  0  0  0  0  0  0  0  0
   -1.6823   22.6852  -27.2663 C   0  0  0  0  0  0  0  0  0  0  0  0
   -3.2391   23.7348  -29.0655 C   0  0  0  0  0  0  0  0  0  0  0  0
   -4.2754   22.8102  -29.2227 C   0  0  0  0  0  0  0  0  0  0  0  0
   -5.4830   23.1088  -29.8029 C   0  0  0  0  0  0  0  0  0  0  0  0
   -5.7098   24.4174  -30.2708 C   0  0  0  0  0  0  0  0  0  0  0  0
   -4.7096   25.3238  -30.1225 C   0  0  0  0  0  0  0  0  0  0  0  0
   -3.4822   24.9942  -29.5272 C   0  0  0  0  0  0  0  0  0  0  0  0
 17 18  1  0  0  0
 18 19  1  0  0  0
 19 20  1  0  0  0
 20 21  2  0  0  0
 21 22  1  0  0  0
 22 16  1  0  0  0
 16  1  1  0  0  0
  1  2  1  0  0  0
  2  3  2  0  0  0
  3  4  1  0  0  0
  4  5  2  0  0  0
  5  6  1  0  0  0
  6  7  2  0  0  0
  5  8  1  0  0  0
  8  9  2  0  0  0
  8 10  1  0  0  0
 10 11  1  0  0  0
 11 12  1  0  0  0
 12 13  1  0  0  0
 13 14  1  0  0  0
 14 15  1  0  0  0
 21 23  1  0  0  0
 23 24  2  0  0  0
 24 25  1  0  0  0
 25 26  2  0  0  0
 26 27  1  0  0  0
 27 28  2  0  0  0
 22 18  2  0  0  0
  7  2  1  0  0  0
 15 10  1  0  0  0
 28 23  1  0  0  0
M  END
> <minimizedAffinity>
-8.50392

> <CNNscore>
0.5473955870

> <CNNaffinity>
6.2604904175

> <CNN_VS>
3.4269647598

> <CNNaffinity_variance>
0.3409048617

$$$$
[H]c1nc(OC([H])([H])c2c(-c3c([H])c([H])c([H])c([H])c3[H])noc2C([H])([H])[H])c([H])c([H])c1C(=O)N1C([H])([H])C([H])([H])OC([H])([H])C1([H])[H]


 28 31  0  0  0  0  0  0  0  0999 V2000
   -2.1286   22.6264  -25.5223 O   0  0  0  0  0  0  0  0  0  0  0  0
   -1.0801   22.2068  -24.8031 C   0  0  0  0  0  0  0  0  0  0  0  0
   -1.1854   21.8386  -23.4673 C   0  0  0  0  0  0  0  0  0  0  0  0
   -0.0846   21.4243  -22.7751 C   0  0  0  0  0  0  0  0  0  0  0  0
    1.1728   21.3398  -23.3302 C   0  0  0  0  0  0  0  0  0  0  0  0
    1.2209   21.7216  -24.6823 C   0  0  0  0  0  0  0  0  0  0  0  0
    0.1286   22.1312  -25.3553 N   0  0  0  0  0  0  0  0  0  0  0  0
    2.3700   20.8904  -22.6687 C   0  0  0  0  0  0  0  0  0  0  0  0
    3.3871   20.6624  -23.4794 O   0  0  0  0  0  0  0  0  0  0  0  0
    2.6623   20.6483  -21.3393 N   0  0  0  0  0  0  0  0  0  0  0  0
    1.8787   20.7034  -20.1514 C   0  0  0  0  0  0  0  0  0  0  0  0
    2.2556   21.9886  -19.4164 C   0  0  0  0  0  0  0  0  0  0  0  0
    3.6082   22.2169  -19.6657 O   0  0  0  0  0  0  0  0  0  0  0  0
    4.3538   21.0494  -19.7450 C   0  0  0  0  0  0  0  0  0  0  0  0
    4.1026   20.3001  -21.0277 C   0  0  0  0  0  0  0  0  0  0  0  0
   -3.1681   22.1153  -26.2280 C   0  0  0  0  0  0  0  0  0  0  0  0
   -4.8034   21.4609  -23.6157 C   0  0  0  0  0  0  0  0  0  0  0  0
   -5.2327   22.3148  -24.7711 C   0  0  0  0  0  0  0  0  0  0  0  0
   -6.3983   22.9179  -24.8964 O   0  0  0  0  0  0  0  0  0  0  0  0
   -6.4697   23.5714  -25.9780 N   0  0  0  0  0  0  0  0  0  0  0  0
   -5.2985   23.4565  -26.6999 C   0  0  0  0  0  0  0  0  0  0  0  0
   -4.5138   22.6433  -25.9112 C   0  0  0  0  0  0  0  0  0  0  0  0
   -5.1107   24.0884  -27.9890 C   0  0  0  0  0  0  0  0  0  0  0  0
   -5.6740   23.5100  -29.1298 C   0  0  0  0  0  0  0  0  0  0  0  0
   -5.5422   24.0298  -30.3934 C   0  0  0  0  0  0  0  0  0  0  0  0
   -4.8019   25.2146  -30.5696 C   0  0  0  0  0  0  0  0  0  0  0  0
   -4.2508   25.7852  -29.4676 C   0  0  0  0  0  0  0  0  0  0  0  0
   -4.3981   25.2339  -28.1854 C   0  0  0  0  0  0  0  0  0  0  0  0
 17 18  1  0  0  0
 18 19  1  0  0  0
 19 20  1  0  0  0
 20 21  2  0  0  0
 21 22  1  0  0  0
 22 16  1  0  0  0
 16  1  1  0  0  0
  1  2  1  0  0  0
  2  3  2  0  0  0
  3  4  1  0  0  0
  4  5  2  0  0  0
  5  6  1  0  0  0
  6  7  2  0  0  0
  5  8  1  0  0  0
  8  9  2  0  0  0
  8 10  1  0  0  0
 10 11  1  0  0  0
 11 12  1  0  0  0
 12 13  1  0  0  0
 13 14  1  0  0  0
 14 15  1  0  0  0
 21 23  1  0  0  0
 23 24  2  0  0  0
 24 25  1  0  0  0
 25 26  2  0  0  0
 26 27  1  0  0  0
 27 28  2  0  0  0
 22 18  2  0  0  0
  7  2  1  0  0  0
 15 10  1  0  0  0
 28 23  1  0  0  0
M  END
> <minimizedAffinity>
-8.53110

> <CNNscore>
0.5267778039

> <CNNaffinity>
6.2117638588

> <CNN_VS>
3.2722194195

> <CNNaffinity_variance>
0.1686209738

$$$$
[H]c1nc(OC([H])([H])c2c(-c3c([H])c([H])c([H])c([H])c3[H])noc2C([H])([H])[H])c([H])c([H])c1C(=O)N1C([H])([H])C([H])([H])OC([H])([H])C1([H])[H]


 28 31  0  0  0  0  0  0  0  0999 V2000
   -3.3687   23.4495  -25.6189 O   0  0  0  0  0  0  0  0  0  0  0  0
   -4.4754   23.6307  -24.8875 C   0  0  0  0  0  0  0  0  0  0  0  0
   -5.4784   22.6736  -24.7942 C   0  0  0  0  0  0  0  0  0  0  0  0
   -6.5917   22.9093  -24.0407 C   0  0  0  0  0  0  0  0  0  0  0  0
   -6.7978   24.0744  -23.3363 C   0  0  0  0  0  0  0  0  0  0  0  0
   -5.7522   25.0053  -23.4645 C   0  0  0  0  0  0  0  0  0  0  0  0
   -4.6589   24.7633  -24.2127 N   0  0  0  0  0  0  0  0  0  0  0  0
   -7.9328   24.3805  -22.5050 C   0  0  0  0  0  0  0  0  0  0  0  0
   -8.8705   25.0914  -23.1042 O   0  0  0  0  0  0  0  0  0  0  0  0
   -8.2322   24.0729  -21.1908 N   0  0  0  0  0  0  0  0  0  0  0  0
   -7.5115   23.3912  -20.1690 C   0  0  0  0  0  0  0  0  0  0  0  0
   -8.1134   21.9927  -20.0428 C   0  0  0  0  0  0  0  0  0  0  0  0
   -9.4748   22.1103  -20.3189 O   0  0  0  0  0  0  0  0  0  0  0  0
  -10.0236   23.3010  -19.8645 C   0  0  0  0  0  0  0  0  0  0  0  0
   -9.6101   24.4772  -20.7105 C   0  0  0  0  0  0  0  0  0  0  0  0
   -2.5664   22.4428  -26.0464 C   0  0  0  0  0  0  0  0  0  0  0  0
    0.5595   22.0488  -26.0369 C   0  0  0  0  0  0  0  0  0  0  0  0
   -0.2879   22.5957  -27.1466 C   0  0  0  0  0  0  0  0  0  0  0  0
    0.1499   23.0361  -28.3095 O   0  0  0  0  0  0  0  0  0  0  0  0
   -0.8012   23.4329  -29.0442 N   0  0  0  0  0  0  0  0  0  0  0  0
   -2.0143   23.2802  -28.4031 C   0  0  0  0  0  0  0  0  0  0  0  0
   -1.6669   22.7427  -27.1827 C   0  0  0  0  0  0  0  0  0  0  0  0
   -3.2710   23.6719  -29.0063 C   0  0  0  0  0  0  0  0  0  0  0  0
   -3.4210   24.9671  -29.5096 C   0  0  0  0  0  0  0  0  0  0  0  0
   -4.5753   25.4318  -30.0890 C   0  0  0  0  0  0  0  0  0  0  0  0
   -5.6820   24.5674  -30.1929 C   0  0  0  0  0  0  0  0  0  0  0  0
   -5.5468   23.3064  -29.7075 C   0  0  0  0  0  0  0  0  0  0  0  0
   -4.3563   22.8545  -29.1175 C   0  0  0  0  0  0  0  0  0  0  0  0
 17 18  1  0  0  0
 18 19  1  0  0  0
 19 20  1  0  0  0
 20 21  2  0  0  0
 21 22  1  0  0  0
 22 16  1  0  0  0
 16  1  1  0  0  0
  1  2  1  0  0  0
  2  3  2  0  0  0
  3  4  1  0  0  0
  4  5  2  0  0  0
  5  6  1  0  0  0
  6  7  2  0  0  0
  5  8  1  0  0  0
  8  9  2  0  0  0
  8 10  1  0  0  0
 10 11  1  0  0  0
 11 12  1  0  0  0
 12 13  1  0  0  0
 13 14  1  0  0  0
 14 15  1  0  0  0
 21 23  1  0  0  0
 23 24  2  0  0  0
 24 25  1  0  0  0
 25 26  2  0  0  0
 26 27  1  0  0  0
 27 28  2  0  0  0
 22 18  2  0  0  0
  7  2  1  0  0  0
 15 10  1  0  0  0
 28 23  1  0  0  0
M  END
> <minimizedAffinity>
-8.95140

> <CNNscore>
0.5234680176

> <CNNaffinity>
6.3275356293

> <CNN_VS>
3.3122625351

> <CNNaffinity_variance>
0.3018695712

$$$$
[H]c1nc(OC([H])([H])c2c(-c3c([H])c([H])c([H])c([H])c3[H])noc2C([H])([H])[H])c([H])c([H])c1C(=O)N1C([H])([H])C([H])([H])OC([H])([H])C1([H])[H]


 28 31  0  0  0  0  0  0  0  0999 V2000
   -1.6676   21.7303  -23.3411 O   0  0  0  0  0  0  0  0  0  0  0  0
   -1.1909   21.8749  -22.0983 C   0  0  0  0  0  0  0  0  0  0  0  0
   -1.4515   22.9962  -21.3203 C   0  0  0  0  0  0  0  0  0  0  0  0
   -0.9359   23.0995  -20.0608 C   0  0  0  0  0  0  0  0  0  0  0  0
   -0.1461   22.1307  -19.4830 C   0  0  0  0  0  0  0  0  0  0  0  0
    0.0832   21.0191  -20.3126 C   0  0  0  0  0  0  0  0  0  0  0  0
   -0.4286   20.9286  -21.5550 N   0  0  0  0  0  0  0  0  0  0  0  0
    0.4104   22.1620  -18.1556 C   0  0  0  0  0  0  0  0  0  0  0  0
   -0.3337   21.5701  -17.2392 O   0  0  0  0  0  0  0  0  0  0  0  0
    1.5810   22.6971  -17.6509 N   0  0  0  0  0  0  0  0  0  0  0  0
    2.6327   23.4531  -18.2431 C   0  0  0  0  0  0  0  0  0  0  0  0
    3.8153   22.5072  -18.4454 C   0  0  0  0  0  0  0  0  0  0  0  0
    3.7876   21.5922  -17.3939 O   0  0  0  0  0  0  0  0  0  0  0  0
    3.3559   22.1473  -16.1978 C   0  0  0  0  0  0  0  0  0  0  0  0
    1.8715   22.4057  -16.1937 C   0  0  0  0  0  0  0  0  0  0  0  0
   -2.1889   22.4834  -24.3416 C   0  0  0  0  0  0  0  0  0  0  0  0
    0.9185   22.0576  -24.6402 C   0  0  0  0  0  0  0  0  0  0  0  0
   -0.0719   22.3448  -25.7288 C   0  0  0  0  0  0  0  0  0  0  0  0
    0.2072   22.4976  -27.0081 O   0  0  0  0  0  0  0  0  0  0  0  0
   -0.8359   22.7271  -27.6872 N   0  0  0  0  0  0  0  0  0  0  0  0
   -1.9549   22.7444  -26.8788 C   0  0  0  0  0  0  0  0  0  0  0  0
   -1.4464   22.4992  -25.6216 C   0  0  0  0  0  0  0  0  0  0  0  0
   -3.2842   23.0037  -27.3908 C   0  0  0  0  0  0  0  0  0  0  0  0
   -3.5527   22.8021  -28.7475 C   0  0  0  0  0  0  0  0  0  0  0  0
   -4.7769   23.0297  -29.3252 C   0  0  0  0  0  0  0  0  0  0  0  0
   -5.8358   23.4912  -28.5199 C   0  0  0  0  0  0  0  0  0  0  0  0
   -5.5858   23.6899  -27.2001 C   0  0  0  0  0  0  0  0  0  0  0  0
   -4.3247   23.4517  -26.6324 C   0  0  0  0  0  0  0  0  0  0  0  0
 17 18  1  0  0  0
 18 19  1  0  0  0
 19 20  1  0  0  0
 20 21  2  0  0  0
 21 22  1  0  0  0
 22 16  1  0  0  0
 16  1  1  0  0  0
  1  2  1  0  0  0
  2  3  2  0  0  0
  3  4  1  0  0  0
  4  5  2  0  0  0
  5  6  1  0  0  0
  6  7  2  0  0  0
  5  8  1  0  0  0
  8  9  2  0  0  0
  8 10  1  0  0  0
 10 11  1  0  0  0
 11 12  1  0  0  0
 12 13  1  0  0  0
 13 14  1  0  0  0
 14 15  1  0  0  0
 21 23  1  0  0  0
 23 24  2  0  0  0
 24 25  1  0  0  0
 25 26  2  0  0  0
 26 27  1  0  0  0
 27 28  2  0  0  0
 22 18  2  0  0  0
  7  2  1  0  0  0
 15 10  1  0  0  0
 28 23  1  0  0  0
M  END
> <minimizedAffinity>
-7.95101

> <CNNscore>
0.4861397743

> <CNNaffinity>
5.8862838745

> <CNN_VS>
2.8615567684

> <CNNaffinity_variance>
0.2353138924

$$$$
[H]c1nc(OC([H])([H])c2c(-c3c([H])c([H])c([H])c([H])c3[H])noc2C([H])([H])[H])c([H])c([H])c1C(=O)N1C([H])([H])C([H])([H])OC([H])([H])C1([H])[H]


 28 31  0  0  0  0  0  0  0  0999 V2000
   -5.4464   26.3490  -27.9051 O   0  0  0  0  0  0  0  0  0  0  0  0
   -6.0147   25.9720  -26.7529 C   0  0  0  0  0  0  0  0  0  0  0  0
   -5.5266   26.3632  -25.5121 C   0  0  0  0  0  0  0  0  0  0  0  0
   -6.1378   25.9459  -24.3654 C   0  0  0  0  0  0  0  0  0  0  0  0
   -7.2500   25.1341  -24.3512 C   0  0  0  0  0  0  0  0  0  0  0  0
   -7.7017   24.7711  -25.6320 C   0  0  0  0  0  0  0  0  0  0  0  0
   -7.0895   25.1868  -26.7572 N   0  0  0  0  0  0  0  0  0  0  0  0
   -7.9581   24.6759  -23.1843 C   0  0  0  0  0  0  0  0  0  0  0  0
   -9.1983   25.1198  -23.0909 O   0  0  0  0  0  0  0  0  0  0  0  0
   -7.5876   23.8562  -22.1344 N   0  0  0  0  0  0  0  0  0  0  0  0
   -6.3635   23.2115  -21.7966 C   0  0  0  0  0  0  0  0  0  0  0  0
   -6.5118   21.7346  -22.1580 C   0  0  0  0  0  0  0  0  0  0  0  0
   -7.8470   21.3962  -21.9428 O   0  0  0  0  0  0  0  0  0  0  0  0
   -8.4085   22.0517  -20.8563 C   0  0  0  0  0  0  0  0  0  0  0  0
   -8.6806   23.5047  -21.1473 C   0  0  0  0  0  0  0  0  0  0  0  0
   -4.5269   25.9041  -28.7976 C   0  0  0  0  0  0  0  0  0  0  0  0
   -5.9497   25.3702  -31.5575 C   0  0  0  0  0  0  0  0  0  0  0  0
   -5.4235   24.3524  -30.5902 C   0  0  0  0  0  0  0  0  0  0  0  0
   -5.4989   23.0433  -30.7272 O   0  0  0  0  0  0  0  0  0  0  0  0
   -4.9630   22.4422  -29.7508 N   0  0  0  0  0  0  0  0  0  0  0  0
   -4.4568   23.3441  -28.8362 C   0  0  0  0  0  0  0  0  0  0  0  0
   -4.7631   24.5684  -29.3895 C   0  0  0  0  0  0  0  0  0  0  0  0
   -3.8052   22.9310  -27.6110 C   0  0  0  0  0  0  0  0  0  0  0  0
   -2.4360   22.6505  -27.6180 C   0  0  0  0  0  0  0  0  0  0  0  0
   -1.7346   22.2437  -26.5105 C   0  0  0  0  0  0  0  0  0  0  0  0
   -2.4166   22.0969  -25.2873 C   0  0  0  0  0  0  0  0  0  0  0  0
   -3.7471   22.3674  -25.2692 C   0  0  0  0  0  0  0  0  0  0  0  0
   -4.4433   22.7805  -26.4157 C   0  0  0  0  0  0  0  0  0  0  0  0
 17 18  1  0  0  0
 18 19  1  0  0  0
 19 20  1  0  0  0
 20 21  2  0  0  0
 21 22  1  0  0  0
 22 16  1  0  0  0
 16  1  1  0  0  0
  1  2  1  0  0  0
  2  3  2  0  0  0
  3  4  1  0  0  0
  4  5  2  0  0  0
  5  6  1  0  0  0
  6  7  2  0  0  0
  5  8  1  0  0  0
  8  9  2  0  0  0
  8 10  1  0  0  0
 10 11  1  0  0  0
 11 12  1  0  0  0
 12 13  1  0  0  0
 13 14  1  0  0  0
 14 15  1  0  0  0
 21 23  1  0  0  0
 23 24  2  0  0  0
 24 25  1  0  0  0
 25 26  2  0  0  0
 26 27  1  0  0  0
 27 28  2  0  0  0
 22 18  2  0  0  0
  7  2  1  0  0  0
 15 10  1  0  0  0
 28 23  1  0  0  0
M  END
> <minimizedAffinity>
-9.43514

> <CNNscore>
0.4463806152

> <CNNaffinity>
6.1249365807

> <CNN_VS>
2.7340528965

> <CNNaffinity_variance>
0.2741158307

$$$$
[H]c1nc(OC([H])([H])c2c(-c3c([H])c([H])c([H])c([H])c3[H])noc2C([H])([H])[H])c([H])c([H])c1C(=O)N1C([H])([H])C([H])([H])OC([H])([H])C1([H])[H]


 28 31  0  0  0  0  0  0  0  0999 V2000
   -3.3468   23.1399  -24.8473 O   0  0  0  0  0  0  0  0  0  0  0  0
   -3.1076   22.9681  -23.5412 C   0  0  0  0  0  0  0  0  0  0  0  0
   -2.1936   23.7428  -22.8373 C   0  0  0  0  0  0  0  0  0  0  0  0
   -1.9801   23.5233  -21.5073 C   0  0  0  0  0  0  0  0  0  0  0  0
   -2.6346   22.5509  -20.7846 C   0  0  0  0  0  0  0  0  0  0  0  0
   -3.5478   21.7996  -21.5448 C   0  0  0  0  0  0  0  0  0  0  0  0
   -3.7491   22.0232  -22.8575 N   0  0  0  0  0  0  0  0  0  0  0  0
   -2.4771   22.2799  -19.3794 C   0  0  0  0  0  0  0  0  0  0  0  0
   -3.5608   21.8070  -18.7914 O   0  0  0  0  0  0  0  0  0  0  0  0
   -1.4033   22.4214  -18.5201 N   0  0  0  0  0  0  0  0  0  0  0  0
   -0.0854   22.9319  -18.6954 C   0  0  0  0  0  0  0  0  0  0  0  0
    0.8598   21.7344  -18.7761 C   0  0  0  0  0  0  0  0  0  0  0  0
    0.3339   20.7456  -17.9459 O   0  0  0  0  0  0  0  0  0  0  0  0
   -0.2757   21.2546  -16.8081 C   0  0  0  0  0  0  0  0  0  0  0  0
   -1.6035   21.8976  -17.1136 C   0  0  0  0  0  0  0  0  0  0  0  0
   -3.3578   22.4228  -25.9986 C   0  0  0  0  0  0  0  0  0  0  0  0
   -0.3051   21.8380  -25.4833 C   0  0  0  0  0  0  0  0  0  0  0  0
   -0.9226   22.4569  -26.7015 C   0  0  0  0  0  0  0  0  0  0  0  0
   -0.2723   22.8917  -27.7626 O   0  0  0  0  0  0  0  0  0  0  0  0
   -1.0631   23.3600  -28.6328 N   0  0  0  0  0  0  0  0  0  0  0  0
   -2.3730   23.2697  -28.2061 C   0  0  0  0  0  0  0  0  0  0  0  0
   -2.2655   22.6887  -26.9611 C   0  0  0  0  0  0  0  0  0  0  0  0
   -3.4867   23.7491  -28.9974 C   0  0  0  0  0  0  0  0  0  0  0  0
   -4.5297   22.8768  -29.3208 C   0  0  0  0  0  0  0  0  0  0  0  0
   -5.6202   23.2368  -30.0727 C   0  0  0  0  0  0  0  0  0  0  0  0
   -5.7117   24.5573  -30.5528 C   0  0  0  0  0  0  0  0  0  0  0  0
   -4.7039   25.4133  -30.2438 C   0  0  0  0  0  0  0  0  0  0  0  0
   -3.5976   25.0214  -29.4744 C   0  0  0  0  0  0  0  0  0  0  0  0
 17 18  1  0  0  0
 18 19  1  0  0  0
 19 20  1  0  0  0
 20 21  2  0  0  0
 21 22  1  0  0  0
 22 16  1  0  0  0
 16  1  1  0  0  0
  1  2  1  0  0  0
  2  3  2  0  0  0
  3  4  1  0  0  0
  4  5  2  0  0  0
  5  6  1  0  0  0
  6  7  2  0  0  0
  5  8  1  0  0  0
  8  9  2  0  0  0
  8 10  1  0  0  0
 10 11  1  0  0  0
 11 12  1  0  0  0
 12 13  1  0  0  0
 13 14  1  0  0  0
 14 15  1  0  0  0
 21 23  1  0  0  0
 23 24  2  0  0  0
 24 25  1  0  0  0
 25 26  2  0  0  0
 26 27  1  0  0  0
 27 28  2  0  0  0
 22 18  2  0  0  0
  7  2  1  0  0  0
 15 10  1  0  0  0
 28 23  1  0  0  0
M  END
> <minimizedAffinity>
-7.97730

> <CNNscore>
0.3811645210

> <CNNaffinity>
6.0922846794

> <CNN_VS>
2.3221628666

> <CNNaffinity_variance>
0.2146836519

$$$$
[H]c1nc(OC([H])([H])c2c(-c3c([H])c([H])c([H])c([H])c3[H])noc2C([H])([H])[H])c([H])c([H])c1C(=O)N1C([H])([H])C([H])([H])OC([H])([H])C1([H])[H]


 28 31  0  0  0  0  0  0  0  0999 V2000
   -5.2994   24.3289  -25.4546 O   0  0  0  0  0  0  0  0  0  0  0  0
   -5.7983   23.6486  -24.4149 C   0  0  0  0  0  0  0  0  0  0  0  0
   -5.9393   22.2663  -24.4207 C   0  0  0  0  0  0  0  0  0  0  0  0
   -6.4606   21.6195  -23.3378 C   0  0  0  0  0  0  0  0  0  0  0  0
   -6.8707   22.2662  -22.1933 C   0  0  0  0  0  0  0  0  0  0  0  0
   -6.7036   23.6612  -22.2413 C   0  0  0  0  0  0  0  0  0  0  0  0
   -6.1902   24.2895  -23.3161 N   0  0  0  0  0  0  0  0  0  0  0  0
   -7.4058   21.6481  -21.0082 C   0  0  0  0  0  0  0  0  0  0  0  0
   -8.6340   21.1824  -21.1442 O   0  0  0  0  0  0  0  0  0  0  0  0
   -6.8790   21.4477  -19.7458 N   0  0  0  0  0  0  0  0  0  0  0  0
   -5.6444   21.8219  -19.1426 C   0  0  0  0  0  0  0  0  0  0  0  0
   -4.7650   20.5736  -19.0929 C   0  0  0  0  0  0  0  0  0  0  0  0
   -5.6156   19.4853  -18.9040 O   0  0  0  0  0  0  0  0  0  0  0  0
   -6.7022   19.7756  -18.0914 C   0  0  0  0  0  0  0  0  0  0  0  0
   -7.7258   20.6292  -18.7941 C   0  0  0  0  0  0  0  0  0  0  0  0
   -4.1008   24.7283  -25.9484 C   0  0  0  0  0  0  0  0  0  0  0  0
   -2.0696   22.6239  -24.7771 C   0  0  0  0  0  0  0  0  0  0  0  0
   -2.4277   22.8431  -26.2166 C   0  0  0  0  0  0  0  0  0  0  0  0
   -1.9187   22.1980  -27.2474 O   0  0  0  0  0  0  0  0  0  0  0  0
   -2.4187   22.5980  -28.3391 N   0  0  0  0  0  0  0  0  0  0  0  0
   -3.3524   23.5906  -28.1176 C   0  0  0  0  0  0  0  0  0  0  0  0
   -3.3448   23.7384  -26.7475 C   0  0  0  0  0  0  0  0  0  0  0  0
   -4.0680   24.2435  -29.1937 C   0  0  0  0  0  0  0  0  0  0  0  0
   -5.1419   23.5902  -29.8047 C   0  0  0  0  0  0  0  0  0  0  0  0
   -5.8727   24.1240  -30.8367 C   0  0  0  0  0  0  0  0  0  0  0  0
   -5.5372   25.4035  -31.3195 C   0  0  0  0  0  0  0  0  0  0  0  0
   -4.4958   26.0474  -30.7325 C   0  0  0  0  0  0  0  0  0  0  0  0
   -3.7619   25.4801  -29.6793 C   0  0  0  0  0  0  0  0  0  0  0  0
 17 18  1  0  0  0
 18 19  1  0  0  0
 19 20  1  0  0  0
 20 21  2  0  0  0
 21 22  1  0  0  0
 22 16  1  0  0  0
 16  1  1  0  0  0
  1  2  1  0  0  0
  2  3  2  0  0  0
  3  4  1  0  0  0
  4  5  2  0  0  0
  5  6  1  0  0  0
  6  7  2  0  0  0
  5  8  1  0  0  0
  8  9  2  0  0  0
  8 10  1  0  0  0
 10 11  1  0  0  0
 11 12  1  0  0  0
 12 13  1  0  0  0
 13 14  1  0  0  0
 14 15  1  0  0  0
 21 23  1  0  0  0
 23 24  2  0  0  0
 24 25  1  0  0  0
 25 26  2  0  0  0
 26 27  1  0  0  0
 27 28  2  0  0  0
 22 18  2  0  0  0
  7  2  1  0  0  0
 15 10  1  0  0  0
 28 23  1  0  0  0
M  END
> <minimizedAffinity>
-8.95383

> <CNNscore>
0.3648160398

> <CNNaffinity>
5.8622093201

> <CNN_VS>
2.1386280060

> <CNNaffinity_variance>
0.2352862060

$$$$
[H]c1c([H])c([H])c(C([H])([H])OC(=O)N(C([H])([H])[H])[C@]2([H])C([H])([H])[C@@]3([H])O[C@](C([H])([H])[H])(n4c5c([H])c([H])c([H])c([H])c5c5c6c(c7c8c([H])c([H])c([H])c([H])c8n3c7c54)C(=O)N([H])C6([H])[H])[C@]2([H])OC([H])([H])[H])c([H])c1[H]


 46 54  0  0  0  0  0  0  0  0999 V2000
   -5.7718   24.4325  -23.4366 C   0  0  0  0  0  0  0  0  0  0  0  0
   -6.2412   24.2035  -22.0008 C   0  0  0  0  0  0  0  0  0  0  0  0
   -5.0367   23.6701  -21.2830 C   0  0  0  0  0  0  0  0  0  0  0  0
   -4.7330   22.3597  -21.9491 C   0  0  0  0  0  0  0  0  0  0  0  0
   -5.4942   22.0684  -23.0242 O   0  0  0  0  0  0  0  0  0  0  0  0
   -5.6706   22.9992  -24.0248 C   0  0  0  0  0  0  0  0  0  0  0  0
   -7.0754   22.7510  -24.5159 C   0  0  0  0  0  0  0  0  0  0  0  0
   -4.6036   22.9188  -24.9581 N   0  0  0  0  0  0  0  0  0  0  0  0
   -4.6418   23.1693  -26.3098 C   0  0  0  0  0  0  0  0  0  0  0  0
   -5.6715   23.5597  -27.1402 C   0  0  0  0  0  0  0  0  0  0  0  0
   -5.3752   23.7434  -28.4838 C   0  0  0  0  0  0  0  0  0  0  0  0
   -4.1019   23.5424  -28.9578 C   0  0  0  0  0  0  0  0  0  0  0  0
   -3.0594   23.1544  -28.1495 C   0  0  0  0  0  0  0  0  0  0  0  0
   -3.3668   22.9740  -26.8122 C   0  0  0  0  0  0  0  0  0  0  0  0
   -2.5698   22.6081  -25.7527 C   0  0  0  0  0  0  0  0  0  0  0  0
   -1.1997   22.3066  -25.6543 C   0  0  0  0  0  0  0  0  0  0  0  0
   -0.2141   22.2595  -26.7202 C   0  0  0  0  0  0  0  0  0  0  0  0
    1.0225   21.9569  -26.1148 N   0  0  0  0  0  0  0  0  0  0  0  0
    0.8103   21.7541  -24.7242 C   0  0  0  0  0  0  0  0  0  0  0  0
    1.7555   21.4403  -23.9820 O   0  0  0  0  0  0  0  0  0  0  0  0
   -0.5975   21.9816  -24.4611 C   0  0  0  0  0  0  0  0  0  0  0  0
   -1.3641   21.9455  -23.3076 C   0  0  0  0  0  0  0  0  0  0  0  0
   -1.1357   21.6714  -21.9894 C   0  0  0  0  0  0  0  0  0  0  0  0
    0.0027   21.3212  -21.3135 C   0  0  0  0  0  0  0  0  0  0  0  0
   -0.1073   21.1051  -19.9302 C   0  0  0  0  0  0  0  0  0  0  0  0
   -1.3028   21.2350  -19.2610 C   0  0  0  0  0  0  0  0  0  0  0  0
   -2.4188   21.5896  -19.9887 C   0  0  0  0  0  0  0  0  0  0  0  0
   -2.3514   21.8115  -21.3547 C   0  0  0  0  0  0  0  0  0  0  0  0
   -3.3065   22.1571  -22.2256 N   0  0  0  0  0  0  0  0  0  0  0  0
   -2.7064   22.2427  -23.4245 C   0  0  0  0  0  0  0  0  0  0  0  0
   -3.3280   22.5737  -24.6145 C   0  0  0  0  0  0  0  0  0  0  0  0
    1.9402   21.9002  -26.6502 H   0  0  0  0  0  0  0  0  0  0  0  0
   -6.9447   25.2582  -21.3897 N   0  0  0  0  0  0  0  0  0  0  0  0
   -6.5282   25.6004  -20.0018 C   0  0  0  0  0  0  0  0  0  0  0  0
   -7.9968   26.0501  -21.8947 C   0  0  0  0  0  0  0  0  0  0  0  0
   -8.4682   25.9656  -23.0572 O   0  0  0  0  0  0  0  0  0  0  0  0
   -8.5992   27.0189  -21.0847 O   0  0  0  0  0  0  0  0  0  0  0  0
  -10.0282   27.0849  -20.9627 C   0  0  0  0  0  0  0  0  0  0  0  0
  -10.3172   28.5210  -20.6139 C   0  0  0  0  0  0  0  0  0  0  0  0
   -9.6664   29.1732  -19.5976 C   0  0  0  0  0  0  0  0  0  0  0  0
   -9.9668   30.4939  -19.3147 C   0  0  0  0  0  0  0  0  0  0  0  0
  -10.9290   31.1962  -20.0443 C   0  0  0  0  0  0  0  0  0  0  0  0
  -11.5751   30.5459  -21.0546 C   0  0  0  0  0  0  0  0  0  0  0  0
  -11.2629   29.2237  -21.3252 C   0  0  0  0  0  0  0  0  0  0  0  0
   -4.7600   26.2989  -24.4022 C   0  0  0  0  0  0  0  0  0  0  0  0
   -4.6575   25.1546  -23.6140 O   0  0  0  0  0  0  0  0  0  0  0  0
 45 46  1  0  0  0
 46  1  1  0  0  0
  1  2  1  0  0  0
  2  3  1  0  0  0
  3  4  1  0  0  0
  4  5  1  0  0  0
  5  6  1  0  0  0
  6  7  1  0  0  0
  6  8  1  0  0  0
  8  9  1  0  0  0
  9 10  2  0  0  0
 10 11  1  0  0  0
 11 12  2  0  0  0
 12 13  1  0  0  0
 13 14  2  0  0  0
 14 15  1  0  0  0
 15 16  2  0  0  0
 16 17  1  0  0  0
 17 18  1  0  0  0
 18 19  1  0  0  0
 19 20  2  0  0  0
 19 21  1  0  0  0
 21 22  2  0  0  0
 22 23  1  0  0  0
 23 24  2  0  0  0
 24 25  1  0  0  0
 25 26  2  0  0  0
 26 27  1  0  0  0
 27 28  2  0  0  0
 28 29  1  0  0  0
 29 30  1  0  0  0
 30 31  2  0  0  0
  2 33  1  0  0  0
 33 34  1  0  0  0
 33 35  1  0  0  0
 35 36  2  0  0  0
 35 37  1  0  0  0
 37 38  1  0  0  0
 38 39  1  0  0  0
 39 40  2  0  0  0
 40 41  1  0  0  0
 41 42  2  0  0  0
 42 43  1  0  0  0
 43 44  2  0  0  0
  6  1  1  0  0  0
 31  8  1  0  0  0
 44 39  1  0  0  0
 29  4  1  0  0  0
 14  9  1  0  0  0
 31 15  1  0  0  0
 21 16  1  0  0  0
 30 22  1  0  0  0
 28 23  1  0  0  0
 18 32  1  0  0  0
M  END
> <minimizedAffinity>
-12.12751

> <CNNscore>
0.4309049547

> <CNNaffinity>
7.0638923645

> <CNN_VS>
3.0438661575

> <CNNaffinity_variance>
0.1714590043

$$$$
[H]c1c([H])c([H])c(C([H])([H])OC(=O)N(C([H])([H])[H])[C@]2([H])C([H])([H])[C@@]3([H])O[C@](C([H])([H])[H])(n4c5c([H])c([H])c([H])c([H])c5c5c6c(c7c8c([H])c([H])c([H])c([H])c8n3c7c54)C(=O)N([H])C6([H])[H])[C@]2([H])OC([H])([H])[H])c([H])c1[H]


 46 54  0  0  0  0  0  0  0  0999 V2000
   -4.1554   21.7444  -21.9998 C   0  0  0  0  0  0  0  0  0  0  0  0
   -5.5038   22.4363  -21.8063 C   0  0  0  0  0  0  0  0  0  0  0  0
   -5.8311   23.0225  -23.1479 C   0  0  0  0  0  0  0  0  0  0  0  0
   -4.7549   24.0369  -23.4044 C   0  0  0  0  0  0  0  0  0  0  0  0
   -3.7703   24.0798  -22.4830 O   0  0  0  0  0  0  0  0  0  0  0  0
   -3.1450   22.9205  -22.0783 C   0  0  0  0  0  0  0  0  0  0  0  0
   -2.8193   23.1649  -20.6256 C   0  0  0  0  0  0  0  0  0  0  0  0
   -2.0826   22.6052  -22.9659 N   0  0  0  0  0  0  0  0  0  0  0  0
   -0.8965   21.9732  -22.6744 C   0  0  0  0  0  0  0  0  0  0  0  0
   -0.3929   21.4703  -21.4929 C   0  0  0  0  0  0  0  0  0  0  0  0
    0.8567   20.8675  -21.5353 C   0  0  0  0  0  0  0  0  0  0  0  0
    1.5563   20.7795  -22.7139 C   0  0  0  0  0  0  0  0  0  0  0  0
    1.0747   21.2721  -23.9039 C   0  0  0  0  0  0  0  0  0  0  0  0
   -0.1718   21.8711  -23.8493 C   0  0  0  0  0  0  0  0  0  0  0  0
   -0.9333   22.4437  -24.8413 C   0  0  0  0  0  0  0  0  0  0  0  0
   -0.7256   22.6091  -26.2224 C   0  0  0  0  0  0  0  0  0  0  0  0
    0.4387   22.2319  -27.0045 C   0  0  0  0  0  0  0  0  0  0  0  0
    0.1506   22.5625  -28.3444 N   0  0  0  0  0  0  0  0  0  0  0  0
   -1.1246   23.1880  -28.3940 C   0  0  0  0  0  0  0  0  0  0  0  0
   -1.5818   23.6014  -29.4723 O   0  0  0  0  0  0  0  0  0  0  0  0
   -1.6545   23.2035  -27.0443 C   0  0  0  0  0  0  0  0  0  0  0  0
   -2.8423   23.6616  -26.4975 C   0  0  0  0  0  0  0  0  0  0  0  0
   -3.9610   24.2853  -26.9714 C   0  0  0  0  0  0  0  0  0  0  0  0
   -4.3155   24.6926  -28.2300 C   0  0  0  0  0  0  0  0  0  0  0  0
   -5.5643   25.3175  -28.3795 C   0  0  0  0  0  0  0  0  0  0  0  0
   -6.4134   25.5220  -27.3159 C   0  0  0  0  0  0  0  0  0  0  0  0
   -6.0083   25.0929  -26.0700 C   0  0  0  0  0  0  0  0  0  0  0  0
   -4.7839   24.4723  -25.8814 C   0  0  0  0  0  0  0  0  0  0  0  0
   -4.2172   23.9919  -24.7686 N   0  0  0  0  0  0  0  0  0  0  0  0
   -3.0272   23.4916  -25.1408 C   0  0  0  0  0  0  0  0  0  0  0  0
   -2.1059   22.8947  -24.3000 C   0  0  0  0  0  0  0  0  0  0  0  0
    0.8095   22.3582  -29.1544 H   0  0  0  0  0  0  0  0  0  0  0  0
   -6.5098   21.6920  -21.1621 N   0  0  0  0  0  0  0  0  0  0  0  0
   -7.8714   21.7867  -21.7569 C   0  0  0  0  0  0  0  0  0  0  0  0
   -6.4265   20.8610  -20.0256 C   0  0  0  0  0  0  0  0  0  0  0  0
   -5.3676   20.6002  -19.3998 O   0  0  0  0  0  0  0  0  0  0  0  0
   -7.5779   20.2545  -19.5119 O   0  0  0  0  0  0  0  0  0  0  0  0
   -8.0725   20.6075  -18.2111 C   0  0  0  0  0  0  0  0  0  0  0  0
   -8.6201   19.3230  -17.6476 C   0  0  0  0  0  0  0  0  0  0  0  0
   -9.5860   19.3032  -16.6738 C   0  0  0  0  0  0  0  0  0  0  0  0
  -10.0579   18.0970  -16.1873 C   0  0  0  0  0  0  0  0  0  0  0  0
   -9.5730   16.8772  -16.6651 C   0  0  0  0  0  0  0  0  0  0  0  0
   -8.6124   16.8988  -17.6335 C   0  0  0  0  0  0  0  0  0  0  0  0
   -8.1505   18.1147  -18.1101 C   0  0  0  0  0  0  0  0  0  0  0  0
   -5.1214   20.7971  -23.8995 C   0  0  0  0  0  0  0  0  0  0  0  0
   -4.0436   20.8848  -23.0211 O   0  0  0  0  0  0  0  0  0  0  0  0
 45 46  1  0  0  0
 46  1  1  0  0  0
  1  2  1  0  0  0
  2  3  1  0  0  0
  3  4  1  0  0  0
  4  5  1  0  0  0
  5  6  1  0  0  0
  6  7  1  0  0  0
  6  8  1  0  0  0
  8  9  1  0  0  0
  9 10  2  0  0  0
 10 11  1  0  0  0
 11 12  2  0  0  0
 12 13  1  0  0  0
 13 14  2  0  0  0
 14 15  1  0  0  0
 15 16  2  0  0  0
 16 17  1  0  0  0
 17 18  1  0  0  0
 18 19  1  0  0  0
 19 20  2  0  0  0
 19 21  1  0  0  0
 21 22  2  0  0  0
 22 23  1  0  0  0
 23 24  2  0  0  0
 24 25  1  0  0  0
 25 26  2  0  0  0
 26 27  1  0  0  0
 27 28  2  0  0  0
 28 29  1  0  0  0
 29 30  1  0  0  0
 30 31  2  0  0  0
  2 33  1  0  0  0
 33 34  1  0  0  0
 33 35  1  0  0  0
 35 36  2  0  0  0
 35 37  1  0  0  0
 37 38  1  0  0  0
 38 39  1  0  0  0
 39 40  2  0  0  0
 40 41  1  0  0  0
 41 42  2  0  0  0
 42 43  1  0  0  0
 43 44  2  0  0  0
  6  1  1  0  0  0
 31  8  1  0  0  0
 44 39  1  0  0  0
 29  4  1  0  0  0
 14  9  1  0  0  0
 31 15  1  0  0  0
 21 16  1  0  0  0
 30 22  1  0  0  0
 28 23  1  0  0  0
 18 32  1  0  0  0
M  END
> <minimizedAffinity>
-10.14484

> <CNNscore>
0.3502584696

> <CNNaffinity>
7.0099143982

> <CNN_VS>
2.4552819729

> <CNNaffinity_variance>
0.1508229524

$$$$
[H]c1c([H])c([H])c(C([H])([H])OC(=O)N(C([H])([H])[H])[C@]2([H])C([H])([H])[C@@]3([H])O[C@](C([H])([H])[H])(n4c5c([H])c([H])c([H])c([H])c5c5c6c(c7c8c([H])c([H])c([H])c([H])c8n3c7c54)C(=O)N([H])C6([H])[H])[C@]2([H])OC([H])([H])[H])c([H])c1[H]


 46 54  0  0  0  0  0  0  0  0999 V2000
   -5.3159   24.0248  -23.6087 C   0  0  0  0  0  0  0  0  0  0  0  0
   -6.1592   23.8463  -22.3473 C   0  0  0  0  0  0  0  0  0  0  0  0
   -5.1986   23.3431  -21.3106 C   0  0  0  0  0  0  0  0  0  0  0  0
   -4.7342   22.0105  -21.8220 C   0  0  0  0  0  0  0  0  0  0  0  0
   -5.1766   21.6781  -23.0524 O   0  0  0  0  0  0  0  0  0  0  0  0
   -5.0683   22.5716  -24.0958 C   0  0  0  0  0  0  0  0  0  0  0  0
   -6.2885   22.3013  -24.9410 C   0  0  0  0  0  0  0  0  0  0  0  0
   -3.7885   22.4609  -24.7005 N   0  0  0  0  0  0  0  0  0  0  0  0
   -3.4563   22.6623  -26.0198 C   0  0  0  0  0  0  0  0  0  0  0  0
   -4.2191   23.0192  -27.1121 C   0  0  0  0  0  0  0  0  0  0  0  0
   -3.5677   23.1552  -28.3303 C   0  0  0  0  0  0  0  0  0  0  0  0
   -2.2150   22.9413  -28.4330 C   0  0  0  0  0  0  0  0  0  0  0  0
   -1.4338   22.5860  -27.3586 C   0  0  0  0  0  0  0  0  0  0  0  0
   -2.0942   22.4531  -26.1496 C   0  0  0  0  0  0  0  0  0  0  0  0
   -1.6174   22.1283  -24.9010 C   0  0  0  0  0  0  0  0  0  0  0  0
   -0.3277   21.8350  -24.4233 C   0  0  0  0  0  0  0  0  0  0  0  0
    0.9101   21.7526  -25.1790 C   0  0  0  0  0  0  0  0  0  0  0  0
    1.9337   21.4759  -24.2499 N   0  0  0  0  0  0  0  0  0  0  0  0
    1.3503   21.3229  -22.9631 C   0  0  0  0  0  0  0  0  0  0  0  0
    2.0562   21.0391  -21.9813 O   0  0  0  0  0  0  0  0  0  0  0  0
   -0.0744   21.5551  -23.1007 C   0  0  0  0  0  0  0  0  0  0  0  0
   -1.1258   21.5583  -22.1984 C   0  0  0  0  0  0  0  0  0  0  0  0
   -1.2659   21.3328  -20.8588 C   0  0  0  0  0  0  0  0  0  0  0  0
   -0.3563   21.0108  -19.8869 C   0  0  0  0  0  0  0  0  0  0  0  0
   -0.8395   20.8445  -18.5788 C   0  0  0  0  0  0  0  0  0  0  0  0
   -2.1709   20.9947  -18.2647 C   0  0  0  0  0  0  0  0  0  0  0  0
   -3.0448   21.3192  -19.2804 C   0  0  0  0  0  0  0  0  0  0  0  0
   -2.6074   21.4917  -20.5837 C   0  0  0  0  0  0  0  0  0  0  0  0
   -3.2877   21.8026  -21.6931 N   0  0  0  0  0  0  0  0  0  0  0  0
   -2.3838   21.8468  -22.6860 C   0  0  0  0  0  0  0  0  0  0  0  0
   -2.6566   22.1325  -24.0112 C   0  0  0  0  0  0  0  0  0  0  0  0
    2.9619   21.4030  -24.5135 H   0  0  0  0  0  0  0  0  0  0  0  0
   -6.9951   24.9202  -21.9882 N   0  0  0  0  0  0  0  0  0  0  0  0
   -6.7775   25.4885  -20.6294 C   0  0  0  0  0  0  0  0  0  0  0  0
   -8.0205   25.5482  -22.7255 C   0  0  0  0  0  0  0  0  0  0  0  0
   -8.3361   25.2622  -23.9084 O   0  0  0  0  0  0  0  0  0  0  0  0
   -8.7762   26.5734  -22.1465 O   0  0  0  0  0  0  0  0  0  0  0  0
  -10.2106   26.5131  -22.1441 C   0  0  0  0  0  0  0  0  0  0  0  0
  -10.5484   25.4612  -21.1210 C   0  0  0  0  0  0  0  0  0  0  0  0
  -10.1927   24.1457  -21.2780 C   0  0  0  0  0  0  0  0  0  0  0  0
  -10.5259   23.2152  -20.3096 C   0  0  0  0  0  0  0  0  0  0  0  0
  -11.2255   23.5800  -19.1568 C   0  0  0  0  0  0  0  0  0  0  0  0
  -11.5783   24.8887  -19.0024 C   0  0  0  0  0  0  0  0  0  0  0  0
  -11.2373   25.8079  -19.9810 C   0  0  0  0  0  0  0  0  0  0  0  0
   -4.1386   25.9503  -24.1968 C   0  0  0  0  0  0  0  0  0  0  0  0
   -4.1905   24.7437  -23.5023 O   0  0  0  0  0  0  0  0  0  0  0  0
 45 46  1  0  0  0
 46  1  1  0  0  0
  1  2  1  0  0  0
  2  3  1  0  0  0
  3  4  1  0  0  0
  4  5  1  0  0  0
  5  6  1  0  0  0
  6  7  1  0  0  0
  6  8  1  0  0  0
  8  9  1  0  0  0
  9 10  2  0  0  0
 10 11  1  0  0  0
 11 12  2  0  0  0
 12 13  1  0  0  0
 13 14  2  0  0  0
 14 15  1  0  0  0
 15 16  2  0  0  0
 16 17  1  0  0  0
 17 18  1  0  0  0
 18 19  1  0  0  0
 19 20  2  0  0  0
 19 21  1  0  0  0
 21 22  2  0  0  0
 22 23  1  0  0  0
 23 24  2  0  0  0
 24 25  1  0  0  0
 25 26  2  0  0  0
 26 27  1  0  0  0
 27 28  2  0  0  0
 28 29  1  0  0  0
 29 30  1  0  0  0
 30 31  2  0  0  0
  2 33  1  0  0  0
 33 34  1  0  0  0
 33 35  1  0  0  0
 35 36  2  0  0  0
 35 37  1  0  0  0
 37 38  1  0  0  0
 38 39  1  0  0  0
 39 40  2  0  0  0
 40 41  1  0  0  0
 41 42  2  0  0  0
 42 43  1  0  0  0
 43 44  2  0  0  0
  6  1  1  0  0  0
 31  8  1  0  0  0
 44 39  1  0  0  0
 29  4  1  0  0  0
 14  9  1  0  0  0
 31 15  1  0  0  0
 21 16  1  0  0  0
 30 22  1  0  0  0
 28 23  1  0  0  0
 18 32  1  0  0  0
M  END
> <minimizedAffinity>
-11.20106

> <CNNscore>
0.1994297951

> <CNNaffinity>
6.6345720291

> <CNN_VS>
1.3231313229

> <CNNaffinity_variance>
0.5604808927

$$$$
[H]c1c([H])c([H])c(C([H])([H])OC(=O)N(C([H])([H])[H])[C@]2([H])C([H])([H])[C@@]3([H])O[C@](C([H])([H])[H])(n4c5c([H])c([H])c([H])c([H])c5c5c6c(c7c8c([H])c([H])c([H])c([H])c8n3c7c54)C(=O)N([H])C6([H])[H])[C@]2([H])OC([H])([H])[H])c([H])c1[H]


 46 54  0  0  0  0  0  0  0  0999 V2000
    1.6359   21.4640  -19.9860 C   0  0  0  0  0  0  0  0  0  0  0  0
    1.2090   20.4296  -21.0261 C   0  0  0  0  0  0  0  0  0  0  0  0
    0.6778   19.2768  -20.2264 C   0  0  0  0  0  0  0  0  0  0  0  0
    1.8524   18.7729  -19.4393 C   0  0  0  0  0  0  0  0  0  0  0  0
    2.9804   19.5042  -19.5532 O   0  0  0  0  0  0  0  0  0  0  0  0
    2.9422   20.8720  -19.3914 C   0  0  0  0  0  0  0  0  0  0  0  0
    3.9933   21.3856  -20.3442 C   0  0  0  0  0  0  0  0  0  0  0  0
    3.0570   21.2028  -18.0154 N   0  0  0  0  0  0  0  0  0  0  0  0
    3.6399   22.3175  -17.4594 C   0  0  0  0  0  0  0  0  0  0  0  0
    4.2604   23.4084  -18.0315 C   0  0  0  0  0  0  0  0  0  0  0  0
    4.7431   24.3904  -17.1775 C   0  0  0  0  0  0  0  0  0  0  0  0
    4.6023   24.2712  -15.8165 C   0  0  0  0  0  0  0  0  0  0  0  0
    3.9868   23.1941  -15.2234 C   0  0  0  0  0  0  0  0  0  0  0  0
    3.5099   22.2214  -16.0846 C   0  0  0  0  0  0  0  0  0  0  0  0
    2.8453   21.0454  -15.8257 C   0  0  0  0  0  0  0  0  0  0  0  0
    2.4190   20.4384  -14.6309 C   0  0  0  0  0  0  0  0  0  0  0  0
    2.6180   20.9034  -13.2694 C   0  0  0  0  0  0  0  0  0  0  0  0
    1.9701   19.9774  -12.4267 N   0  0  0  0  0  0  0  0  0  0  0  0
    1.4390   18.9294  -13.2263 C   0  0  0  0  0  0  0  0  0  0  0  0
    0.8486   17.9722  -12.6992 O   0  0  0  0  0  0  0  0  0  0  0  0
    1.7350   19.2452  -14.6103 C   0  0  0  0  0  0  0  0  0  0  0  0
    1.4533   18.6097  -15.8088 C   0  0  0  0  0  0  0  0  0  0  0  0
    0.8241   17.4558  -16.1799 C   0  0  0  0  0  0  0  0  0  0  0  0
    0.2135   16.4725  -15.4478 C   0  0  0  0  0  0  0  0  0  0  0  0
   -0.3479   15.3956  -16.1530 C   0  0  0  0  0  0  0  0  0  0  0  0
   -0.2973   15.3125  -17.5258 C   0  0  0  0  0  0  0  0  0  0  0  0
    0.3292   16.3290  -18.2149 C   0  0  0  0  0  0  0  0  0  0  0  0
    0.8952   17.4083  -17.5558 C   0  0  0  0  0  0  0  0  0  0  0  0
    1.5381   18.4786  -18.0368 N   0  0  0  0  0  0  0  0  0  0  0  0
    1.8808   19.2198  -16.9701 C   0  0  0  0  0  0  0  0  0  0  0  0
    2.5672   20.4195  -17.0100 C   0  0  0  0  0  0  0  0  0  0  0  0
    1.9124   20.0855  -11.3698 H   0  0  0  0  0  0  0  0  0  0  0  0
    0.4190   20.8953  -22.0939 N   0  0  0  0  0  0  0  0  0  0  0  0
   -1.0543   20.8349  -21.8882 C   0  0  0  0  0  0  0  0  0  0  0  0
    0.8124   21.4156  -23.3443 C   0  0  0  0  0  0  0  0  0  0  0  0
    2.0023   21.6014  -23.7053 O   0  0  0  0  0  0  0  0  0  0  0  0
   -0.1524   21.7687  -24.2941 O   0  0  0  0  0  0  0  0  0  0  0  0
    0.2376   22.2281  -25.5972 C   0  0  0  0  0  0  0  0  0  0  0  0
   -1.0597   22.4929  -26.3144 C   0  0  0  0  0  0  0  0  0  0  0  0
   -2.2757   22.4037  -25.6859 C   0  0  0  0  0  0  0  0  0  0  0  0
   -3.4411   22.6565  -26.3877 C   0  0  0  0  0  0  0  0  0  0  0  0
   -3.4176   23.0059  -27.7400 C   0  0  0  0  0  0  0  0  0  0  0  0
   -2.2074   23.0941  -28.3634 C   0  0  0  0  0  0  0  0  0  0  0  0
   -1.0499   22.8379  -27.6468 C   0  0  0  0  0  0  0  0  0  0  0  0
    0.2714   23.1181  -19.0686 C   0  0  0  0  0  0  0  0  0  0  0  0
    0.7393   21.8059  -19.0512 O   0  0  0  0  0  0  0  0  0  0  0  0
 45 46  1  0  0  0
 46  1  1  0  0  0
  1  2  1  0  0  0
  2  3  1  0  0  0
  3  4  1  0  0  0
  4  5  1  0  0  0
  5  6  1  0  0  0
  6  7  1  0  0  0
  6  8  1  0  0  0
  8  9  1  0  0  0
  9 10  2  0  0  0
 10 11  1  0  0  0
 11 12  2  0  0  0
 12 13  1  0  0  0
 13 14  2  0  0  0
 14 15  1  0  0  0
 15 16  2  0  0  0
 16 17  1  0  0  0
 17 18  1  0  0  0
 18 19  1  0  0  0
 19 20  2  0  0  0
 19 21  1  0  0  0
 21 22  2  0  0  0
 22 23  1  0  0  0
 23 24  2  0  0  0
 24 25  1  0  0  0
 25 26  2  0  0  0
 26 27  1  0  0  0
 27 28  2  0  0  0
 28 29  1  0  0  0
 29 30  1  0  0  0
 30 31  2  0  0  0
  2 33  1  0  0  0
 33 34  1  0  0  0
 33 35  1  0  0  0
 35 36  2  0  0  0
 35 37  1  0  0  0
 37 38  1  0  0  0
 38 39  1  0  0  0
 39 40  2  0  0  0
 40 41  1  0  0  0
 41 42  2  0  0  0
 42 43  1  0  0  0
 43 44  2  0  0  0
  6  1  1  0  0  0
 31  8  1  0  0  0
 44 39  1  0  0  0
 29  4  1  0  0  0
 14  9  1  0  0  0
 31 15  1  0  0  0
 21 16  1  0  0  0
 30 22  1  0  0  0
 28 23  1  0  0  0
 18 32  1  0  0  0
M  END
> <minimizedAffinity>
-7.77337

> <CNNscore>
0.1890629977

> <CNNaffinity>
6.0990419388

> <CNN_VS>
1.1531031132

> <CNNaffinity_variance>
0.0526728816

$$$$
[H]c1c([H])c([H])c(C([H])([H])OC(=O)N(C([H])([H])[H])[C@]2([H])C([H])([H])[C@@]3([H])O[C@](C([H])([H])[H])(n4c5c([H])c([H])c([H])c([H])c5c5c6c(c7c8c([H])c([H])c([H])c([H])c8n3c7c54)C(=O)N([H])C6([H])[H])[C@]2([H])OC([H])([H])[H])c([H])c1[H]


 46 54  0  0  0  0  0  0  0  0999 V2000
   -2.4921   20.2421  -18.1162 C   0  0  0  0  0  0  0  0  0  0  0  0
   -3.9896   20.4394  -17.8857 C   0  0  0  0  0  0  0  0  0  0  0  0
   -4.5630   20.6622  -19.2539 C   0  0  0  0  0  0  0  0  0  0  0  0
   -3.9361   21.9373  -19.7377 C   0  0  0  0  0  0  0  0  0  0  0  0
   -2.9944   22.4619  -18.9264 O   0  0  0  0  0  0  0  0  0  0  0  0
   -1.9771   21.6708  -18.4385 C   0  0  0  0  0  0  0  0  0  0  0  0
   -1.6993   22.2321  -17.0659 C   0  0  0  0  0  0  0  0  0  0  0  0
   -0.9114   21.6158  -19.3752 N   0  0  0  0  0  0  0  0  0  0  0  0
    0.4340   21.4910  -19.1190 C   0  0  0  0  0  0  0  0  0  0  0  0
    1.1349   21.3825  -17.9361 C   0  0  0  0  0  0  0  0  0  0  0  0
    2.5147   21.2561  -18.0193 C   0  0  0  0  0  0  0  0  0  0  0  0
    3.1479   21.2398  -19.2380 C   0  0  0  0  0  0  0  0  0  0  0  0
    2.4708   21.3453  -20.4301 C   0  0  0  0  0  0  0  0  0  0  0  0
    1.0958   21.4712  -20.3346 C   0  0  0  0  0  0  0  0  0  0  0  0
    0.1376   21.5828  -21.3150 C   0  0  0  0  0  0  0  0  0  0  0  0
    0.2125   21.5979  -22.7192 C   0  0  0  0  0  0  0  0  0  0  0  0
    1.3999   21.5374  -23.5535 C   0  0  0  0  0  0  0  0  0  0  0  0
    0.9550   21.5380  -24.8912 N   0  0  0  0  0  0  0  0  0  0  0  0
   -0.4606   21.6624  -24.8993 C   0  0  0  0  0  0  0  0  0  0  0  0
   -1.0817   21.7202  -25.9734 O   0  0  0  0  0  0  0  0  0  0  0  0
   -0.9024   21.6970  -23.5186 C   0  0  0  0  0  0  0  0  0  0  0  0
   -2.1509   21.7881  -22.9248 C   0  0  0  0  0  0  0  0  0  0  0  0
   -3.4382   21.9010  -23.3663 C   0  0  0  0  0  0  0  0  0  0  0  0
   -3.9691   21.9616  -24.6273 C   0  0  0  0  0  0  0  0  0  0  0  0
   -5.3642   22.0795  -24.7364 C   0  0  0  0  0  0  0  0  0  0  0  0
   -6.1837   22.1335  -23.6321 C   0  0  0  0  0  0  0  0  0  0  0  0
   -5.5983   22.0685  -22.3856 C   0  0  0  0  0  0  0  0  0  0  0  0
   -4.2258   21.9521  -22.2361 C   0  0  0  0  0  0  0  0  0  0  0  0
   -3.4771   21.8759  -21.1298 N   0  0  0  0  0  0  0  0  0  0  0  0
   -2.2039   21.7731  -21.5461 C   0  0  0  0  0  0  0  0  0  0  0  0
   -1.0945   21.6719  -20.7271 C   0  0  0  0  0  0  0  0  0  0  0  0
    1.6080   21.4562  -25.7273 H   0  0  0  0  0  0  0  0  0  0  0  0
   -4.6318   19.4976  -17.0601 N   0  0  0  0  0  0  0  0  0  0  0  0
   -4.9434   19.9503  -15.6764 C   0  0  0  0  0  0  0  0  0  0  0  0
   -5.0295   18.1747  -17.3442 C   0  0  0  0  0  0  0  0  0  0  0  0
   -4.9094   17.6104  -18.4614 O   0  0  0  0  0  0  0  0  0  0  0  0
   -5.6072   17.3840  -16.3450 O   0  0  0  0  0  0  0  0  0  0  0  0
   -6.8685   16.7341  -16.5640 C   0  0  0  0  0  0  0  0  0  0  0  0
   -7.9007   17.7849  -16.2514 C   0  0  0  0  0  0  0  0  0  0  0  0
   -8.6445   18.3950  -17.2293 C   0  0  0  0  0  0  0  0  0  0  0  0
   -9.5816   19.3556  -16.8923 C   0  0  0  0  0  0  0  0  0  0  0  0
   -9.7977   19.7303  -15.5640 C   0  0  0  0  0  0  0  0  0  0  0  0
   -9.0570   19.1225  -14.5929 C   0  0  0  0  0  0  0  0  0  0  0  0
   -8.1229   18.1628  -14.9467 C   0  0  0  0  0  0  0  0  0  0  0  0
   -1.3680   18.2505  -18.5736 C   0  0  0  0  0  0  0  0  0  0  0  0
   -2.1223   19.3311  -19.0259 O   0  0  0  0  0  0  0  0  0  0  0  0
 45 46  1  0  0  0
 46  1  1  0  0  0
  1  2  1  0  0  0
  2  3  1  0  0  0
  3  4  1  0  0  0
  4  5  1  0  0  0
  5  6  1  0  0  0
  6  7  1  0  0  0
  6  8  1  0  0  0
  8  9  1  0  0  0
  9 10  2  0  0  0
 10 11  1  0  0  0
 11 12  2  0  0  0
 12 13  1  0  0  0
 13 14  2  0  0  0
 14 15  1  0  0  0
 15 16  2  0  0  0
 16 17  1  0  0  0
 17 18  1  0  0  0
 18 19  1  0  0  0
 19 20  2  0  0  0
 19 21  1  0  0  0
 21 22  2  0  0  0
 22 23  1  0  0  0
 23 24  2  0  0  0
 24 25  1  0  0  0
 25 26  2  0  0  0
 26 27  1  0  0  0
 27 28  2  0  0  0
 28 29  1  0  0  0
 29 30  1  0  0  0
 30 31  2  0  0  0
  2 33  1  0  0  0
 33 34  1  0  0  0
 33 35  1  0  0  0
 35 36  2  0  0  0
 35 37  1  0  0  0
 37 38  1  0  0  0
 38 39  1  0  0  0
 39 40  2  0  0  0
 40 41  1  0  0  0
 41 42  2  0  0  0
 42 43  1  0  0  0
 43 44  2  0  0  0
  6  1  1  0  0  0
 31  8  1  0  0  0
 44 39  1  0  0  0
 29  4  1  0  0  0
 14  9  1  0  0  0
 31 15  1  0  0  0
 21 16  1  0  0  0
 30 22  1  0  0  0
 28 23  1  0  0  0
 18 32  1  0  0  0
M  END
> <minimizedAffinity>
-6.97190

> <CNNscore>
0.1773671508

> <CNNaffinity>
6.1735072136

> <CNN_VS>
1.0949773788

> <CNNaffinity_variance>
0.1152204871

$$$$
[H]c1c([H])c([H])c(C([H])([H])OC(=O)N(C([H])([H])[H])[C@]2([H])C([H])([H])[C@@]3([H])O[C@](C([H])([H])[H])(n4c5c([H])c([H])c([H])c([H])c5c5c6c(c7c8c([H])c([H])c([H])c([H])c8n3c7c54)C(=O)N([H])C6([H])[H])[C@]2([H])OC([H])([H])[H])c([H])c1[H]


 46 54  0  0  0  0  0  0  0  0999 V2000
   -5.3805   24.0940  -23.2019 C   0  0  0  0  0  0  0  0  0  0  0  0
   -6.0981   23.9236  -21.8639 C   0  0  0  0  0  0  0  0  0  0  0  0
   -5.0452   23.4122  -20.9254 C   0  0  0  0  0  0  0  0  0  0  0  0
   -4.6450   22.0752  -21.4780 C   0  0  0  0  0  0  0  0  0  0  0  0
   -5.2085   21.7463  -22.6589 O   0  0  0  0  0  0  0  0  0  0  0  0
   -5.1947   22.6384  -23.7090 C   0  0  0  0  0  0  0  0  0  0  0  0
   -6.4940   22.3788  -24.4306 C   0  0  0  0  0  0  0  0  0  0  0  0
   -3.9811   22.5160  -24.4358 N   0  0  0  0  0  0  0  0  0  0  0  0
   -3.7777   22.7139  -25.7815 C   0  0  0  0  0  0  0  0  0  0  0  0
   -4.6403   23.0772  -26.7945 C   0  0  0  0  0  0  0  0  0  0  0  0
   -4.1100   23.2068  -28.0707 C   0  0  0  0  0  0  0  0  0  0  0  0
   -2.7757   22.9807  -28.3048 C   0  0  0  0  0  0  0  0  0  0  0  0
   -1.8965   22.6188  -27.3114 C   0  0  0  0  0  0  0  0  0  0  0  0
   -2.4367   22.4923  -26.0435 C   0  0  0  0  0  0  0  0  0  0  0  0
   -1.8431   22.1637  -24.8470 C   0  0  0  0  0  0  0  0  0  0  0  0
   -0.5155   21.8590  -24.4973 C   0  0  0  0  0  0  0  0  0  0  0  0
    0.6417   21.7651  -25.3702 C   0  0  0  0  0  0  0  0  0  0  0  0
    1.7487   21.4796  -24.5453 N   0  0  0  0  0  0  0  0  0  0  0  0
    1.2925   21.3324  -23.2074 C   0  0  0  0  0  0  0  0  0  0  0  0
    2.0884   21.0426  -22.2989 O   0  0  0  0  0  0  0  0  0  0  0  0
   -0.1367   21.5774  -23.2054 C   0  0  0  0  0  0  0  0  0  0  0  0
   -1.0949   21.5904  -22.2047 C   0  0  0  0  0  0  0  0  0  0  0  0
   -1.1054   21.3666  -20.8575 C   0  0  0  0  0  0  0  0  0  0  0  0
   -0.1081   21.0368  -19.9787 C   0  0  0  0  0  0  0  0  0  0  0  0
   -0.4625   20.8754  -18.6295 C   0  0  0  0  0  0  0  0  0  0  0  0
   -1.7555   21.0377  -18.1870 C   0  0  0  0  0  0  0  0  0  0  0  0
   -2.7216   21.3697  -19.1128 C   0  0  0  0  0  0  0  0  0  0  0  0
   -2.4120   21.5378  -20.4528 C   0  0  0  0  0  0  0  0  0  0  0  0
   -3.1947   21.8544  -21.4909 N   0  0  0  0  0  0  0  0  0  0  0  0
   -2.3919   21.8900  -22.5674 C   0  0  0  0  0  0  0  0  0  0  0  0
   -2.7903   22.1777  -23.8600 C   0  0  0  0  0  0  0  0  0  0  0  0
    2.7455   21.3973  -24.9079 H   0  0  0  0  0  0  0  0  0  0  0  0
   -6.8853   25.0051  -21.4262 N   0  0  0  0  0  0  0  0  0  0  0  0
   -6.5524   25.5503  -20.0813 C   0  0  0  0  0  0  0  0  0  0  0  0
   -7.9546   25.6596  -22.0724 C   0  0  0  0  0  0  0  0  0  0  0  0
   -8.3666   25.3955  -23.2305 O   0  0  0  0  0  0  0  0  0  0  0  0
   -8.6455   26.6880  -21.4225 O   0  0  0  0  0  0  0  0  0  0  0  0
  -10.0798   26.7410  -21.4561 C   0  0  0  0  0  0  0  0  0  0  0  0
  -10.4207   28.1528  -21.0583 C   0  0  0  0  0  0  0  0  0  0  0  0
  -11.2969   28.9252  -21.7776 C   0  0  0  0  0  0  0  0  0  0  0  0
  -11.5785   30.2178  -21.3720 C   0  0  0  0  0  0  0  0  0  0  0  0
  -10.9880   30.7705  -20.2331 C   0  0  0  0  0  0  0  0  0  0  0  0
  -10.1169   30.0008  -19.5191 C   0  0  0  0  0  0  0  0  0  0  0  0
   -9.8455   28.7088  -19.9383 C   0  0  0  0  0  0  0  0  0  0  0  0
   -4.1829   25.9012  -24.0616 C   0  0  0  0  0  0  0  0  0  0  0  0
   -4.2437   24.8027  -23.2069 O   0  0  0  0  0  0  0  0  0  0  0  0
 45 46  1  0  0  0
 46  1  1  0  0  0
  1  2  1  0  0  0
  2  3  1  0  0  0
  3  4  1  0  0  0
  4  5  1  0  0  0
  5  6  1  0  0  0
  6  7  1  0  0  0
  6  8  1  0  0  0
  8  9  1  0  0  0
  9 10  2  0  0  0
 10 11  1  0  0  0
 11 12  2  0  0  0
 12 13  1  0  0  0
 13 14  2  0  0  0
 14 15  1  0  0  0
 15 16  2  0  0  0
 16 17  1  0  0  0
 17 18  1  0  0  0
 18 19  1  0  0  0
 19 20  2  0  0  0
 19 21  1  0  0  0
 21 22  2  0  0  0
 22 23  1  0  0  0
 23 24  2  0  0  0
 24 25  1  0  0  0
 25 26  2  0  0  0
 26 27  1  0  0  0
 27 28  2  0  0  0
 28 29  1  0  0  0
 29 30  1  0  0  0
 30 31  2  0  0  0
  2 33  1  0  0  0
 33 34  1  0  0  0
 33 35  1  0  0  0
 35 36  2  0  0  0
 35 37  1  0  0  0
 37 38  1  0  0  0
 38 39  1  0  0  0
 39 40  2  0  0  0
 40 41  1  0  0  0
 41 42  2  0  0  0
 42 43  1  0  0  0
 43 44  2  0  0  0
  6  1  1  0  0  0
 31  8  1  0  0  0
 44 39  1  0  0  0
 29  4  1  0  0  0
 14  9  1  0  0  0
 31 15  1  0  0  0
 21 16  1  0  0  0
 30 22  1  0  0  0
 28 23  1  0  0  0
 18 32  1  0  0  0
M  END
> <minimizedAffinity>
-11.91728

> <CNNscore>
0.1704641134

> <CNNaffinity>
6.6108255386

> <CNN_VS>
1.1269085407

> <CNNaffinity_variance>
0.2770100236

$$$$
[H]c1c([H])c([H])c(C([H])([H])OC(=O)N(C([H])([H])[H])[C@]2([H])C([H])([H])[C@@]3([H])O[C@](C([H])([H])[H])(n4c5c([H])c([H])c([H])c([H])c5c5c6c(c7c8c([H])c([H])c([H])c([H])c8n3c7c54)C(=O)N([H])C6([H])[H])[C@]2([H])OC([H])([H])[H])c([H])c1[H]


 46 54  0  0  0  0  0  0  0  0999 V2000
   -3.1755   22.7025  -20.6697 C   0  0  0  0  0  0  0  0  0  0  0  0
   -1.8798   21.9700  -21.0145 C   0  0  0  0  0  0  0  0  0  0  0  0
   -1.7352   22.1232  -22.4998 C   0  0  0  0  0  0  0  0  0  0  0  0
   -2.9148   21.4021  -23.0840 C   0  0  0  0  0  0  0  0  0  0  0  0
   -3.8062   20.9317  -22.1872 O   0  0  0  0  0  0  0  0  0  0  0  0
   -4.2869   21.7506  -21.1886 C   0  0  0  0  0  0  0  0  0  0  0  0
   -4.4912   20.8225  -20.0169 C   0  0  0  0  0  0  0  0  0  0  0  0
   -5.3984   22.4958  -21.6631 N   0  0  0  0  0  0  0  0  0  0  0  0
   -6.4918   22.9299  -20.9506 C   0  0  0  0  0  0  0  0  0  0  0  0
   -6.8338   22.7891  -19.6219 C   0  0  0  0  0  0  0  0  0  0  0  0
   -8.0248   23.3663  -19.2034 C   0  0  0  0  0  0  0  0  0  0  0  0
   -8.8242   24.0501  -20.0863 C   0  0  0  0  0  0  0  0  0  0  0  0
   -8.5038   24.2046  -21.4146 C   0  0  0  0  0  0  0  0  0  0  0  0
   -7.3145   23.6247  -21.8204 C   0  0  0  0  0  0  0  0  0  0  0  0
   -6.7045   23.6034  -23.0529 C   0  0  0  0  0  0  0  0  0  0  0  0
   -7.0577   24.1554  -24.2972 C   0  0  0  0  0  0  0  0  0  0  0  0
   -8.2548   24.9043  -24.6376 C   0  0  0  0  0  0  0  0  0  0  0  0
   -8.1266   25.2791  -25.9906 N   0  0  0  0  0  0  0  0  0  0  0  0
   -6.9211   24.7275  -26.5028 C   0  0  0  0  0  0  0  0  0  0  0  0
   -6.6073   24.8955  -27.6927 O   0  0  0  0  0  0  0  0  0  0  0  0
   -6.2671   24.0257  -25.4153 C   0  0  0  0  0  0  0  0  0  0  0  0
   -5.0764   23.3237  -25.3205 C   0  0  0  0  0  0  0  0  0  0  0  0
   -4.0668   22.9898  -26.1773 C   0  0  0  0  0  0  0  0  0  0  0  0
   -3.8716   23.2558  -27.5065 C   0  0  0  0  0  0  0  0  0  0  0  0
   -2.7019   22.7553  -28.1010 C   0  0  0  0  0  0  0  0  0  0  0  0
   -1.7753   22.0240  -27.3935 C   0  0  0  0  0  0  0  0  0  0  0  0
   -2.0200   21.7846  -26.0581 C   0  0  0  0  0  0  0  0  0  0  0  0
   -3.1621   22.2611  -25.4350 C   0  0  0  0  0  0  0  0  0  0  0  0
   -3.5754   22.1370  -24.1684 N   0  0  0  0  0  0  0  0  0  0  0  0
   -4.7478   22.7884  -24.0920 C   0  0  0  0  0  0  0  0  0  0  0  0
   -5.5287   22.9106  -22.9574 C   0  0  0  0  0  0  0  0  0  0  0  0
   -8.8402   25.8785  -26.5040 H   0  0  0  0  0  0  0  0  0  0  0  0
   -0.7558   22.2655  -20.2206 N   0  0  0  0  0  0  0  0  0  0  0  0
   -0.9771   23.2381  -19.1153 C   0  0  0  0  0  0  0  0  0  0  0  0
    0.5642   21.7775  -20.3123 C   0  0  0  0  0  0  0  0  0  0  0  0
    0.9573   20.9134  -21.1368 O   0  0  0  0  0  0  0  0  0  0  0  0
    1.5527   22.2558  -19.4454 O   0  0  0  0  0  0  0  0  0  0  0  0
    2.3788   21.3453  -18.7041 C   0  0  0  0  0  0  0  0  0  0  0  0
    1.6031   21.0621  -17.4450 C   0  0  0  0  0  0  0  0  0  0  0  0
    1.3630   22.0268  -16.4998 C   0  0  0  0  0  0  0  0  0  0  0  0
    0.6446   21.7180  -15.3583 C   0  0  0  0  0  0  0  0  0  0  0  0
    0.1474   20.4320  -15.1343 C   0  0  0  0  0  0  0  0  0  0  0  0
    0.3870   19.4739  -16.0753 C   0  0  0  0  0  0  0  0  0  0  0  0
    1.1079   19.7990  -17.2126 C   0  0  0  0  0  0  0  0  0  0  0  0
   -2.3755   24.4108  -22.0411 C   0  0  0  0  0  0  0  0  0  0  0  0
   -3.3102   23.9599  -21.1116 O   0  0  0  0  0  0  0  0  0  0  0  0
 45 46  1  0  0  0
 46  1  1  0  0  0
  1  2  1  0  0  0
  2  3  1  0  0  0
  3  4  1  0  0  0
  4  5  1  0  0  0
  5  6  1  0  0  0
  6  7  1  0  0  0
  6  8  1  0  0  0
  8  9  1  0  0  0
  9 10  2  0  0  0
 10 11  1  0  0  0
 11 12  2  0  0  0
 12 13  1  0  0  0
 13 14  2  0  0  0
 14 15  1  0  0  0
 15 16  2  0  0  0
 16 17  1  0  0  0
 17 18  1  0  0  0
 18 19  1  0  0  0
 19 20  2  0  0  0
 19 21  1  0  0  0
 21 22  2  0  0  0
 22 23  1  0  0  0
 23 24  2  0  0  0
 24 25  1  0  0  0
 25 26  2  0  0  0
 26 27  1  0  0  0
 27 28  2  0  0  0
 28 29  1  0  0  0
 29 30  1  0  0  0
 30 31  2  0  0  0
  2 33  1  0  0  0
 33 34  1  0  0  0
 33 35  1  0  0  0
 35 36  2  0  0  0
 35 37  1  0  0  0
 37 38  1  0  0  0
 38 39  1  0  0  0
 39 40  2  0  0  0
 40 41  1  0  0  0
 41 42  2  0  0  0
 42 43  1  0  0  0
 43 44  2  0  0  0
  6  1  1  0  0  0
 31  8  1  0  0  0
 44 39  1  0  0  0
 29  4  1  0  0  0
 14  9  1  0  0  0
 31 15  1  0  0  0
 21 16  1  0  0  0
 30 22  1  0  0  0
 28 23  1  0  0  0
 18 32  1  0  0  0
M  END
> <minimizedAffinity>
-9.16722

> <CNNscore>
0.1640043557

> <CNNaffinity>
6.7231841087

> <CNN_VS>
1.1026314497

> <CNNaffinity_variance>
0.1635509282

$$$$
[H]c1c([H])c([H])c(C([H])([H])OC(=O)N(C([H])([H])[H])[C@]2([H])C([H])([H])[C@@]3([H])O[C@](C([H])([H])[H])(n4c5c([H])c([H])c([H])c([H])c5c5c6c(c7c8c([H])c([H])c([H])c([H])c8n3c7c54)C(=O)N([H])C6([H])[H])[C@]2([H])OC([H])([H])[H])c([H])c1[H]


 46 54  0  0  0  0  0  0  0  0999 V2000
   -3.0626   20.6261  -18.2308 C   0  0  0  0  0  0  0  0  0  0  0  0
   -4.5368   20.9207  -18.5033 C   0  0  0  0  0  0  0  0  0  0  0  0
   -4.6348   21.0434  -19.9953 C   0  0  0  0  0  0  0  0  0  0  0  0
   -3.7902   22.2336  -20.3461 C   0  0  0  0  0  0  0  0  0  0  0  0
   -3.1111   22.7829  -19.3179 O   0  0  0  0  0  0  0  0  0  0  0  0
   -2.3624   21.9899  -18.4757 C   0  0  0  0  0  0  0  0  0  0  0  0
   -2.4842   22.6625  -17.1307 C   0  0  0  0  0  0  0  0  0  0  0  0
   -1.0652   21.7927  -19.0183 N   0  0  0  0  0  0  0  0  0  0  0  0
    0.1188   21.6236  -18.3393 C   0  0  0  0  0  0  0  0  0  0  0  0
    0.4043   21.5907  -16.9903 C   0  0  0  0  0  0  0  0  0  0  0  0
    1.7266   21.3864  -16.6211 C   0  0  0  0  0  0  0  0  0  0  0  0
    2.7055   21.2234  -17.5706 C   0  0  0  0  0  0  0  0  0  0  0  0
    2.4452   21.2512  -18.9205 C   0  0  0  0  0  0  0  0  0  0  0  0
    1.1235   21.4559  -19.2765 C   0  0  0  0  0  0  0  0  0  0  0  0
    0.5314   21.5241  -20.5160 C   0  0  0  0  0  0  0  0  0  0  0  0
    1.0421   21.4035  -21.8208 C   0  0  0  0  0  0  0  0  0  0  0  0
    2.4222   21.2042  -22.2275 C   0  0  0  0  0  0  0  0  0  0  0  0
    2.4189   21.1021  -23.6336 N   0  0  0  0  0  0  0  0  0  0  0  0
    1.0909   21.2977  -24.1004 C   0  0  0  0  0  0  0  0  0  0  0  0
    0.8430   21.2863  -25.3174 O   0  0  0  0  0  0  0  0  0  0  0  0
    0.2441   21.4843  -22.9381 C   0  0  0  0  0  0  0  0  0  0  0  0
   -1.1162   21.6947  -22.7804 C   0  0  0  0  0  0  0  0  0  0  0  0
   -2.1882   21.8316  -23.6153 C   0  0  0  0  0  0  0  0  0  0  0  0
   -2.2922   21.8008  -24.9805 C   0  0  0  0  0  0  0  0  0  0  0  0
   -3.5696   21.9794  -25.5358 C   0  0  0  0  0  0  0  0  0  0  0  0
   -4.6862   22.1788  -24.7564 C   0  0  0  0  0  0  0  0  0  0  0  0
   -4.5265   22.2010  -23.3872 C   0  0  0  0  0  0  0  0  0  0  0  0
   -3.2829   22.0288  -22.8010 C   0  0  0  0  0  0  0  0  0  0  0  0
   -2.9256   22.0184  -21.5116 N   0  0  0  0  0  0  0  0  0  0  0  0
   -1.5983   21.8118  -21.4929 C   0  0  0  0  0  0  0  0  0  0  0  0
   -0.8118   21.7310  -20.3585 C   0  0  0  0  0  0  0  0  0  0  0  0
    3.2918   20.9088  -24.2104 H   0  0  0  0  0  0  0  0  0  0  0  0
   -5.4765   20.0947  -17.8586 N   0  0  0  0  0  0  0  0  0  0  0  0
   -5.1116   19.6399  -16.4886 C   0  0  0  0  0  0  0  0  0  0  0  0
   -6.7251   19.6247  -18.3158 C   0  0  0  0  0  0  0  0  0  0  0  0
   -7.2488   19.9264  -19.4183 O   0  0  0  0  0  0  0  0  0  0  0  0
   -7.4817   18.7541  -17.5239 O   0  0  0  0  0  0  0  0  0  0  0  0
   -8.2099   17.6695  -18.1194 C   0  0  0  0  0  0  0  0  0  0  0  0
   -7.5099   16.4269  -17.6365 C   0  0  0  0  0  0  0  0  0  0  0  0
   -7.4110   15.2957  -18.4061 C   0  0  0  0  0  0  0  0  0  0  0  0
   -6.7576   14.1779  -17.9182 C   0  0  0  0  0  0  0  0  0  0  0  0
   -6.1853   14.1650  -16.6439 C   0  0  0  0  0  0  0  0  0  0  0  0
   -6.2846   15.2908  -15.8800 C   0  0  0  0  0  0  0  0  0  0  0  0
   -6.9420   16.4016  -16.3829 C   0  0  0  0  0  0  0  0  0  0  0  0
   -2.0084   18.5469  -18.1607 C   0  0  0  0  0  0  0  0  0  0  0  0
   -2.4997   19.6160  -18.9069 O   0  0  0  0  0  0  0  0  0  0  0  0
 45 46  1  0  0  0
 46  1  1  0  0  0
  1  2  1  0  0  0
  2  3  1  0  0  0
  3  4  1  0  0  0
  4  5  1  0  0  0
  5  6  1  0  0  0
  6  7  1  0  0  0
  6  8  1  0  0  0
  8  9  1  0  0  0
  9 10  2  0  0  0
 10 11  1  0  0  0
 11 12  2  0  0  0
 12 13  1  0  0  0
 13 14  2  0  0  0
 14 15  1  0  0  0
 15 16  2  0  0  0
 16 17  1  0  0  0
 17 18  1  0  0  0
 18 19  1  0  0  0
 19 20  2  0  0  0
 19 21  1  0  0  0
 21 22  2  0  0  0
 22 23  1  0  0  0
 23 24  2  0  0  0
 24 25  1  0  0  0
 25 26  2  0  0  0
 26 27  1  0  0  0
 27 28  2  0  0  0
 28 29  1  0  0  0
 29 30  1  0  0  0
 30 31  2  0  0  0
  2 33  1  0  0  0
 33 34  1  0  0  0
 33 35  1  0  0  0
 35 36  2  0  0  0
 35 37  1  0  0  0
 37 38  1  0  0  0
 38 39  1  0  0  0
 39 40  2  0  0  0
 40 41  1  0  0  0
 41 42  2  0  0  0
 42 43  1  0  0  0
 43 44  2  0  0  0
  6  1  1  0  0  0
 31  8  1  0  0  0
 44 39  1  0  0  0
 29  4  1  0  0  0
 14  9  1  0  0  0
 31 15  1  0  0  0
 21 16  1  0  0  0
 30 22  1  0  0  0
 28 23  1  0  0  0
 18 32  1  0  0  0
M  END
> <minimizedAffinity>
-7.37275

> <CNNscore>
0.1599004418

> <CNNaffinity>
6.2162427902

> <CNN_VS>
0.9939799905

> <CNNaffinity_variance>
0.0797071606

$$$$
[H]c1c([H])c([H])c(C([H])([H])OC(=O)N(C([H])([H])[H])[C@]2([H])C([H])([H])[C@@]3([H])O[C@](C([H])([H])[H])(n4c5c([H])c([H])c([H])c([H])c5c5c6c(c7c8c([H])c([H])c([H])c([H])c8n3c7c54)C(=O)N([H])C6([H])[H])[C@]2([H])OC([H])([H])[H])c([H])c1[H]


 46 54  0  0  0  0  0  0  0  0999 V2000
    0.9933   21.5601  -20.3274 C   0  0  0  0  0  0  0  0  0  0  0  0
    0.7773   20.6860  -21.5617 C   0  0  0  0  0  0  0  0  0  0  0  0
    0.0818   19.4601  -21.0476 C   0  0  0  0  0  0  0  0  0  0  0  0
    1.0653   18.8146  -20.1154 C   0  0  0  0  0  0  0  0  0  0  0  0
    2.2004   19.5115  -19.9006 O   0  0  0  0  0  0  0  0  0  0  0  0
    2.1442   20.8473  -19.5673 C   0  0  0  0  0  0  0  0  0  0  0  0
    3.3732   21.4400  -20.2112 C   0  0  0  0  0  0  0  0  0  0  0  0
    1.9787   20.9925  -18.1646 N   0  0  0  0  0  0  0  0  0  0  0  0
    2.4473   22.0030  -17.3579 C   0  0  0  0  0  0  0  0  0  0  0  0
    3.1830   23.1347  -17.6414 C   0  0  0  0  0  0  0  0  0  0  0  0
    3.4913   23.9789  -16.5837 C   0  0  0  0  0  0  0  0  0  0  0  0
    3.0739   23.6898  -15.3075 C   0  0  0  0  0  0  0  0  0  0  0  0
    2.3390   22.5689  -15.0007 C   0  0  0  0  0  0  0  0  0  0  0  0
    2.0380   21.7346  -16.0631 C   0  0  0  0  0  0  0  0  0  0  0  0
    1.3222   20.5608  -16.1038 C   0  0  0  0  0  0  0  0  0  0  0  0
    0.6544   19.8206  -15.1120 C   0  0  0  0  0  0  0  0  0  0  0  0
    0.5757   20.0975  -13.6883 C   0  0  0  0  0  0  0  0  0  0  0  0
   -0.2405   19.0952  -13.1256 N   0  0  0  0  0  0  0  0  0  0  0  0
   -0.6078   18.1804  -14.1492 C   0  0  0  0  0  0  0  0  0  0  0  0
   -1.3035   17.1859  -13.8853 O   0  0  0  0  0  0  0  0  0  0  0  0
   -0.0319   18.6615  -15.3901 C   0  0  0  0  0  0  0  0  0  0  0  0
   -0.0693   18.1976  -16.6951 C   0  0  0  0  0  0  0  0  0  0  0  0
   -0.6214   17.1260  -17.3369 C   0  0  0  0  0  0  0  0  0  0  0  0
   -1.3790   16.0799  -16.8817 C   0  0  0  0  0  0  0  0  0  0  0  0
   -1.7956   15.1253  -17.8237 C   0  0  0  0  0  0  0  0  0  0  0  0
   -1.4663   15.2189  -19.1567 C   0  0  0  0  0  0  0  0  0  0  0  0
   -0.7016   16.2918  -19.5626 C   0  0  0  0  0  0  0  0  0  0  0  0
   -0.2710   17.2545  -18.6640 C   0  0  0  0  0  0  0  0  0  0  0  0
    0.4678   18.3532  -18.8574 N   0  0  0  0  0  0  0  0  0  0  0  0
    0.5930   18.9365  -17.6537 C   0  0  0  0  0  0  0  0  0  0  0  0
    1.2856   20.1046  -17.3930 C   0  0  0  0  0  0  0  0  0  0  0  0
   -0.5119   19.0676  -12.0972 H   0  0  0  0  0  0  0  0  0  0  0  0
    0.2272   21.3154  -22.6940 N   0  0  0  0  0  0  0  0  0  0  0  0
    1.1822   21.6306  -23.7919 C   0  0  0  0  0  0  0  0  0  0  0  0
   -1.1051   21.6996  -22.9520 C   0  0  0  0  0  0  0  0  0  0  0  0
   -2.0783   21.4841  -22.1856 O   0  0  0  0  0  0  0  0  0  0  0  0
   -1.4260   22.3746  -24.1347 O   0  0  0  0  0  0  0  0  0  0  0  0
   -2.3225   21.7892  -25.0911 C   0  0  0  0  0  0  0  0  0  0  0  0
   -1.8760   22.3372  -26.4206 C   0  0  0  0  0  0  0  0  0  0  0  0
   -2.7648   22.7910  -27.3618 C   0  0  0  0  0  0  0  0  0  0  0  0
   -2.3060   23.2860  -28.5696 C   0  0  0  0  0  0  0  0  0  0  0  0
   -0.9418   23.3390  -28.8659 C   0  0  0  0  0  0  0  0  0  0  0  0
   -0.0594   22.8872  -27.9287 C   0  0  0  0  0  0  0  0  0  0  0  0
   -0.5348   22.3947  -26.7245 C   0  0  0  0  0  0  0  0  0  0  0  0
   -0.4862   23.1379  -19.4552 C   0  0  0  0  0  0  0  0  0  0  0  0
   -0.0718   21.8115  -19.5548 O   0  0  0  0  0  0  0  0  0  0  0  0
 45 46  1  0  0  0
 46  1  1  0  0  0
  1  2  1  0  0  0
  2  3  1  0  0  0
  3  4  1  0  0  0
  4  5  1  0  0  0
  5  6  1  0  0  0
  6  7  1  0  0  0
  6  8  1  0  0  0
  8  9  1  0  0  0
  9 10  2  0  0  0
 10 11  1  0  0  0
 11 12  2  0  0  0
 12 13  1  0  0  0
 13 14  2  0  0  0
 14 15  1  0  0  0
 15 16  2  0  0  0
 16 17  1  0  0  0
 17 18  1  0  0  0
 18 19  1  0  0  0
 19 20  2  0  0  0
 19 21  1  0  0  0
 21 22  2  0  0  0
 22 23  1  0  0  0
 23 24  2  0  0  0
 24 25  1  0  0  0
 25 26  2  0  0  0
 26 27  1  0  0  0
 27 28  2  0  0  0
 28 29  1  0  0  0
 29 30  1  0  0  0
 30 31  2  0  0  0
  2 33  1  0  0  0
 33 34  1  0  0  0
 33 35  1  0  0  0
 35 36  2  0  0  0
 35 37  1  0  0  0
 37 38  1  0  0  0
 38 39  1  0  0  0
 39 40  2  0  0  0
 40 41  1  0  0  0
 41 42  2  0  0  0
 42 43  1  0  0  0
 43 44  2  0  0  0
  6  1  1  0  0  0
 31  8  1  0  0  0
 44 39  1  0  0  0
 29  4  1  0  0  0
 14  9  1  0  0  0
 31 15  1  0  0  0
 21 16  1  0  0  0
 30 22  1  0  0  0
 28 23  1  0  0  0
 18 32  1  0  0  0
M  END
> <minimizedAffinity>
-8.40818

> <CNNscore>
0.1432398707

> <CNNaffinity>
5.7075743675

> <CNN_VS>
0.8175522089

> <CNNaffinity_variance>
0.4249149859

$$$$
