[H]c1c(C([H])([H])n2nc([H])c3c([H])c(N([H])[H])c(OC([H])([H])[H])c([H])c32)c([H])c2c([H])c(C(=O)N([H])C([H])([H])[C@@]3([H])C(=O)N(C([H])([H])[H])C([H])([H])C([H])([H])C3([H])[H])oc2c1[H]


 37 41  0  0  0  0  0  0  0  0999 V2000
   -2.9371   22.0115  -25.0140 C   0  0  0  0  0  0  0  0  0  0  0  0
   -2.6217   23.1057  -24.1653 C   0  0  0  0  0  0  0  0  0  0  0  0
   -3.4342   23.5296  -23.1478 C   0  0  0  0  0  0  0  0  0  0  0  0
   -4.6337   22.8667  -22.9196 C   0  0  0  0  0  0  0  0  0  0  0  0
   -5.5815   23.0879  -22.0113 O   0  0  0  0  0  0  0  0  0  0  0  0
   -6.5446   22.2315  -22.1627 C   0  0  0  0  0  0  0  0  0  0  0  0
   -6.2016   21.4089  -23.2175 C   0  0  0  0  0  0  0  0  0  0  0  0
   -4.9707   21.8123  -23.7099 C   0  0  0  0  0  0  0  0  0  0  0  0
   -4.1168   21.4067  -24.7408 C   0  0  0  0  0  0  0  0  0  0  0  0
   -7.8096   22.1639  -21.3455 C   0  0  0  0  0  0  0  0  0  0  0  0
   -8.5224   21.1574  -21.5352 O   0  0  0  0  0  0  0  0  0  0  0  0
   -8.0579   23.1933  -20.5055 N   0  0  0  0  0  0  0  0  0  0  0  0
   -9.2217   22.6078  -20.1058 H   0  0  0  0  0  0  0  0  0  0  0  0
   -8.3193   24.2447  -19.6423 C   0  0  0  0  0  0  0  0  0  0  0  0
   -9.2892   25.2909  -20.2368 C   0  0  0  0  0  0  0  0  0  0  0  0
  -10.3523   24.5404  -21.0245 C   0  0  0  0  0  0  0  0  0  0  0  0
  -10.8928   25.4071  -22.1304 C   0  0  0  0  0  0  0  0  0  0  0  0
   -9.8565   25.3077  -23.2573 C   0  0  0  0  0  0  0  0  0  0  0  0
   -8.5949   25.7356  -22.6333 N   0  0  0  0  0  0  0  0  0  0  0  0
   -7.3912   25.7975  -23.4274 C   0  0  0  0  0  0  0  0  0  0  0  0
   -8.5548   26.1161  -21.2410 C   0  0  0  0  0  0  0  0  0  0  0  0
   -7.8794   27.1573  -20.9598 O   0  0  0  0  0  0  0  0  0  0  0  0
   -1.9290   21.6922  -26.0330 C   0  0  0  0  0  0  0  0  0  0  0  0
   -5.3607   24.0161  -28.0045 C   0  0  0  0  0  0  0  0  0  0  0  0
   -4.4645   23.2628  -27.2928 C   0  0  0  0  0  0  0  0  0  0  0  0
   -3.1215   23.1708  -27.7192 C   0  0  0  0  0  0  0  0  0  0  0  0
   -2.0362   22.6139  -27.1600 N   0  0  0  0  0  0  0  0  0  0  0  0
   -1.0036   22.9462  -27.9482 N   0  0  0  0  0  0  0  0  0  0  0  0
   -1.3988   23.6935  -28.9878 C   0  0  0  0  0  0  0  0  0  0  0  0
   -2.7870   23.8597  -28.8634 C   0  0  0  0  0  0  0  0  0  0  0  0
   -3.6875   24.6112  -29.5889 C   0  0  0  0  0  0  0  0  0  0  0  0
   -4.9844   24.7093  -29.1837 C   0  0  0  0  0  0  0  0  0  0  0  0
   -5.9642   25.4740  -29.8956 N   0  0  0  0  0  0  0  0  0  0  0  0
   -6.9997   25.3166  -29.8315 H   0  0  0  0  0  0  0  0  0  0  0  0
   -5.6422   26.2417  -30.5216 H   0  0  0  0  0  0  0  0  0  0  0  0
   -7.1959   23.7923  -26.3425 C   0  0  0  0  0  0  0  0  0  0  0  0
   -6.6478   24.1578  -27.6235 O   0  0  0  0  0  0  0  0  0  0  0  0
 36 37  1  0  0  0
 37 24  1  0  0  0
 24 25  2  0  0  0
 25 26  1  0  0  0
 26 27  1  0  0  0
 27 23  1  0  0  0
 23  1  1  0  0  0
  1  2  2  0  0  0
  2  3  1  0  0  0
  3  4  2  0  0  0
  4  5  1  0  0  0
  5  6  1  0  0  0
  6  7  2  0  0  0
  7  8  1  0  0  0
  8  9  2  0  0  0
  6 10  1  0  0  0
 10 11  2  0  0  0
 10 12  1  0  0  0
 12 14  1  0  0  0
 14 15  1  0  0  0
 15 16  1  0  0  0
 16 17  1  0  0  0
 17 18  1  0  0  0
 18 19  1  0  0  0
 19 20  1  0  0  0
 19 21  1  0  0  0
 21 22  2  0  0  0
 27 28  1  0  0  0
 28 29  2  0  0  0
 29 30  1  0  0  0
 30 31  1  0  0  0
 31 32  2  0  0  0
 32 33  1  0  0  0
 32 24  1  0  0  0
 30 26  2  0  0  0
  9  1  1  0  0  0
 21 15  1  0  0  0
  8  4  1  0  0  0
 12 13  1  0  0  0
 33 34  1  0  0  0
 33 35  1  0  0  0
M  END
> <minimizedAffinity>
-8.62710

> <CNNscore>
0.7157757878

> <CNNaffinity>
7.1609010696

> <CNN_VS>
5.1255993843

> <CNNaffinity_variance>
0.2060281932

$$$$
[H]c1c(C([H])([H])n2nc([H])c3c([H])c(N([H])[H])c(OC([H])([H])[H])c([H])c32)c([H])c2c([H])c(C(=O)N([H])C([H])([H])[C@@]3([H])C(=O)N(C([H])([H])[H])C([H])([H])C([H])([H])C3([H])[H])oc2c1[H]


 37 41  0  0  0  0  0  0  0  0999 V2000
   -4.3609   22.5685  -23.7807 C   0  0  0  0  0  0  0  0  0  0  0  0
   -4.2209   23.9630  -23.5514 C   0  0  0  0  0  0  0  0  0  0  0  0
   -3.3492   24.4934  -22.6381 C   0  0  0  0  0  0  0  0  0  0  0  0
   -2.5527   23.6375  -21.8876 C   0  0  0  0  0  0  0  0  0  0  0  0
   -1.6471   23.9040  -20.9489 O   0  0  0  0  0  0  0  0  0  0  0  0
   -1.1431   22.7972  -20.4967 C   0  0  0  0  0  0  0  0  0  0  0  0
   -1.7465   21.7605  -21.1808 C   0  0  0  0  0  0  0  0  0  0  0  0
   -2.6560   22.2949  -22.0794 C   0  0  0  0  0  0  0  0  0  0  0  0
   -3.5578   21.7877  -23.0208 C   0  0  0  0  0  0  0  0  0  0  0  0
   -0.1034   22.6726  -19.4121 C   0  0  0  0  0  0  0  0  0  0  0  0
    0.4378   23.7395  -19.0571 O   0  0  0  0  0  0  0  0  0  0  0  0
    0.1527   21.4315  -18.9418 N   0  0  0  0  0  0  0  0  0  0  0  0
    1.0852   21.9317  -18.0831 H   0  0  0  0  0  0  0  0  0  0  0  0
    0.4207   20.1627  -18.4547 C   0  0  0  0  0  0  0  0  0  0  0  0
    1.8823   19.7189  -18.6902 C   0  0  0  0  0  0  0  0  0  0  0  0
    2.7858   20.8808  -18.3061 C   0  0  0  0  0  0  0  0  0  0  0  0
    4.0715   20.8238  -19.0871 C   0  0  0  0  0  0  0  0  0  0  0  0
    3.7317   21.4215  -20.4586 C   0  0  0  0  0  0  0  0  0  0  0  0
    2.6172   20.5972  -20.9511 N   0  0  0  0  0  0  0  0  0  0  0  0
    2.0559   20.8615  -22.2544 C   0  0  0  0  0  0  0  0  0  0  0  0
    2.0958   19.5125  -20.1533 C   0  0  0  0  0  0  0  0  0  0  0  0
    1.8494   18.4266  -20.7693 O   0  0  0  0  0  0  0  0  0  0  0  0
   -5.3304   22.1938  -24.8183 C   0  0  0  0  0  0  0  0  0  0  0  0
   -1.3648   22.4429  -27.1151 C   0  0  0  0  0  0  0  0  0  0  0  0
   -2.4520   22.2754  -26.2984 C   0  0  0  0  0  0  0  0  0  0  0  0
   -3.6979   22.8362  -26.6551 C   0  0  0  0  0  0  0  0  0  0  0  0
   -4.9209   22.7290  -26.1132 N   0  0  0  0  0  0  0  0  0  0  0  0
   -5.7514   23.3709  -26.9475 N   0  0  0  0  0  0  0  0  0  0  0  0
   -5.0954   23.8817  -27.9984 C   0  0  0  0  0  0  0  0  0  0  0  0
   -3.7427   23.5446  -27.8349 C   0  0  0  0  0  0  0  0  0  0  0  0
   -2.6489   23.7245  -28.6554 C   0  0  0  0  0  0  0  0  0  0  0  0
   -1.4436   23.1843  -28.3221 C   0  0  0  0  0  0  0  0  0  0  0  0
   -0.2733   23.3376  -29.1336 N   0  0  0  0  0  0  0  0  0  0  0  0
    0.7100   23.2448  -28.7789 H   0  0  0  0  0  0  0  0  0  0  0  0
   -0.3906   23.5545  -30.1456 H   0  0  0  0  0  0  0  0  0  0  0  0
    0.4631   21.8588  -25.5346 C   0  0  0  0  0  0  0  0  0  0  0  0
   -0.1598   21.9042  -26.8326 O   0  0  0  0  0  0  0  0  0  0  0  0
 36 37  1  0  0  0
 37 24  1  0  0  0
 24 25  2  0  0  0
 25 26  1  0  0  0
 26 27  1  0  0  0
 27 23  1  0  0  0
 23  1  1  0  0  0
  1  2  2  0  0  0
  2  3  1  0  0  0
  3  4  2  0  0  0
  4  5  1  0  0  0
  5  6  1  0  0  0
  6  7  2  0  0  0
  7  8  1  0  0  0
  8  9  2  0  0  0
  6 10  1  0  0  0
 10 11  2  0  0  0
 10 12  1  0  0  0
 12 14  1  0  0  0
 14 15  1  0  0  0
 15 16  1  0  0  0
 16 17  1  0  0  0
 17 18  1  0  0  0
 18 19  1  0  0  0
 19 20  1  0  0  0
 19 21  1  0  0  0
 21 22  2  0  0  0
 27 28  1  0  0  0
 28 29  2  0  0  0
 29 30  1  0  0  0
 30 31  1  0  0  0
 31 32  2  0  0  0
 32 33  1  0  0  0
 32 24  1  0  0  0
 30 26  2  0  0  0
  9  1  1  0  0  0
 21 15  1  0  0  0
  8  4  1  0  0  0
 12 13  1  0  0  0
 33 34  1  0  0  0
 33 35  1  0  0  0
M  END
> <minimizedAffinity>
-8.28980

> <CNNscore>
0.4429968297

> <CNNaffinity>
6.8121161461

> <CNN_VS>
3.0177459717

> <CNNaffinity_variance>
0.1716353893

$$$$
[H]c1c(C([H])([H])n2nc([H])c3c([H])c(N([H])[H])c(OC([H])([H])[H])c([H])c32)c([H])c2c([H])c(C(=O)N([H])C([H])([H])[C@@]3([H])C(=O)N(C([H])([H])[H])C([H])([H])C([H])([H])C3([H])[H])oc2c1[H]


 37 41  0  0  0  0  0  0  0  0999 V2000
   -5.7364   23.6169  -24.5795 C   0  0  0  0  0  0  0  0  0  0  0  0
   -6.0664   22.2549  -24.8095 C   0  0  0  0  0  0  0  0  0  0  0  0
   -6.5022   21.4079  -23.8257 C   0  0  0  0  0  0  0  0  0  0  0  0
   -6.6338   21.8889  -22.5289 C   0  0  0  0  0  0  0  0  0  0  0  0
   -7.0263   21.2721  -21.4164 O   0  0  0  0  0  0  0  0  0  0  0  0
   -6.9912   22.1003  -20.4181 C   0  0  0  0  0  0  0  0  0  0  0  0
   -6.5611   23.3175  -20.9083 C   0  0  0  0  0  0  0  0  0  0  0  0
   -6.3293   23.1887  -22.2684 C   0  0  0  0  0  0  0  0  0  0  0  0
   -5.8864   24.0257  -23.2980 C   0  0  0  0  0  0  0  0  0  0  0  0
   -7.3403   21.7812  -18.9867 C   0  0  0  0  0  0  0  0  0  0  0  0
   -6.3865   21.7938  -18.1821 O   0  0  0  0  0  0  0  0  0  0  0  0
   -8.6341   21.5004  -18.7144 N   0  0  0  0  0  0  0  0  0  0  0  0
   -8.3330   21.3104  -17.3990 H   0  0  0  0  0  0  0  0  0  0  0  0
   -9.9582   21.2116  -18.4275 C   0  0  0  0  0  0  0  0  0  0  0  0
  -10.1810   20.7820  -16.9597 C   0  0  0  0  0  0  0  0  0  0  0  0
   -9.4899   21.8034  -16.0692 C   0  0  0  0  0  0  0  0  0  0  0  0
   -9.0744   21.1678  -14.7694 C   0  0  0  0  0  0  0  0  0  0  0  0
   -7.7698   20.4260  -15.0876 C   0  0  0  0  0  0  0  0  0  0  0  0
   -8.1245   19.5174  -16.1888 N   0  0  0  0  0  0  0  0  0  0  0  0
   -7.1257   18.6256  -16.7279 C   0  0  0  0  0  0  0  0  0  0  0  0
   -9.4674   19.4931  -16.7189 C   0  0  0  0  0  0  0  0  0  0  0  0
   -9.9627   18.3437  -16.9487 O   0  0  0  0  0  0  0  0  0  0  0  0
   -5.3111   24.3721  -25.7651 C   0  0  0  0  0  0  0  0  0  0  0  0
   -1.2292   22.6950  -24.5045 C   0  0  0  0  0  0  0  0  0  0  0  0
   -2.4700   23.2419  -24.7005 C   0  0  0  0  0  0  0  0  0  0  0  0
   -3.0171   23.3072  -26.0006 C   0  0  0  0  0  0  0  0  0  0  0  0
   -4.2271   23.6742  -26.4500 N   0  0  0  0  0  0  0  0  0  0  0  0
   -4.2279   23.4100  -27.7645 N   0  0  0  0  0  0  0  0  0  0  0  0
   -3.0591   22.8893  -28.1625 C   0  0  0  0  0  0  0  0  0  0  0  0
   -2.2428   22.8079  -27.0237 C   0  0  0  0  0  0  0  0  0  0  0  0
   -0.9891   22.2654  -26.8330 C   0  0  0  0  0  0  0  0  0  0  0  0
   -0.4542   22.1944  -25.5822 C   0  0  0  0  0  0  0  0  0  0  0  0
    0.8419   21.6425  -25.3227 N   0  0  0  0  0  0  0  0  0  0  0  0
    1.4209   21.8630  -24.4757 H   0  0  0  0  0  0  0  0  0  0  0  0
    1.2491   20.9754  -26.0112 H   0  0  0  0  0  0  0  0  0  0  0  0
   -0.9558   21.5545  -22.3125 C   0  0  0  0  0  0  0  0  0  0  0  0
   -0.6741   22.5847  -23.2791 O   0  0  0  0  0  0  0  0  0  0  0  0
 36 37  1  0  0  0
 37 24  1  0  0  0
 24 25  2  0  0  0
 25 26  1  0  0  0
 26 27  1  0  0  0
 27 23  1  0  0  0
 23  1  1  0  0  0
  1  2  2  0  0  0
  2  3  1  0  0  0
  3  4  2  0  0  0
  4  5  1  0  0  0
  5  6  1  0  0  0
  6  7  2  0  0  0
  7  8  1  0  0  0
  8  9  2  0  0  0
  6 10  1  0  0  0
 10 11  2  0  0  0
 10 12  1  0  0  0
 12 14  1  0  0  0
 14 15  1  0  0  0
 15 16  1  0  0  0
 16 17  1  0  0  0
 17 18  1  0  0  0
 18 19  1  0  0  0
 19 20  1  0  0  0
 19 21  1  0  0  0
 21 22  2  0  0  0
 27 28  1  0  0  0
 28 29  2  0  0  0
 29 30  1  0  0  0
 30 31  1  0  0  0
 31 32  2  0  0  0
 32 33  1  0  0  0
 32 24  1  0  0  0
 30 26  2  0  0  0
  9  1  1  0  0  0
 21 15  1  0  0  0
  8  4  1  0  0  0
 12 13  1  0  0  0
 33 34  1  0  0  0
 33 35  1  0  0  0
M  END
> <minimizedAffinity>
-7.58737

> <CNNscore>
0.3019724488

> <CNNaffinity>
6.2387061119

> <CNN_VS>
1.8839173317

> <CNNaffinity_variance>
0.1217361316

$$$$
[H]c1c(C([H])([H])n2nc([H])c3c([H])c(N([H])[H])c(OC([H])([H])[H])c([H])c32)c([H])c2c([H])c(C(=O)N([H])C([H])([H])[C@@]3([H])C(=O)N(C([H])([H])[H])C([H])([H])C([H])([H])C3([H])[H])oc2c1[H]


 37 41  0  0  0  0  0  0  0  0999 V2000
   -2.1737   22.6064  -27.4528 C   0  0  0  0  0  0  0  0  0  0  0  0
   -0.8368   22.9655  -27.7701 C   0  0  0  0  0  0  0  0  0  0  0  0
    0.2060   22.8427  -26.8911 C   0  0  0  0  0  0  0  0  0  0  0  0
   -0.0382   22.3430  -25.6179 C   0  0  0  0  0  0  0  0  0  0  0  0
    0.7930   22.1370  -24.5986 O   0  0  0  0  0  0  0  0  0  0  0  0
    0.1366   21.6639  -23.5842 C   0  0  0  0  0  0  0  0  0  0  0  0
   -1.1855   21.5503  -23.9663 C   0  0  0  0  0  0  0  0  0  0  0  0
   -1.3054   21.9859  -25.2763 C   0  0  0  0  0  0  0  0  0  0  0  0
   -2.3470   22.1254  -26.1996 C   0  0  0  0  0  0  0  0  0  0  0  0
    0.7142   21.3201  -22.2348 C   0  0  0  0  0  0  0  0  0  0  0  0
   -0.0416   21.5075  -21.2598 O   0  0  0  0  0  0  0  0  0  0  0  0
    1.9851   20.8609  -22.2059 N   0  0  0  0  0  0  0  0  0  0  0  0
    1.9320   20.7513  -20.8486 H   0  0  0  0  0  0  0  0  0  0  0  0
    3.2873   20.3897  -22.1682 C   0  0  0  0  0  0  0  0  0  0  0  0
    3.3754   18.8472  -22.2064 C   0  0  0  0  0  0  0  0  0  0  0  0
    2.3739   18.3019  -21.1997 C   0  0  0  0  0  0  0  0  0  0  0  0
    2.8262   16.9611  -20.6859 C   0  0  0  0  0  0  0  0  0  0  0  0
    3.8733   17.2789  -19.6106 C   0  0  0  0  0  0  0  0  0  0  0  0
    4.8774   18.0972  -20.3079 N   0  0  0  0  0  0  0  0  0  0  0  0
    6.0453   18.5550  -19.5939 C   0  0  0  0  0  0  0  0  0  0  0  0
    4.7170   18.4264  -21.7046 C   0  0  0  0  0  0  0  0  0  0  0  0
    5.7580   18.3308  -22.4301 O   0  0  0  0  0  0  0  0  0  0  0  0
   -3.1496   22.7875  -28.5352 C   0  0  0  0  0  0  0  0  0  0  0  0
   -6.3659   23.5594  -25.3534 C   0  0  0  0  0  0  0  0  0  0  0  0
   -5.3769   23.1655  -26.2159 C   0  0  0  0  0  0  0  0  0  0  0  0
   -5.0335   23.9793  -27.3176 C   0  0  0  0  0  0  0  0  0  0  0  0
   -4.0504   23.8942  -28.2271 N   0  0  0  0  0  0  0  0  0  0  0  0
   -4.1281   25.0143  -28.9600 N   0  0  0  0  0  0  0  0  0  0  0  0
   -5.1277   25.8048  -28.5459 C   0  0  0  0  0  0  0  0  0  0  0  0
   -5.7406   25.1514  -27.4655 C   0  0  0  0  0  0  0  0  0  0  0  0
   -6.7437   25.5476  -26.6058 C   0  0  0  0  0  0  0  0  0  0  0  0
   -7.0798   24.7714  -25.5379 C   0  0  0  0  0  0  0  0  0  0  0  0
   -8.1120   25.1302  -24.6120 N   0  0  0  0  0  0  0  0  0  0  0  0
   -8.6248   24.4471  -24.0024 H   0  0  0  0  0  0  0  0  0  0  0  0
   -8.3814   26.1327  -24.5262 H   0  0  0  0  0  0  0  0  0  0  0  0
   -5.9625   21.7342  -23.7144 C   0  0  0  0  0  0  0  0  0  0  0  0
   -6.7123   22.8309  -24.2712 O   0  0  0  0  0  0  0  0  0  0  0  0
 36 37  1  0  0  0
 37 24  1  0  0  0
 24 25  2  0  0  0
 25 26  1  0  0  0
 26 27  1  0  0  0
 27 23  1  0  0  0
 23  1  1  0  0  0
  1  2  2  0  0  0
  2  3  1  0  0  0
  3  4  2  0  0  0
  4  5  1  0  0  0
  5  6  1  0  0  0
  6  7  2  0  0  0
  7  8  1  0  0  0
  8  9  2  0  0  0
  6 10  1  0  0  0
 10 11  2  0  0  0
 10 12  1  0  0  0
 12 14  1  0  0  0
 14 15  1  0  0  0
 15 16  1  0  0  0
 16 17  1  0  0  0
 17 18  1  0  0  0
 18 19  1  0  0  0
 19 20  1  0  0  0
 19 21  1  0  0  0
 21 22  2  0  0  0
 27 28  1  0  0  0
 28 29  2  0  0  0
 29 30  1  0  0  0
 30 31  1  0  0  0
 31 32  2  0  0  0
 32 33  1  0  0  0
 32 24  1  0  0  0
 30 26  2  0  0  0
  9  1  1  0  0  0
 21 15  1  0  0  0
  8  4  1  0  0  0
 12 13  1  0  0  0
 33 34  1  0  0  0
 33 35  1  0  0  0
M  END
> <minimizedAffinity>
-9.30415

> <CNNscore>
0.2827203274

> <CNNaffinity>
6.5019087791

> <CNN_VS>
1.8382217884

> <CNNaffinity_variance>
0.0649152175

$$$$
[H]c1c(C([H])([H])n2nc([H])c3c([H])c(N([H])[H])c(OC([H])([H])[H])c([H])c32)c([H])c2c([H])c(C(=O)N([H])C([H])([H])[C@@]3([H])C(=O)N(C([H])([H])[H])C([H])([H])C([H])([H])C3([H])[H])oc2c1[H]


 37 41  0  0  0  0  0  0  0  0999 V2000
   -2.0259   22.4482  -27.1273 C   0  0  0  0  0  0  0  0  0  0  0  0
   -0.6612   22.7691  -27.3543 C   0  0  0  0  0  0  0  0  0  0  0  0
    0.3109   22.6503  -26.3971 C   0  0  0  0  0  0  0  0  0  0  0  0
   -0.0382   22.1940  -25.1321 C   0  0  0  0  0  0  0  0  0  0  0  0
    0.7105   22.0008  -24.0485 O   0  0  0  0  0  0  0  0  0  0  0  0
   -0.0297   21.5721  -23.0728 C   0  0  0  0  0  0  0  0  0  0  0  0
   -1.3224   21.4755  -23.5487 C   0  0  0  0  0  0  0  0  0  0  0  0
   -1.3352   21.8744  -24.8758 C   0  0  0  0  0  0  0  0  0  0  0  0
   -2.3023   22.0085  -25.8775 C   0  0  0  0  0  0  0  0  0  0  0  0
    0.4386   21.2563  -21.6750 C   0  0  0  0  0  0  0  0  0  0  0  0
   -0.0782   21.9364  -20.7653 O   0  0  0  0  0  0  0  0  0  0  0  0
    1.3731   20.2890  -21.5406 N   0  0  0  0  0  0  0  0  0  0  0  0
    1.3822   20.4629  -20.1890 H   0  0  0  0  0  0  0  0  0  0  0  0
    2.3308   19.2988  -21.3948 C   0  0  0  0  0  0  0  0  0  0  0  0
    1.8786   18.1499  -20.4651 C   0  0  0  0  0  0  0  0  0  0  0  0
    0.4284   17.8313  -20.7959 C   0  0  0  0  0  0  0  0  0  0  0  0
   -0.2711   17.2655  -19.5889 C   0  0  0  0  0  0  0  0  0  0  0  0
   -0.6381   18.4847  -18.7330 C   0  0  0  0  0  0  0  0  0  0  0  0
    0.6440   19.1674  -18.4996 N   0  0  0  0  0  0  0  0  0  0  0  0
    0.6797   20.3598  -17.6870 C   0  0  0  0  0  0  0  0  0  0  0  0
    1.8688   18.6429  -19.0560 C   0  0  0  0  0  0  0  0  0  0  0  0
    2.8812   18.6358  -18.2852 O   0  0  0  0  0  0  0  0  0  0  0  0
   -2.9149   22.6178  -28.2839 C   0  0  0  0  0  0  0  0  0  0  0  0
   -6.3248   23.5221  -25.3483 C   0  0  0  0  0  0  0  0  0  0  0  0
   -5.2861   23.0911  -26.1309 C   0  0  0  0  0  0  0  0  0  0  0  0
   -4.8591   23.8675  -27.2303 C   0  0  0  0  0  0  0  0  0  0  0  0
   -3.8189   23.7438  -28.0690 N   0  0  0  0  0  0  0  0  0  0  0  0
   -3.8323   24.8423  -28.8376 N   0  0  0  0  0  0  0  0  0  0  0  0
   -4.8462   25.6566  -28.5145 C   0  0  0  0  0  0  0  0  0  0  0  0
   -5.5386   25.0429  -27.4590 C   0  0  0  0  0  0  0  0  0  0  0  0
   -6.5911   25.4764  -26.6802 C   0  0  0  0  0  0  0  0  0  0  0  0
   -7.0081   24.7364  -25.6152 C   0  0  0  0  0  0  0  0  0  0  0  0
   -8.0947   25.1349  -24.7712 N   0  0  0  0  0  0  0  0  0  0  0  0
   -8.6563   24.4763  -24.1778 H   0  0  0  0  0  0  0  0  0  0  0  0
   -8.3554   26.1425  -24.7328 H   0  0  0  0  0  0  0  0  0  0  0  0
   -6.0987   21.6884  -23.6849 C   0  0  0  0  0  0  0  0  0  0  0  0
   -6.7525   22.8304  -24.2710 O   0  0  0  0  0  0  0  0  0  0  0  0
 36 37  1  0  0  0
 37 24  1  0  0  0
 24 25  2  0  0  0
 25 26  1  0  0  0
 26 27  1  0  0  0
 27 23  1  0  0  0
 23  1  1  0  0  0
  1  2  2  0  0  0
  2  3  1  0  0  0
  3  4  2  0  0  0
  4  5  1  0  0  0
  5  6  1  0  0  0
  6  7  2  0  0  0
  7  8  1  0  0  0
  8  9  2  0  0  0
  6 10  1  0  0  0
 10 11  2  0  0  0
 10 12  1  0  0  0
 12 14  1  0  0  0
 14 15  1  0  0  0
 15 16  1  0  0  0
 16 17  1  0  0  0
 17 18  1  0  0  0
 18 19  1  0  0  0
 19 20  1  0  0  0
 19 21  1  0  0  0
 21 22  2  0  0  0
 27 28  1  0  0  0
 28 29  2  0  0  0
 29 30  1  0  0  0
 30 31  1  0  0  0
 31 32  2  0  0  0
 32 33  1  0  0  0
 32 24  1  0  0  0
 30 26  2  0  0  0
  9  1  1  0  0  0
 21 15  1  0  0  0
  8  4  1  0  0  0
 12 13  1  0  0  0
 33 34  1  0  0  0
 33 35  1  0  0  0
M  END
> <minimizedAffinity>
-8.93199

> <CNNscore>
0.2508883178

> <CNNaffinity>
6.4271287918

> <CNN_VS>
1.6124914885

> <CNNaffinity_variance>
0.0912772715

$$$$
[H]c1c(C([H])([H])n2nc([H])c3c([H])c(N([H])[H])c(OC([H])([H])[H])c([H])c32)c([H])c2c([H])c(C(=O)N([H])C([H])([H])[C@@]3([H])C(=O)N(C([H])([H])[H])C([H])([H])C([H])([H])C3([H])[H])oc2c1[H]


 37 41  0  0  0  0  0  0  0  0999 V2000
   -6.2334   23.9270  -22.7866 C   0  0  0  0  0  0  0  0  0  0  0  0
   -6.4009   22.5182  -22.8523 C   0  0  0  0  0  0  0  0  0  0  0  0
   -7.3175   21.8319  -22.1013 C   0  0  0  0  0  0  0  0  0  0  0  0
   -8.1343   22.5340  -21.2238 C   0  0  0  0  0  0  0  0  0  0  0  0
   -9.0825   22.1014  -20.3955 O   0  0  0  0  0  0  0  0  0  0  0  0
   -9.5913   23.1037  -19.7471 C   0  0  0  0  0  0  0  0  0  0  0  0
   -8.9460   24.2447  -20.1811 C   0  0  0  0  0  0  0  0  0  0  0  0
   -8.0058   23.8850  -21.1335 C   0  0  0  0  0  0  0  0  0  0  0  0
   -7.0582   24.5538  -21.9156 C   0  0  0  0  0  0  0  0  0  0  0  0
  -10.6746   23.0272  -18.7015 C   0  0  0  0  0  0  0  0  0  0  0  0
  -11.4935   23.9688  -18.7019 O   0  0  0  0  0  0  0  0  0  0  0  0
  -10.6497   21.9675  -17.8629 N   0  0  0  0  0  0  0  0  0  0  0  0
  -11.7585   22.4299  -17.2195 H   0  0  0  0  0  0  0  0  0  0  0  0
  -10.6308   20.8843  -16.9996 C   0  0  0  0  0  0  0  0  0  0  0  0
   -9.2070   20.5050  -16.5333 C   0  0  0  0  0  0  0  0  0  0  0  0
   -9.3352   19.3574  -15.5432 C   0  0  0  0  0  0  0  0  0  0  0  0
   -8.1820   19.3701  -14.5756 C   0  0  0  0  0  0  0  0  0  0  0  0
   -8.5490   20.4330  -13.5320 C   0  0  0  0  0  0  0  0  0  0  0  0
   -8.7713   21.6564  -14.3180 N   0  0  0  0  0  0  0  0  0  0  0  0
   -9.1076   22.8871  -13.6428 C   0  0  0  0  0  0  0  0  0  0  0  0
   -8.6333   21.6427  -15.7552 C   0  0  0  0  0  0  0  0  0  0  0  0
   -8.0143   22.6270  -16.2722 O   0  0  0  0  0  0  0  0  0  0  0  0
   -5.2157   24.4841  -23.6871 C   0  0  0  0  0  0  0  0  0  0  0  0
   -1.5599   22.6307  -25.7518 C   0  0  0  0  0  0  0  0  0  0  0  0
   -2.7312   23.1835  -25.3051 C   0  0  0  0  0  0  0  0  0  0  0  0
   -2.9070   23.4535  -23.9303 C   0  0  0  0  0  0  0  0  0  0  0  0
   -3.8804   24.0832  -23.2544 N   0  0  0  0  0  0  0  0  0  0  0  0
   -3.4568   24.1608  -21.9846 N   0  0  0  0  0  0  0  0  0  0  0  0
   -2.2489   23.6007  -21.8337 C   0  0  0  0  0  0  0  0  0  0  0  0
   -1.8604   23.1280  -23.0969 C   0  0  0  0  0  0  0  0  0  0  0  0
   -0.6833   22.5623  -23.5403 C   0  0  0  0  0  0  0  0  0  0  0  0
   -0.5026   22.3016  -24.8650 C   0  0  0  0  0  0  0  0  0  0  0  0
    0.6969   21.7154  -25.3840 N   0  0  0  0  0  0  0  0  0  0  0  0
    0.7578   21.1996  -26.2958 H   0  0  0  0  0  0  0  0  0  0  0  0
    1.5755   21.8001  -24.8310 H   0  0  0  0  0  0  0  0  0  0  0  0
   -2.2195   22.6970  -28.1479 C   0  0  0  0  0  0  0  0  0  0  0  0
   -1.3325   22.3790  -27.0583 O   0  0  0  0  0  0  0  0  0  0  0  0
 36 37  1  0  0  0
 37 24  1  0  0  0
 24 25  2  0  0  0
 25 26  1  0  0  0
 26 27  1  0  0  0
 27 23  1  0  0  0
 23  1  1  0  0  0
  1  2  2  0  0  0
  2  3  1  0  0  0
  3  4  2  0  0  0
  4  5  1  0  0  0
  5  6  1  0  0  0
  6  7  2  0  0  0
  7  8  1  0  0  0
  8  9  2  0  0  0
  6 10  1  0  0  0
 10 11  2  0  0  0
 10 12  1  0  0  0
 12 14  1  0  0  0
 14 15  1  0  0  0
 15 16  1  0  0  0
 16 17  1  0  0  0
 17 18  1  0  0  0
 18 19  1  0  0  0
 19 20  1  0  0  0
 19 21  1  0  0  0
 21 22  2  0  0  0
 27 28  1  0  0  0
 28 29  2  0  0  0
 29 30  1  0  0  0
 30 31  1  0  0  0
 31 32  2  0  0  0
 32 33  1  0  0  0
 32 24  1  0  0  0
 30 26  2  0  0  0
  9  1  1  0  0  0
 21 15  1  0  0  0
  8  4  1  0  0  0
 12 13  1  0  0  0
 33 34  1  0  0  0
 33 35  1  0  0  0
M  END
> <minimizedAffinity>
-7.49337

> <CNNscore>
0.2309248745

> <CNNaffinity>
6.0150437355

> <CNN_VS>
1.3890231848

> <CNNaffinity_variance>
0.2121839225

$$$$
[H]c1c(C([H])([H])n2nc([H])c3c([H])c(N([H])[H])c(OC([H])([H])[H])c([H])c32)c([H])c2c([H])c(C(=O)N([H])C([H])([H])[C@@]3([H])C(=O)N(C([H])([H])[H])C([H])([H])C([H])([H])C3([H])[H])oc2c1[H]


 37 41  0  0  0  0  0  0  0  0999 V2000
    0.6532   20.8416  -21.7010 C   0  0  0  0  0  0  0  0  0  0  0  0
    1.8786   20.8731  -22.4182 C   0  0  0  0  0  0  0  0  0  0  0  0
    1.9790   21.2787  -23.7223 C   0  0  0  0  0  0  0  0  0  0  0  0
    0.8326   21.6833  -24.3947 C   0  0  0  0  0  0  0  0  0  0  0  0
    0.6719   22.1087  -25.6459 O   0  0  0  0  0  0  0  0  0  0  0  0
   -0.5796   22.3738  -25.8633 C   0  0  0  0  0  0  0  0  0  0  0  0
   -1.2645   22.1143  -24.6927 C   0  0  0  0  0  0  0  0  0  0  0  0
   -0.3604   21.6693  -23.7415 C   0  0  0  0  0  0  0  0  0  0  0  0
   -0.4262   21.2484  -22.4091 C   0  0  0  0  0  0  0  0  0  0  0  0
   -1.1721   22.8587  -27.1619 C   0  0  0  0  0  0  0  0  0  0  0  0
   -0.4885   22.6402  -28.1828 O   0  0  0  0  0  0  0  0  0  0  0  0
   -2.3658   23.4896  -27.0986 N   0  0  0  0  0  0  0  0  0  0  0  0
   -2.3604   23.6702  -28.4494 H   0  0  0  0  0  0  0  0  0  0  0  0
   -3.5891   24.1371  -27.0418 C   0  0  0  0  0  0  0  0  0  0  0  0
   -4.7300   23.3382  -27.7118 C   0  0  0  0  0  0  0  0  0  0  0  0
   -4.1637   22.6851  -28.9635 C   0  0  0  0  0  0  0  0  0  0  0  0
   -5.2513   22.4799  -29.9839 C   0  0  0  0  0  0  0  0  0  0  0  0
   -5.4238   23.8449  -30.6627 C   0  0  0  0  0  0  0  0  0  0  0  0
   -5.7155   24.7696  -29.5564 N   0  0  0  0  0  0  0  0  0  0  0  0
   -5.9718   26.1617  -29.8389 C   0  0  0  0  0  0  0  0  0  0  0  0
   -5.7710   24.2931  -28.1945 C   0  0  0  0  0  0  0  0  0  0  0  0
   -6.7301   24.7311  -27.4819 O   0  0  0  0  0  0  0  0  0  0  0  0
    0.7509   20.3999  -20.3038 C   0  0  0  0  0  0  0  0  0  0  0  0
   -2.9034   19.7927  -17.5943 C   0  0  0  0  0  0  0  0  0  0  0  0
   -1.8218   19.7894  -18.4353 C   0  0  0  0  0  0  0  0  0  0  0  0
   -1.1712   21.0010  -18.7558 C   0  0  0  0  0  0  0  0  0  0  0  0
   -0.0477   21.2650  -19.4406 N   0  0  0  0  0  0  0  0  0  0  0  0
    0.1594   22.5837  -19.3150 N   0  0  0  0  0  0  0  0  0  0  0  0
   -0.7954   23.1634  -18.5749 C   0  0  0  0  0  0  0  0  0  0  0  0
   -1.6841   22.1471  -18.1911 C   0  0  0  0  0  0  0  0  0  0  0  0
   -2.7785   22.1569  -17.3518 C   0  0  0  0  0  0  0  0  0  0  0  0
   -3.4108   20.9930  -17.0336 C   0  0  0  0  0  0  0  0  0  0  0  0
   -4.5511   20.9407  -16.1684 N   0  0  0  0  0  0  0  0  0  0  0  0
   -5.2542   20.1617  -16.1613 H   0  0  0  0  0  0  0  0  0  0  0  0
   -4.7050   21.7204  -15.4952 H   0  0  0  0  0  0  0  0  0  0  0  0
   -3.9729   17.6126  -18.1273 C   0  0  0  0  0  0  0  0  0  0  0  0
   -3.5425   18.6591  -17.2358 O   0  0  0  0  0  0  0  0  0  0  0  0
 36 37  1  0  0  0
 37 24  1  0  0  0
 24 25  2  0  0  0
 25 26  1  0  0  0
 26 27  1  0  0  0
 27 23  1  0  0  0
 23  1  1  0  0  0
  1  2  2  0  0  0
  2  3  1  0  0  0
  3  4  2  0  0  0
  4  5  1  0  0  0
  5  6  1  0  0  0
  6  7  2  0  0  0
  7  8  1  0  0  0
  8  9  2  0  0  0
  6 10  1  0  0  0
 10 11  2  0  0  0
 10 12  1  0  0  0
 12 14  1  0  0  0
 14 15  1  0  0  0
 15 16  1  0  0  0
 16 17  1  0  0  0
 17 18  1  0  0  0
 18 19  1  0  0  0
 19 20  1  0  0  0
 19 21  1  0  0  0
 21 22  2  0  0  0
 27 28  1  0  0  0
 28 29  2  0  0  0
 29 30  1  0  0  0
 30 31  1  0  0  0
 31 32  2  0  0  0
 32 33  1  0  0  0
 32 24  1  0  0  0
 30 26  2  0  0  0
  9  1  1  0  0  0
 21 15  1  0  0  0
  8  4  1  0  0  0
 12 13  1  0  0  0
 33 34  1  0  0  0
 33 35  1  0  0  0
M  END
> <minimizedAffinity>
-7.91636

> <CNNscore>
0.2307326645

> <CNNaffinity>
6.6692442894

> <CNN_VS>
1.5388125181

> <CNNaffinity_variance>
0.2765890658

$$$$
[H]c1c(C([H])([H])n2nc([H])c3c([H])c(N([H])[H])c(OC([H])([H])[H])c([H])c32)c([H])c2c([H])c(C(=O)N([H])C([H])([H])[C@@]3([H])C(=O)N(C([H])([H])[H])C([H])([H])C([H])([H])C3([H])[H])oc2c1[H]


 37 41  0  0  0  0  0  0  0  0999 V2000
   -2.2544   22.6227  -27.6009 C   0  0  0  0  0  0  0  0  0  0  0  0
   -0.9526   22.9535  -28.0624 C   0  0  0  0  0  0  0  0  0  0  0  0
    0.1730   22.8381  -27.2911 C   0  0  0  0  0  0  0  0  0  0  0  0
    0.0541   22.3755  -25.9865 C   0  0  0  0  0  0  0  0  0  0  0  0
    0.9825   22.1838  -25.0518 O   0  0  0  0  0  0  0  0  0  0  0  0
    0.4275   21.7470  -23.9633 C   0  0  0  0  0  0  0  0  0  0  0  0
   -0.9279   21.6433  -24.2055 C   0  0  0  0  0  0  0  0  0  0  0  0
   -1.1758   22.0463  -25.5079 C   0  0  0  0  0  0  0  0  0  0  0  0
   -2.3045   22.1771  -26.3238 C   0  0  0  0  0  0  0  0  0  0  0  0
    1.1358   21.4300  -22.6708 C   0  0  0  0  0  0  0  0  0  0  0  0
    2.3625   21.2211  -22.7639 O   0  0  0  0  0  0  0  0  0  0  0  0
    0.3835   21.3875  -21.5487 N   0  0  0  0  0  0  0  0  0  0  0  0
    1.4823   21.0790  -20.8040 H   0  0  0  0  0  0  0  0  0  0  0  0
   -0.3809   21.3423  -20.3942 C   0  0  0  0  0  0  0  0  0  0  0  0
    0.0971   22.3354  -19.3109 C   0  0  0  0  0  0  0  0  0  0  0  0
    1.2456   21.6809  -18.5583 C   0  0  0  0  0  0  0  0  0  0  0  0
    1.3207   22.2139  -17.1524 C   0  0  0  0  0  0  0  0  0  0  0  0
    0.2486   21.4398  -16.3748 C   0  0  0  0  0  0  0  0  0  0  0  0
   -0.9963   21.6933  -17.1166 N   0  0  0  0  0  0  0  0  0  0  0  0
   -2.2382   21.1344  -16.6383 C   0  0  0  0  0  0  0  0  0  0  0  0
   -0.9907   22.5144  -18.3043 C   0  0  0  0  0  0  0  0  0  0  0  0
   -1.9382   23.3570  -18.4123 O   0  0  0  0  0  0  0  0  0  0  0  0
   -3.3335   22.7900  -28.5829 C   0  0  0  0  0  0  0  0  0  0  0  0
   -6.4124   23.5412  -25.2632 C   0  0  0  0  0  0  0  0  0  0  0  0
   -5.4657   23.1501  -26.1731 C   0  0  0  0  0  0  0  0  0  0  0  0
   -5.1402   23.9898  -27.2607 C   0  0  0  0  0  0  0  0  0  0  0  0
   -4.1928   23.9089  -28.2076 N   0  0  0  0  0  0  0  0  0  0  0  0
   -4.2666   25.0537  -28.9018 N   0  0  0  0  0  0  0  0  0  0  0  0
   -5.2292   25.8558  -28.4271 C   0  0  0  0  0  0  0  0  0  0  0  0
   -5.8204   25.1839  -27.3459 C   0  0  0  0  0  0  0  0  0  0  0  0
   -6.7813   25.5777  -26.4382 C   0  0  0  0  0  0  0  0  0  0  0  0
   -7.0997   24.7765  -25.3836 C   0  0  0  0  0  0  0  0  0  0  0  0
   -8.0883   25.1316  -24.4098 N   0  0  0  0  0  0  0  0  0  0  0  0
   -8.5971   24.4426  -23.8036 H   0  0  0  0  0  0  0  0  0  0  0  0
   -8.3274   26.1374  -24.2830 H   0  0  0  0  0  0  0  0  0  0  0  0
   -6.0888   21.5683  -23.7857 C   0  0  0  0  0  0  0  0  0  0  0  0
   -6.7394   22.7874  -24.1924 O   0  0  0  0  0  0  0  0  0  0  0  0
 36 37  1  0  0  0
 37 24  1  0  0  0
 24 25  2  0  0  0
 25 26  1  0  0  0
 26 27  1  0  0  0
 27 23  1  0  0  0
 23  1  1  0  0  0
  1  2  2  0  0  0
  2  3  1  0  0  0
  3  4  2  0  0  0
  4  5  1  0  0  0
  5  6  1  0  0  0
  6  7  2  0  0  0
  7  8  1  0  0  0
  8  9  2  0  0  0
  6 10  1  0  0  0
 10 11  2  0  0  0
 10 12  1  0  0  0
 12 14  1  0  0  0
 14 15  1  0  0  0
 15 16  1  0  0  0
 16 17  1  0  0  0
 17 18  1  0  0  0
 18 19  1  0  0  0
 19 20  1  0  0  0
 19 21  1  0  0  0
 21 22  2  0  0  0
 27 28  1  0  0  0
 28 29  2  0  0  0
 29 30  1  0  0  0
 30 31  1  0  0  0
 31 32  2  0  0  0
 32 33  1  0  0  0
 32 24  1  0  0  0
 30 26  2  0  0  0
  9  1  1  0  0  0
 21 15  1  0  0  0
  8  4  1  0  0  0
 12 13  1  0  0  0
 33 34  1  0  0  0
 33 35  1  0  0  0
M  END
> <minimizedAffinity>
-9.22733

> <CNNscore>
0.2246398479

> <CNNaffinity>
6.5606155396

> <CNN_VS>
1.4737756252

> <CNNaffinity_variance>
0.0745735094

$$$$
[H]c1c(C([H])([H])n2nc([H])c3c([H])c(N([H])[H])c(OC([H])([H])[H])c([H])c32)c([H])c2c([H])c(C(=O)N([H])C([H])([H])[C@@]3([H])C(=O)N(C([H])([H])[H])C([H])([H])C([H])([H])C3([H])[H])oc2c1[H]


 37 41  0  0  0  0  0  0  0  0999 V2000
   -6.3207   23.7087  -24.8966 C   0  0  0  0  0  0  0  0  0  0  0  0
   -6.4809   22.2986  -24.8423 C   0  0  0  0  0  0  0  0  0  0  0  0
   -6.3271   21.5657  -23.6959 C   0  0  0  0  0  0  0  0  0  0  0  0
   -5.9966   22.2189  -22.5150 C   0  0  0  0  0  0  0  0  0  0  0  0
   -5.7903   21.7364  -21.2916 O   0  0  0  0  0  0  0  0  0  0  0  0
   -5.4908   22.7046  -20.4813 C   0  0  0  0  0  0  0  0  0  0  0  0
   -5.5106   23.8751  -21.2137 C   0  0  0  0  0  0  0  0  0  0  0  0
   -5.8364   23.5696  -22.5255 C   0  0  0  0  0  0  0  0  0  0  0  0
   -6.0008   24.2867  -23.7153 C   0  0  0  0  0  0  0  0  0  0  0  0
   -5.1654   22.5677  -19.0157 C   0  0  0  0  0  0  0  0  0  0  0  0
   -4.2476   23.3010  -18.5951 O   0  0  0  0  0  0  0  0  0  0  0  0
   -5.8787   21.6648  -18.3065 N   0  0  0  0  0  0  0  0  0  0  0  0
   -5.1819   21.9767  -17.1776 H   0  0  0  0  0  0  0  0  0  0  0  0
   -6.6056   20.7415  -17.5730 C   0  0  0  0  0  0  0  0  0  0  0  0
   -6.6613   21.0737  -16.0646 C   0  0  0  0  0  0  0  0  0  0  0  0
   -6.9134   22.5677  -15.9294 C   0  0  0  0  0  0  0  0  0  0  0  0
   -6.3374   23.0803  -14.6365 C   0  0  0  0  0  0  0  0  0  0  0  0
   -4.8396   23.2647  -14.9128 C   0  0  0  0  0  0  0  0  0  0  0  0
   -4.3850   21.9406  -15.3649 N   0  0  0  0  0  0  0  0  0  0  0  0
   -2.9929   21.7357  -15.6864 C   0  0  0  0  0  0  0  0  0  0  0  0
   -5.3134   20.8394  -15.4672 C   0  0  0  0  0  0  0  0  0  0  0  0
   -4.9074   19.7163  -15.0279 O   0  0  0  0  0  0  0  0  0  0  0  0
   -6.5509   24.3198  -26.2121 C   0  0  0  0  0  0  0  0  0  0  0  0
   -2.1488   23.0224  -26.1619 C   0  0  0  0  0  0  0  0  0  0  0  0
   -3.4409   23.4461  -25.9942 C   0  0  0  0  0  0  0  0  0  0  0  0
   -4.3148   23.5071  -27.1017 C   0  0  0  0  0  0  0  0  0  0  0  0
   -5.6282   23.7654  -27.1981 N   0  0  0  0  0  0  0  0  0  0  0  0
   -5.9518   23.5558  -28.4823 N   0  0  0  0  0  0  0  0  0  0  0  0
   -4.8877   23.1747  -29.2020 C   0  0  0  0  0  0  0  0  0  0  0  0
   -3.7962   23.1318  -28.3206 C   0  0  0  0  0  0  0  0  0  0  0  0
   -2.4936   22.7141  -28.4964 C   0  0  0  0  0  0  0  0  0  0  0  0
   -1.6439   22.6482  -27.4337 C   0  0  0  0  0  0  0  0  0  0  0  0
   -0.2815   22.2226  -27.5547 N   0  0  0  0  0  0  0  0  0  0  0  0
    0.4782   22.4672  -26.8734 H   0  0  0  0  0  0  0  0  0  0  0  0
   -0.0126   21.6293  -28.3673 H   0  0  0  0  0  0  0  0  0  0  0  0
   -1.2187   21.8368  -24.1846 C   0  0  0  0  0  0  0  0  0  0  0  0
   -1.2830   22.9205  -25.1314 O   0  0  0  0  0  0  0  0  0  0  0  0
 36 37  1  0  0  0
 37 24  1  0  0  0
 24 25  2  0  0  0
 25 26  1  0  0  0
 26 27  1  0  0  0
 27 23  1  0  0  0
 23  1  1  0  0  0
  1  2  2  0  0  0
  2  3  1  0  0  0
  3  4  2  0  0  0
  4  5  1  0  0  0
  5  6  1  0  0  0
  6  7  2  0  0  0
  7  8  1  0  0  0
  8  9  2  0  0  0
  6 10  1  0  0  0
 10 11  2  0  0  0
 10 12  1  0  0  0
 12 14  1  0  0  0
 14 15  1  0  0  0
 15 16  1  0  0  0
 16 17  1  0  0  0
 17 18  1  0  0  0
 18 19  1  0  0  0
 19 20  1  0  0  0
 19 21  1  0  0  0
 21 22  2  0  0  0
 27 28  1  0  0  0
 28 29  2  0  0  0
 29 30  1  0  0  0
 30 31  1  0  0  0
 31 32  2  0  0  0
 32 33  1  0  0  0
 32 24  1  0  0  0
 30 26  2  0  0  0
  9  1  1  0  0  0
 21 15  1  0  0  0
  8  4  1  0  0  0
 12 13  1  0  0  0
 33 34  1  0  0  0
 33 35  1  0  0  0
M  END
> <minimizedAffinity>
-7.53949

> <CNNscore>
0.2193807065

> <CNNaffinity>
6.3992981911

> <CNN_VS>
1.4038825035

> <CNNaffinity_variance>
0.2077356130

$$$$
[H]/C(C(=O)N([H])c1c([H])c([H])c(Oc2c([H])c([H])c([H])c(N([H])C(=O)c3c([H])c([H])c([H])c([H])c3[H])c2[H])c(Cl)c1[H])=C(C(/[H])=C(\[H])C(=O)N1C([H])([H])C([H])([H])OC([H])([H])C1([H])[H])\C([H])([H])[H]


 41 44  0  0  0  0  0  0  0  0999 V2000
   -5.9525   24.6864  -25.3414 C   0  0  0  0  0  0  0  0  0  0  0  0
   -6.6632   25.2980  -24.3059 C   0  0  0  0  0  0  0  0  0  0  0  0
   -6.9416   24.5577  -23.1785 C   0  0  0  0  0  0  0  0  0  0  0  0
   -6.5346   23.2348  -23.0546 C   0  0  0  0  0  0  0  0  0  0  0  0
   -5.8365   22.6391  -24.0760 C   0  0  0  0  0  0  0  0  0  0  0  0
   -5.2958   20.9762  -24.0565 Cl  0  0  0  0  0  0  0  0  0  0  0  0
   -5.5497   23.3937  -25.2291 C   0  0  0  0  0  0  0  0  0  0  0  0
   -5.9855   25.0634  -27.7562 C   0  0  0  0  0  0  0  0  0  0  0  0
   -6.6253   23.9023  -27.7277 O   0  0  0  0  0  0  0  0  0  0  0  0
   -5.6299   25.5045  -26.5193 N   0  0  0  0  0  0  0  0  0  0  0  0
   -5.1403   26.3654  -26.2170 H   0  0  0  0  0  0  0  0  0  0  0  0
   -4.9365   26.0862  -31.2364 C   0  0  0  0  0  0  0  0  0  0  0  0
   -4.8011   25.5475  -29.8261 C   0  0  0  0  0  0  0  0  0  0  0  0
   -5.8563   25.5138  -29.0849 C   0  0  0  0  0  0  0  0  0  0  0  0
   -3.5092   25.1048  -29.4009 C   0  0  0  0  0  0  0  0  0  0  0  0
   -3.3050   23.8755  -28.9341 C   0  0  0  0  0  0  0  0  0  0  0  0
   -2.0559   23.3329  -28.4838 C   0  0  0  0  0  0  0  0  0  0  0  0
   -1.1305   23.4156  -29.4016 O   0  0  0  0  0  0  0  0  0  0  0  0
   -1.6470   22.7538  -27.2995 N   0  0  0  0  0  0  0  0  0  0  0  0
   -0.2194   22.3036  -27.2278 C   0  0  0  0  0  0  0  0  0  0  0  0
    0.3381   22.9596  -25.9852 C   0  0  0  0  0  0  0  0  0  0  0  0
   -0.2919   22.4921  -24.8339 O   0  0  0  0  0  0  0  0  0  0  0  0
   -1.4378   21.7807  -25.1088 C   0  0  0  0  0  0  0  0  0  0  0  0
   -2.3646   22.4962  -26.0851 C   0  0  0  0  0  0  0  0  0  0  0  0
   -6.8342   22.5429  -21.9224 O   0  0  0  0  0  0  0  0  0  0  0  0
   -6.0817   22.6140  -20.7592 C   0  0  0  0  0  0  0  0  0  0  0  0
   -6.6144   23.0835  -19.5711 C   0  0  0  0  0  0  0  0  0  0  0  0
   -5.8187   23.1269  -18.4694 C   0  0  0  0  0  0  0  0  0  0  0  0
   -4.4821   22.7233  -18.4583 C   0  0  0  0  0  0  0  0  0  0  0  0
   -3.9583   22.2585  -19.6386 C   0  0  0  0  0  0  0  0  0  0  0  0
   -4.7679   22.2057  -20.7927 C   0  0  0  0  0  0  0  0  0  0  0  0
   -2.6279   21.8398  -19.7757 N   0  0  0  0  0  0  0  0  0  0  0  0
   -1.5543   22.5546  -20.3026 C   0  0  0  0  0  0  0  0  0  0  0  0
   -1.6525   23.7205  -20.7446 O   0  0  0  0  0  0  0  0  0  0  0  0
   -2.4009   20.8539  -19.4238 H   0  0  0  0  0  0  0  0  0  0  0  0
   -0.2108   21.9429  -20.3613 C   0  0  0  0  0  0  0  0  0  0  0  0
    0.7139   22.2012  -19.3620 C   0  0  0  0  0  0  0  0  0  0  0  0
    1.9877   21.6819  -19.3380 C   0  0  0  0  0  0  0  0  0  0  0  0
    2.3463   20.8559  -20.3813 C   0  0  0  0  0  0  0  0  0  0  0  0
    1.4713   20.5644  -21.4000 C   0  0  0  0  0  0  0  0  0  0  0  0
    0.1839   21.1162  -21.3829 C   0  0  0  0  0  0  0  0  0  0  0  0
 12 13  1  0  0  0
 13 15  1  0  0  0
 15 16  2  0  0  0
 16 17  1  0  0  0
 17 18  2  0  0  0
 17 19  1  0  0  0
 19 20  1  0  0  0
 20 21  1  0  0  0
 21 22  1  0  0  0
 22 23  1  0  0  0
 23 24  1  0  0  0
 13 14  2  0  0  0
 14  8  1  0  0  0
  8  9  2  0  0  0
  8 10  1  0  0  0
 10  1  1  0  0  0
  1  2  2  0  0  0
  2  3  1  0  0  0
  3  4  2  0  0  0
  4 25  1  0  0  0
 25 26  1  0  0  0
 26 27  2  0  0  0
 27 28  1  0  0  0
 28 29  2  0  0  0
 29 30  1  0  0  0
 30 32  1  0  0  0
 32 33  1  0  0  0
 33 34  2  0  0  0
 33 36  1  0  0  0
 36 37  2  0  0  0
 37 38  1  0  0  0
 38 39  2  0  0  0
 39 40  1  0  0  0
 40 41  2  0  0  0
 30 31  2  0  0  0
  4  5  1  0  0  0
  5  6  1  0  0  0
  5  7  2  0  0  0
 24 19  1  0  0  0
  7  1  1  0  0  0
 31 26  1  0  0  0
 41 36  1  0  0  0
 10 11  1  0  0  0
 32 35  1  0  0  0
M  END
> <minimizedAffinity>
-9.14905

> <CNNscore>
0.1746134311

> <CNNaffinity>
6.9639959335

> <CNN_VS>
1.2160072327

> <CNNaffinity_variance>
0.5365762115

$$$$
[H]/C(C(=O)N([H])c1c([H])c([H])c(Oc2c([H])c([H])c([H])c(N([H])C(=O)c3c([H])c([H])c([H])c([H])c3[H])c2[H])c(Cl)c1[H])=C(C(/[H])=C(\[H])C(=O)N1C([H])([H])C([H])([H])OC([H])([H])C1([H])[H])\C([H])([H])[H]


 41 44  0  0  0  0  0  0  0  0999 V2000
   -2.8605   21.9123  -21.6097 C   0  0  0  0  0  0  0  0  0  0  0  0
   -1.7385   21.5175  -22.3422 C   0  0  0  0  0  0  0  0  0  0  0  0
   -0.6733   20.9709  -21.6617 C   0  0  0  0  0  0  0  0  0  0  0  0
   -0.6943   20.8079  -20.2817 C   0  0  0  0  0  0  0  0  0  0  0  0
   -1.7999   21.1982  -19.5673 C   0  0  0  0  0  0  0  0  0  0  0  0
   -1.9388   21.0755  -17.8284 Cl  0  0  0  0  0  0  0  0  0  0  0  0
   -2.8907   21.7562  -20.2603 C   0  0  0  0  0  0  0  0  0  0  0  0
   -4.1633   23.8041  -22.4453 C   0  0  0  0  0  0  0  0  0  0  0  0
   -3.2053   24.4805  -21.8263 O   0  0  0  0  0  0  0  0  0  0  0  0
   -4.0031   22.4559  -22.3578 N   0  0  0  0  0  0  0  0  0  0  0  0
   -4.5666   21.6760  -22.7405 H   0  0  0  0  0  0  0  0  0  0  0  0
   -6.2275   26.1182  -24.6000 C   0  0  0  0  0  0  0  0  0  0  0  0
   -5.1084   25.1664  -24.2264 C   0  0  0  0  0  0  0  0  0  0  0  0
   -5.0882   24.6941  -23.0262 C   0  0  0  0  0  0  0  0  0  0  0  0
   -4.1410   24.8455  -25.2298 C   0  0  0  0  0  0  0  0  0  0  0  0
   -4.2575   23.7669  -26.0003 C   0  0  0  0  0  0  0  0  0  0  0  0
   -3.3489   23.3553  -27.0311 C   0  0  0  0  0  0  0  0  0  0  0  0
   -3.8906   23.4338  -28.2168 O   0  0  0  0  0  0  0  0  0  0  0  0
   -2.0449   22.9031  -27.0187 N   0  0  0  0  0  0  0  0  0  0  0  0
   -1.4363   22.5667  -28.3462 C   0  0  0  0  0  0  0  0  0  0  0  0
   -0.1493   23.3579  -28.4008 C   0  0  0  0  0  0  0  0  0  0  0  0
    0.7512   22.9370  -27.4246 O   0  0  0  0  0  0  0  0  0  0  0  0
    0.1669   22.1234  -26.4805 C   0  0  0  0  0  0  0  0  0  0  0  0
   -1.1370   22.6893  -25.9296 C   0  0  0  0  0  0  0  0  0  0  0  0
    0.3826   20.2646  -19.6529 O   0  0  0  0  0  0  0  0  0  0  0  0
    1.5056   20.9933  -19.2891 C   0  0  0  0  0  0  0  0  0  0  0  0
    2.5462   21.2228  -20.1724 C   0  0  0  0  0  0  0  0  0  0  0  0
    3.6174   21.9447  -19.7478 C   0  0  0  0  0  0  0  0  0  0  0  0
    3.7375   22.4765  -18.4623 C   0  0  0  0  0  0  0  0  0  0  0  0
    2.7033   22.2463  -17.5902 C   0  0  0  0  0  0  0  0  0  0  0  0
    1.5830   21.4996  -18.0118 C   0  0  0  0  0  0  0  0  0  0  0  0
    2.7004   22.7036  -16.2654 N   0  0  0  0  0  0  0  0  0  0  0  0
    3.3302   22.1343  -15.1607 C   0  0  0  0  0  0  0  0  0  0  0  0
    4.0103   21.0862  -15.2187 O   0  0  0  0  0  0  0  0  0  0  0  0
    2.1578   23.6074  -16.0754 H   0  0  0  0  0  0  0  0  0  0  0  0
    3.2163   22.7685  -13.8312 C   0  0  0  0  0  0  0  0  0  0  0  0
    2.2584   23.7444  -13.6072 C   0  0  0  0  0  0  0  0  0  0  0  0
    2.0848   24.3925  -12.4061 C   0  0  0  0  0  0  0  0  0  0  0  0
    2.9258   24.0341  -11.3747 C   0  0  0  0  0  0  0  0  0  0  0  0
    3.8943   23.0731  -11.5385 C   0  0  0  0  0  0  0  0  0  0  0  0
    4.0347   22.4396  -12.7799 C   0  0  0  0  0  0  0  0  0  0  0  0
 12 13  1  0  0  0
 13 15  1  0  0  0
 15 16  2  0  0  0
 16 17  1  0  0  0
 17 18  2  0  0  0
 17 19  1  0  0  0
 19 20  1  0  0  0
 20 21  1  0  0  0
 21 22  1  0  0  0
 22 23  1  0  0  0
 23 24  1  0  0  0
 13 14  2  0  0  0
 14  8  1  0  0  0
  8  9  2  0  0  0
  8 10  1  0  0  0
 10  1  1  0  0  0
  1  2  2  0  0  0
  2  3  1  0  0  0
  3  4  2  0  0  0
  4 25  1  0  0  0
 25 26  1  0  0  0
 26 27  2  0  0  0
 27 28  1  0  0  0
 28 29  2  0  0  0
 29 30  1  0  0  0
 30 32  1  0  0  0
 32 33  1  0  0  0
 33 34  2  0  0  0
 33 36  1  0  0  0
 36 37  2  0  0  0
 37 38  1  0  0  0
 38 39  2  0  0  0
 39 40  1  0  0  0
 40 41  2  0  0  0
 30 31  2  0  0  0
  4  5  1  0  0  0
  5  6  1  0  0  0
  5  7  2  0  0  0
 24 19  1  0  0  0
  7  1  1  0  0  0
 31 26  1  0  0  0
 41 36  1  0  0  0
 10 11  1  0  0  0
 32 35  1  0  0  0
M  END
> <minimizedAffinity>
-7.85159

> <CNNscore>
0.1654621512

> <CNNaffinity>
6.2577400208

> <CNN_VS>
1.0354191065

> <CNNaffinity_variance>
0.0880616233

$$$$
[H]/C(C(=O)N([H])c1c([H])c([H])c(Oc2c([H])c([H])c([H])c(N([H])C(=O)c3c([H])c([H])c([H])c([H])c3[H])c2[H])c(Cl)c1[H])=C(C(/[H])=C(\[H])C(=O)N1C([H])([H])C([H])([H])OC([H])([H])C1([H])[H])\C([H])([H])[H]


 41 44  0  0  0  0  0  0  0  0999 V2000
   -1.2869   21.6242  -23.8076 C   0  0  0  0  0  0  0  0  0  0  0  0
   -2.6659   21.4867  -23.9835 C   0  0  0  0  0  0  0  0  0  0  0  0
   -3.2070   21.8344  -25.2013 C   0  0  0  0  0  0  0  0  0  0  0  0
   -2.4185   22.3118  -26.2413 C   0  0  0  0  0  0  0  0  0  0  0  0
   -1.0637   22.4450  -26.0621 C   0  0  0  0  0  0  0  0  0  0  0  0
    0.0316   23.0613  -27.2780 Cl  0  0  0  0  0  0  0  0  0  0  0  0
   -0.5077   22.0893  -24.8188 C   0  0  0  0  0  0  0  0  0  0  0  0
   -0.6519   22.1108  -21.4980 C   0  0  0  0  0  0  0  0  0  0  0  0
   -1.1452   23.2980  -21.8228 O   0  0  0  0  0  0  0  0  0  0  0  0
   -0.7226   21.2100  -22.5151 N   0  0  0  0  0  0  0  0  0  0  0  0
   -0.4371   20.2159  -22.5667 H   0  0  0  0  0  0  0  0  0  0  0  0
    1.1768   21.8107  -18.2080 C   0  0  0  0  0  0  0  0  0  0  0  0
    0.9206   21.6660  -19.6950 C   0  0  0  0  0  0  0  0  0  0  0  0
   -0.1883   22.1253  -20.1677 C   0  0  0  0  0  0  0  0  0  0  0  0
    1.9269   21.0302  -20.4879 C   0  0  0  0  0  0  0  0  0  0  0  0
    1.9882   19.7074  -20.6187 C   0  0  0  0  0  0  0  0  0  0  0  0
    2.9514   18.9719  -21.3861 C   0  0  0  0  0  0  0  0  0  0  0  0
    3.2990   19.6104  -22.4709 O   0  0  0  0  0  0  0  0  0  0  0  0
    3.5699   17.7508  -21.2093 N   0  0  0  0  0  0  0  0  0  0  0  0
    4.5405   17.3278  -22.2699 C   0  0  0  0  0  0  0  0  0  0  0  0
    5.8163   17.0007  -21.5279 C   0  0  0  0  0  0  0  0  0  0  0  0
    5.6474   15.9111  -20.6764 O   0  0  0  0  0  0  0  0  0  0  0  0
    4.3236   15.5796  -20.4966 C   0  0  0  0  0  0  0  0  0  0  0  0
    3.4478   16.7811  -20.1600 C   0  0  0  0  0  0  0  0  0  0  0  0
   -2.9982   22.6442  -27.4261 O   0  0  0  0  0  0  0  0  0  0  0  0
   -3.9207   23.6708  -27.5664 C   0  0  0  0  0  0  0  0  0  0  0  0
   -3.9262   24.5028  -28.6724 C   0  0  0  0  0  0  0  0  0  0  0  0
   -4.8587   25.4899  -28.7437 C   0  0  0  0  0  0  0  0  0  0  0  0
   -5.8235   25.7216  -27.7614 C   0  0  0  0  0  0  0  0  0  0  0  0
   -5.8140   24.8940  -26.6666 C   0  0  0  0  0  0  0  0  0  0  0  0
   -4.8545   23.8640  -26.5741 C   0  0  0  0  0  0  0  0  0  0  0  0
   -6.7109   25.0251  -25.5978 N   0  0  0  0  0  0  0  0  0  0  0  0
   -6.4403   25.4497  -24.2987 C   0  0  0  0  0  0  0  0  0  0  0  0
   -5.3004   25.7815  -23.9050 O   0  0  0  0  0  0  0  0  0  0  0  0
   -7.7335   24.7803  -25.8022 H   0  0  0  0  0  0  0  0  0  0  0  0
   -7.5266   25.5285  -23.3006 C   0  0  0  0  0  0  0  0  0  0  0  0
   -7.2402   25.8686  -21.9881 C   0  0  0  0  0  0  0  0  0  0  0  0
   -8.1847   25.9594  -20.9919 C   0  0  0  0  0  0  0  0  0  0  0  0
   -9.4906   25.6918  -21.3419 C   0  0  0  0  0  0  0  0  0  0  0  0
   -9.8339   25.3493  -22.6276 C   0  0  0  0  0  0  0  0  0  0  0  0
   -8.8382   25.2690  -23.6095 C   0  0  0  0  0  0  0  0  0  0  0  0
 12 13  1  0  0  0
 13 15  1  0  0  0
 15 16  2  0  0  0
 16 17  1  0  0  0
 17 18  2  0  0  0
 17 19  1  0  0  0
 19 20  1  0  0  0
 20 21  1  0  0  0
 21 22  1  0  0  0
 22 23  1  0  0  0
 23 24  1  0  0  0
 13 14  2  0  0  0
 14  8  1  0  0  0
  8  9  2  0  0  0
  8 10  1  0  0  0
 10  1  1  0  0  0
  1  2  2  0  0  0
  2  3  1  0  0  0
  3  4  2  0  0  0
  4 25  1  0  0  0
 25 26  1  0  0  0
 26 27  2  0  0  0
 27 28  1  0  0  0
 28 29  2  0  0  0
 29 30  1  0  0  0
 30 32  1  0  0  0
 32 33  1  0  0  0
 33 34  2  0  0  0
 33 36  1  0  0  0
 36 37  2  0  0  0
 37 38  1  0  0  0
 38 39  2  0  0  0
 39 40  1  0  0  0
 40 41  2  0  0  0
 30 31  2  0  0  0
  4  5  1  0  0  0
  5  6  1  0  0  0
  5  7  2  0  0  0
 24 19  1  0  0  0
  7  1  1  0  0  0
 31 26  1  0  0  0
 41 36  1  0  0  0
 10 11  1  0  0  0
 32 35  1  0  0  0
M  END
> <minimizedAffinity>
-8.79752

> <CNNscore>
0.1442912221

> <CNNaffinity>
6.4645056725

> <CNN_VS>
0.9327714443

> <CNNaffinity_variance>
0.2699828148

$$$$
[H]/C(C(=O)N([H])c1c([H])c([H])c(Oc2c([H])c([H])c([H])c(N([H])C(=O)c3c([H])c([H])c([H])c([H])c3[H])c2[H])c(Cl)c1[H])=C(C(/[H])=C(\[H])C(=O)N1C([H])([H])C([H])([H])OC([H])([H])C1([H])[H])\C([H])([H])[H]


 41 44  0  0  0  0  0  0  0  0999 V2000
   -5.7914   24.9014  -24.3674 C   0  0  0  0  0  0  0  0  0  0  0  0
   -5.4197   23.5852  -24.0824 C   0  0  0  0  0  0  0  0  0  0  0  0
   -4.7413   22.8745  -25.0474 C   0  0  0  0  0  0  0  0  0  0  0  0
   -4.4250   23.4342  -26.2795 C   0  0  0  0  0  0  0  0  0  0  0  0
   -4.7933   24.7282  -26.5537 C   0  0  0  0  0  0  0  0  0  0  0  0
   -4.4831   25.5362  -28.0732 Cl  0  0  0  0  0  0  0  0  0  0  0  0
   -5.4860   25.4574  -25.5688 C   0  0  0  0  0  0  0  0  0  0  0  0
   -7.8281   25.5428  -23.1779 C   0  0  0  0  0  0  0  0  0  0  0  0
   -8.3656   24.7066  -24.0556 O   0  0  0  0  0  0  0  0  0  0  0  0
   -6.4789   25.6568  -23.3103 N   0  0  0  0  0  0  0  0  0  0  0  0
   -5.7857   26.2108  -22.7766 H   0  0  0  0  0  0  0  0  0  0  0  0
  -10.0487   26.8223  -20.4048 C   0  0  0  0  0  0  0  0  0  0  0  0
   -8.8326   26.1994  -21.0610 C   0  0  0  0  0  0  0  0  0  0  0  0
   -8.8288   26.0820  -22.3456 C   0  0  0  0  0  0  0  0  0  0  0  0
   -7.7578   25.7805  -20.2154 C   0  0  0  0  0  0  0  0  0  0  0  0
   -7.6846   24.5433  -19.7310 C   0  0  0  0  0  0  0  0  0  0  0  0
   -6.6549   24.0225  -18.8790 C   0  0  0  0  0  0  0  0  0  0  0  0
   -6.8420   24.3559  -17.6302 O   0  0  0  0  0  0  0  0  0  0  0  0
   -5.5310   23.2560  -19.1118 N   0  0  0  0  0  0  0  0  0  0  0  0
   -4.6889   22.9162  -17.9195 C   0  0  0  0  0  0  0  0  0  0  0  0
   -4.5479   21.4115  -17.9533 C   0  0  0  0  0  0  0  0  0  0  0  0
   -3.8443   20.9892  -19.0791 O   0  0  0  0  0  0  0  0  0  0  0  0
   -3.6992   21.9856  -20.0177 C   0  0  0  0  0  0  0  0  0  0  0  0
   -5.0053   22.7079  -20.3280 C   0  0  0  0  0  0  0  0  0  0  0  0
   -3.7550   22.6925  -27.2022 O   0  0  0  0  0  0  0  0  0  0  0  0
   -2.3789   22.7398  -27.3705 C   0  0  0  0  0  0  0  0  0  0  0  0
   -1.7996   23.2587  -28.5154 C   0  0  0  0  0  0  0  0  0  0  0  0
   -0.4434   23.2725  -28.6138 C   0  0  0  0  0  0  0  0  0  0  0  0
    0.4138   22.7912  -27.6222 C   0  0  0  0  0  0  0  0  0  0  0  0
   -0.1652   22.2777  -26.4889 C   0  0  0  0  0  0  0  0  0  0  0  0
   -1.5706   22.2546  -26.3679 C   0  0  0  0  0  0  0  0  0  0  0  0
    0.5733   21.7434  -25.4244 N   0  0  0  0  0  0  0  0  0  0  0  0
    0.3725   21.9370  -24.0594 C   0  0  0  0  0  0  0  0  0  0  0  0
   -0.5399   22.6531  -23.5912 O   0  0  0  0  0  0  0  0  0  0  0  0
    1.3864   21.0973  -25.6867 H   0  0  0  0  0  0  0  0  0  0  0  0
    1.2595   21.2808  -23.0769 C   0  0  0  0  0  0  0  0  0  0  0  0
    2.5719   20.9891  -23.4126 C   0  0  0  0  0  0  0  0  0  0  0  0
    3.4655   20.3747  -22.5659 C   0  0  0  0  0  0  0  0  0  0  0  0
    3.0071   20.0368  -21.3108 C   0  0  0  0  0  0  0  0  0  0  0  0
    1.7157   20.3013  -20.9225 C   0  0  0  0  0  0  0  0  0  0  0  0
    0.8406   20.9286  -21.8185 C   0  0  0  0  0  0  0  0  0  0  0  0
 12 13  1  0  0  0
 13 15  1  0  0  0
 15 16  2  0  0  0
 16 17  1  0  0  0
 17 18  2  0  0  0
 17 19  1  0  0  0
 19 20  1  0  0  0
 20 21  1  0  0  0
 21 22  1  0  0  0
 22 23  1  0  0  0
 23 24  1  0  0  0
 13 14  2  0  0  0
 14  8  1  0  0  0
  8  9  2  0  0  0
  8 10  1  0  0  0
 10  1  1  0  0  0
  1  2  2  0  0  0
  2  3  1  0  0  0
  3  4  2  0  0  0
  4 25  1  0  0  0
 25 26  1  0  0  0
 26 27  2  0  0  0
 27 28  1  0  0  0
 28 29  2  0  0  0
 29 30  1  0  0  0
 30 32  1  0  0  0
 32 33  1  0  0  0
 33 34  2  0  0  0
 33 36  1  0  0  0
 36 37  2  0  0  0
 37 38  1  0  0  0
 38 39  2  0  0  0
 39 40  1  0  0  0
 40 41  2  0  0  0
 30 31  2  0  0  0
  4  5  1  0  0  0
  5  6  1  0  0  0
  5  7  2  0  0  0
 24 19  1  0  0  0
  7  1  1  0  0  0
 31 26  1  0  0  0
 41 36  1  0  0  0
 10 11  1  0  0  0
 32 35  1  0  0  0
M  END
> <minimizedAffinity>
-9.54425

> <CNNscore>
0.1248725355

> <CNNaffinity>
6.4444236755

> <CNN_VS>
0.8047315478

> <CNNaffinity_variance>
0.5219065547

$$$$
[H]/C(C(=O)N([H])c1c([H])c([H])c(Oc2c([H])c([H])c([H])c(N([H])C(=O)c3c([H])c([H])c([H])c([H])c3[H])c2[H])c(Cl)c1[H])=C(C(/[H])=C(\[H])C(=O)N1C([H])([H])C([H])([H])OC([H])([H])C1([H])[H])\C([H])([H])[H]


 41 44  0  0  0  0  0  0  0  0999 V2000
   -0.3740   22.0485  -20.0779 C   0  0  0  0  0  0  0  0  0  0  0  0
   -0.1452   20.8626  -20.7798 C   0  0  0  0  0  0  0  0  0  0  0  0
   -0.7063   20.7248  -22.0299 C   0  0  0  0  0  0  0  0  0  0  0  0
   -1.4833   21.7281  -22.5963 C   0  0  0  0  0  0  0  0  0  0  0  0
   -1.7048   22.8913  -21.9013 C   0  0  0  0  0  0  0  0  0  0  0  0
   -2.6867   24.2140  -22.4882 Cl  0  0  0  0  0  0  0  0  0  0  0  0
   -1.1317   23.0354  -20.6237 C   0  0  0  0  0  0  0  0  0  0  0  0
   -0.3947   21.7772  -17.6488 C   0  0  0  0  0  0  0  0  0  0  0  0
   -1.5823   21.2522  -17.9175 O   0  0  0  0  0  0  0  0  0  0  0  0
    0.2663   22.1935  -18.7627 N   0  0  0  0  0  0  0  0  0  0  0  0
    1.2002   22.6251  -18.8801 H   0  0  0  0  0  0  0  0  0  0  0  0
    0.3336   20.9897  -14.0283 C   0  0  0  0  0  0  0  0  0  0  0  0
    0.1193   20.7406  -15.5081 C   0  0  0  0  0  0  0  0  0  0  0  0
   -0.1556   21.7516  -16.2606 C   0  0  0  0  0  0  0  0  0  0  0  0
    0.2377   19.3969  -15.9836 C   0  0  0  0  0  0  0  0  0  0  0  0
   -0.6855   18.4745  -15.7238 C   0  0  0  0  0  0  0  0  0  0  0  0
   -0.6641   17.1053  -16.1508 C   0  0  0  0  0  0  0  0  0  0  0  0
   -0.4125   16.2911  -15.1612 O   0  0  0  0  0  0  0  0  0  0  0  0
   -0.8528   16.4914  -17.3725 N   0  0  0  0  0  0  0  0  0  0  0  0
   -0.7435   14.9969  -17.3991 C   0  0  0  0  0  0  0  0  0  0  0  0
   -2.0260   14.5200  -18.0416 C   0  0  0  0  0  0  0  0  0  0  0  0
   -2.1221   14.9422  -19.3657 O   0  0  0  0  0  0  0  0  0  0  0  0
   -1.1949   15.9092  -19.6820 C   0  0  0  0  0  0  0  0  0  0  0  0
   -1.1437   17.0426  -18.6638 C   0  0  0  0  0  0  0  0  0  0  0  0
   -2.0183   21.5459  -23.8336 O   0  0  0  0  0  0  0  0  0  0  0  0
   -1.3808   21.9216  -25.0070 C   0  0  0  0  0  0  0  0  0  0  0  0
   -0.0045   21.8646  -25.1421 C   0  0  0  0  0  0  0  0  0  0  0  0
    0.5536   22.2497  -26.3207 C   0  0  0  0  0  0  0  0  0  0  0  0
   -0.1806   22.7046  -27.4177 C   0  0  0  0  0  0  0  0  0  0  0  0
   -1.5449   22.7594  -27.2790 C   0  0  0  0  0  0  0  0  0  0  0  0
   -2.1429   22.3641  -26.0640 C   0  0  0  0  0  0  0  0  0  0  0  0
   -2.4015   23.2141  -28.2907 N   0  0  0  0  0  0  0  0  0  0  0  0
   -3.4892   24.0763  -28.1698 C   0  0  0  0  0  0  0  0  0  0  0  0
   -3.8563   24.5752  -27.0832 O   0  0  0  0  0  0  0  0  0  0  0  0
   -2.1920   22.8678  -29.2825 H   0  0  0  0  0  0  0  0  0  0  0  0
   -4.2789   24.4488  -29.3615 C   0  0  0  0  0  0  0  0  0  0  0  0
   -5.2266   23.5737  -29.8678 C   0  0  0  0  0  0  0  0  0  0  0  0
   -6.0015   23.8330  -30.9746 C   0  0  0  0  0  0  0  0  0  0  0  0
   -5.8079   25.0437  -31.6040 C   0  0  0  0  0  0  0  0  0  0  0  0
   -4.8823   25.9509  -31.1471 C   0  0  0  0  0  0  0  0  0  0  0  0
   -4.1153   25.6438  -30.0160 C   0  0  0  0  0  0  0  0  0  0  0  0
 12 13  1  0  0  0
 13 15  1  0  0  0
 15 16  2  0  0  0
 16 17  1  0  0  0
 17 18  2  0  0  0
 17 19  1  0  0  0
 19 20  1  0  0  0
 20 21  1  0  0  0
 21 22  1  0  0  0
 22 23  1  0  0  0
 23 24  1  0  0  0
 13 14  2  0  0  0
 14  8  1  0  0  0
  8  9  2  0  0  0
  8 10  1  0  0  0
 10  1  1  0  0  0
  1  2  2  0  0  0
  2  3  1  0  0  0
  3  4  2  0  0  0
  4 25  1  0  0  0
 25 26  1  0  0  0
 26 27  2  0  0  0
 27 28  1  0  0  0
 28 29  2  0  0  0
 29 30  1  0  0  0
 30 32  1  0  0  0
 32 33  1  0  0  0
 33 34  2  0  0  0
 33 36  1  0  0  0
 36 37  2  0  0  0
 37 38  1  0  0  0
 38 39  2  0  0  0
 39 40  1  0  0  0
 40 41  2  0  0  0
 30 31  2  0  0  0
  4  5  1  0  0  0
  5  6  1  0  0  0
  5  7  2  0  0  0
 24 19  1  0  0  0
  7  1  1  0  0  0
 31 26  1  0  0  0
 41 36  1  0  0  0
 10 11  1  0  0  0
 32 35  1  0  0  0
M  END
> <minimizedAffinity>
-8.67983

> <CNNscore>
0.1238304004

> <CNNaffinity>
6.1974058151

> <CNN_VS>
0.7674272656

> <CNNaffinity_variance>
0.1237839907

$$$$
[H]/C(C(=O)N([H])c1c([H])c([H])c(Oc2c([H])c([H])c([H])c(N([H])C(=O)c3c([H])c([H])c([H])c([H])c3[H])c2[H])c(Cl)c1[H])=C(C(/[H])=C(\[H])C(=O)N1C([H])([H])C([H])([H])OC([H])([H])C1([H])[H])\C([H])([H])[H]


 41 44  0  0  0  0  0  0  0  0999 V2000
   -7.1389   23.3604  -19.1403 C   0  0  0  0  0  0  0  0  0  0  0  0
   -5.9016   23.6957  -19.6955 C   0  0  0  0  0  0  0  0  0  0  0  0
   -5.8841   24.4908  -20.8198 C   0  0  0  0  0  0  0  0  0  0  0  0
   -7.0561   24.9578  -21.4024 C   0  0  0  0  0  0  0  0  0  0  0  0
   -8.2692   24.6245  -20.8521 C   0  0  0  0  0  0  0  0  0  0  0  0
   -9.8133   25.1211  -21.5056 Cl  0  0  0  0  0  0  0  0  0  0  0  0
   -8.2901   23.8129  -19.7023 C   0  0  0  0  0  0  0  0  0  0  0  0
   -6.8424   23.1304  -16.7250 C   0  0  0  0  0  0  0  0  0  0  0  0
   -6.6046   24.4305  -16.8314 O   0  0  0  0  0  0  0  0  0  0  0  0
   -7.1358   22.5447  -17.9174 N   0  0  0  0  0  0  0  0  0  0  0  0
   -7.3752   21.5659  -18.1558 H   0  0  0  0  0  0  0  0  0  0  0  0
   -7.0268   21.5473  -13.3018 C   0  0  0  0  0  0  0  0  0  0  0  0
   -7.3496   21.7815  -14.7642 C   0  0  0  0  0  0  0  0  0  0  0  0
   -6.7203   22.7230  -15.3818 C   0  0  0  0  0  0  0  0  0  0  0  0
   -8.3327   20.9409  -15.3746 C   0  0  0  0  0  0  0  0  0  0  0  0
   -9.2124   20.2494  -14.6544 C   0  0  0  0  0  0  0  0  0  0  0  0
  -10.2346   19.3818  -15.1640 C   0  0  0  0  0  0  0  0  0  0  0  0
  -10.4470   19.5758  -16.4378 O   0  0  0  0  0  0  0  0  0  0  0  0
  -11.0206   18.4042  -14.5880 N   0  0  0  0  0  0  0  0  0  0  0  0
  -11.9976   17.7092  -15.4872 C   0  0  0  0  0  0  0  0  0  0  0  0
  -11.7141   16.2349  -15.3114 C   0  0  0  0  0  0  0  0  0  0  0  0
  -11.9889   15.8128  -14.0124 O   0  0  0  0  0  0  0  0  0  0  0  0
  -12.1708   16.8632  -13.1416 C   0  0  0  0  0  0  0  0  0  0  0  0
  -11.0739   17.9172  -13.2404 C   0  0  0  0  0  0  0  0  0  0  0  0
   -6.9889   25.7393  -22.5137 O   0  0  0  0  0  0  0  0  0  0  0  0
   -6.8728   25.2335  -23.8002 C   0  0  0  0  0  0  0  0  0  0  0  0
   -7.9742   25.0607  -24.6203 C   0  0  0  0  0  0  0  0  0  0  0  0
   -7.7870   24.5585  -25.8700 C   0  0  0  0  0  0  0  0  0  0  0  0
   -6.5399   24.2014  -26.3865 C   0  0  0  0  0  0  0  0  0  0  0  0
   -5.4508   24.3745  -25.5697 C   0  0  0  0  0  0  0  0  0  0  0  0
   -5.6244   24.8943  -24.2697 C   0  0  0  0  0  0  0  0  0  0  0  0
   -4.1444   24.0400  -25.9512 N   0  0  0  0  0  0  0  0  0  0  0  0
   -3.4821   22.8278  -25.7692 C   0  0  0  0  0  0  0  0  0  0  0  0
   -3.9998   21.8362  -25.2095 O   0  0  0  0  0  0  0  0  0  0  0  0
   -3.5859   24.8027  -26.4548 H   0  0  0  0  0  0  0  0  0  0  0  0
   -2.0943   22.6596  -26.2472 C   0  0  0  0  0  0  0  0  0  0  0  0
   -1.1041   22.2435  -25.3716 C   0  0  0  0  0  0  0  0  0  0  0  0
    0.2135   22.0668  -25.7262 C   0  0  0  0  0  0  0  0  0  0  0  0
    0.5482   22.3248  -27.0380 C   0  0  0  0  0  0  0  0  0  0  0  0
   -0.3913   22.7401  -27.9507 C   0  0  0  0  0  0  0  0  0  0  0  0
   -1.7214   22.9066  -27.5445 C   0  0  0  0  0  0  0  0  0  0  0  0
 12 13  1  0  0  0
 13 15  1  0  0  0
 15 16  2  0  0  0
 16 17  1  0  0  0
 17 18  2  0  0  0
 17 19  1  0  0  0
 19 20  1  0  0  0
 20 21  1  0  0  0
 21 22  1  0  0  0
 22 23  1  0  0  0
 23 24  1  0  0  0
 13 14  2  0  0  0
 14  8  1  0  0  0
  8  9  2  0  0  0
  8 10  1  0  0  0
 10  1  1  0  0  0
  1  2  2  0  0  0
  2  3  1  0  0  0
  3  4  2  0  0  0
  4 25  1  0  0  0
 25 26  1  0  0  0
 26 27  2  0  0  0
 27 28  1  0  0  0
 28 29  2  0  0  0
 29 30  1  0  0  0
 30 32  1  0  0  0
 32 33  1  0  0  0
 33 34  2  0  0  0
 33 36  1  0  0  0
 36 37  2  0  0  0
 37 38  1  0  0  0
 38 39  2  0  0  0
 39 40  1  0  0  0
 40 41  2  0  0  0
 30 31  2  0  0  0
  4  5  1  0  0  0
  5  6  1  0  0  0
  5  7  2  0  0  0
 24 19  1  0  0  0
  7  1  1  0  0  0
 31 26  1  0  0  0
 41 36  1  0  0  0
 10 11  1  0  0  0
 32 35  1  0  0  0
M  END
> <minimizedAffinity>
-8.28688

> <CNNscore>
0.1211387366

> <CNNaffinity>
5.9477009773

> <CNN_VS>
0.7204969525

> <CNNaffinity_variance>
0.2765194178

$$$$
[H]/C(C(=O)N([H])c1c([H])c([H])c(Oc2c([H])c([H])c([H])c(N([H])C(=O)c3c([H])c([H])c([H])c([H])c3[H])c2[H])c(Cl)c1[H])=C(C(/[H])=C(\[H])C(=O)N1C([H])([H])C([H])([H])OC([H])([H])C1([H])[H])\C([H])([H])[H]


 41 44  0  0  0  0  0  0  0  0999 V2000
   -1.1330   22.5327  -24.8827 C   0  0  0  0  0  0  0  0  0  0  0  0
   -2.0635   22.2091  -23.8923 C   0  0  0  0  0  0  0  0  0  0  0  0
   -1.6190   21.5465  -22.7698 C   0  0  0  0  0  0  0  0  0  0  0  0
   -0.2831   21.1998  -22.6074 C   0  0  0  0  0  0  0  0  0  0  0  0
    0.6266   21.5204  -23.5846 C   0  0  0  0  0  0  0  0  0  0  0  0
    2.3261   21.1143  -23.5152 Cl  0  0  0  0  0  0  0  0  0  0  0  0
    0.1753   22.1986  -24.7326 C   0  0  0  0  0  0  0  0  0  0  0  0
   -2.4458   22.6574  -26.9407 C   0  0  0  0  0  0  0  0  0  0  0  0
   -2.7307   21.4083  -26.5987 O   0  0  0  0  0  0  0  0  0  0  0  0
   -1.6191   23.2753  -26.0545 N   0  0  0  0  0  0  0  0  0  0  0  0
   -1.2333   24.2361  -26.0375 H   0  0  0  0  0  0  0  0  0  0  0  0
   -4.6535   23.9044  -29.7388 C   0  0  0  0  0  0  0  0  0  0  0  0
   -4.1604   23.6952  -28.3208 C   0  0  0  0  0  0  0  0  0  0  0  0
   -3.0942   22.9903  -28.1464 C   0  0  0  0  0  0  0  0  0  0  0  0
   -4.9063   24.2955  -27.2583 C   0  0  0  0  0  0  0  0  0  0  0  0
   -5.9933   23.7207  -26.7494 C   0  0  0  0  0  0  0  0  0  0  0  0
   -6.8100   24.2349  -25.6883 C   0  0  0  0  0  0  0  0  0  0  0  0
   -8.0209   24.5071  -26.0947 O   0  0  0  0  0  0  0  0  0  0  0  0
   -6.5754   24.4930  -24.3529 N   0  0  0  0  0  0  0  0  0  0  0  0
   -7.7230   25.0437  -23.5618 C   0  0  0  0  0  0  0  0  0  0  0  0
   -7.8588   24.1217  -22.3715 C   0  0  0  0  0  0  0  0  0  0  0  0
   -6.7357   24.1799  -21.5492 O   0  0  0  0  0  0  0  0  0  0  0  0
   -5.6749   24.8229  -22.1460 C   0  0  0  0  0  0  0  0  0  0  0  0
   -5.3934   24.3245  -23.5589 C   0  0  0  0  0  0  0  0  0  0  0  0
    0.1088   20.5441  -21.4819 O   0  0  0  0  0  0  0  0  0  0  0  0
    0.2660   21.1626  -20.2502 C   0  0  0  0  0  0  0  0  0  0  0  0
   -0.8172   21.4947  -19.4552 C   0  0  0  0  0  0  0  0  0  0  0  0
   -0.5895   22.1009  -18.2595 C   0  0  0  0  0  0  0  0  0  0  0  0
    0.6821   22.4140  -17.7752 C   0  0  0  0  0  0  0  0  0  0  0  0
    1.7529   22.0828  -18.5670 C   0  0  0  0  0  0  0  0  0  0  0  0
    1.5374   21.4533  -19.8110 C   0  0  0  0  0  0  0  0  0  0  0  0
    3.0815   22.3560  -18.2146 N   0  0  0  0  0  0  0  0  0  0  0  0
    3.6285   23.5721  -17.8108 C   0  0  0  0  0  0  0  0  0  0  0  0
    2.9648   24.6276  -17.7106 O   0  0  0  0  0  0  0  0  0  0  0  0
    3.7620   21.5294  -18.2475 H   0  0  0  0  0  0  0  0  0  0  0  0
    5.0635   23.6662  -17.4724 C   0  0  0  0  0  0  0  0  0  0  0  0
    5.4663   23.6561  -16.1465 C   0  0  0  0  0  0  0  0  0  0  0  0
    6.7772   23.7460  -15.7387 C   0  0  0  0  0  0  0  0  0  0  0  0
    7.7334   23.8517  -16.7255 C   0  0  0  0  0  0  0  0  0  0  0  0
    7.3931   23.8671  -18.0568 C   0  0  0  0  0  0  0  0  0  0  0  0
    6.0450   23.7732  -18.4254 C   0  0  0  0  0  0  0  0  0  0  0  0
 12 13  1  0  0  0
 13 15  1  0  0  0
 15 16  2  0  0  0
 16 17  1  0  0  0
 17 18  2  0  0  0
 17 19  1  0  0  0
 19 20  1  0  0  0
 20 21  1  0  0  0
 21 22  1  0  0  0
 22 23  1  0  0  0
 23 24  1  0  0  0
 13 14  2  0  0  0
 14  8  1  0  0  0
  8  9  2  0  0  0
  8 10  1  0  0  0
 10  1  1  0  0  0
  1  2  2  0  0  0
  2  3  1  0  0  0
  3  4  2  0  0  0
  4 25  1  0  0  0
 25 26  1  0  0  0
 26 27  2  0  0  0
 27 28  1  0  0  0
 28 29  2  0  0  0
 29 30  1  0  0  0
 30 32  1  0  0  0
 32 33  1  0  0  0
 33 34  2  0  0  0
 33 36  1  0  0  0
 36 37  2  0  0  0
 37 38  1  0  0  0
 38 39  2  0  0  0
 39 40  1  0  0  0
 40 41  2  0  0  0
 30 31  2  0  0  0
  4  5  1  0  0  0
  5  6  1  0  0  0
  5  7  2  0  0  0
 24 19  1  0  0  0
  7  1  1  0  0  0
 31 26  1  0  0  0
 41 36  1  0  0  0
 10 11  1  0  0  0
 32 35  1  0  0  0
M  END
> <minimizedAffinity>
-8.97855

> <CNNscore>
0.1152592748

> <CNNaffinity>
6.5045652390

> <CNN_VS>
0.7497114539

> <CNNaffinity_variance>
0.1585723460

$$$$
[H]/C(C(=O)N([H])c1c([H])c([H])c(Oc2c([H])c([H])c([H])c(N([H])C(=O)c3c([H])c([H])c([H])c([H])c3[H])c2[H])c(Cl)c1[H])=C(C(/[H])=C(\[H])C(=O)N1C([H])([H])C([H])([H])OC([H])([H])C1([H])[H])\C([H])([H])[H]


 41 44  0  0  0  0  0  0  0  0999 V2000
   -6.4229   24.9402  -24.3771 C   0  0  0  0  0  0  0  0  0  0  0  0
   -7.0536   25.9838  -23.6954 C   0  0  0  0  0  0  0  0  0  0  0  0
   -7.7471   25.6866  -22.5433 C   0  0  0  0  0  0  0  0  0  0  0  0
   -7.8293   24.3882  -22.0547 C   0  0  0  0  0  0  0  0  0  0  0  0
   -7.2075   23.3667  -22.7295 C   0  0  0  0  0  0  0  0  0  0  0  0
   -7.2609   21.6895  -22.2374 Cl  0  0  0  0  0  0  0  0  0  0  0  0
   -6.4970   23.6677  -23.9068 C   0  0  0  0  0  0  0  0  0  0  0  0
   -6.2623   25.2357  -26.7981 C   0  0  0  0  0  0  0  0  0  0  0  0
   -7.5393   24.8860  -26.7249 O   0  0  0  0  0  0  0  0  0  0  0  0
   -5.6540   25.2830  -25.5821 N   0  0  0  0  0  0  0  0  0  0  0  0
   -4.6850   25.5302  -25.3135 H   0  0  0  0  0  0  0  0  0  0  0  0
   -4.6230   25.6150  -30.1785 C   0  0  0  0  0  0  0  0  0  0  0  0
   -4.7488   25.2930  -28.7026 C   0  0  0  0  0  0  0  0  0  0  0  0
   -5.8972   25.4617  -28.1399 C   0  0  0  0  0  0  0  0  0  0  0  0
   -3.5849   24.8174  -28.0208 C   0  0  0  0  0  0  0  0  0  0  0  0
   -3.3400   23.5183  -27.8687 C   0  0  0  0  0  0  0  0  0  0  0  0
   -2.2086   22.9377  -27.2053 C   0  0  0  0  0  0  0  0  0  0  0  0
   -1.1740   22.8473  -27.9971 O   0  0  0  0  0  0  0  0  0  0  0  0
   -2.0009   22.4662  -25.9248 N   0  0  0  0  0  0  0  0  0  0  0  0
   -0.6384   21.9212  -25.6206 C   0  0  0  0  0  0  0  0  0  0  0  0
   -0.1815   22.6689  -24.3889 C   0  0  0  0  0  0  0  0  0  0  0  0
   -0.9868   22.3821  -23.2888 O   0  0  0  0  0  0  0  0  0  0  0  0
   -2.1489   21.7322  -23.6381 C   0  0  0  0  0  0  0  0  0  0  0  0
   -2.8819   22.4009  -24.7953 C   0  0  0  0  0  0  0  0  0  0  0  0
   -8.5274   24.1428  -20.9133 O   0  0  0  0  0  0  0  0  0  0  0  0
   -7.9303   23.8031  -19.7081 C   0  0  0  0  0  0  0  0  0  0  0  0
   -6.7879   24.4384  -19.2533 C   0  0  0  0  0  0  0  0  0  0  0  0
   -6.2553   24.0534  -18.0629 C   0  0  0  0  0  0  0  0  0  0  0  0
   -6.7928   23.0462  -17.2590 C   0  0  0  0  0  0  0  0  0  0  0  0
   -7.9256   22.4192  -17.7142 C   0  0  0  0  0  0  0  0  0  0  0  0
   -8.4933   22.8043  -18.9469 C   0  0  0  0  0  0  0  0  0  0  0  0
   -8.5586   21.3792  -17.0201 N   0  0  0  0  0  0  0  0  0  0  0  0
   -9.5444   21.4780  -16.0405 C   0  0  0  0  0  0  0  0  0  0  0  0
  -10.0085   22.5669  -15.6364 O   0  0  0  0  0  0  0  0  0  0  0  0
   -8.2593   20.3837  -17.2783 H   0  0  0  0  0  0  0  0  0  0  0  0
  -10.1004   20.2583  -15.4194 C   0  0  0  0  0  0  0  0  0  0  0  0
   -9.5066   19.7231  -14.2874 C   0  0  0  0  0  0  0  0  0  0  0  0
   -9.9507   18.5892  -13.6472 C   0  0  0  0  0  0  0  0  0  0  0  0
  -11.0560   17.9620  -14.1806 C   0  0  0  0  0  0  0  0  0  0  0  0
  -11.6859   18.4469  -15.3014 C   0  0  0  0  0  0  0  0  0  0  0  0
  -11.1983   19.6050  -15.9203 C   0  0  0  0  0  0  0  0  0  0  0  0
 12 13  1  0  0  0
 13 15  1  0  0  0
 15 16  2  0  0  0
 16 17  1  0  0  0
 17 18  2  0  0  0
 17 19  1  0  0  0
 19 20  1  0  0  0
 20 21  1  0  0  0
 21 22  1  0  0  0
 22 23  1  0  0  0
 23 24  1  0  0  0
 13 14  2  0  0  0
 14  8  1  0  0  0
  8  9  2  0  0  0
  8 10  1  0  0  0
 10  1  1  0  0  0
  1  2  2  0  0  0
  2  3  1  0  0  0
  3  4  2  0  0  0
  4 25  1  0  0  0
 25 26  1  0  0  0
 26 27  2  0  0  0
 27 28  1  0  0  0
 28 29  2  0  0  0
 29 30  1  0  0  0
 30 32  1  0  0  0
 32 33  1  0  0  0
 33 34  2  0  0  0
 33 36  1  0  0  0
 36 37  2  0  0  0
 37 38  1  0  0  0
 38 39  2  0  0  0
 39 40  1  0  0  0
 40 41  2  0  0  0
 30 31  2  0  0  0
  4  5  1  0  0  0
  5  6  1  0  0  0
  5  7  2  0  0  0
 24 19  1  0  0  0
  7  1  1  0  0  0
 31 26  1  0  0  0
 41 36  1  0  0  0
 10 11  1  0  0  0
 32 35  1  0  0  0
M  END
> <minimizedAffinity>
-8.26316

> <CNNscore>
0.1032242402

> <CNNaffinity>
6.4175186157

> <CNN_VS>
0.6624434590

> <CNNaffinity_variance>
0.1586304009

$$$$
[H]/C(C(=O)N([H])c1c([H])c([H])c(Oc2c([H])c([H])c([H])c(N([H])C(=O)c3c([H])c([H])c([H])c([H])c3[H])c2[H])c(Cl)c1[H])=C(C(/[H])=C(\[H])C(=O)N1C([H])([H])C([H])([H])OC([H])([H])C1([H])[H])\C([H])([H])[H]


 41 44  0  0  0  0  0  0  0  0999 V2000
   -0.2962   21.9440  -19.6293 C   0  0  0  0  0  0  0  0  0  0  0  0
   -0.1283   20.7116  -20.2653 C   0  0  0  0  0  0  0  0  0  0  0  0
   -0.6412   20.5559  -21.5338 C   0  0  0  0  0  0  0  0  0  0  0  0
   -1.3119   21.5861  -22.1820 C   0  0  0  0  0  0  0  0  0  0  0  0
   -1.4740   22.7951  -21.5514 C   0  0  0  0  0  0  0  0  0  0  0  0
   -2.3231   24.1577  -22.2444 Cl  0  0  0  0  0  0  0  0  0  0  0  0
   -0.9498   22.9575  -20.2552 C   0  0  0  0  0  0  0  0  0  0  0  0
    1.5925   22.4908  -18.1773 C   0  0  0  0  0  0  0  0  0  0  0  0
    2.1761   22.6999  -19.3495 O   0  0  0  0  0  0  0  0  0  0  0  0
    0.2932   22.1041  -18.2922 N   0  0  0  0  0  0  0  0  0  0  0  0
   -0.4184   21.8824  -17.5734 H   0  0  0  0  0  0  0  0  0  0  0  0
    3.7627   22.5287  -15.0875 C   0  0  0  0  0  0  0  0  0  0  0  0
    2.7119   22.0396  -16.0643 C   0  0  0  0  0  0  0  0  0  0  0  0
    2.5041   22.7344  -17.1310 C   0  0  0  0  0  0  0  0  0  0  0  0
    2.0138   20.8325  -15.7461 C   0  0  0  0  0  0  0  0  0  0  0  0
    1.0097   20.8095  -14.8732 C   0  0  0  0  0  0  0  0  0  0  0  0
    0.2463   19.6591  -14.4845 C   0  0  0  0  0  0  0  0  0  0  0  0
   -0.4994   19.9004  -13.4398 O   0  0  0  0  0  0  0  0  0  0  0  0
    0.1455   18.3765  -14.9843 N   0  0  0  0  0  0  0  0  0  0  0  0
   -0.7899   17.4476  -14.2715 C   0  0  0  0  0  0  0  0  0  0  0  0
   -1.7059   16.9098  -15.3470 C   0  0  0  0  0  0  0  0  0  0  0  0
   -1.0070   16.1443  -16.2779 O   0  0  0  0  0  0  0  0  0  0  0  0
    0.3571   16.2924  -16.1682 C   0  0  0  0  0  0  0  0  0  0  0  0
    0.7954   17.7508  -16.0989 C   0  0  0  0  0  0  0  0  0  0  0  0
   -1.8028   21.3849  -23.4345 O   0  0  0  0  0  0  0  0  0  0  0  0
   -1.1475   21.7890  -24.5884 C   0  0  0  0  0  0  0  0  0  0  0  0
    0.2314   21.7450  -24.6999 C   0  0  0  0  0  0  0  0  0  0  0  0
    0.8073   22.1580  -25.8603 C   0  0  0  0  0  0  0  0  0  0  0  0
    0.0891   22.6294  -26.9610 C   0  0  0  0  0  0  0  0  0  0  0  0
   -1.2778   22.6712  -26.8458 C   0  0  0  0  0  0  0  0  0  0  0  0
   -1.8942   22.2470  -25.6498 C   0  0  0  0  0  0  0  0  0  0  0  0
   -2.1197   23.1397  -27.8634 N   0  0  0  0  0  0  0  0  0  0  0  0
   -3.4542   23.5270  -27.7615 C   0  0  0  0  0  0  0  0  0  0  0  0
   -4.1005   23.4996  -26.6910 O   0  0  0  0  0  0  0  0  0  0  0  0
   -1.6859   23.2225  -28.8393 H   0  0  0  0  0  0  0  0  0  0  0  0
   -4.1838   24.0024  -28.9550 C   0  0  0  0  0  0  0  0  0  0  0  0
   -3.8693   25.2290  -29.5179 C   0  0  0  0  0  0  0  0  0  0  0  0
   -4.4991   25.7539  -30.6227 C   0  0  0  0  0  0  0  0  0  0  0  0
   -5.5017   24.9971  -31.1897 C   0  0  0  0  0  0  0  0  0  0  0  0
   -5.8567   23.7735  -30.6747 C   0  0  0  0  0  0  0  0  0  0  0  0
   -5.1877   23.2788  -29.5479 C   0  0  0  0  0  0  0  0  0  0  0  0
 12 13  1  0  0  0
 13 15  1  0  0  0
 15 16  2  0  0  0
 16 17  1  0  0  0
 17 18  2  0  0  0
 17 19  1  0  0  0
 19 20  1  0  0  0
 20 21  1  0  0  0
 21 22  1  0  0  0
 22 23  1  0  0  0
 23 24  1  0  0  0
 13 14  2  0  0  0
 14  8  1  0  0  0
  8  9  2  0  0  0
  8 10  1  0  0  0
 10  1  1  0  0  0
  1  2  2  0  0  0
  2  3  1  0  0  0
  3  4  2  0  0  0
  4 25  1  0  0  0
 25 26  1  0  0  0
 26 27  2  0  0  0
 27 28  1  0  0  0
 28 29  2  0  0  0
 29 30  1  0  0  0
 30 32  1  0  0  0
 32 33  1  0  0  0
 33 34  2  0  0  0
 33 36  1  0  0  0
 36 37  2  0  0  0
 37 38  1  0  0  0
 38 39  2  0  0  0
 39 40  1  0  0  0
 40 41  2  0  0  0
 30 31  2  0  0  0
  4  5  1  0  0  0
  5  6  1  0  0  0
  5  7  2  0  0  0
 24 19  1  0  0  0
  7  1  1  0  0  0
 31 26  1  0  0  0
 41 36  1  0  0  0
 10 11  1  0  0  0
 32 35  1  0  0  0
M  END
> <minimizedAffinity>
-8.53538

> <CNNscore>
0.0995682180

> <CNNaffinity>
6.2582159042

> <CNN_VS>
0.6231194139

> <CNNaffinity_variance>
0.1572493613

$$$$
[H]/C(C(=O)N([H])c1nc([H])c([H])s1)=C(/[H])c1c(F)c(OC([H])([H])[H])c([H])c(OC([H])([H])[H])c1Cl


 23 24  0  0  0  0  0  0  0  0999 V2000
   -4.0588   22.6757  -20.1282 C   0  0  0  0  0  0  0  0  0  0  0  0
   -4.5917   22.6107  -21.3965 C   0  0  0  0  0  0  0  0  0  0  0  0
   -5.8874   22.2117  -21.5173 C   0  0  0  0  0  0  0  0  0  0  0  0
   -6.6370   21.8818  -20.3704 C   0  0  0  0  0  0  0  0  0  0  0  0
   -8.2759   21.3568  -20.6692 Cl  0  0  0  0  0  0  0  0  0  0  0  0
   -6.1339   21.9385  -19.1033 C   0  0  0  0  0  0  0  0  0  0  0  0
   -4.7891   22.3555  -19.0207 C   0  0  0  0  0  0  0  0  0  0  0  0
   -4.2290   22.4326  -17.7957 F   0  0  0  0  0  0  0  0  0  0  0  0
   -1.8803   23.1556  -21.1457 C   0  0  0  0  0  0  0  0  0  0  0  0
   -2.7324   23.0864  -20.0336 O   0  0  0  0  0  0  0  0  0  0  0  0
   -6.4916   22.1224  -22.7632 O   0  0  0  0  0  0  0  0  0  0  0  0
   -5.8693   22.5222  -23.9418 C   0  0  0  0  0  0  0  0  0  0  0  0
   -6.8184   21.6571  -17.8573 C   0  0  0  0  0  0  0  0  0  0  0  0
   -7.6585   22.3872  -17.1796 C   0  0  0  0  0  0  0  0  0  0  0  0
   -8.2716   21.9475  -15.9190 C   0  0  0  0  0  0  0  0  0  0  0  0
   -9.4396   22.4134  -15.6795 O   0  0  0  0  0  0  0  0  0  0  0  0
   -7.7092   21.0917  -14.9861 N   0  0  0  0  0  0  0  0  0  0  0  0
   -6.7718   20.6803  -15.1162 H   0  0  0  0  0  0  0  0  0  0  0  0
   -8.4229   20.7504  -13.8012 C   0  0  0  0  0  0  0  0  0  0  0  0
   -9.1766   19.6789  -13.6276 N   0  0  0  0  0  0  0  0  0  0  0  0
   -9.7766   19.4883  -12.4862 C   0  0  0  0  0  0  0  0  0  0  0  0
   -9.5934   20.4230  -11.5068 C   0  0  0  0  0  0  0  0  0  0  0  0
   -8.5556   21.5377  -12.2920 S   0  0  0  0  0  0  0  0  0  0  0  0
  9 10  1  0  0  0
 10  1  1  0  0  0
  1  2  2  0  0  0
  2  3  1  0  0  0
  3 11  1  0  0  0
 11 12  1  0  0  0
  3  4  2  0  0  0
  4  5  1  0  0  0
  4  6  1  0  0  0
  6 13  1  0  0  0
 13 14  2  0  0  0
 14 15  1  0  0  0
 15 16  2  0  0  0
 15 17  1  0  0  0
 17 19  1  0  0  0
 19 20  2  0  0  0
 20 21  1  0  0  0
 21 22  2  0  0  0
 22 23  1  0  0  0
  6  7  2  0  0  0
  7  8  1  0  0  0
  7  1  1  0  0  0
 23 19  1  0  0  0
 17 18  1  0  0  0
M  END
> <minimizedAffinity>
-3.59738

> <CNNscore>
0.5563398600

> <CNNaffinity>
5.5786294937

> <CNN_VS>
3.1036138535

> <CNNaffinity_variance>
1.5686430931

$$$$
[H]/C(C(=O)N([H])c1nc([H])c([H])s1)=C(/[H])c1c(F)c(OC([H])([H])[H])c([H])c(OC([H])([H])[H])c1Cl


 23 24  0  0  0  0  0  0  0  0999 V2000
   -1.9761   21.3069  -15.4370 C   0  0  0  0  0  0  0  0  0  0  0  0
   -0.8444   21.0877  -16.1906 C   0  0  0  0  0  0  0  0  0  0  0  0
   -0.8364   21.5558  -17.4687 C   0  0  0  0  0  0  0  0  0  0  0  0
   -1.9584   22.2379  -17.9804 C   0  0  0  0  0  0  0  0  0  0  0  0
   -1.8277   22.7586  -19.6425 Cl  0  0  0  0  0  0  0  0  0  0  0  0
   -3.0910   22.4691  -17.2552 C   0  0  0  0  0  0  0  0  0  0  0  0
   -3.0599   21.9683  -15.9372 C   0  0  0  0  0  0  0  0  0  0  0  0
   -4.1494   22.1623  -15.1652 F   0  0  0  0  0  0  0  0  0  0  0  0
   -1.1984   21.4101  -13.1140 C   0  0  0  0  0  0  0  0  0  0  0  0
   -1.9574   20.8178  -14.1341 O   0  0  0  0  0  0  0  0  0  0  0  0
    0.2689   21.3722  -18.2872 O   0  0  0  0  0  0  0  0  0  0  0  0
    0.6567   20.1284  -18.7756 C   0  0  0  0  0  0  0  0  0  0  0  0
   -4.2833   23.1838  -17.6650 C   0  0  0  0  0  0  0  0  0  0  0  0
   -5.3049   22.7772  -18.3642 C   0  0  0  0  0  0  0  0  0  0  0  0
   -6.4480   23.6390  -18.6944 C   0  0  0  0  0  0  0  0  0  0  0  0
   -6.7424   24.5269  -17.8205 O   0  0  0  0  0  0  0  0  0  0  0  0
   -7.2194   23.5768  -19.8434 N   0  0  0  0  0  0  0  0  0  0  0  0
   -7.0372   22.8858  -20.5878 H   0  0  0  0  0  0  0  0  0  0  0  0
   -8.3039   24.4815  -20.0312 C   0  0  0  0  0  0  0  0  0  0  0  0
   -9.5751   24.2391  -19.7639 N   0  0  0  0  0  0  0  0  0  0  0  0
  -10.4696   25.1611  -19.9849 C   0  0  0  0  0  0  0  0  0  0  0  0
  -10.0410   26.3554  -20.4913 C   0  0  0  0  0  0  0  0  0  0  0  0
   -8.3547   26.0821  -20.6231 S   0  0  0  0  0  0  0  0  0  0  0  0
  9 10  1  0  0  0
 10  1  1  0  0  0
  1  2  2  0  0  0
  2  3  1  0  0  0
  3 11  1  0  0  0
 11 12  1  0  0  0
  3  4  2  0  0  0
  4  5  1  0  0  0
  4  6  1  0  0  0
  6 13  1  0  0  0
 13 14  2  0  0  0
 14 15  1  0  0  0
 15 16  2  0  0  0
 15 17  1  0  0  0
 17 19  1  0  0  0
 19 20  2  0  0  0
 20 21  1  0  0  0
 21 22  2  0  0  0
 22 23  1  0  0  0
  6  7  2  0  0  0
  7  8  1  0  0  0
  7  1  1  0  0  0
 23 19  1  0  0  0
 17 18  1  0  0  0
M  END
> <minimizedAffinity>
-3.68972

> <CNNscore>
0.5481292605

> <CNNaffinity>
5.1583147049

> <CNN_VS>
2.8274233341

> <CNNaffinity_variance>
0.5537019968

$$$$
[H]/C(C(=O)N([H])c1nc([H])c([H])s1)=C(/[H])c1c(F)c(OC([H])([H])[H])c([H])c(OC([H])([H])[H])c1Cl


 23 24  0  0  0  0  0  0  0  0999 V2000
   -4.4929   22.9844  -13.2074 C   0  0  0  0  0  0  0  0  0  0  0  0
   -3.4490   22.2675  -12.6659 C   0  0  0  0  0  0  0  0  0  0  0  0
   -2.5519   21.7115  -13.5254 C   0  0  0  0  0  0  0  0  0  0  0  0
   -2.7068   21.8774  -14.9163 C   0  0  0  0  0  0  0  0  0  0  0  0
   -1.5036   21.0875  -15.9059 Cl  0  0  0  0  0  0  0  0  0  0  0  0
   -3.7306   22.5830  -15.4783 C   0  0  0  0  0  0  0  0  0  0  0  0
   -4.6381   23.1423  -14.5550 C   0  0  0  0  0  0  0  0  0  0  0  0
   -5.6755   23.8526  -15.0448 F   0  0  0  0  0  0  0  0  0  0  0  0
   -6.5825   22.8978  -11.9276 C   0  0  0  0  0  0  0  0  0  0  0  0
   -5.3952   23.5418  -12.3061 O   0  0  0  0  0  0  0  0  0  0  0  0
   -1.4747   20.9757  -13.0526 O   0  0  0  0  0  0  0  0  0  0  0  0
   -0.3744   21.5529  -12.4263 C   0  0  0  0  0  0  0  0  0  0  0  0
   -3.9683   22.8455  -16.8836 C   0  0  0  0  0  0  0  0  0  0  0  0
   -4.4078   22.0541  -17.8210 C   0  0  0  0  0  0  0  0  0  0  0  0
   -4.5962   22.4832  -19.2134 C   0  0  0  0  0  0  0  0  0  0  0  0
   -3.9182   21.8392  -20.0876 O   0  0  0  0  0  0  0  0  0  0  0  0
   -5.4249   23.5018  -19.6546 N   0  0  0  0  0  0  0  0  0  0  0  0
   -5.9988   24.0607  -19.0040 H   0  0  0  0  0  0  0  0  0  0  0  0
   -5.5085   23.8103  -21.0431 C   0  0  0  0  0  0  0  0  0  0  0  0
   -4.8295   24.7524  -21.6735 N   0  0  0  0  0  0  0  0  0  0  0  0
   -5.0036   24.9285  -22.9533 C   0  0  0  0  0  0  0  0  0  0  0  0
   -5.8963   24.1152  -23.5921 C   0  0  0  0  0  0  0  0  0  0  0  0
   -6.4421   23.1304  -22.3005 S   0  0  0  0  0  0  0  0  0  0  0  0
  9 10  1  0  0  0
 10  1  1  0  0  0
  1  2  2  0  0  0
  2  3  1  0  0  0
  3 11  1  0  0  0
 11 12  1  0  0  0
  3  4  2  0  0  0
  4  5  1  0  0  0
  4  6  1  0  0  0
  6 13  1  0  0  0
 13 14  2  0  0  0
 14 15  1  0  0  0
 15 16  2  0  0  0
 15 17  1  0  0  0
 17 19  1  0  0  0
 19 20  2  0  0  0
 20 21  1  0  0  0
 21 22  2  0  0  0
 22 23  1  0  0  0
  6  7  2  0  0  0
  7  8  1  0  0  0
  7  1  1  0  0  0
 23 19  1  0  0  0
 17 18  1  0  0  0
M  END
> <minimizedAffinity>
-3.43463

> <CNNscore>
0.5257461071

> <CNNaffinity>
5.1359705925

> <CNN_VS>
2.7002165318

> <CNNaffinity_variance>
0.8244585991

$$$$
[H]/C(C(=O)N([H])c1nc([H])c([H])s1)=C(/[H])c1c(F)c(OC([H])([H])[H])c([H])c(OC([H])([H])[H])c1Cl


 23 24  0  0  0  0  0  0  0  0999 V2000
   -4.0788   23.1527  -16.8294 C   0  0  0  0  0  0  0  0  0  0  0  0
   -3.2902   22.1598  -16.2918 C   0  0  0  0  0  0  0  0  0  0  0  0
   -3.3643   21.9523  -14.9486 C   0  0  0  0  0  0  0  0  0  0  0  0
   -4.2252   22.7385  -14.1568 C   0  0  0  0  0  0  0  0  0  0  0  0
   -4.2010   22.3886  -12.4457 Cl  0  0  0  0  0  0  0  0  0  0  0  0
   -5.0172   23.7271  -14.6640 C   0  0  0  0  0  0  0  0  0  0  0  0
   -4.9110   23.9110  -16.0582 C   0  0  0  0  0  0  0  0  0  0  0  0
   -5.6674   24.8741  -16.6247 F   0  0  0  0  0  0  0  0  0  0  0  0
   -4.8493   22.7227  -19.1170 C   0  0  0  0  0  0  0  0  0  0  0  0
   -3.9833   23.3435  -18.2048 O   0  0  0  0  0  0  0  0  0  0  0  0
   -2.5994   20.9696  -14.3368 O   0  0  0  0  0  0  0  0  0  0  0  0
   -1.2270   21.0858  -14.1389 C   0  0  0  0  0  0  0  0  0  0  0  0
   -5.9589   24.5694  -13.9540 C   0  0  0  0  0  0  0  0  0  0  0  0
   -7.2599   24.5147  -13.9049 C   0  0  0  0  0  0  0  0  0  0  0  0
   -8.0759   25.4557  -13.1257 C   0  0  0  0  0  0  0  0  0  0  0  0
   -8.4809   26.4924  -13.7583 O   0  0  0  0  0  0  0  0  0  0  0  0
   -8.4378   25.3235  -11.7951 N   0  0  0  0  0  0  0  0  0  0  0  0
   -8.1458   24.5132  -11.2267 H   0  0  0  0  0  0  0  0  0  0  0  0
   -9.2373   26.3202  -11.1649 C   0  0  0  0  0  0  0  0  0  0  0  0
  -10.5579   26.3590  -11.1415 N   0  0  0  0  0  0  0  0  0  0  0  0
  -11.1655   27.3338  -10.5253 C   0  0  0  0  0  0  0  0  0  0  0  0
  -10.3927   28.2855   -9.9224 C   0  0  0  0  0  0  0  0  0  0  0  0
   -8.8159   27.7181  -10.2799 S   0  0  0  0  0  0  0  0  0  0  0  0
  9 10  1  0  0  0
 10  1  1  0  0  0
  1  2  2  0  0  0
  2  3  1  0  0  0
  3 11  1  0  0  0
 11 12  1  0  0  0
  3  4  2  0  0  0
  4  5  1  0  0  0
  4  6  1  0  0  0
  6 13  1  0  0  0
 13 14  2  0  0  0
 14 15  1  0  0  0
 15 16  2  0  0  0
 15 17  1  0  0  0
 17 19  1  0  0  0
 19 20  2  0  0  0
 20 21  1  0  0  0
 21 22  2  0  0  0
 22 23  1  0  0  0
  6  7  2  0  0  0
  7  8  1  0  0  0
  7  1  1  0  0  0
 23 19  1  0  0  0
 17 18  1  0  0  0
M  END
> <minimizedAffinity>
-3.78742

> <CNNscore>
0.3650824130

> <CNNaffinity>
4.4458894730

> <CNN_VS>
1.6231160164

> <CNNaffinity_variance>
0.0155966729

$$$$
[H]/C(C(=O)N([H])c1nc([H])c([H])s1)=C(/[H])c1c(F)c(OC([H])([H])[H])c([H])c(OC([H])([H])[H])c1Cl


 23 24  0  0  0  0  0  0  0  0999 V2000
    0.9542   21.4389  -23.5174 C   0  0  0  0  0  0  0  0  0  0  0  0
    0.3833   21.1528  -22.2972 C   0  0  0  0  0  0  0  0  0  0  0  0
   -0.9439   21.4135  -22.1443 C   0  0  0  0  0  0  0  0  0  0  0  0
   -1.6866   21.9569  -23.2116 C   0  0  0  0  0  0  0  0  0  0  0  0
   -3.3710   22.2706  -22.8719 Cl  0  0  0  0  0  0  0  0  0  0  0  0
   -1.1461   22.2485  -24.4301 C   0  0  0  0  0  0  0  0  0  0  0  0
    0.2304   21.9648  -24.5479 C   0  0  0  0  0  0  0  0  0  0  0  0
    0.8283   22.2306  -25.7278 F   0  0  0  0  0  0  0  0  0  0  0  0
    3.0582   20.5433  -22.6325 C   0  0  0  0  0  0  0  0  0  0  0  0
    2.3123   21.1628  -23.6462 O   0  0  0  0  0  0  0  0  0  0  0  0
   -1.5872   21.1510  -20.9433 O   0  0  0  0  0  0  0  0  0  0  0  0
   -1.4243   21.9345  -19.8050 C   0  0  0  0  0  0  0  0  0  0  0  0
   -1.8173   22.7741  -25.6020 C   0  0  0  0  0  0  0  0  0  0  0  0
   -2.1194   22.1898  -26.7269 C   0  0  0  0  0  0  0  0  0  0  0  0
   -2.8117   22.8732  -27.8279 C   0  0  0  0  0  0  0  0  0  0  0  0
   -2.0878   23.1586  -28.8445 O   0  0  0  0  0  0  0  0  0  0  0  0
   -4.1501   23.2289  -27.8624 N   0  0  0  0  0  0  0  0  0  0  0  0
   -4.7896   23.0290  -27.0776 H   0  0  0  0  0  0  0  0  0  0  0  0
   -4.6888   23.8917  -29.0028 C   0  0  0  0  0  0  0  0  0  0  0  0
   -5.3890   23.3288  -29.9718 N   0  0  0  0  0  0  0  0  0  0  0  0
   -5.8239   24.0564  -30.9620 C   0  0  0  0  0  0  0  0  0  0  0  0
   -5.5289   25.3903  -30.9494 C   0  0  0  0  0  0  0  0  0  0  0  0
   -4.6316   25.5252  -29.4960 S   0  0  0  0  0  0  0  0  0  0  0  0
  9 10  1  0  0  0
 10  1  1  0  0  0
  1  2  2  0  0  0
  2  3  1  0  0  0
  3 11  1  0  0  0
 11 12  1  0  0  0
  3  4  2  0  0  0
  4  5  1  0  0  0
  4  6  1  0  0  0
  6 13  1  0  0  0
 13 14  2  0  0  0
 14 15  1  0  0  0
 15 16  2  0  0  0
 15 17  1  0  0  0
 17 19  1  0  0  0
 19 20  2  0  0  0
 20 21  1  0  0  0
 21 22  2  0  0  0
 22 23  1  0  0  0
  6  7  2  0  0  0
  7  8  1  0  0  0
  7  1  1  0  0  0
 23 19  1  0  0  0
 17 18  1  0  0  0
M  END
> <minimizedAffinity>
-6.64571

> <CNNscore>
0.3508059978

> <CNNaffinity>
6.2817931175

> <CNN_VS>
2.2036907673

> <CNNaffinity_variance>
0.2908540368

$$$$
[H]/C(C(=O)N([H])c1nc([H])c([H])s1)=C(/[H])c1c(F)c(OC([H])([H])[H])c([H])c(OC([H])([H])[H])c1Cl


 23 24  0  0  0  0  0  0  0  0999 V2000
   -4.6396   22.9027  -25.6975 C   0  0  0  0  0  0  0  0  0  0  0  0
   -4.5059   23.3572  -26.9907 C   0  0  0  0  0  0  0  0  0  0  0  0
   -3.2680   23.3040  -27.5540 C   0  0  0  0  0  0  0  0  0  0  0  0
   -2.1768   22.7975  -26.8199 C   0  0  0  0  0  0  0  0  0  0  0  0
   -0.6402   22.8137  -27.6502 Cl  0  0  0  0  0  0  0  0  0  0  0  0
   -2.2820   22.3403  -25.5385 C   0  0  0  0  0  0  0  0  0  0  0  0
   -3.5797   22.4128  -24.9911 C   0  0  0  0  0  0  0  0  0  0  0  0
   -3.7535   21.9773  -23.7259 F   0  0  0  0  0  0  0  0  0  0  0  0
   -6.8253   23.9886  -25.4629 C   0  0  0  0  0  0  0  0  0  0  0  0
   -5.9158   22.9687  -25.1462 O   0  0  0  0  0  0  0  0  0  0  0  0
   -3.0573   23.7442  -28.8529 O   0  0  0  0  0  0  0  0  0  0  0  0
   -3.7190   24.8375  -29.4033 C   0  0  0  0  0  0  0  0  0  0  0  0
   -1.2420   21.7705  -24.7055 C   0  0  0  0  0  0  0  0  0  0  0  0
   -0.1109   22.2827  -24.3101 C   0  0  0  0  0  0  0  0  0  0  0  0
    0.8428   21.5631  -23.4550 C   0  0  0  0  0  0  0  0  0  0  0  0
    0.3549   21.0585  -22.3845 O   0  0  0  0  0  0  0  0  0  0  0  0
    2.1949   21.3864  -23.6994 N   0  0  0  0  0  0  0  0  0  0  0  0
    2.6526   21.7666  -24.5425 H   0  0  0  0  0  0  0  0  0  0  0  0
    3.0037   20.6621  -22.7768 C   0  0  0  0  0  0  0  0  0  0  0  0
    3.5325   19.4676  -22.9760 N   0  0  0  0  0  0  0  0  0  0  0  0
    4.2560   18.9169  -22.0420 C   0  0  0  0  0  0  0  0  0  0  0  0
    4.4357   19.6146  -20.8813 C   0  0  0  0  0  0  0  0  0  0  0  0
    3.5429   21.0415  -21.2019 S   0  0  0  0  0  0  0  0  0  0  0  0
  9 10  1  0  0  0
 10  1  1  0  0  0
  1  2  2  0  0  0
  2  3  1  0  0  0
  3 11  1  0  0  0
 11 12  1  0  0  0
  3  4  2  0  0  0
  4  5  1  0  0  0
  4  6  1  0  0  0
  6 13  1  0  0  0
 13 14  2  0  0  0
 14 15  1  0  0  0
 15 16  2  0  0  0
 15 17  1  0  0  0
 17 19  1  0  0  0
 19 20  2  0  0  0
 20 21  1  0  0  0
 21 22  2  0  0  0
 22 23  1  0  0  0
  6  7  2  0  0  0
  7  8  1  0  0  0
  7  1  1  0  0  0
 23 19  1  0  0  0
 17 18  1  0  0  0
M  END
> <minimizedAffinity>
-6.74521

> <CNNscore>
0.3190751076

> <CNNaffinity>
5.9779763222

> <CNN_VS>
1.9074234962

> <CNNaffinity_variance>
0.2023160756

$$$$
[H]/C(C(=O)N([H])c1nc([H])c([H])s1)=C(/[H])c1c(F)c(OC([H])([H])[H])c([H])c(OC([H])([H])[H])c1Cl


 23 24  0  0  0  0  0  0  0  0999 V2000
   -1.3404   21.4139  -16.5575 C   0  0  0  0  0  0  0  0  0  0  0  0
   -0.1208   21.6013  -15.9457 C   0  0  0  0  0  0  0  0  0  0  0  0
    0.9085   22.0515  -16.7141 C   0  0  0  0  0  0  0  0  0  0  0  0
    0.7090   22.3097  -18.0851 C   0  0  0  0  0  0  0  0  0  0  0  0
    2.1193   22.8537  -18.9603 Cl  0  0  0  0  0  0  0  0  0  0  0  0
   -0.4884   22.1335  -18.7153 C   0  0  0  0  0  0  0  0  0  0  0  0
   -1.5284   21.6658  -17.8855 C   0  0  0  0  0  0  0  0  0  0  0  0
   -2.7398   21.4691  -18.4463 F   0  0  0  0  0  0  0  0  0  0  0  0
   -3.3103   21.8122  -15.1530 C   0  0  0  0  0  0  0  0  0  0  0  0
   -2.3751   20.9531  -15.7488 O   0  0  0  0  0  0  0  0  0  0  0  0
    2.1657   22.2637  -16.1667 O   0  0  0  0  0  0  0  0  0  0  0  0
    3.0045   21.2299  -15.7620 C   0  0  0  0  0  0  0  0  0  0  0  0
   -0.8148   22.3976  -20.1024 C   0  0  0  0  0  0  0  0  0  0  0  0
   -0.3952   21.8115  -21.1879 C   0  0  0  0  0  0  0  0  0  0  0  0
   -0.8313   22.2049  -22.5346 C   0  0  0  0  0  0  0  0  0  0  0  0
   -1.0321   23.4574  -22.7075 O   0  0  0  0  0  0  0  0  0  0  0  0
   -1.0403   21.3584  -23.6110 N   0  0  0  0  0  0  0  0  0  0  0  0
   -0.8971   20.3388  -23.5410 H   0  0  0  0  0  0  0  0  0  0  0  0
   -1.4656   21.8823  -24.8658 C   0  0  0  0  0  0  0  0  0  0  0  0
   -2.7154   21.9888  -25.2816 N   0  0  0  0  0  0  0  0  0  0  0  0
   -2.9647   22.4892  -26.4591 C   0  0  0  0  0  0  0  0  0  0  0  0
   -1.9018   22.8866  -27.2200 C   0  0  0  0  0  0  0  0  0  0  0  0
   -0.5870   22.5136  -26.1865 S   0  0  0  0  0  0  0  0  0  0  0  0
  9 10  1  0  0  0
 10  1  1  0  0  0
  1  2  2  0  0  0
  2  3  1  0  0  0
  3 11  1  0  0  0
 11 12  1  0  0  0
  3  4  2  0  0  0
  4  5  1  0  0  0
  4  6  1  0  0  0
  6 13  1  0  0  0
 13 14  2  0  0  0
 14 15  1  0  0  0
 15 16  2  0  0  0
 15 17  1  0  0  0
 17 19  1  0  0  0
 19 20  2  0  0  0
 20 21  1  0  0  0
 21 22  2  0  0  0
 22 23  1  0  0  0
  6  7  2  0  0  0
  7  8  1  0  0  0
  7  1  1  0  0  0
 23 19  1  0  0  0
 17 18  1  0  0  0
M  END
> <minimizedAffinity>
-4.16422

> <CNNscore>
0.3096435070

> <CNNaffinity>
5.3834815025

> <CNN_VS>
1.6669601202

> <CNNaffinity_variance>
0.1738258004

$$$$
[H]/C(C(=O)N([H])c1nc([H])c([H])s1)=C(/[H])c1c(F)c(OC([H])([H])[H])c([H])c(OC([H])([H])[H])c1Cl


 23 24  0  0  0  0  0  0  0  0999 V2000
   -6.7608   23.1416  -16.3113 C   0  0  0  0  0  0  0  0  0  0  0  0
   -7.2787   21.9744  -15.7954 C   0  0  0  0  0  0  0  0  0  0  0  0
   -7.0524   20.8235  -16.4861 C   0  0  0  0  0  0  0  0  0  0  0  0
   -6.3112   20.8506  -17.6845 C   0  0  0  0  0  0  0  0  0  0  0  0
   -6.1207   19.3100  -18.4851 Cl  0  0  0  0  0  0  0  0  0  0  0  0
   -5.7866   21.9923  -18.2165 C   0  0  0  0  0  0  0  0  0  0  0  0
   -6.0434   23.1623  -17.4721 C   0  0  0  0  0  0  0  0  0  0  0  0
   -5.5531   24.3276  -17.9434 F   0  0  0  0  0  0  0  0  0  0  0  0
   -6.0637   24.8644  -14.7121 C   0  0  0  0  0  0  0  0  0  0  0  0
   -7.0072   24.3031  -15.5853 O   0  0  0  0  0  0  0  0  0  0  0  0
   -7.5433   19.6096  -16.0272 O   0  0  0  0  0  0  0  0  0  0  0  0
   -8.1678   19.4582  -14.7930 C   0  0  0  0  0  0  0  0  0  0  0  0
   -4.9849   22.1322  -19.4158 C   0  0  0  0  0  0  0  0  0  0  0  0
   -3.6910   22.1971  -19.5556 C   0  0  0  0  0  0  0  0  0  0  0  0
   -3.0289   22.3388  -20.8594 C   0  0  0  0  0  0  0  0  0  0  0  0
   -2.5189   23.4883  -21.0991 O   0  0  0  0  0  0  0  0  0  0  0  0
   -2.9103   21.3594  -21.8319 N   0  0  0  0  0  0  0  0  0  0  0  0
   -3.2980   20.4117  -21.7039 H   0  0  0  0  0  0  0  0  0  0  0  0
   -2.2377   21.6396  -23.0563 C   0  0  0  0  0  0  0  0  0  0  0  0
   -0.9470   21.4799  -23.2898 N   0  0  0  0  0  0  0  0  0  0  0  0
   -0.4602   21.7770  -24.4619 C   0  0  0  0  0  0  0  0  0  0  0  0
   -1.3246   22.2478  -25.4094 C   0  0  0  0  0  0  0  0  0  0  0  0
   -2.8074   22.2366  -24.5510 S   0  0  0  0  0  0  0  0  0  0  0  0
  9 10  1  0  0  0
 10  1  1  0  0  0
  1  2  2  0  0  0
  2  3  1  0  0  0
  3 11  1  0  0  0
 11 12  1  0  0  0
  3  4  2  0  0  0
  4  5  1  0  0  0
  4  6  1  0  0  0
  6 13  1  0  0  0
 13 14  2  0  0  0
 14 15  1  0  0  0
 15 16  2  0  0  0
 15 17  1  0  0  0
 17 19  1  0  0  0
 19 20  2  0  0  0
 20 21  1  0  0  0
 21 22  2  0  0  0
 22 23  1  0  0  0
  6  7  2  0  0  0
  7  8  1  0  0  0
  7  1  1  0  0  0
 23 19  1  0  0  0
 17 18  1  0  0  0
M  END
> <minimizedAffinity>
-4.25854

> <CNNscore>
0.2925344408

> <CNNaffinity>
5.2918977737

> <CNN_VS>
1.5480623245

> <CNNaffinity_variance>
0.7613061070

$$$$
[H]/C(C(=O)N([H])c1nc([H])c([H])s1)=C(/[H])c1c(F)c(OC([H])([H])[H])c([H])c(OC([H])([H])[H])c1Cl


 23 24  0  0  0  0  0  0  0  0999 V2000
   -2.0390   21.8441  -21.9996 C   0  0  0  0  0  0  0  0  0  0  0  0
   -0.7517   21.3910  -21.8146 C   0  0  0  0  0  0  0  0  0  0  0  0
    0.0841   21.4077  -22.8888 C   0  0  0  0  0  0  0  0  0  0  0  0
   -0.3747   21.8766  -24.1362 C   0  0  0  0  0  0  0  0  0  0  0  0
    0.7900   21.8156  -25.4365 Cl  0  0  0  0  0  0  0  0  0  0  0  0
   -1.6439   22.3314  -24.3461 C   0  0  0  0  0  0  0  0  0  0  0  0
   -2.4782   22.2974  -23.2096 C   0  0  0  0  0  0  0  0  0  0  0  0
   -3.7477   22.7328  -23.3484 F   0  0  0  0  0  0  0  0  0  0  0  0
   -2.4602   22.2627  -19.6208 C   0  0  0  0  0  0  0  0  0  0  0  0
   -2.8721   21.8159  -20.8851 O   0  0  0  0  0  0  0  0  0  0  0  0
    1.3950   20.9666  -22.7779 O   0  0  0  0  0  0  0  0  0  0  0  0
    1.9721   20.5902  -21.5690 C   0  0  0  0  0  0  0  0  0  0  0  0
   -2.2105   22.8646  -25.5688 C   0  0  0  0  0  0  0  0  0  0  0  0
   -2.5267   22.2600  -26.6789 C   0  0  0  0  0  0  0  0  0  0  0  0
   -3.1008   22.9556  -27.8386 C   0  0  0  0  0  0  0  0  0  0  0  0
   -2.3009   23.1504  -28.8189 O   0  0  0  0  0  0  0  0  0  0  0  0
   -4.4036   23.4100  -27.9625 N   0  0  0  0  0  0  0  0  0  0  0  0
   -5.0999   23.2861  -27.2110 H   0  0  0  0  0  0  0  0  0  0  0  0
   -4.8242   24.0721  -29.1518 C   0  0  0  0  0  0  0  0  0  0  0  0
   -5.5201   23.5340  -30.1379 N   0  0  0  0  0  0  0  0  0  0  0  0
   -5.8394   24.2576  -31.1740 C   0  0  0  0  0  0  0  0  0  0  0  0
   -5.4314   25.5613  -31.1901 C   0  0  0  0  0  0  0  0  0  0  0  0
   -4.6010   25.6750  -29.6956 S   0  0  0  0  0  0  0  0  0  0  0  0
  9 10  1  0  0  0
 10  1  1  0  0  0
  1  2  2  0  0  0
  2  3  1  0  0  0
  3 11  1  0  0  0
 11 12  1  0  0  0
  3  4  2  0  0  0
  4  5  1  0  0  0
  4  6  1  0  0  0
  6 13  1  0  0  0
 13 14  2  0  0  0
 14 15  1  0  0  0
 15 16  2  0  0  0
 15 17  1  0  0  0
 17 19  1  0  0  0
 19 20  2  0  0  0
 20 21  1  0  0  0
 21 22  2  0  0  0
 22 23  1  0  0  0
  6  7  2  0  0  0
  7  8  1  0  0  0
  7  1  1  0  0  0
 23 19  1  0  0  0
 17 18  1  0  0  0
M  END
> <minimizedAffinity>
-6.46986

> <CNNscore>
0.2738822699

> <CNNaffinity>
6.1948232651

> <CNN_VS>
1.6966522932

> <CNNaffinity_variance>
0.4430313706

$$$$
[H]c1c(OC([H])([H])[H])c([H])c(C([H])([H])[H])c([H])c1N1C([H])([H])c2c(nc(N([H])[H])c(-c3c(C(=O)OC([H])([H])[H])n([H])c4c([H])c([H])c(C(=O)N([H])C([H])([H])[H])c([H])c34)c2[H])C([H])([H])C1([H])[H]


 41 45  0  0  0  0  0  0  0  0999 V2000
   -4.6254   24.2109  -25.5567 C   0  0  0  0  0  0  0  0  0  0  0  0
   -5.2844   23.2907  -24.7783 C   0  0  0  0  0  0  0  0  0  0  0  0
   -6.0949   23.6914  -23.7007 C   0  0  0  0  0  0  0  0  0  0  0  0
   -6.7551   22.6207  -22.9179 C   0  0  0  0  0  0  0  0  0  0  0  0
   -7.7521   23.1536  -22.0636 N   0  0  0  0  0  0  0  0  0  0  0  0
   -8.3023   24.4692  -22.2832 C   0  0  0  0  0  0  0  0  0  0  0  0
   -7.1161   25.4549  -22.2584 C   0  0  0  0  0  0  0  0  0  0  0  0
   -6.2388   25.0321  -23.4102 C   0  0  0  0  0  0  0  0  0  0  0  0
   -5.5878   25.9085  -24.1817 N   0  0  0  0  0  0  0  0  0  0  0  0
   -4.7974   25.5362  -25.2308 C   0  0  0  0  0  0  0  0  0  0  0  0
   -4.1230   26.5060  -26.0257 N   0  0  0  0  0  0  0  0  0  0  0  0
   -3.1582   26.8584  -25.7674 H   0  0  0  0  0  0  0  0  0  0  0  0
   -4.5393   26.9147  -26.8931 H   0  0  0  0  0  0  0  0  0  0  0  0
   -4.0500   23.9584  -28.0256 C   0  0  0  0  0  0  0  0  0  0  0  0
   -2.9986   23.4721  -28.6717 N   0  0  0  0  0  0  0  0  0  0  0  0
   -2.0610   23.0300  -27.7851 C   0  0  0  0  0  0  0  0  0  0  0  0
   -0.8209   22.4525  -27.9231 C   0  0  0  0  0  0  0  0  0  0  0  0
   -0.0707   22.0962  -26.7944 C   0  0  0  0  0  0  0  0  0  0  0  0
   -0.5227   22.2994  -25.5163 C   0  0  0  0  0  0  0  0  0  0  0  0
   -1.7890   22.8892  -25.3935 C   0  0  0  0  0  0  0  0  0  0  0  0
   -2.5227   23.2378  -26.5040 C   0  0  0  0  0  0  0  0  0  0  0  0
   -3.7817   23.8255  -26.6755 C   0  0  0  0  0  0  0  0  0  0  0  0
   -2.8902   23.4277  -29.7173 H   0  0  0  0  0  0  0  0  0  0  0  0
    0.2371   21.9363  -24.3235 C   0  0  0  0  0  0  0  0  0  0  0  0
   -0.2727   21.9986  -23.1714 O   0  0  0  0  0  0  0  0  0  0  0  0
    1.5714   21.5058  -24.4615 N   0  0  0  0  0  0  0  0  0  0  0  0
    2.3297   21.1423  -23.2550 C   0  0  0  0  0  0  0  0  0  0  0  0
    2.1018   21.4106  -25.3463 H   0  0  0  0  0  0  0  0  0  0  0  0
   -5.2880   24.5380  -28.5660 C   0  0  0  0  0  0  0  0  0  0  0  0
   -6.3425   23.8667  -28.6688 O   0  0  0  0  0  0  0  0  0  0  0  0
   -5.1454   26.1893  -30.3340 C   0  0  0  0  0  0  0  0  0  0  0  0
   -5.3367   25.8600  -28.9860 O   0  0  0  0  0  0  0  0  0  0  0  0
   -8.2730   22.4279  -20.9237 C   0  0  0  0  0  0  0  0  0  0  0  0
   -9.3892   22.8403  -20.2470 C   0  0  0  0  0  0  0  0  0  0  0  0
   -9.9024   22.1864  -19.1508 C   0  0  0  0  0  0  0  0  0  0  0  0
  -11.1075   22.6558  -18.4407 C   0  0  0  0  0  0  0  0  0  0  0  0
   -9.2609   21.0560  -18.7093 C   0  0  0  0  0  0  0  0  0  0  0  0
   -8.1182   20.5794  -19.3524 C   0  0  0  0  0  0  0  0  0  0  0  0
   -7.6509   21.2839  -20.4513 C   0  0  0  0  0  0  0  0  0  0  0  0
   -7.4767   19.4424  -18.9054 O   0  0  0  0  0  0  0  0  0  0  0  0
   -7.9664   18.6367  -17.8641 C   0  0  0  0  0  0  0  0  0  0  0  0
 31 32  1  0  0  0
 32 29  1  0  0  0
 29 30  2  0  0  0
 29 14  1  0  0  0
 14 15  1  0  0  0
 15 16  1  0  0  0
 16 17  2  0  0  0
 17 18  1  0  0  0
 18 19  2  0  0  0
 19 20  1  0  0  0
 20 21  2  0  0  0
 21 22  1  0  0  0
 22  1  1  0  0  0
  1  2  2  0  0  0
  2  3  1  0  0  0
  3  4  1  0  0  0
  4  5  1  0  0  0
  5  6  1  0  0  0
  6  7  1  0  0  0
  7  8  1  0  0  0
  8  9  1  0  0  0
  9 10  2  0  0  0
 10 11  1  0  0  0
  5 33  1  0  0  0
 33 34  2  0  0  0
 34 35  1  0  0  0
 35 36  1  0  0  0
 35 37  2  0  0  0
 37 38  1  0  0  0
 38 40  1  0  0  0
 40 41  1  0  0  0
 38 39  2  0  0  0
 19 24  1  0  0  0
 24 25  2  0  0  0
 24 26  1  0  0  0
 26 27  1  0  0  0
 22 14  2  0  0  0
 10  1  1  0  0  0
 39 33  1  0  0  0
 21 16  1  0  0  0
  8  3  2  0  0  0
 15 23  1  0  0  0
 11 12  1  0  0  0
 11 13  1  0  0  0
 26 28  1  0  0  0
M  END
> <minimizedAffinity>
-10.23793

> <CNNscore>
0.2729251683

> <CNNaffinity>
6.8292679787

> <CNN_VS>
1.8638790846

> <CNNaffinity_variance>
0.1618993729

$$$$
[H]c1c(OC([H])([H])[H])c([H])c(C([H])([H])[H])c([H])c1N1C([H])([H])c2c(nc(N([H])[H])c(-c3c(C(=O)OC([H])([H])[H])n([H])c4c([H])c([H])c(C(=O)N([H])C([H])([H])[H])c([H])c34)c2[H])C([H])([H])C1([H])[H]


 41 45  0  0  0  0  0  0  0  0999 V2000
   -0.2610   21.3544  -22.2736 C   0  0  0  0  0  0  0  0  0  0  0  0
   -1.4192   21.7138  -22.9190 C   0  0  0  0  0  0  0  0  0  0  0  0
   -1.4019   22.1821  -24.2453 C   0  0  0  0  0  0  0  0  0  0  0  0
   -2.7039   22.5521  -24.8476 C   0  0  0  0  0  0  0  0  0  0  0  0
   -2.5871   22.7262  -26.2490 N   0  0  0  0  0  0  0  0  0  0  0  0
   -1.4674   22.1852  -26.9807 C   0  0  0  0  0  0  0  0  0  0  0  0
   -0.1942   22.7818  -26.3464 C   0  0  0  0  0  0  0  0  0  0  0  0
   -0.2043   22.2867  -24.9217 C   0  0  0  0  0  0  0  0  0  0  0  0
    0.9090   21.9312  -24.2729 N   0  0  0  0  0  0  0  0  0  0  0  0
    0.9095   21.4751  -22.9860 C   0  0  0  0  0  0  0  0  0  0  0  0
    2.1212   21.1074  -22.3351 N   0  0  0  0  0  0  0  0  0  0  0  0
    2.7006   21.8169  -21.8037 H   0  0  0  0  0  0  0  0  0  0  0  0
    2.4964   20.1317  -22.3479 H   0  0  0  0  0  0  0  0  0  0  0  0
   -0.7746   21.4808  -19.7815 C   0  0  0  0  0  0  0  0  0  0  0  0
   -0.5297   20.6735  -18.7579 N   0  0  0  0  0  0  0  0  0  0  0  0
    0.1355   19.5605  -19.1815 C   0  0  0  0  0  0  0  0  0  0  0  0
    0.6153   18.4406  -18.5442 C   0  0  0  0  0  0  0  0  0  0  0  0
    1.2758   17.4375  -19.2661 C   0  0  0  0  0  0  0  0  0  0  0  0
    1.4762   17.5158  -20.6200 C   0  0  0  0  0  0  0  0  0  0  0  0
    0.9809   18.6642  -21.2540 C   0  0  0  0  0  0  0  0  0  0  0  0
    0.3327   19.6471  -20.5421 C   0  0  0  0  0  0  0  0  0  0  0  0
   -0.2492   20.8678  -20.9043 C   0  0  0  0  0  0  0  0  0  0  0  0
   -0.8036   20.8533  -17.7582 H   0  0  0  0  0  0  0  0  0  0  0  0
    2.1622   16.4866  -21.3958 C   0  0  0  0  0  0  0  0  0  0  0  0
    1.5288   15.5536  -21.9610 O   0  0  0  0  0  0  0  0  0  0  0  0
    3.5650   16.5358  -21.5168 N   0  0  0  0  0  0  0  0  0  0  0  0
    4.2481   15.4951  -22.2997 C   0  0  0  0  0  0  0  0  0  0  0  0
    4.1964   17.2460  -21.1044 H   0  0  0  0  0  0  0  0  0  0  0  0
   -1.4600   22.7812  -19.7979 C   0  0  0  0  0  0  0  0  0  0  0  0
   -0.8254   23.8630  -19.8019 O   0  0  0  0  0  0  0  0  0  0  0  0
   -3.6277   21.7009  -19.8789 C   0  0  0  0  0  0  0  0  0  0  0  0
   -2.8456   22.8608  -19.8095 O   0  0  0  0  0  0  0  0  0  0  0  0
   -3.5650   23.4554  -27.0295 C   0  0  0  0  0  0  0  0  0  0  0  0
   -4.0322   22.9898  -28.2290 C   0  0  0  0  0  0  0  0  0  0  0  0
   -4.9473   23.6630  -29.0049 C   0  0  0  0  0  0  0  0  0  0  0  0
   -5.4318   23.1361  -30.2951 C   0  0  0  0  0  0  0  0  0  0  0  0
   -5.4205   24.8694  -28.5524 C   0  0  0  0  0  0  0  0  0  0  0  0
   -4.9873   25.4027  -27.3382 C   0  0  0  0  0  0  0  0  0  0  0  0
   -4.0635   24.6756  -26.6032 C   0  0  0  0  0  0  0  0  0  0  0  0
   -5.4659   26.6157  -26.8869 O   0  0  0  0  0  0  0  0  0  0  0  0
   -5.0254   27.2289  -25.7024 C   0  0  0  0  0  0  0  0  0  0  0  0
 31 32  1  0  0  0
 32 29  1  0  0  0
 29 30  2  0  0  0
 29 14  1  0  0  0
 14 15  1  0  0  0
 15 16  1  0  0  0
 16 17  2  0  0  0
 17 18  1  0  0  0
 18 19  2  0  0  0
 19 20  1  0  0  0
 20 21  2  0  0  0
 21 22  1  0  0  0
 22  1  1  0  0  0
  1  2  2  0  0  0
  2  3  1  0  0  0
  3  4  1  0  0  0
  4  5  1  0  0  0
  5  6  1  0  0  0
  6  7  1  0  0  0
  7  8  1  0  0  0
  8  9  1  0  0  0
  9 10  2  0  0  0
 10 11  1  0  0  0
  5 33  1  0  0  0
 33 34  2  0  0  0
 34 35  1  0  0  0
 35 36  1  0  0  0
 35 37  2  0  0  0
 37 38  1  0  0  0
 38 40  1  0  0  0
 40 41  1  0  0  0
 38 39  2  0  0  0
 19 24  1  0  0  0
 24 25  2  0  0  0
 24 26  1  0  0  0
 26 27  1  0  0  0
 22 14  2  0  0  0
 10  1  1  0  0  0
 39 33  1  0  0  0
 21 16  1  0  0  0
  8  3  2  0  0  0
 15 23  1  0  0  0
 11 12  1  0  0  0
 11 13  1  0  0  0
 26 28  1  0  0  0
M  END
> <minimizedAffinity>
-9.29861

> <CNNscore>
0.2492560446

> <CNNaffinity>
6.7040510178

> <CNN_VS>
1.6710252762

> <CNNaffinity_variance>
0.1994935721

$$$$
[H]c1c(OC([H])([H])[H])c([H])c(C([H])([H])[H])c([H])c1N1C([H])([H])c2c(nc(N([H])[H])c(-c3c(C(=O)OC([H])([H])[H])n([H])c4c([H])c([H])c(C(=O)N([H])C([H])([H])[H])c([H])c34)c2[H])C([H])([H])C1([H])[H]


 41 45  0  0  0  0  0  0  0  0999 V2000
   -4.5711   23.9617  -25.3947 C   0  0  0  0  0  0  0  0  0  0  0  0
   -5.1762   23.0286  -24.5882 C   0  0  0  0  0  0  0  0  0  0  0  0
   -5.9881   23.4142  -23.5062 C   0  0  0  0  0  0  0  0  0  0  0  0
   -6.5874   22.3309  -22.6923 C   0  0  0  0  0  0  0  0  0  0  0  0
   -7.5949   22.8356  -21.8332 N   0  0  0  0  0  0  0  0  0  0  0  0
   -8.2074   24.1203  -22.0699 C   0  0  0  0  0  0  0  0  0  0  0  0
   -7.0669   25.1588  -22.0830 C   0  0  0  0  0  0  0  0  0  0  0  0
   -6.1884   24.7527  -23.2398 C   0  0  0  0  0  0  0  0  0  0  0  0
   -5.5892   25.6417  -24.0384 N   0  0  0  0  0  0  0  0  0  0  0  0
   -4.7982   25.2842  -25.0922 C   0  0  0  0  0  0  0  0  0  0  0  0
   -4.1803   26.2670  -25.9164 N   0  0  0  0  0  0  0  0  0  0  0  0
   -3.2288   26.6677  -25.6802 H   0  0  0  0  0  0  0  0  0  0  0  0
   -4.6275   26.6389  -26.7850 H   0  0  0  0  0  0  0  0  0  0  0  0
   -4.0167   23.6960  -27.8671 C   0  0  0  0  0  0  0  0  0  0  0  0
   -2.9559   23.2398  -28.5198 N   0  0  0  0  0  0  0  0  0  0  0  0
   -1.9919   22.8452  -27.6392 C   0  0  0  0  0  0  0  0  0  0  0  0
   -0.7329   22.3121  -27.7851 C   0  0  0  0  0  0  0  0  0  0  0  0
    0.0437   21.9998  -26.6612 C   0  0  0  0  0  0  0  0  0  0  0  0
   -0.4000   22.2041  -25.3803 C   0  0  0  0  0  0  0  0  0  0  0  0
   -1.6857   22.7482  -25.2496 C   0  0  0  0  0  0  0  0  0  0  0  0
   -2.4454   23.0538  -26.3553 C   0  0  0  0  0  0  0  0  0  0  0  0
   -3.7274   23.5921  -26.5188 C   0  0  0  0  0  0  0  0  0  0  0  0
   -2.8587   23.1848  -29.5659 H   0  0  0  0  0  0  0  0  0  0  0  0
    0.3872   21.8861  -24.1925 C   0  0  0  0  0  0  0  0  0  0  0  0
   -0.0973   21.9883  -23.0324 O   0  0  0  0  0  0  0  0  0  0  0  0
    1.7197   21.4546  -24.3445 N   0  0  0  0  0  0  0  0  0  0  0  0
    2.5057   21.1367  -23.1429 C   0  0  0  0  0  0  0  0  0  0  0  0
    2.2308   21.3292  -25.2369 H   0  0  0  0  0  0  0  0  0  0  0  0
   -5.2820   24.2217  -28.3996 C   0  0  0  0  0  0  0  0  0  0  0  0
   -6.2930   23.4932  -28.5417 O   0  0  0  0  0  0  0  0  0  0  0  0
   -4.9005   26.0071  -29.9931 C   0  0  0  0  0  0  0  0  0  0  0  0
   -5.4059   25.5542  -28.7679 O   0  0  0  0  0  0  0  0  0  0  0  0
   -8.0655   22.1104  -20.6713 C   0  0  0  0  0  0  0  0  0  0  0  0
   -7.3364   21.1040  -20.0973 C   0  0  0  0  0  0  0  0  0  0  0  0
   -7.7590   20.3828  -19.0047 C   0  0  0  0  0  0  0  0  0  0  0  0
   -6.9509   19.3020  -18.4082 C   0  0  0  0  0  0  0  0  0  0  0  0
   -8.9800   20.6883  -18.4571 C   0  0  0  0  0  0  0  0  0  0  0  0
   -9.7749   21.7027  -18.9915 C   0  0  0  0  0  0  0  0  0  0  0  0
   -9.2926   22.3922  -20.0934 C   0  0  0  0  0  0  0  0  0  0  0  0
  -11.0016   22.0067  -18.4375 O   0  0  0  0  0  0  0  0  0  0  0  0
  -11.2652   21.9426  -17.0592 C   0  0  0  0  0  0  0  0  0  0  0  0
 31 32  1  0  0  0
 32 29  1  0  0  0
 29 30  2  0  0  0
 29 14  1  0  0  0
 14 15  1  0  0  0
 15 16  1  0  0  0
 16 17  2  0  0  0
 17 18  1  0  0  0
 18 19  2  0  0  0
 19 20  1  0  0  0
 20 21  2  0  0  0
 21 22  1  0  0  0
 22  1  1  0  0  0
  1  2  2  0  0  0
  2  3  1  0  0  0
  3  4  1  0  0  0
  4  5  1  0  0  0
  5  6  1  0  0  0
  6  7  1  0  0  0
  7  8  1  0  0  0
  8  9  1  0  0  0
  9 10  2  0  0  0
 10 11  1  0  0  0
  5 33  1  0  0  0
 33 34  2  0  0  0
 34 35  1  0  0  0
 35 36  1  0  0  0
 35 37  2  0  0  0
 37 38  1  0  0  0
 38 40  1  0  0  0
 40 41  1  0  0  0
 38 39  2  0  0  0
 19 24  1  0  0  0
 24 25  2  0  0  0
 24 26  1  0  0  0
 26 27  1  0  0  0
 22 14  2  0  0  0
 10  1  1  0  0  0
 39 33  1  0  0  0
 21 16  1  0  0  0
  8  3  2  0  0  0
 15 23  1  0  0  0
 11 12  1  0  0  0
 11 13  1  0  0  0
 26 28  1  0  0  0
M  END
> <minimizedAffinity>
-10.15547

> <CNNscore>
0.2387579083

> <CNNaffinity>
6.7699484825

> <CNN_VS>
1.6163787842

> <CNNaffinity_variance>
0.0946664065

$$$$
[H]c1c(OC([H])([H])[H])c([H])c(C([H])([H])[H])c([H])c1N1C([H])([H])c2c(nc(N([H])[H])c(-c3c(C(=O)OC([H])([H])[H])n([H])c4c([H])c([H])c(C(=O)N([H])C([H])([H])[H])c([H])c34)c2[H])C([H])([H])C1([H])[H]


 41 45  0  0  0  0  0  0  0  0999 V2000
   -4.8076   23.9744  -24.2369 C   0  0  0  0  0  0  0  0  0  0  0  0
   -5.4789   22.9642  -23.5919 C   0  0  0  0  0  0  0  0  0  0  0  0
   -6.1114   23.1808  -22.3542 C   0  0  0  0  0  0  0  0  0  0  0  0
   -6.8009   22.0238  -21.7370 C   0  0  0  0  0  0  0  0  0  0  0  0
   -7.6270   22.4360  -20.6619 N   0  0  0  0  0  0  0  0  0  0  0  0
   -8.0403   23.8109  -20.5187 C   0  0  0  0  0  0  0  0  0  0  0  0
   -6.7514   24.6550  -20.4437 C   0  0  0  0  0  0  0  0  0  0  0  0
   -6.0639   24.4279  -21.7669 C   0  0  0  0  0  0  0  0  0  0  0  0
   -5.4049   25.3947  -22.4135 N   0  0  0  0  0  0  0  0  0  0  0  0
   -4.7856   25.2011  -23.6148 C   0  0  0  0  0  0  0  0  0  0  0  0
   -4.0953   26.2616  -24.2673 N   0  0  0  0  0  0  0  0  0  0  0  0
   -3.0731   26.4584  -24.0722 H   0  0  0  0  0  0  0  0  0  0  0  0
   -4.5550   26.8921  -24.9628 H   0  0  0  0  0  0  0  0  0  0  0  0
   -4.6240   24.0892  -26.7753 C   0  0  0  0  0  0  0  0  0  0  0  0
   -3.6808   23.7356  -27.6382 N   0  0  0  0  0  0  0  0  0  0  0  0
   -2.6096   23.2080  -26.9788 C   0  0  0  0  0  0  0  0  0  0  0  0
   -1.3989   22.7001  -27.3870 C   0  0  0  0  0  0  0  0  0  0  0  0
   -0.4759   22.2170  -26.4498 C   0  0  0  0  0  0  0  0  0  0  0  0
   -0.7241   22.2238  -25.1016 C   0  0  0  0  0  0  0  0  0  0  0  0
   -1.9632   22.7450  -24.7026 C   0  0  0  0  0  0  0  0  0  0  0  0
   -2.8670   23.2186  -25.6256 C   0  0  0  0  0  0  0  0  0  0  0  0
   -4.1451   23.7791  -25.5156 C   0  0  0  0  0  0  0  0  0  0  0  0
   -3.7375   23.8412  -28.6835 H   0  0  0  0  0  0  0  0  0  0  0  0
    0.2186   21.7253  -24.1043 C   0  0  0  0  0  0  0  0  0  0  0  0
   -0.1506   21.4356  -22.9334 O   0  0  0  0  0  0  0  0  0  0  0  0
    1.5729   21.5634  -24.4569 N   0  0  0  0  0  0  0  0  0  0  0  0
    2.5157   21.0611  -23.4463 C   0  0  0  0  0  0  0  0  0  0  0  0
    1.9995   21.7632  -25.3796 H   0  0  0  0  0  0  0  0  0  0  0  0
   -5.9393   24.6939  -27.0304 C   0  0  0  0  0  0  0  0  0  0  0  0
   -6.0570   25.8040  -27.6022 O   0  0  0  0  0  0  0  0  0  0  0  0
   -7.9822   24.6523  -25.7276 C   0  0  0  0  0  0  0  0  0  0  0  0
   -7.1091   24.0541  -26.6450 O   0  0  0  0  0  0  0  0  0  0  0  0
   -8.0988   21.5201  -19.6442 C   0  0  0  0  0  0  0  0  0  0  0  0
   -9.3101   21.6797  -19.0269 C   0  0  0  0  0  0  0  0  0  0  0  0
   -9.7830   20.8403  -18.0449 C   0  0  0  0  0  0  0  0  0  0  0  0
  -11.0933   21.0386  -17.3965 C   0  0  0  0  0  0  0  0  0  0  0  0
   -8.9977   19.7817  -17.6613 C   0  0  0  0  0  0  0  0  0  0  0  0
   -7.7522   19.5595  -18.2492 C   0  0  0  0  0  0  0  0  0  0  0  0
   -7.3325   20.4418  -19.2329 C   0  0  0  0  0  0  0  0  0  0  0  0
   -6.9663   18.4938  -17.8609 O   0  0  0  0  0  0  0  0  0  0  0  0
   -6.9397   17.2643  -18.5397 C   0  0  0  0  0  0  0  0  0  0  0  0
 31 32  1  0  0  0
 32 29  1  0  0  0
 29 30  2  0  0  0
 29 14  1  0  0  0
 14 15  1  0  0  0
 15 16  1  0  0  0
 16 17  2  0  0  0
 17 18  1  0  0  0
 18 19  2  0  0  0
 19 20  1  0  0  0
 20 21  2  0  0  0
 21 22  1  0  0  0
 22  1  1  0  0  0
  1  2  2  0  0  0
  2  3  1  0  0  0
  3  4  1  0  0  0
  4  5  1  0  0  0
  5  6  1  0  0  0
  6  7  1  0  0  0
  7  8  1  0  0  0
  8  9  1  0  0  0
  9 10  2  0  0  0
 10 11  1  0  0  0
  5 33  1  0  0  0
 33 34  2  0  0  0
 34 35  1  0  0  0
 35 36  1  0  0  0
 35 37  2  0  0  0
 37 38  1  0  0  0
 38 40  1  0  0  0
 40 41  1  0  0  0
 38 39  2  0  0  0
 19 24  1  0  0  0
 24 25  2  0  0  0
 24 26  1  0  0  0
 26 27  1  0  0  0
 22 14  2  0  0  0
 10  1  1  0  0  0
 39 33  1  0  0  0
 21 16  1  0  0  0
  8  3  2  0  0  0
 15 23  1  0  0  0
 11 12  1  0  0  0
 11 13  1  0  0  0
 26 28  1  0  0  0
M  END
> <minimizedAffinity>
-9.25713

> <CNNscore>
0.2136954218

> <CNNaffinity>
6.4508466721

> <CNN_VS>
1.3785164356

> <CNNaffinity_variance>
0.1922296286

$$$$
[H]c1c(OC([H])([H])[H])c([H])c(C([H])([H])[H])c([H])c1N1C([H])([H])c2c(nc(N([H])[H])c(-c3c(C(=O)OC([H])([H])[H])n([H])c4c([H])c([H])c(C(=O)N([H])C([H])([H])[H])c([H])c34)c2[H])C([H])([H])C1([H])[H]


 41 45  0  0  0  0  0  0  0  0999 V2000
   -6.1519   20.7621  -19.3246 C   0  0  0  0  0  0  0  0  0  0  0  0
   -5.0685   20.9788  -20.1410 C   0  0  0  0  0  0  0  0  0  0  0  0
   -5.2242   21.4922  -21.4413 C   0  0  0  0  0  0  0  0  0  0  0  0
   -3.9935   21.6809  -22.2444 C   0  0  0  0  0  0  0  0  0  0  0  0
   -4.2522   22.4597  -23.3996 N   0  0  0  0  0  0  0  0  0  0  0  0
   -5.4328   23.2831  -23.4996 C   0  0  0  0  0  0  0  0  0  0  0  0
   -6.6433   22.3460  -23.3095 C   0  0  0  0  0  0  0  0  0  0  0  0
   -6.4846   21.7881  -21.9172 C   0  0  0  0  0  0  0  0  0  0  0  0
   -7.5230   21.5688  -21.1045 N   0  0  0  0  0  0  0  0  0  0  0  0
   -7.3892   21.0710  -19.8403 C   0  0  0  0  0  0  0  0  0  0  0  0
   -8.5251   20.8539  -19.0098 N   0  0  0  0  0  0  0  0  0  0  0  0
   -9.0570   19.9383  -19.0288 H   0  0  0  0  0  0  0  0  0  0  0  0
   -8.8879   21.5769  -18.3476 H   0  0  0  0  0  0  0  0  0  0  0  0
   -5.9681   18.9067  -17.5885 C   0  0  0  0  0  0  0  0  0  0  0  0
   -5.8472   18.9026  -16.2676 N   0  0  0  0  0  0  0  0  0  0  0  0
   -5.8199   20.1803  -15.7908 C   0  0  0  0  0  0  0  0  0  0  0  0
   -5.7118   20.7222  -14.5318 C   0  0  0  0  0  0  0  0  0  0  0  0
   -5.7131   22.1118  -14.3512 C   0  0  0  0  0  0  0  0  0  0  0  0
   -5.8202   22.9899  -15.3985 C   0  0  0  0  0  0  0  0  0  0  0  0
   -5.9296   22.4206  -16.6753 C   0  0  0  0  0  0  0  0  0  0  0  0
   -5.9279   21.0557  -16.8489 C   0  0  0  0  0  0  0  0  0  0  0  0
   -6.0207   20.2327  -17.9776 C   0  0  0  0  0  0  0  0  0  0  0  0
   -5.7809   18.0446  -15.6623 H   0  0  0  0  0  0  0  0  0  0  0  0
   -5.8260   24.4411  -15.2384 C   0  0  0  0  0  0  0  0  0  0  0  0
   -5.7714   25.2154  -16.2328 O   0  0  0  0  0  0  0  0  0  0  0  0
   -5.8943   24.9909  -13.9431 N   0  0  0  0  0  0  0  0  0  0  0  0
   -5.8994   26.4536  -13.7908 C   0  0  0  0  0  0  0  0  0  0  0  0
   -5.9442   24.4667  -13.0510 H   0  0  0  0  0  0  0  0  0  0  0  0
   -6.0394   17.7717  -18.5200 C   0  0  0  0  0  0  0  0  0  0  0  0
   -7.1265   17.3912  -19.0165 O   0  0  0  0  0  0  0  0  0  0  0  0
   -4.9299   15.6820  -19.0441 C   0  0  0  0  0  0  0  0  0  0  0  0
   -4.8976   17.0735  -18.8876 O   0  0  0  0  0  0  0  0  0  0  0  0
   -3.3662   22.4756  -24.5450 C   0  0  0  0  0  0  0  0  0  0  0  0
   -2.0131   22.3094  -24.4205 C   0  0  0  0  0  0  0  0  0  0  0  0
   -1.1398   22.3356  -25.4832 C   0  0  0  0  0  0  0  0  0  0  0  0
    0.3150   22.1545  -25.3176 C   0  0  0  0  0  0  0  0  0  0  0  0
   -1.6521   22.5391  -26.7403 C   0  0  0  0  0  0  0  0  0  0  0  0
   -3.0216   22.7153  -26.9396 C   0  0  0  0  0  0  0  0  0  0  0  0
   -3.8489   22.6786  -25.8275 C   0  0  0  0  0  0  0  0  0  0  0  0
   -3.5323   22.9191  -28.2052 O   0  0  0  0  0  0  0  0  0  0  0  0
   -3.5738   24.1769  -28.8293 C   0  0  0  0  0  0  0  0  0  0  0  0
 31 32  1  0  0  0
 32 29  1  0  0  0
 29 30  2  0  0  0
 29 14  1  0  0  0
 14 15  1  0  0  0
 15 16  1  0  0  0
 16 17  2  0  0  0
 17 18  1  0  0  0
 18 19  2  0  0  0
 19 20  1  0  0  0
 20 21  2  0  0  0
 21 22  1  0  0  0
 22  1  1  0  0  0
  1  2  2  0  0  0
  2  3  1  0  0  0
  3  4  1  0  0  0
  4  5  1  0  0  0
  5  6  1  0  0  0
  6  7  1  0  0  0
  7  8  1  0  0  0
  8  9  1  0  0  0
  9 10  2  0  0  0
 10 11  1  0  0  0
  5 33  1  0  0  0
 33 34  2  0  0  0
 34 35  1  0  0  0
 35 36  1  0  0  0
 35 37  2  0  0  0
 37 38  1  0  0  0
 38 40  1  0  0  0
 40 41  1  0  0  0
 38 39  2  0  0  0
 19 24  1  0  0  0
 24 25  2  0  0  0
 24 26  1  0  0  0
 26 27  1  0  0  0
 22 14  2  0  0  0
 10  1  1  0  0  0
 39 33  1  0  0  0
 21 16  1  0  0  0
  8  3  2  0  0  0
 15 23  1  0  0  0
 11 12  1  0  0  0
 11 13  1  0  0  0
 26 28  1  0  0  0
M  END
> <minimizedAffinity>
-7.32692

> <CNNscore>
0.1892246455

> <CNNaffinity>
6.0684232712

> <CNN_VS>
1.1482952833

> <CNNaffinity_variance>
0.0494583845

$$$$
[H]c1c(OC([H])([H])[H])c([H])c(C([H])([H])[H])c([H])c1N1C([H])([H])c2c(nc(N([H])[H])c(-c3c(C(=O)OC([H])([H])[H])n([H])c4c([H])c([H])c(C(=O)N([H])C([H])([H])[H])c([H])c34)c2[H])C([H])([H])C1([H])[H]


 41 45  0  0  0  0  0  0  0  0999 V2000
    2.0103   20.1534  -21.5386 C   0  0  0  0  0  0  0  0  0  0  0  0
    0.7277   20.6454  -21.5482 C   0  0  0  0  0  0  0  0  0  0  0  0
    0.2290   21.3650  -22.6492 C   0  0  0  0  0  0  0  0  0  0  0  0
   -1.1642   21.8604  -22.5567 C   0  0  0  0  0  0  0  0  0  0  0  0
   -1.6326   22.3051  -23.8180 N   0  0  0  0  0  0  0  0  0  0  0  0
   -0.9821   21.9061  -25.0424 C   0  0  0  0  0  0  0  0  0  0  0  0
    0.4900   22.3524  -24.9273 C   0  0  0  0  0  0  0  0  0  0  0  0
    1.0341   21.5872  -23.7469 C   0  0  0  0  0  0  0  0  0  0  0  0
    2.2781   21.0988  -23.7143 N   0  0  0  0  0  0  0  0  0  0  0  0
    2.7774   20.3987  -22.6537 C   0  0  0  0  0  0  0  0  0  0  0  0
    4.1098   19.8969  -22.6638 N   0  0  0  0  0  0  0  0  0  0  0  0
    4.9234   20.4818  -22.3209 H   0  0  0  0  0  0  0  0  0  0  0  0
    4.3506   18.9387  -23.0053 H   0  0  0  0  0  0  0  0  0  0  0  0
    2.3903   18.0631  -20.1328 C   0  0  0  0  0  0  0  0  0  0  0  0
    3.0595   17.8271  -19.0121 N   0  0  0  0  0  0  0  0  0  0  0  0
    3.6472   18.9726  -18.5616 C   0  0  0  0  0  0  0  0  0  0  0  0
    4.4326   19.2729  -17.4737 C   0  0  0  0  0  0  0  0  0  0  0  0
    4.9002   20.5782  -17.2705 C   0  0  0  0  0  0  0  0  0  0  0  0
    4.6063   21.6069  -18.1275 C   0  0  0  0  0  0  0  0  0  0  0  0
    3.8045   21.2835  -19.2315 C   0  0  0  0  0  0  0  0  0  0  0  0
    3.3472   20.0007  -19.4279 C   0  0  0  0  0  0  0  0  0  0  0  0
    2.5516   19.4072  -20.4152 C   0  0  0  0  0  0  0  0  0  0  0  0
    3.1345   16.8954  -18.5293 H   0  0  0  0  0  0  0  0  0  0  0  0
    5.0786   22.9755  -17.9387 C   0  0  0  0  0  0  0  0  0  0  0  0
    6.0422   23.4397  -18.6073 O   0  0  0  0  0  0  0  0  0  0  0  0
    4.4437   23.7981  -16.9873 N   0  0  0  0  0  0  0  0  0  0  0  0
    4.9259   25.1752  -16.8032 C   0  0  0  0  0  0  0  0  0  0  0  0
    3.6462   23.5381  -16.3794 H   0  0  0  0  0  0  0  0  0  0  0  0
    1.6100   17.1349  -20.9638 C   0  0  0  0  0  0  0  0  0  0  0  0
    0.3746   17.2744  -21.1290 O   0  0  0  0  0  0  0  0  0  0  0  0
    3.0690   16.2670  -22.6931 C   0  0  0  0  0  0  0  0  0  0  0  0
    2.2160   16.0613  -21.6013 O   0  0  0  0  0  0  0  0  0  0  0  0
   -2.7745   23.1843  -23.9612 C   0  0  0  0  0  0  0  0  0  0  0  0
   -3.5327   23.5723  -22.8895 C   0  0  0  0  0  0  0  0  0  0  0  0
   -4.6333   24.3917  -22.9898 C   0  0  0  0  0  0  0  0  0  0  0  0
   -5.4323   24.7923  -21.8160 C   0  0  0  0  0  0  0  0  0  0  0  0
   -4.9928   24.8476  -24.2336 C   0  0  0  0  0  0  0  0  0  0  0  0
   -4.2641   24.4918  -25.3689 C   0  0  0  0  0  0  0  0  0  0  0  0
   -3.1655   23.6628  -25.2010 C   0  0  0  0  0  0  0  0  0  0  0  0
   -4.6288   24.9528  -26.6173 O   0  0  0  0  0  0  0  0  0  0  0  0
   -4.5159   24.1857  -27.7886 C   0  0  0  0  0  0  0  0  0  0  0  0
 31 32  1  0  0  0
 32 29  1  0  0  0
 29 30  2  0  0  0
 29 14  1  0  0  0
 14 15  1  0  0  0
 15 16  1  0  0  0
 16 17  2  0  0  0
 17 18  1  0  0  0
 18 19  2  0  0  0
 19 20  1  0  0  0
 20 21  2  0  0  0
 21 22  1  0  0  0
 22  1  1  0  0  0
  1  2  2  0  0  0
  2  3  1  0  0  0
  3  4  1  0  0  0
  4  5  1  0  0  0
  5  6  1  0  0  0
  6  7  1  0  0  0
  7  8  1  0  0  0
  8  9  1  0  0  0
  9 10  2  0  0  0
 10 11  1  0  0  0
  5 33  1  0  0  0
 33 34  2  0  0  0
 34 35  1  0  0  0
 35 36  1  0  0  0
 35 37  2  0  0  0
 37 38  1  0  0  0
 38 40  1  0  0  0
 40 41  1  0  0  0
 38 39  2  0  0  0
 19 24  1  0  0  0
 24 25  2  0  0  0
 24 26  1  0  0  0
 26 27  1  0  0  0
 22 14  2  0  0  0
 10  1  1  0  0  0
 39 33  1  0  0  0
 21 16  1  0  0  0
  8  3  2  0  0  0
 15 23  1  0  0  0
 11 12  1  0  0  0
 11 13  1  0  0  0
 26 28  1  0  0  0
M  END
> <minimizedAffinity>
-7.64753

> <CNNscore>
0.1444427371

> <CNNaffinity>
5.8856015205

> <CNN_VS>
0.8501324058

> <CNNaffinity_variance>
0.1409681886

$$$$
[H]c1c(OC([H])([H])[H])c([H])c(C([H])([H])[H])c([H])c1N1C([H])([H])c2c(nc(N([H])[H])c(-c3c(C(=O)OC([H])([H])[H])n([H])c4c([H])c([H])c(C(=O)N([H])C([H])([H])[H])c([H])c34)c2[H])C([H])([H])C1([H])[H]


 41 45  0  0  0  0  0  0  0  0999 V2000
   -6.3438   21.2225  -19.7911 C   0  0  0  0  0  0  0  0  0  0  0  0
   -5.1794   21.4474  -20.4844 C   0  0  0  0  0  0  0  0  0  0  0  0
   -5.1946   21.7715  -21.8532 C   0  0  0  0  0  0  0  0  0  0  0  0
   -3.8844   21.9862  -22.5106 C   0  0  0  0  0  0  0  0  0  0  0  0
   -4.0451   22.5797  -23.7874 N   0  0  0  0  0  0  0  0  0  0  0  0
   -5.2677   23.2533  -24.1523 C   0  0  0  0  0  0  0  0  0  0  0  0
   -6.4056   22.2247  -23.9889 C   0  0  0  0  0  0  0  0  0  0  0  0
   -6.3964   21.8686  -22.5232 C   0  0  0  0  0  0  0  0  0  0  0  0
   -7.5157   21.6454  -21.8274 N   0  0  0  0  0  0  0  0  0  0  0  0
   -7.5183   21.3298  -20.4990 C   0  0  0  0  0  0  0  0  0  0  0  0
   -8.7364   21.1007  -19.7985 N   0  0  0  0  0  0  0  0  0  0  0  0
   -9.1775   20.1388  -19.7566 H   0  0  0  0  0  0  0  0  0  0  0  0
   -9.2513   21.8594  -19.2964 H   0  0  0  0  0  0  0  0  0  0  0  0
   -6.2270   21.7429  -17.2999 C   0  0  0  0  0  0  0  0  0  0  0  0
   -6.2986   20.9938  -16.2076 N   0  0  0  0  0  0  0  0  0  0  0  0
   -6.4711   19.6830  -16.5430 C   0  0  0  0  0  0  0  0  0  0  0  0
   -6.6017   18.5250  -15.8132 C   0  0  0  0  0  0  0  0  0  0  0  0
   -6.7708   17.2919  -16.4569 C   0  0  0  0  0  0  0  0  0  0  0  0
   -6.8143   17.1742  -17.8220 C   0  0  0  0  0  0  0  0  0  0  0  0
   -6.6795   18.3645  -18.5509 C   0  0  0  0  0  0  0  0  0  0  0  0
   -6.5138   19.5736  -17.9155 C   0  0  0  0  0  0  0  0  0  0  0  0
   -6.3578   20.8859  -18.3774 C   0  0  0  0  0  0  0  0  0  0  0  0
   -6.2333   21.3469  -15.2187 H   0  0  0  0  0  0  0  0  0  0  0  0
   -6.9875   15.9024  -18.5180 C   0  0  0  0  0  0  0  0  0  0  0  0
   -7.8335   15.0493  -18.1339 O   0  0  0  0  0  0  0  0  0  0  0  0
   -6.1914   15.6203  -19.6456 N   0  0  0  0  0  0  0  0  0  0  0  0
   -6.3720   14.3370  -20.3406 C   0  0  0  0  0  0  0  0  0  0  0  0
   -5.4666   16.2339  -20.0596 H   0  0  0  0  0  0  0  0  0  0  0  0
   -6.0456   23.1966  -17.4212 C   0  0  0  0  0  0  0  0  0  0  0  0
   -6.9985   23.9971  -17.2657 O   0  0  0  0  0  0  0  0  0  0  0  0
   -3.6314   23.1608  -17.2137 C   0  0  0  0  0  0  0  0  0  0  0  0
   -4.8034   23.7417  -17.7147 O   0  0  0  0  0  0  0  0  0  0  0  0
   -3.0112   22.5437  -24.8008 C   0  0  0  0  0  0  0  0  0  0  0  0
   -3.2767   22.7939  -26.1202 C   0  0  0  0  0  0  0  0  0  0  0  0
   -2.3241   22.7519  -27.1119 C   0  0  0  0  0  0  0  0  0  0  0  0
   -2.6409   23.0254  -28.5267 C   0  0  0  0  0  0  0  0  0  0  0  0
   -1.0337   22.4425  -26.7607 C   0  0  0  0  0  0  0  0  0  0  0  0
   -0.6929   22.1768  -25.4341 C   0  0  0  0  0  0  0  0  0  0  0  0
   -1.6989   22.2348  -24.4819 C   0  0  0  0  0  0  0  0  0  0  0  0
    0.6057   21.8666  -25.0855 O   0  0  0  0  0  0  0  0  0  0  0  0
    1.0023   21.5604  -23.7732 C   0  0  0  0  0  0  0  0  0  0  0  0
 31 32  1  0  0  0
 32 29  1  0  0  0
 29 30  2  0  0  0
 29 14  1  0  0  0
 14 15  1  0  0  0
 15 16  1  0  0  0
 16 17  2  0  0  0
 17 18  1  0  0  0
 18 19  2  0  0  0
 19 20  1  0  0  0
 20 21  2  0  0  0
 21 22  1  0  0  0
 22  1  1  0  0  0
  1  2  2  0  0  0
  2  3  1  0  0  0
  3  4  1  0  0  0
  4  5  1  0  0  0
  5  6  1  0  0  0
  6  7  1  0  0  0
  7  8  1  0  0  0
  8  9  1  0  0  0
  9 10  2  0  0  0
 10 11  1  0  0  0
  5 33  1  0  0  0
 33 34  2  0  0  0
 34 35  1  0  0  0
 35 36  1  0  0  0
 35 37  2  0  0  0
 37 38  1  0  0  0
 38 40  1  0  0  0
 40 41  1  0  0  0
 38 39  2  0  0  0
 19 24  1  0  0  0
 24 25  2  0  0  0
 24 26  1  0  0  0
 26 27  1  0  0  0
 22 14  2  0  0  0
 10  1  1  0  0  0
 39 33  1  0  0  0
 21 16  1  0  0  0
  8  3  2  0  0  0
 15 23  1  0  0  0
 11 12  1  0  0  0
 11 13  1  0  0  0
 26 28  1  0  0  0
M  END
> <minimizedAffinity>
-8.00696

> <CNNscore>
0.1263571382

> <CNNaffinity>
5.8039045334

> <CNN_VS>
0.7333647609

> <CNNaffinity_variance>
0.0447689071

$$$$
[H]c1c(OC([H])([H])[H])c([H])c(C([H])([H])[H])c([H])c1N1C([H])([H])c2c(nc(N([H])[H])c(-c3c(C(=O)OC([H])([H])[H])n([H])c4c([H])c([H])c(C(=O)N([H])C([H])([H])[H])c([H])c34)c2[H])C([H])([H])C1([H])[H]


 41 45  0  0  0  0  0  0  0  0999 V2000
   -6.6484   22.1142  -20.0825 C   0  0  0  0  0  0  0  0  0  0  0  0
   -6.3861   21.9081  -21.4151 C   0  0  0  0  0  0  0  0  0  0  0  0
   -5.1783   22.3341  -21.9968 C   0  0  0  0  0  0  0  0  0  0  0  0
   -4.9964   22.0720  -23.4436 C   0  0  0  0  0  0  0  0  0  0  0  0
   -3.6507   22.2813  -23.8352 N   0  0  0  0  0  0  0  0  0  0  0  0
   -2.5834   22.3091  -22.8647 C   0  0  0  0  0  0  0  0  0  0  0  0
   -2.9343   23.4190  -21.8525 C   0  0  0  0  0  0  0  0  0  0  0  0
   -4.2306   22.9723  -21.2240 C   0  0  0  0  0  0  0  0  0  0  0  0
   -4.5085   23.1614  -19.9301 N   0  0  0  0  0  0  0  0  0  0  0  0
   -5.6757   22.7544  -19.3503 C   0  0  0  0  0  0  0  0  0  0  0  0
   -5.9280   22.9773  -17.9669 N   0  0  0  0  0  0  0  0  0  0  0  0
   -6.3789   23.8723  -17.6244 H   0  0  0  0  0  0  0  0  0  0  0  0
   -5.6848   22.2790  -17.2280 H   0  0  0  0  0  0  0  0  0  0  0  0
   -8.1257   20.5118  -18.7632 C   0  0  0  0  0  0  0  0  0  0  0  0
   -9.3930   20.5512  -18.3738 N   0  0  0  0  0  0  0  0  0  0  0  0
   -9.9807   21.7094  -18.7907 C   0  0  0  0  0  0  0  0  0  0  0  0
  -11.2442   22.2350  -18.6577 C   0  0  0  0  0  0  0  0  0  0  0  0
  -11.5589   23.4836  -19.2104 C   0  0  0  0  0  0  0  0  0  0  0  0
  -10.6431   24.2348  -19.9005 C   0  0  0  0  0  0  0  0  0  0  0  0
   -9.3596   23.6842  -20.0269 C   0  0  0  0  0  0  0  0  0  0  0  0
   -9.0541   22.4579  -19.4828 C   0  0  0  0  0  0  0  0  0  0  0  0
   -7.8871   21.6851  -19.4554 C   0  0  0  0  0  0  0  0  0  0  0  0
   -9.8867   19.8036  -17.8223 H   0  0  0  0  0  0  0  0  0  0  0  0
  -10.9447   25.5371  -20.4877 C   0  0  0  0  0  0  0  0  0  0  0  0
  -11.1711   26.5489  -19.7693 O   0  0  0  0  0  0  0  0  0  0  0  0
  -10.9839   25.6679  -21.8899 N   0  0  0  0  0  0  0  0  0  0  0  0
  -11.2887   26.9830  -22.4731 C   0  0  0  0  0  0  0  0  0  0  0  0
  -10.8160   24.9188  -22.5855 H   0  0  0  0  0  0  0  0  0  0  0  0
   -7.1163   19.4663  -18.5424 C   0  0  0  0  0  0  0  0  0  0  0  0
   -7.2408   18.3149  -19.0239 O   0  0  0  0  0  0  0  0  0  0  0  0
   -4.7108   19.3656  -18.2669 C   0  0  0  0  0  0  0  0  0  0  0  0
   -5.9791   19.7162  -17.7869 O   0  0  0  0  0  0  0  0  0  0  0  0
   -3.2620   22.4867  -25.2150 C   0  0  0  0  0  0  0  0  0  0  0  0
   -1.9761   22.2975  -25.6444 C   0  0  0  0  0  0  0  0  0  0  0  0
   -1.5672   22.4994  -26.9424 C   0  0  0  0  0  0  0  0  0  0  0  0
   -0.1727   22.2882  -27.3756 C   0  0  0  0  0  0  0  0  0  0  0  0
   -2.4999   22.9132  -27.8606 C   0  0  0  0  0  0  0  0  0  0  0  0
   -3.8286   23.1248  -27.4914 C   0  0  0  0  0  0  0  0  0  0  0  0
   -4.1770   22.9043  -26.1677 C   0  0  0  0  0  0  0  0  0  0  0  0
   -4.7629   23.5404  -28.4179 O   0  0  0  0  0  0  0  0  0  0  0  0
   -5.1497   22.7687  -29.5261 C   0  0  0  0  0  0  0  0  0  0  0  0
 31 32  1  0  0  0
 32 29  1  0  0  0
 29 30  2  0  0  0
 29 14  1  0  0  0
 14 15  1  0  0  0
 15 16  1  0  0  0
 16 17  2  0  0  0
 17 18  1  0  0  0
 18 19  2  0  0  0
 19 20  1  0  0  0
 20 21  2  0  0  0
 21 22  1  0  0  0
 22  1  1  0  0  0
  1  2  2  0  0  0
  2  3  1  0  0  0
  3  4  1  0  0  0
  4  5  1  0  0  0
  5  6  1  0  0  0
  6  7  1  0  0  0
  7  8  1  0  0  0
  8  9  1  0  0  0
  9 10  2  0  0  0
 10 11  1  0  0  0
  5 33  1  0  0  0
 33 34  2  0  0  0
 34 35  1  0  0  0
 35 36  1  0  0  0
 35 37  2  0  0  0
 37 38  1  0  0  0
 38 40  1  0  0  0
 40 41  1  0  0  0
 38 39  2  0  0  0
 19 24  1  0  0  0
 24 25  2  0  0  0
 24 26  1  0  0  0
 26 27  1  0  0  0
 22 14  2  0  0  0
 10  1  1  0  0  0
 39 33  1  0  0  0
 21 16  1  0  0  0
  8  3  2  0  0  0
 15 23  1  0  0  0
 11 12  1  0  0  0
 11 13  1  0  0  0
 26 28  1  0  0  0
M  END
> <minimizedAffinity>
-8.99802

> <CNNscore>
0.1036068797

> <CNNaffinity>
5.9750413895

> <CNN_VS>
0.6190553904

> <CNNaffinity_variance>
0.1747631282

$$$$
[H]c1c(OC([H])([H])[H])c([H])c(C([H])([H])[H])c([H])c1N1C([H])([H])c2c(nc(N([H])[H])c(-c3c(C(=O)OC([H])([H])[H])n([H])c4c([H])c([H])c(C(=O)N([H])C([H])([H])[H])c([H])c34)c2[H])C([H])([H])C1([H])[H]


 41 45  0  0  0  0  0  0  0  0999 V2000
   -5.0167   21.1008  -19.2834 C   0  0  0  0  0  0  0  0  0  0  0  0
   -4.3313   21.3713  -20.4429 C   0  0  0  0  0  0  0  0  0  0  0  0
   -4.9890   21.8727  -21.5808 C   0  0  0  0  0  0  0  0  0  0  0  0
   -4.1610   22.1229  -22.7836 C   0  0  0  0  0  0  0  0  0  0  0  0
   -4.8725   22.8844  -23.7438 N   0  0  0  0  0  0  0  0  0  0  0  0
   -6.0430   23.6452  -23.3792 C   0  0  0  0  0  0  0  0  0  0  0  0
   -7.0460   22.6471  -22.7649 C   0  0  0  0  0  0  0  0  0  0  0  0
   -6.3488   22.1016  -21.5437 C   0  0  0  0  0  0  0  0  0  0  0  0
   -6.9938   21.8309  -20.4046 N   0  0  0  0  0  0  0  0  0  0  0  0
   -6.3705   21.3438  -19.2917 C   0  0  0  0  0  0  0  0  0  0  0  0
   -7.0992   21.0703  -18.0995 N   0  0  0  0  0  0  0  0  0  0  0  0
   -7.5538   20.1283  -17.9332 H   0  0  0  0  0  0  0  0  0  0  0  0
   -7.2215   21.7752  -17.3372 H   0  0  0  0  0  0  0  0  0  0  0  0
   -3.7732   21.2996  -17.0688 C   0  0  0  0  0  0  0  0  0  0  0  0
   -3.3075   20.4105  -16.2016 N   0  0  0  0  0  0  0  0  0  0  0  0
   -3.5767   19.1442  -16.6311 C   0  0  0  0  0  0  0  0  0  0  0  0
   -3.3193   17.8934  -16.1216 C   0  0  0  0  0  0  0  0  0  0  0  0
   -3.7308   16.7444  -16.8102 C   0  0  0  0  0  0  0  0  0  0  0  0
   -4.3990   16.8028  -18.0057 C   0  0  0  0  0  0  0  0  0  0  0  0
   -4.6534   18.0858  -18.5111 C   0  0  0  0  0  0  0  0  0  0  0  0
   -4.2479   19.2118  -17.8322 C   0  0  0  0  0  0  0  0  0  0  0  0
   -4.3632   20.5823  -18.0934 C   0  0  0  0  0  0  0  0  0  0  0  0
   -2.8014   20.6358  -15.3071 H   0  0  0  0  0  0  0  0  0  0  0  0
   -4.8373   15.6222  -18.7445 C   0  0  0  0  0  0  0  0  0  0  0  0
   -5.6058   15.7141  -19.7405 O   0  0  0  0  0  0  0  0  0  0  0  0
   -4.3919   14.3495  -18.3362 N   0  0  0  0  0  0  0  0  0  0  0  0
   -4.8383   13.1656  -19.0857 C   0  0  0  0  0  0  0  0  0  0  0  0
   -3.7621   14.1410  -17.5405 H   0  0  0  0  0  0  0  0  0  0  0  0
   -3.7122   22.7675  -17.0200 C   0  0  0  0  0  0  0  0  0  0  0  0
   -2.9688   23.4241  -17.7877 O   0  0  0  0  0  0  0  0  0  0  0  0
   -5.1508   24.6508  -16.5141 C   0  0  0  0  0  0  0  0  0  0  0  0
   -4.4808   23.4871  -16.1157 O   0  0  0  0  0  0  0  0  0  0  0  0
   -4.4837   22.9432  -25.1375 C   0  0  0  0  0  0  0  0  0  0  0  0
   -3.2093   22.6605  -25.5498 C   0  0  0  0  0  0  0  0  0  0  0  0
   -2.8000   22.7226  -26.8618 C   0  0  0  0  0  0  0  0  0  0  0  0
   -1.4182   22.4131  -27.2761 C   0  0  0  0  0  0  0  0  0  0  0  0
   -3.7200   23.0877  -27.8129 C   0  0  0  0  0  0  0  0  0  0  0  0
   -5.0364   23.3889  -27.4626 C   0  0  0  0  0  0  0  0  0  0  0  0
   -5.3859   23.3081  -26.1233 C   0  0  0  0  0  0  0  0  0  0  0  0
   -5.9580   23.7551  -28.4221 O   0  0  0  0  0  0  0  0  0  0  0  0
   -5.6328   23.9413  -29.7759 C   0  0  0  0  0  0  0  0  0  0  0  0
 31 32  1  0  0  0
 32 29  1  0  0  0
 29 30  2  0  0  0
 29 14  1  0  0  0
 14 15  1  0  0  0
 15 16  1  0  0  0
 16 17  2  0  0  0
 17 18  1  0  0  0
 18 19  2  0  0  0
 19 20  1  0  0  0
 20 21  2  0  0  0
 21 22  1  0  0  0
 22  1  1  0  0  0
  1  2  2  0  0  0
  2  3  1  0  0  0
  3  4  1  0  0  0
  4  5  1  0  0  0
  5  6  1  0  0  0
  6  7  1  0  0  0
  7  8  1  0  0  0
  8  9  1  0  0  0
  9 10  2  0  0  0
 10 11  1  0  0  0
  5 33  1  0  0  0
 33 34  2  0  0  0
 34 35  1  0  0  0
 35 36  1  0  0  0
 35 37  2  0  0  0
 37 38  1  0  0  0
 38 40  1  0  0  0
 40 41  1  0  0  0
 38 39  2  0  0  0
 19 24  1  0  0  0
 24 25  2  0  0  0
 24 26  1  0  0  0
 26 27  1  0  0  0
 22 14  2  0  0  0
 10  1  1  0  0  0
 39 33  1  0  0  0
 21 16  1  0  0  0
  8  3  2  0  0  0
 15 23  1  0  0  0
 11 12  1  0  0  0
 11 13  1  0  0  0
 26 28  1  0  0  0
M  END
> <minimizedAffinity>
-7.23823

> <CNNscore>
0.0968307778

> <CNNaffinity>
5.8299794197

> <CNN_VS>
0.5645214319

> <CNNaffinity_variance>
0.0514769629

$$$$
[H]C([H])=C([H])C(=O)N([H])c1c([H])c([H])c([H])c(C2([H])C([H])([H])C([H])([H])N(C(=O)c3nc4c([H])c([H])c(C5=C(N6C([H])([H])C([H])([H])C([H])([H])[C@@]6([H])C(=O)OC([H])([H])[H])c6c([H])c([H])c([H])c(Cl)c65)c([H])c4n3[H])C([H])([H])C2([H])[H])c1[H]


 48 54  0  0  0  0  0  0  0  0999 V2000
   -2.3436   22.2824  -24.8718 C   0  0  0  0  0  0  0  0  0  0  0  0
   -1.0612   22.3675  -25.3673 C   0  0  0  0  0  0  0  0  0  0  0  0
    0.0382   21.9972  -24.6080 C   0  0  0  0  0  0  0  0  0  0  0  0
   -0.1352   21.5276  -23.3185 C   0  0  0  0  0  0  0  0  0  0  0  0
    0.6850   21.1005  -22.3476 N   0  0  0  0  0  0  0  0  0  0  0  0
    0.0216   20.7386  -21.2440 C   0  0  0  0  0  0  0  0  0  0  0  0
   -1.2819   20.9583  -21.5614 N   0  0  0  0  0  0  0  0  0  0  0  0
   -1.4046   21.4352  -22.8073 C   0  0  0  0  0  0  0  0  0  0  0  0
   -2.4922   21.8140  -23.5901 C   0  0  0  0  0  0  0  0  0  0  0  0
   -2.1086   20.7958  -20.9565 H   0  0  0  0  0  0  0  0  0  0  0  0
   -4.7658   22.8936  -25.5717 C   0  0  0  0  0  0  0  0  0  0  0  0
   -3.4505   22.7033  -25.7344 C   0  0  0  0  0  0  0  0  0  0  0  0
   -3.6275   23.0933  -27.1287 C   0  0  0  0  0  0  0  0  0  0  0  0
   -3.1466   23.3354  -28.4040 C   0  0  0  0  0  0  0  0  0  0  0  0
   -1.4125   23.1138  -28.6949 Cl  0  0  0  0  0  0  0  0  0  0  0  0
   -3.9419   23.7459  -29.4585 C   0  0  0  0  0  0  0  0  0  0  0  0
   -5.2957   23.9255  -29.2308 C   0  0  0  0  0  0  0  0  0  0  0  0
   -5.8112   23.6950  -27.9795 C   0  0  0  0  0  0  0  0  0  0  0  0
   -4.9909   23.2882  -26.9530 C   0  0  0  0  0  0  0  0  0  0  0  0
   -6.0623   23.7559  -23.5004 C   0  0  0  0  0  0  0  0  0  0  0  0
   -5.9795   23.0421  -22.1552 C   0  0  0  0  0  0  0  0  0  0  0  0
   -6.6016   21.7130  -22.5277 C   0  0  0  0  0  0  0  0  0  0  0  0
   -6.2375   21.4965  -23.9784 C   0  0  0  0  0  0  0  0  0  0  0  0
   -5.6269   22.7456  -24.4200 N   0  0  0  0  0  0  0  0  0  0  0  0
   -5.2679   24.9918  -23.5027 C   0  0  0  0  0  0  0  0  0  0  0  0
   -4.2911   25.0355  -22.6986 O   0  0  0  0  0  0  0  0  0  0  0  0
   -4.4560   26.6064  -25.1219 C   0  0  0  0  0  0  0  0  0  0  0  0
   -5.4809   26.1017  -24.2903 O   0  0  0  0  0  0  0  0  0  0  0  0
    0.4408   20.2169  -19.9749 C   0  0  0  0  0  0  0  0  0  0  0  0
    0.2763   20.9758  -18.9460 O   0  0  0  0  0  0  0  0  0  0  0  0
    1.0104   18.9451  -19.8038 N   0  0  0  0  0  0  0  0  0  0  0  0
    1.2742   18.0069  -20.8355 C   0  0  0  0  0  0  0  0  0  0  0  0
    0.3261   16.8145  -20.5681 C   0  0  0  0  0  0  0  0  0  0  0  0
    0.7659   16.2822  -19.2208 C   0  0  0  0  0  0  0  0  0  0  0  0
    0.4129   17.3285  -18.1757 C   0  0  0  0  0  0  0  0  0  0  0  0
    1.3706   18.4968  -18.4324 C   0  0  0  0  0  0  0  0  0  0  0  0
    0.2348   14.9542  -18.8974 C   0  0  0  0  0  0  0  0  0  0  0  0
   -0.6534   14.3133  -19.7066 C   0  0  0  0  0  0  0  0  0  0  0  0
   -1.0979   13.0794  -19.3129 C   0  0  0  0  0  0  0  0  0  0  0  0
   -0.6886   12.4889  -18.1667 C   0  0  0  0  0  0  0  0  0  0  0  0
    0.2284   13.1260  -17.3100 C   0  0  0  0  0  0  0  0  0  0  0  0
    0.6735   14.3551  -17.6998 C   0  0  0  0  0  0  0  0  0  0  0  0
    0.6526   12.4804  -16.1309 N   0  0  0  0  0  0  0  0  0  0  0  0
    1.8409   11.7763  -15.9833 C   0  0  0  0  0  0  0  0  0  0  0  0
    2.6628   11.6620  -16.9182 O   0  0  0  0  0  0  0  0  0  0  0  0
   -0.0199   12.5578  -15.3026 H   0  0  0  0  0  0  0  0  0  0  0  0
    2.1900   11.1352  -14.7319 C   0  0  0  0  0  0  0  0  0  0  0  0
    3.2858   11.4109  -14.0938 C   0  0  0  0  0  0  0  0  0  0  0  0
 27 28  1  0  0  0
 28 25  1  0  0  0
 25 26  2  0  0  0
 25 20  1  0  0  0
 20 21  1  0  0  0
 21 22  1  0  0  0
 22 23  1  0  0  0
 23 24  1  0  0  0
 24 11  1  0  0  0
 11 12  2  0  0  0
 12  1  1  0  0  0
  1  2  2  0  0  0
  2  3  1  0  0  0
  3  4  2  0  0  0
  4  5  1  0  0  0
  5  6  2  0  0  0
  6  7  1  0  0  0
  7  8  1  0  0  0
  8  9  2  0  0  0
  6 29  1  0  0  0
 29 30  2  0  0  0
 29 31  1  0  0  0
 31 32  1  0  0  0
 32 33  1  0  0  0
 33 34  1  0  0  0
 34 35  1  0  0  0
 35 36  1  0  0  0
 34 37  1  0  0  0
 37 38  2  0  0  0
 38 39  1  0  0  0
 39 40  2  0  0  0
 40 41  1  0  0  0
 41 43  1  0  0  0
 43 44  1  0  0  0
 44 45  2  0  0  0
 44 47  1  0  0  0
 47 48  2  0  0  0
 41 42  2  0  0  0
 12 13  1  0  0  0
 13 14  2  0  0  0
 14 15  1  0  0  0
 14 16  1  0  0  0
 16 17  2  0  0  0
 17 18  1  0  0  0
 18 19  2  0  0  0
 24 20  1  0  0  0
 19 11  1  0  0  0
  9  1  1  0  0  0
 36 31  1  0  0  0
 42 37  1  0  0  0
 19 13  1  0  0  0
  8  4  1  0  0  0
  7 10  1  0  0  0
 43 46  1  0  0  0
M  END
> <minimizedAffinity>
-9.37587

> <CNNscore>
0.2937783003

> <CNNaffinity>
7.0104026794

> <CNN_VS>
2.0595042706

> <CNNaffinity_variance>
0.0830372199

$$$$
[H]C([H])=C([H])C(=O)N([H])c1c([H])c([H])c([H])c(C2([H])C([H])([H])C([H])([H])N(C(=O)c3nc4c([H])c([H])c(C5=C(N6C([H])([H])C([H])([H])C([H])([H])[C@@]6([H])C(=O)OC([H])([H])[H])c6c([H])c([H])c([H])c(Cl)c65)c([H])c4n3[H])C([H])([H])C2([H])[H])c1[H]


 48 54  0  0  0  0  0  0  0  0999 V2000
   -1.9049   22.6843  -25.8358 C   0  0  0  0  0  0  0  0  0  0  0  0
   -0.8589   22.4097  -26.6888 C   0  0  0  0  0  0  0  0  0  0  0  0
    0.3630   21.9536  -26.2184 C   0  0  0  0  0  0  0  0  0  0  0  0
    0.5571   21.7624  -24.8622 C   0  0  0  0  0  0  0  0  0  0  0  0
    1.5798   21.3472  -24.1009 N   0  0  0  0  0  0  0  0  0  0  0  0
    1.2711   21.3306  -22.7996 C   0  0  0  0  0  0  0  0  0  0  0  0
   -0.0177   21.7617  -22.7656 N   0  0  0  0  0  0  0  0  0  0  0  0
   -0.4727   22.0299  -23.9967 C   0  0  0  0  0  0  0  0  0  0  0  0
   -1.6901   22.4877  -24.4943 C   0  0  0  0  0  0  0  0  0  0  0  0
   -0.6137   21.8848  -21.9258 H   0  0  0  0  0  0  0  0  0  0  0  0
   -4.4261   23.2771  -25.9874 C   0  0  0  0  0  0  0  0  0  0  0  0
   -3.1604   23.1727  -26.4117 C   0  0  0  0  0  0  0  0  0  0  0  0
   -3.6005   23.7494  -27.6771 C   0  0  0  0  0  0  0  0  0  0  0  0
   -3.3692   24.1930  -28.9678 C   0  0  0  0  0  0  0  0  0  0  0  0
   -1.7153   24.0954  -29.5971 Cl  0  0  0  0  0  0  0  0  0  0  0  0
   -4.3540   24.7130  -29.7881 C   0  0  0  0  0  0  0  0  0  0  0  0
   -5.6451   24.7958  -29.2953 C   0  0  0  0  0  0  0  0  0  0  0  0
   -5.9151   24.3654  -28.0199 C   0  0  0  0  0  0  0  0  0  0  0  0
   -4.9110   23.8542  -27.2308 C   0  0  0  0  0  0  0  0  0  0  0  0
   -5.4827   23.7994  -23.6797 C   0  0  0  0  0  0  0  0  0  0  0  0
   -5.0749   23.0336  -22.4254 C   0  0  0  0  0  0  0  0  0  0  0  0
   -5.5413   21.6444  -22.8062 C   0  0  0  0  0  0  0  0  0  0  0  0
   -5.3901   21.5722  -24.3081 C   0  0  0  0  0  0  0  0  0  0  0  0
   -5.0555   22.9267  -24.7341 N   0  0  0  0  0  0  0  0  0  0  0  0
   -4.8953   25.1459  -23.7020 C   0  0  0  0  0  0  0  0  0  0  0  0
   -3.8369   25.3104  -23.0269 O   0  0  0  0  0  0  0  0  0  0  0  0
   -4.5361   27.0081  -25.2156 C   0  0  0  0  0  0  0  0  0  0  0  0
   -5.3808   26.2410  -24.3821 O   0  0  0  0  0  0  0  0  0  0  0  0
    2.0040   20.9608  -21.6229 C   0  0  0  0  0  0  0  0  0  0  0  0
    3.2553   21.2691  -21.5908 O   0  0  0  0  0  0  0  0  0  0  0  0
    1.4349   20.2927  -20.5271 N   0  0  0  0  0  0  0  0  0  0  0  0
    0.0844   19.8695  -20.4216 C   0  0  0  0  0  0  0  0  0  0  0  0
   -0.5336   20.7230  -19.2894 C   0  0  0  0  0  0  0  0  0  0  0  0
    0.2569   20.3376  -18.0571 C   0  0  0  0  0  0  0  0  0  0  0  0
    1.6732   20.8602  -18.2375 C   0  0  0  0  0  0  0  0  0  0  0  0
    2.2860   19.9958  -19.3444 C   0  0  0  0  0  0  0  0  0  0  0  0
   -0.3514   20.7688  -16.7943 C   0  0  0  0  0  0  0  0  0  0  0  0
   -1.6773   21.0624  -16.6930 C   0  0  0  0  0  0  0  0  0  0  0  0
   -2.1487   21.4652  -15.4720 C   0  0  0  0  0  0  0  0  0  0  0  0
   -1.3524   21.5773  -14.3843 C   0  0  0  0  0  0  0  0  0  0  0  0
    0.0214   21.2810  -14.4575 C   0  0  0  0  0  0  0  0  0  0  0  0
    0.4939   20.8788  -15.6723 C   0  0  0  0  0  0  0  0  0  0  0  0
    0.8252   21.3884  -13.3045 N   0  0  0  0  0  0  0  0  0  0  0  0
    1.5831   22.4985  -12.9538 C   0  0  0  0  0  0  0  0  0  0  0  0
    1.6069   23.5322  -13.6563 O   0  0  0  0  0  0  0  0  0  0  0  0
    0.8298   20.5264  -12.6711 H   0  0  0  0  0  0  0  0  0  0  0  0
    2.3890   22.5147  -11.7500 C   0  0  0  0  0  0  0  0  0  0  0  0
    3.4968   23.1852  -11.6665 C   0  0  0  0  0  0  0  0  0  0  0  0
 27 28  1  0  0  0
 28 25  1  0  0  0
 25 26  2  0  0  0
 25 20  1  0  0  0
 20 21  1  0  0  0
 21 22  1  0  0  0
 22 23  1  0  0  0
 23 24  1  0  0  0
 24 11  1  0  0  0
 11 12  2  0  0  0
 12  1  1  0  0  0
  1  2  2  0  0  0
  2  3  1  0  0  0
  3  4  2  0  0  0
  4  5  1  0  0  0
  5  6  2  0  0  0
  6  7  1  0  0  0
  7  8  1  0  0  0
  8  9  2  0  0  0
  6 29  1  0  0  0
 29 30  2  0  0  0
 29 31  1  0  0  0
 31 32  1  0  0  0
 32 33  1  0  0  0
 33 34  1  0  0  0
 34 35  1  0  0  0
 35 36  1  0  0  0
 34 37  1  0  0  0
 37 38  2  0  0  0
 38 39  1  0  0  0
 39 40  2  0  0  0
 40 41  1  0  0  0
 41 43  1  0  0  0
 43 44  1  0  0  0
 44 45  2  0  0  0
 44 47  1  0  0  0
 47 48  2  0  0  0
 41 42  2  0  0  0
 12 13  1  0  0  0
 13 14  2  0  0  0
 14 15  1  0  0  0
 14 16  1  0  0  0
 16 17  2  0  0  0
 17 18  1  0  0  0
 18 19  2  0  0  0
 24 20  1  0  0  0
 19 11  1  0  0  0
  9  1  1  0  0  0
 36 31  1  0  0  0
 42 37  1  0  0  0
 19 13  1  0  0  0
  8  4  1  0  0  0
  7 10  1  0  0  0
 43 46  1  0  0  0
M  END
> <minimizedAffinity>
-9.43052

> <CNNscore>
0.2801644206

> <CNNaffinity>
7.3962335587

> <CNN_VS>
2.0721614361

> <CNNaffinity_variance>
0.1048107520

$$$$
[H]C([H])=C([H])C(=O)N([H])c1c([H])c([H])c([H])c(C2([H])C([H])([H])C([H])([H])N(C(=O)c3nc4c([H])c([H])c(C5=C(N6C([H])([H])C([H])([H])C([H])([H])[C@@]6([H])C(=O)OC([H])([H])[H])c6c([H])c([H])c([H])c(Cl)c65)c([H])c4n3[H])C([H])([H])C2([H])[H])c1[H]


 48 54  0  0  0  0  0  0  0  0999 V2000
   -2.6741   22.1844  -24.5755 C   0  0  0  0  0  0  0  0  0  0  0  0
   -3.1088   21.8366  -23.3156 C   0  0  0  0  0  0  0  0  0  0  0  0
   -2.2296   21.3941  -22.3391 C   0  0  0  0  0  0  0  0  0  0  0  0
   -0.8783   21.2926  -22.6162 C   0  0  0  0  0  0  0  0  0  0  0  0
    0.2049   20.9128  -21.9232 N   0  0  0  0  0  0  0  0  0  0  0  0
    1.3259   20.9901  -22.6488 C   0  0  0  0  0  0  0  0  0  0  0  0
    0.9003   21.4447  -23.8572 N   0  0  0  0  0  0  0  0  0  0  0  0
   -0.4259   21.6348  -23.8650 C   0  0  0  0  0  0  0  0  0  0  0  0
   -1.3293   22.0758  -24.8285 C   0  0  0  0  0  0  0  0  0  0  0  0
    1.4827   21.6348  -24.6941 H   0  0  0  0  0  0  0  0  0  0  0  0
   -4.9913   22.8390  -25.5414 C   0  0  0  0  0  0  0  0  0  0  0  0
   -3.6684   22.6326  -25.5538 C   0  0  0  0  0  0  0  0  0  0  0  0
   -3.6779   23.0444  -26.9530 C   0  0  0  0  0  0  0  0  0  0  0  0
   -3.0496   23.2975  -28.1602 C   0  0  0  0  0  0  0  0  0  0  0  0
   -1.2963   23.0558  -28.2521 Cl  0  0  0  0  0  0  0  0  0  0  0  0
   -3.7123   23.7336  -29.2932 C   0  0  0  0  0  0  0  0  0  0  0  0
   -5.0811   23.9289  -29.2208 C   0  0  0  0  0  0  0  0  0  0  0  0
   -5.7409   23.6883  -28.0412 C   0  0  0  0  0  0  0  0  0  0  0  0
   -5.0500   23.2558  -26.9331 C   0  0  0  0  0  0  0  0  0  0  0  0
   -6.6817   23.7127  -23.7824 C   0  0  0  0  0  0  0  0  0  0  0  0
   -6.6973   23.1729  -22.3561 C   0  0  0  0  0  0  0  0  0  0  0  0
   -7.0685   21.7305  -22.6283 C   0  0  0  0  0  0  0  0  0  0  0  0
   -6.4711   21.4147  -23.9800 C   0  0  0  0  0  0  0  0  0  0  0  0
   -5.9817   22.6870  -24.4994 N   0  0  0  0  0  0  0  0  0  0  0  0
   -6.0742   25.0490  -23.8447 C   0  0  0  0  0  0  0  0  0  0  0  0
   -5.1408   25.2827  -23.0220 O   0  0  0  0  0  0  0  0  0  0  0  0
   -5.4329   26.9212  -25.2487 C   0  0  0  0  0  0  0  0  0  0  0  0
   -6.4192   26.0669  -24.7063 O   0  0  0  0  0  0  0  0  0  0  0  0
    2.7032   20.7134  -22.3576 C   0  0  0  0  0  0  0  0  0  0  0  0
    3.5391   20.8069  -23.3345 O   0  0  0  0  0  0  0  0  0  0  0  0
    3.1745   20.3527  -21.0852 N   0  0  0  0  0  0  0  0  0  0  0  0
    2.3803   20.1884  -19.9206 C   0  0  0  0  0  0  0  0  0  0  0  0
    2.8130   21.3183  -18.9572 C   0  0  0  0  0  0  0  0  0  0  0  0
    4.2704   21.0264  -18.6695 C   0  0  0  0  0  0  0  0  0  0  0  0
    5.0487   21.2630  -19.9540 C   0  0  0  0  0  0  0  0  0  0  0  0
    4.6321   20.1277  -20.8950 C   0  0  0  0  0  0  0  0  0  0  0  0
    4.8176   21.7679  -17.5288 C   0  0  0  0  0  0  0  0  0  0  0  0
    6.1547   21.8250  -17.2771 C   0  0  0  0  0  0  0  0  0  0  0  0
    6.5665   22.5359  -16.1815 C   0  0  0  0  0  0  0  0  0  0  0  0
    5.7018   23.1716  -15.3581 C   0  0  0  0  0  0  0  0  0  0  0  0
    4.3147   23.1310  -15.5920 C   0  0  0  0  0  0  0  0  0  0  0  0
    3.9013   22.4241  -16.6830 C   0  0  0  0  0  0  0  0  0  0  0  0
    3.4368   23.8176  -14.7289 N   0  0  0  0  0  0  0  0  0  0  0  0
    2.7355   23.2456  -13.6750 C   0  0  0  0  0  0  0  0  0  0  0  0
    2.8376   22.0320  -13.3934 O   0  0  0  0  0  0  0  0  0  0  0  0
    3.3238   24.8618  -14.9313 H   0  0  0  0  0  0  0  0  0  0  0  0
    1.8453   24.0307  -12.8442 C   0  0  0  0  0  0  0  0  0  0  0  0
    2.2802   24.7839  -11.8812 C   0  0  0  0  0  0  0  0  0  0  0  0
 27 28  1  0  0  0
 28 25  1  0  0  0
 25 26  2  0  0  0
 25 20  1  0  0  0
 20 21  1  0  0  0
 21 22  1  0  0  0
 22 23  1  0  0  0
 23 24  1  0  0  0
 24 11  1  0  0  0
 11 12  2  0  0  0
 12  1  1  0  0  0
  1  2  2  0  0  0
  2  3  1  0  0  0
  3  4  2  0  0  0
  4  5  1  0  0  0
  5  6  2  0  0  0
  6  7  1  0  0  0
  7  8  1  0  0  0
  8  9  2  0  0  0
  6 29  1  0  0  0
 29 30  2  0  0  0
 29 31  1  0  0  0
 31 32  1  0  0  0
 32 33  1  0  0  0
 33 34  1  0  0  0
 34 35  1  0  0  0
 35 36  1  0  0  0
 34 37  1  0  0  0
 37 38  2  0  0  0
 38 39  1  0  0  0
 39 40  2  0  0  0
 40 41  1  0  0  0
 41 43  1  0  0  0
 43 44  1  0  0  0
 44 45  2  0  0  0
 44 47  1  0  0  0
 47 48  2  0  0  0
 41 42  2  0  0  0
 12 13  1  0  0  0
 13 14  2  0  0  0
 14 15  1  0  0  0
 14 16  1  0  0  0
 16 17  2  0  0  0
 17 18  1  0  0  0
 18 19  2  0  0  0
 24 20  1  0  0  0
 19 11  1  0  0  0
  9  1  1  0  0  0
 36 31  1  0  0  0
 42 37  1  0  0  0
 19 13  1  0  0  0
  8  4  1  0  0  0
  7 10  1  0  0  0
 43 46  1  0  0  0
M  END
> <minimizedAffinity>
-10.26048

> <CNNscore>
0.2382767797

> <CNNaffinity>
7.1896767616

> <CNN_VS>
1.7131329775

> <CNNaffinity_variance>
0.1136215106

$$$$
[H]C([H])=C([H])C(=O)N([H])c1c([H])c([H])c([H])c(C2([H])C([H])([H])C([H])([H])N(C(=O)c3nc4c([H])c([H])c(C5=C(N6C([H])([H])C([H])([H])C([H])([H])[C@@]6([H])C(=O)OC([H])([H])[H])c6c([H])c([H])c([H])c(Cl)c65)c([H])c4n3[H])C([H])([H])C2([H])[H])c1[H]


 48 54  0  0  0  0  0  0  0  0999 V2000
   -2.0464   21.9921  -23.8793 C   0  0  0  0  0  0  0  0  0  0  0  0
   -2.6766   21.6868  -22.6931 C   0  0  0  0  0  0  0  0  0  0  0  0
   -1.9633   21.2998  -21.5689 C   0  0  0  0  0  0  0  0  0  0  0  0
   -0.5838   21.2121  -21.6184 C   0  0  0  0  0  0  0  0  0  0  0  0
    0.3763   20.8802  -20.7432 N   0  0  0  0  0  0  0  0  0  0  0  0
    1.5996   20.9491  -21.2798 C   0  0  0  0  0  0  0  0  0  0  0  0
    1.3714   21.3473  -22.5594 N   0  0  0  0  0  0  0  0  0  0  0  0
    0.0621   21.5125  -22.7905 C   0  0  0  0  0  0  0  0  0  0  0  0
   -0.6772   21.8982  -23.9057 C   0  0  0  0  0  0  0  0  0  0  0  0
    2.0801   21.5145  -23.2979 H   0  0  0  0  0  0  0  0  0  0  0  0
   -4.1768   22.6143  -25.2228 C   0  0  0  0  0  0  0  0  0  0  0  0
   -2.8731   22.3827  -25.0241 C   0  0  0  0  0  0  0  0  0  0  0  0
   -2.6656   22.6861  -26.4356 C   0  0  0  0  0  0  0  0  0  0  0  0
   -1.8601   22.8340  -27.5517 C   0  0  0  0  0  0  0  0  0  0  0  0
   -0.1203   22.5530  -27.3650 Cl  0  0  0  0  0  0  0  0  0  0  0  0
   -2.3367   23.1945  -28.7991 C   0  0  0  0  0  0  0  0  0  0  0  0
   -3.6948   23.4205  -28.9446 C   0  0  0  0  0  0  0  0  0  0  0  0
   -4.5269   23.2835  -27.8614 C   0  0  0  0  0  0  0  0  0  0  0  0
   -4.0188   22.9242  -26.6346 C   0  0  0  0  0  0  0  0  0  0  0  0
   -5.9889   23.6499  -23.6871 C   0  0  0  0  0  0  0  0  0  0  0  0
   -6.2618   23.0967  -22.2923 C   0  0  0  0  0  0  0  0  0  0  0  0
   -6.7478   21.7091  -22.6537 C   0  0  0  0  0  0  0  0  0  0  0  0
   -6.0066   21.3457  -23.9196 C   0  0  0  0  0  0  0  0  0  0  0  0
   -5.3130   22.5613  -24.3307 N   0  0  0  0  0  0  0  0  0  0  0  0
   -5.2357   24.9099  -23.6277 C   0  0  0  0  0  0  0  0  0  0  0  0
   -4.3424   24.9909  -22.7342 O   0  0  0  0  0  0  0  0  0  0  0  0
   -4.2900   26.7097  -24.9521 C   0  0  0  0  0  0  0  0  0  0  0  0
   -5.4053   26.0058  -24.4449 O   0  0  0  0  0  0  0  0  0  0  0  0
    2.9141   20.7095  -20.7574 C   0  0  0  0  0  0  0  0  0  0  0  0
    3.2196   21.2926  -19.6490 O   0  0  0  0  0  0  0  0  0  0  0  0
    3.8644   19.8869  -21.3831 N   0  0  0  0  0  0  0  0  0  0  0  0
    3.6870   19.1971  -22.6106 C   0  0  0  0  0  0  0  0  0  0  0  0
    3.6983   17.6931  -22.2499 C   0  0  0  0  0  0  0  0  0  0  0  0
    5.0826   17.4547  -21.6851 C   0  0  0  0  0  0  0  0  0  0  0  0
    5.1718   18.1944  -20.3598 C   0  0  0  0  0  0  0  0  0  0  0  0
    5.1827   19.6823  -20.7261 C   0  0  0  0  0  0  0  0  0  0  0  0
    5.4494   16.0394  -21.5718 C   0  0  0  0  0  0  0  0  0  0  0  0
    5.8164   15.4797  -20.3858 C   0  0  0  0  0  0  0  0  0  0  0  0
    6.1498   14.1515  -20.3848 C   0  0  0  0  0  0  0  0  0  0  0  0
    6.1252   13.3932  -21.5046 C   0  0  0  0  0  0  0  0  0  0  0  0
    5.7503   13.9429  -22.7447 C   0  0  0  0  0  0  0  0  0  0  0  0
    5.4170   15.2656  -22.7490 C   0  0  0  0  0  0  0  0  0  0  0  0
    5.7155   13.1259  -23.8930 N   0  0  0  0  0  0  0  0  0  0  0  0
    6.7831   12.9032  -24.7534 C   0  0  0  0  0  0  0  0  0  0  0  0
    7.9041   13.4235  -24.5656 O   0  0  0  0  0  0  0  0  0  0  0  0
    4.7747   12.6560  -24.0887 H   0  0  0  0  0  0  0  0  0  0  0  0
    6.6510   12.0521  -25.9184 C   0  0  0  0  0  0  0  0  0  0  0  0
    7.3235   10.9504  -26.0518 C   0  0  0  0  0  0  0  0  0  0  0  0
 27 28  1  0  0  0
 28 25  1  0  0  0
 25 26  2  0  0  0
 25 20  1  0  0  0
 20 21  1  0  0  0
 21 22  1  0  0  0
 22 23  1  0  0  0
 23 24  1  0  0  0
 24 11  1  0  0  0
 11 12  2  0  0  0
 12  1  1  0  0  0
  1  2  2  0  0  0
  2  3  1  0  0  0
  3  4  2  0  0  0
  4  5  1  0  0  0
  5  6  2  0  0  0
  6  7  1  0  0  0
  7  8  1  0  0  0
  8  9  2  0  0  0
  6 29  1  0  0  0
 29 30  2  0  0  0
 29 31  1  0  0  0
 31 32  1  0  0  0
 32 33  1  0  0  0
 33 34  1  0  0  0
 34 35  1  0  0  0
 35 36  1  0  0  0
 34 37  1  0  0  0
 37 38  2  0  0  0
 38 39  1  0  0  0
 39 40  2  0  0  0
 40 41  1  0  0  0
 41 43  1  0  0  0
 43 44  1  0  0  0
 44 45  2  0  0  0
 44 47  1  0  0  0
 47 48  2  0  0  0
 41 42  2  0  0  0
 12 13  1  0  0  0
 13 14  2  0  0  0
 14 15  1  0  0  0
 14 16  1  0  0  0
 16 17  2  0  0  0
 17 18  1  0  0  0
 18 19  2  0  0  0
 24 20  1  0  0  0
 19 11  1  0  0  0
  9  1  1  0  0  0
 36 31  1  0  0  0
 42 37  1  0  0  0
 19 13  1  0  0  0
  8  4  1  0  0  0
  7 10  1  0  0  0
 43 46  1  0  0  0
M  END
> <minimizedAffinity>
-9.05245

> <CNNscore>
0.2309910804

> <CNNaffinity>
6.9835710526

> <CNN_VS>
1.6131426096

> <CNNaffinity_variance>
0.0912153795

$$$$
[H]C([H])=C([H])C(=O)N([H])c1c([H])c([H])c([H])c(C2([H])C([H])([H])C([H])([H])N(C(=O)c3nc4c([H])c([H])c(C5=C(N6C([H])([H])C([H])([H])C([H])([H])[C@@]6([H])C(=O)OC([H])([H])[H])c6c([H])c([H])c([H])c(Cl)c65)c([H])c4n3[H])C([H])([H])C2([H])[H])c1[H]


 48 54  0  0  0  0  0  0  0  0999 V2000
   -2.3180   22.3472  -24.8429 C   0  0  0  0  0  0  0  0  0  0  0  0
   -1.0694   22.7720  -25.2399 C   0  0  0  0  0  0  0  0  0  0  0  0
    0.0733   22.4354  -24.5305 C   0  0  0  0  0  0  0  0  0  0  0  0
   -0.0209   21.6540  -23.3931 C   0  0  0  0  0  0  0  0  0  0  0  0
    0.8562   21.1640  -22.5051 N   0  0  0  0  0  0  0  0  0  0  0  0
    0.2621   20.4420  -21.5487 C   0  0  0  0  0  0  0  0  0  0  0  0
   -1.0570   20.4950  -21.8733 N   0  0  0  0  0  0  0  0  0  0  0  0
   -1.2555   21.2207  -22.9818 C   0  0  0  0  0  0  0  0  0  0  0  0
   -2.3880   21.5730  -23.7115 C   0  0  0  0  0  0  0  0  0  0  0  0
   -1.8443   20.0515  -21.3644 H   0  0  0  0  0  0  0  0  0  0  0  0
   -4.7816   22.9362  -25.4034 C   0  0  0  0  0  0  0  0  0  0  0  0
   -3.4766   22.7550  -25.6416 C   0  0  0  0  0  0  0  0  0  0  0  0
   -3.7376   23.1361  -27.0251 C   0  0  0  0  0  0  0  0  0  0  0  0
   -3.3337   23.3748  -28.3274 C   0  0  0  0  0  0  0  0  0  0  0  0
   -1.6178   23.1648  -28.7179 Cl  0  0  0  0  0  0  0  0  0  0  0  0
   -4.1924   23.7736  -29.3358 C   0  0  0  0  0  0  0  0  0  0  0  0
   -5.5319   23.9443  -29.0304 C   0  0  0  0  0  0  0  0  0  0  0  0
   -5.9719   23.7167  -27.7501 C   0  0  0  0  0  0  0  0  0  0  0  0
   -5.0899   23.3216  -26.7711 C   0  0  0  0  0  0  0  0  0  0  0  0
   -5.8374   23.7646  -23.1866 C   0  0  0  0  0  0  0  0  0  0  0  0
   -5.7377   22.9473  -21.9028 C   0  0  0  0  0  0  0  0  0  0  0  0
   -6.5183   21.7177  -22.3165 C   0  0  0  0  0  0  0  0  0  0  0  0
   -6.2783   21.5757  -23.8018 C   0  0  0  0  0  0  0  0  0  0  0  0
   -5.5729   22.7880  -24.2027 N   0  0  0  0  0  0  0  0  0  0  0  0
   -4.9211   24.9128  -23.1652 C   0  0  0  0  0  0  0  0  0  0  0  0
   -4.1075   24.9667  -22.1967 O   0  0  0  0  0  0  0  0  0  0  0  0
   -6.0393   26.4540  -24.6693 C   0  0  0  0  0  0  0  0  0  0  0  0
   -4.8608   25.9309  -24.0912 O   0  0  0  0  0  0  0  0  0  0  0  0
    0.7602   19.7207  -20.4128 C   0  0  0  0  0  0  0  0  0  0  0  0
    1.5576   18.7355  -20.6478 O   0  0  0  0  0  0  0  0  0  0  0  0
    0.4270   20.0304  -19.0846 N   0  0  0  0  0  0  0  0  0  0  0  0
   -0.4492   21.0658  -18.6672 C   0  0  0  0  0  0  0  0  0  0  0  0
    0.4373   22.0843  -17.9128 C   0  0  0  0  0  0  0  0  0  0  0  0
    0.9702   21.3092  -16.7266 C   0  0  0  0  0  0  0  0  0  0  0  0
    1.9240   20.2519  -17.2594 C   0  0  0  0  0  0  0  0  0  0  0  0
    1.0369   19.2353  -17.9858 C   0  0  0  0  0  0  0  0  0  0  0  0
    1.5741   22.1460  -15.6847 C   0  0  0  0  0  0  0  0  0  0  0  0
    2.7409   22.8196  -15.8835 C   0  0  0  0  0  0  0  0  0  0  0  0
    3.2288   23.5678  -14.8456 C   0  0  0  0  0  0  0  0  0  0  0  0
    2.5985   23.6569  -13.6520 C   0  0  0  0  0  0  0  0  0  0  0  0
    1.3915   22.9727  -13.4164 C   0  0  0  0  0  0  0  0  0  0  0  0
    0.9024   22.2270  -14.4486 C   0  0  0  0  0  0  0  0  0  0  0  0
    0.7456   23.0975  -12.1696 N   0  0  0  0  0  0  0  0  0  0  0  0
    0.7906   22.1615  -11.1441 C   0  0  0  0  0  0  0  0  0  0  0  0
    1.4387   21.0976  -11.2472 O   0  0  0  0  0  0  0  0  0  0  0  0
    0.1828   23.9974  -12.0368 H   0  0  0  0  0  0  0  0  0  0  0  0
    0.0849   22.3719   -9.8964 C   0  0  0  0  0  0  0  0  0  0  0  0
    0.5400   21.9384   -8.7612 C   0  0  0  0  0  0  0  0  0  0  0  0
 27 28  1  0  0  0
 28 25  1  0  0  0
 25 26  2  0  0  0
 25 20  1  0  0  0
 20 21  1  0  0  0
 21 22  1  0  0  0
 22 23  1  0  0  0
 23 24  1  0  0  0
 24 11  1  0  0  0
 11 12  2  0  0  0
 12  1  1  0  0  0
  1  2  2  0  0  0
  2  3  1  0  0  0
  3  4  2  0  0  0
  4  5  1  0  0  0
  5  6  2  0  0  0
  6  7  1  0  0  0
  7  8  1  0  0  0
  8  9  2  0  0  0
  6 29  1  0  0  0
 29 30  2  0  0  0
 29 31  1  0  0  0
 31 32  1  0  0  0
 32 33  1  0  0  0
 33 34  1  0  0  0
 34 35  1  0  0  0
 35 36  1  0  0  0
 34 37  1  0  0  0
 37 38  2  0  0  0
 38 39  1  0  0  0
 39 40  2  0  0  0
 40 41  1  0  0  0
 41 43  1  0  0  0
 43 44  1  0  0  0
 44 45  2  0  0  0
 44 47  1  0  0  0
 47 48  2  0  0  0
 41 42  2  0  0  0
 12 13  1  0  0  0
 13 14  2  0  0  0
 14 15  1  0  0  0
 14 16  1  0  0  0
 16 17  2  0  0  0
 17 18  1  0  0  0
 18 19  2  0  0  0
 24 20  1  0  0  0
 19 11  1  0  0  0
  9  1  1  0  0  0
 36 31  1  0  0  0
 42 37  1  0  0  0
 19 13  1  0  0  0
  8  4  1  0  0  0
  7 10  1  0  0  0
 43 46  1  0  0  0
M  END
> <minimizedAffinity>
-10.02180

> <CNNscore>
0.2286045402

> <CNNaffinity>
6.8354325294

> <CNN_VS>
1.5626108646

> <CNNaffinity_variance>
0.1284024268

$$$$
[H]C([H])=C([H])C(=O)N([H])c1c([H])c([H])c([H])c(C2([H])C([H])([H])C([H])([H])N(C(=O)c3nc4c([H])c([H])c(C5=C(N6C([H])([H])C([H])([H])C([H])([H])[C@@]6([H])C(=O)OC([H])([H])[H])c6c([H])c([H])c([H])c(Cl)c65)c([H])c4n3[H])C([H])([H])C2([H])[H])c1[H]


 48 54  0  0  0  0  0  0  0  0999 V2000
   -2.3832   22.2226  -24.7114 C   0  0  0  0  0  0  0  0  0  0  0  0
   -1.0840   22.3571  -25.1486 C   0  0  0  0  0  0  0  0  0  0  0  0
   -0.0078   21.9887  -24.3558 C   0  0  0  0  0  0  0  0  0  0  0  0
   -0.2224   21.4706  -23.0914 C   0  0  0  0  0  0  0  0  0  0  0  0
    0.5676   21.0311  -22.1011 N   0  0  0  0  0  0  0  0  0  0  0  0
   -0.1315   20.6146  -21.0395 C   0  0  0  0  0  0  0  0  0  0  0  0
   -1.4260   20.8122  -21.4049 N   0  0  0  0  0  0  0  0  0  0  0  0
   -1.5091   21.3286  -22.6382 C   0  0  0  0  0  0  0  0  0  0  0  0
   -2.5728   21.7066  -23.4536 C   0  0  0  0  0  0  0  0  0  0  0  0
   -2.2726   20.6081  -20.8416 H   0  0  0  0  0  0  0  0  0  0  0  0
   -4.7808   22.8503  -25.4784 C   0  0  0  0  0  0  0  0  0  0  0  0
   -3.4639   22.6449  -25.6060 C   0  0  0  0  0  0  0  0  0  0  0  0
   -3.6021   23.0210  -27.0085 C   0  0  0  0  0  0  0  0  0  0  0  0
   -3.0871   23.2439  -28.2740 C   0  0  0  0  0  0  0  0  0  0  0  0
   -1.3487   23.0016  -28.5190 Cl  0  0  0  0  0  0  0  0  0  0  0  0
   -3.8517   23.6506  -29.3524 C   0  0  0  0  0  0  0  0  0  0  0  0
   -5.2087   23.8464  -29.1606 C   0  0  0  0  0  0  0  0  0  0  0  0
   -5.7576   23.6352  -27.9202 C   0  0  0  0  0  0  0  0  0  0  0  0
   -4.9673   23.2316  -26.8691 C   0  0  0  0  0  0  0  0  0  0  0  0
   -6.1275   23.7507  -23.4559 C   0  0  0  0  0  0  0  0  0  0  0  0
   -6.0817   23.0594  -22.0973 C   0  0  0  0  0  0  0  0  0  0  0  0
   -6.6981   21.7259  -22.4635 C   0  0  0  0  0  0  0  0  0  0  0  0
   -6.2973   21.4841  -23.9005 C   0  0  0  0  0  0  0  0  0  0  0  0
   -5.6717   22.7240  -24.3470 N   0  0  0  0  0  0  0  0  0  0  0  0
   -5.3296   24.9844  -23.4584 C   0  0  0  0  0  0  0  0  0  0  0  0
   -4.3686   25.0356  -22.6359 O   0  0  0  0  0  0  0  0  0  0  0  0
   -4.4332   26.7120  -24.9073 C   0  0  0  0  0  0  0  0  0  0  0  0
   -5.5238   26.0847  -24.2641 O   0  0  0  0  0  0  0  0  0  0  0  0
    0.2481   20.0603  -19.7719 C   0  0  0  0  0  0  0  0  0  0  0  0
    0.2667   20.8627  -18.7632 O   0  0  0  0  0  0  0  0  0  0  0  0
    0.5933   18.7128  -19.5815 N   0  0  0  0  0  0  0  0  0  0  0  0
    0.6407   17.7163  -20.5910 C   0  0  0  0  0  0  0  0  0  0  0  0
   -0.4883   16.7174  -20.2450 C   0  0  0  0  0  0  0  0  0  0  0  0
   -0.0867   16.1509  -18.8997 C   0  0  0  0  0  0  0  0  0  0  0  0
   -0.2023   17.2698  -17.8769 C   0  0  0  0  0  0  0  0  0  0  0  0
    0.9324   18.2436  -18.2117 C   0  0  0  0  0  0  0  0  0  0  0  0
   -0.8268   14.9462  -18.5103 C   0  0  0  0  0  0  0  0  0  0  0  0
   -0.3121   14.0287  -17.6456 C   0  0  0  0  0  0  0  0  0  0  0  0
   -1.0774   12.9320  -17.3512 C   0  0  0  0  0  0  0  0  0  0  0  0
   -2.3059   12.7366  -17.8827 C   0  0  0  0  0  0  0  0  0  0  0  0
   -2.8646   13.6667  -18.7790 C   0  0  0  0  0  0  0  0  0  0  0  0
   -2.1050   14.7607  -19.0738 C   0  0  0  0  0  0  0  0  0  0  0  0
   -4.1544   13.4481  -19.3040 N   0  0  0  0  0  0  0  0  0  0  0  0
   -5.3373   13.9254  -18.7538 C   0  0  0  0  0  0  0  0  0  0  0  0
   -5.3510   14.6195  -17.7143 O   0  0  0  0  0  0  0  0  0  0  0  0
   -4.1885   12.8620  -20.1981 H   0  0  0  0  0  0  0  0  0  0  0  0
   -6.6222   13.6414  -19.3600 C   0  0  0  0  0  0  0  0  0  0  0  0
   -6.8110   13.6969  -20.6426 C   0  0  0  0  0  0  0  0  0  0  0  0
 27 28  1  0  0  0
 28 25  1  0  0  0
 25 26  2  0  0  0
 25 20  1  0  0  0
 20 21  1  0  0  0
 21 22  1  0  0  0
 22 23  1  0  0  0
 23 24  1  0  0  0
 24 11  1  0  0  0
 11 12  2  0  0  0
 12  1  1  0  0  0
  1  2  2  0  0  0
  2  3  1  0  0  0
  3  4  2  0  0  0
  4  5  1  0  0  0
  5  6  2  0  0  0
  6  7  1  0  0  0
  7  8  1  0  0  0
  8  9  2  0  0  0
  6 29  1  0  0  0
 29 30  2  0  0  0
 29 31  1  0  0  0
 31 32  1  0  0  0
 32 33  1  0  0  0
 33 34  1  0  0  0
 34 35  1  0  0  0
 35 36  1  0  0  0
 34 37  1  0  0  0
 37 38  2  0  0  0
 38 39  1  0  0  0
 39 40  2  0  0  0
 40 41  1  0  0  0
 41 43  1  0  0  0
 43 44  1  0  0  0
 44 45  2  0  0  0
 44 47  1  0  0  0
 47 48  2  0  0  0
 41 42  2  0  0  0
 12 13  1  0  0  0
 13 14  2  0  0  0
 14 15  1  0  0  0
 14 16  1  0  0  0
 16 17  2  0  0  0
 17 18  1  0  0  0
 18 19  2  0  0  0
 24 20  1  0  0  0
 19 11  1  0  0  0
  9  1  1  0  0  0
 36 31  1  0  0  0
 42 37  1  0  0  0
 19 13  1  0  0  0
  8  4  1  0  0  0
  7 10  1  0  0  0
 43 46  1  0  0  0
M  END
> <minimizedAffinity>
-9.52637

> <CNNscore>
0.2108402997

> <CNNaffinity>
6.9816055298

> <CNN_VS>
1.4720038176

> <CNNaffinity_variance>
0.1043077707

$$$$
[H]C([H])=C([H])C(=O)N([H])c1c([H])c([H])c([H])c(C2([H])C([H])([H])C([H])([H])N(C(=O)c3nc4c([H])c([H])c(C5=C(N6C([H])([H])C([H])([H])C([H])([H])[C@@]6([H])C(=O)OC([H])([H])[H])c6c([H])c([H])c([H])c(Cl)c65)c([H])c4n3[H])C([H])([H])C2([H])[H])c1[H]


 48 54  0  0  0  0  0  0  0  0999 V2000
   -2.2557   22.3761  -24.9577 C   0  0  0  0  0  0  0  0  0  0  0  0
   -0.9765   22.7890  -25.2581 C   0  0  0  0  0  0  0  0  0  0  0  0
    0.1103   22.4122  -24.4839 C   0  0  0  0  0  0  0  0  0  0  0  0
   -0.0729   21.6013  -23.3784 C   0  0  0  0  0  0  0  0  0  0  0  0
    0.7344   21.0710  -22.4484 N   0  0  0  0  0  0  0  0  0  0  0  0
    0.0656   20.3335  -21.5551 C   0  0  0  0  0  0  0  0  0  0  0  0
   -1.2276   20.4195  -21.9654 N   0  0  0  0  0  0  0  0  0  0  0  0
   -1.3393   21.1792  -23.0632 C   0  0  0  0  0  0  0  0  0  0  0  0
   -2.4143   21.5722  -23.8564 C   0  0  0  0  0  0  0  0  0  0  0  0
   -2.0545   19.9763  -21.5233 H   0  0  0  0  0  0  0  0  0  0  0  0
   -4.6699   23.0038  -25.6707 C   0  0  0  0  0  0  0  0  0  0  0  0
   -3.3511   22.8269  -25.8199 C   0  0  0  0  0  0  0  0  0  0  0  0
   -3.5082   23.2735  -27.1995 C   0  0  0  0  0  0  0  0  0  0  0  0
   -3.0084   23.5706  -28.4558 C   0  0  0  0  0  0  0  0  0  0  0  0
   -1.2687   23.3698  -28.7278 Cl  0  0  0  0  0  0  0  0  0  0  0  0
   -3.7892   24.0205  -29.5051 C   0  0  0  0  0  0  0  0  0  0  0  0
   -5.1474   24.1839  -29.2920 C   0  0  0  0  0  0  0  0  0  0  0  0
   -5.6814   23.8992  -28.0597 C   0  0  0  0  0  0  0  0  0  0  0  0
   -4.8752   23.4542  -27.0379 C   0  0  0  0  0  0  0  0  0  0  0  0
   -6.0357   23.7804  -23.6100 C   0  0  0  0  0  0  0  0  0  0  0  0
   -5.9558   23.0427  -22.2776 C   0  0  0  0  0  0  0  0  0  0  0  0
   -6.5252   21.7014  -22.6888 C   0  0  0  0  0  0  0  0  0  0  0  0
   -6.1251   21.5266  -24.1357 C   0  0  0  0  0  0  0  0  0  0  0  0
   -5.5483   22.8039  -24.5401 N   0  0  0  0  0  0  0  0  0  0  0  0
   -5.2835   25.0419  -23.5718 C   0  0  0  0  0  0  0  0  0  0  0  0
   -4.2486   25.0591  -22.8428 O   0  0  0  0  0  0  0  0  0  0  0  0
   -4.7259   26.7136  -25.2398 C   0  0  0  0  0  0  0  0  0  0  0  0
   -5.5926   26.2014  -24.2482 O   0  0  0  0  0  0  0  0  0  0  0  0
    0.4743   19.5721  -20.4099 C   0  0  0  0  0  0  0  0  0  0  0  0
    1.0982   18.4664  -20.6335 O   0  0  0  0  0  0  0  0  0  0  0  0
    0.2319   19.9656  -19.0842 N   0  0  0  0  0  0  0  0  0  0  0  0
   -0.4567   21.1382  -18.6780 C   0  0  0  0  0  0  0  0  0  0  0  0
    0.6010   22.0216  -17.9758 C   0  0  0  0  0  0  0  0  0  0  0  0
    1.0370   21.2028  -16.7794 C   0  0  0  0  0  0  0  0  0  0  0  0
    1.7954   19.9932  -17.3022 C   0  0  0  0  0  0  0  0  0  0  0  0
    0.7382   19.1125  -17.9764 C   0  0  0  0  0  0  0  0  0  0  0  0
    1.7950   21.9595  -15.7778 C   0  0  0  0  0  0  0  0  0  0  0  0
    1.2120   22.4544  -14.6510 C   0  0  0  0  0  0  0  0  0  0  0  0
    2.0028   23.1558  -13.7804 C   0  0  0  0  0  0  0  0  0  0  0  0
    3.3205   23.3670  -14.0014 C   0  0  0  0  0  0  0  0  0  0  0  0
    3.9514   22.8682  -15.1563 C   0  0  0  0  0  0  0  0  0  0  0  0
    3.1664   22.1686  -16.0252 C   0  0  0  0  0  0  0  0  0  0  0  0
    5.3300   23.0869  -15.3530 N   0  0  0  0  0  0  0  0  0  0  0  0
    5.8794   24.0392  -16.2021 C   0  0  0  0  0  0  0  0  0  0  0  0
    5.1671   24.8122  -16.8786 O   0  0  0  0  0  0  0  0  0  0  0  0
    5.9770   22.4492  -14.7883 H   0  0  0  0  0  0  0  0  0  0  0  0
    7.3134   24.1857  -16.3476 C   0  0  0  0  0  0  0  0  0  0  0  0
    7.9969   23.4952  -17.2078 C   0  0  0  0  0  0  0  0  0  0  0  0
 27 28  1  0  0  0
 28 25  1  0  0  0
 25 26  2  0  0  0
 25 20  1  0  0  0
 20 21  1  0  0  0
 21 22  1  0  0  0
 22 23  1  0  0  0
 23 24  1  0  0  0
 24 11  1  0  0  0
 11 12  2  0  0  0
 12  1  1  0  0  0
  1  2  2  0  0  0
  2  3  1  0  0  0
  3  4  2  0  0  0
  4  5  1  0  0  0
  5  6  2  0  0  0
  6  7  1  0  0  0
  7  8  1  0  0  0
  8  9  2  0  0  0
  6 29  1  0  0  0
 29 30  2  0  0  0
 29 31  1  0  0  0
 31 32  1  0  0  0
 32 33  1  0  0  0
 33 34  1  0  0  0
 34 35  1  0  0  0
 35 36  1  0  0  0
 34 37  1  0  0  0
 37 38  2  0  0  0
 38 39  1  0  0  0
 39 40  2  0  0  0
 40 41  1  0  0  0
 41 43  1  0  0  0
 43 44  1  0  0  0
 44 45  2  0  0  0
 44 47  1  0  0  0
 47 48  2  0  0  0
 41 42  2  0  0  0
 12 13  1  0  0  0
 13 14  2  0  0  0
 14 15  1  0  0  0
 14 16  1  0  0  0
 16 17  2  0  0  0
 17 18  1  0  0  0
 18 19  2  0  0  0
 24 20  1  0  0  0
 19 11  1  0  0  0
  9  1  1  0  0  0
 36 31  1  0  0  0
 42 37  1  0  0  0
 19 13  1  0  0  0
  8  4  1  0  0  0
  7 10  1  0  0  0
 43 46  1  0  0  0
M  END
> <minimizedAffinity>
-10.11574

> <CNNscore>
0.1798804700

> <CNNaffinity>
6.8146300316

> <CNN_VS>
1.2258188725

> <CNNaffinity_variance>
0.2088259757

$$$$
[H]C([H])=C([H])C(=O)N([H])c1c([H])c([H])c([H])c(C2([H])C([H])([H])C([H])([H])N(C(=O)c3nc4c([H])c([H])c(C5=C(N6C([H])([H])C([H])([H])C([H])([H])[C@@]6([H])C(=O)OC([H])([H])[H])c6c([H])c([H])c([H])c(Cl)c65)c([H])c4n3[H])C([H])([H])C2([H])[H])c1[H]


 48 54  0  0  0  0  0  0  0  0999 V2000
    1.2899   20.3945  -21.4810 C   0  0  0  0  0  0  0  0  0  0  0  0
    2.2440   20.7245  -22.4179 C   0  0  0  0  0  0  0  0  0  0  0  0
    1.9069   21.3377  -23.6149 C   0  0  0  0  0  0  0  0  0  0  0  0
    0.5851   21.6346  -23.8944 C   0  0  0  0  0  0  0  0  0  0  0  0
   -0.0609   22.2044  -24.9219 N   0  0  0  0  0  0  0  0  0  0  0  0
   -1.3813   22.2708  -24.7187 C   0  0  0  0  0  0  0  0  0  0  0  0
   -1.5503   21.7074  -23.4930 N   0  0  0  0  0  0  0  0  0  0  0  0
   -0.3797   21.3142  -22.9737 C   0  0  0  0  0  0  0  0  0  0  0  0
   -0.0151   20.6981  -21.7792 C   0  0  0  0  0  0  0  0  0  0  0  0
   -2.4441   21.5751  -22.9837 H   0  0  0  0  0  0  0  0  0  0  0  0
    2.1499   20.1542  -19.0451 C   0  0  0  0  0  0  0  0  0  0  0  0
    1.7273   19.7390  -20.2459 C   0  0  0  0  0  0  0  0  0  0  0  0
    1.9043   18.3721  -19.7687 C   0  0  0  0  0  0  0  0  0  0  0  0
    1.8538   16.9990  -19.9375 C   0  0  0  0  0  0  0  0  0  0  0  0
    1.2952   16.3728  -21.4984 Cl  0  0  0  0  0  0  0  0  0  0  0  0
    2.2081   16.0921  -18.9551 C   0  0  0  0  0  0  0  0  0  0  0  0
    2.6385   16.5801  -17.7331 C   0  0  0  0  0  0  0  0  0  0  0  0
    2.7030   17.9358  -17.5268 C   0  0  0  0  0  0  0  0  0  0  0  0
    2.3421   18.8096  -18.5259 C   0  0  0  0  0  0  0  0  0  0  0  0
    1.3684   22.3315  -17.8775 C   0  0  0  0  0  0  0  0  0  0  0  0
    1.7336   23.7059  -18.4287 C   0  0  0  0  0  0  0  0  0  0  0  0
    3.2392   23.6547  -18.2775 C   0  0  0  0  0  0  0  0  0  0  0  0
    3.6072   22.1998  -18.4558 C   0  0  0  0  0  0  0  0  0  0  0  0
    2.3409   21.4768  -18.4939 N   0  0  0  0  0  0  0  0  0  0  0  0
   -0.0333   21.9943  -18.1601 C   0  0  0  0  0  0  0  0  0  0  0  0
   -0.6293   22.7242  -19.0056 O   0  0  0  0  0  0  0  0  0  0  0  0
   -1.5472   20.1135  -18.4024 C   0  0  0  0  0  0  0  0  0  0  0  0
   -0.7586   20.9668  -17.5982 O   0  0  0  0  0  0  0  0  0  0  0  0
   -2.4681   22.7911  -25.4975 C   0  0  0  0  0  0  0  0  0  0  0  0
   -2.6411   22.2880  -26.6717 O   0  0  0  0  0  0  0  0  0  0  0  0
   -3.3345   23.8015  -25.0508 N   0  0  0  0  0  0  0  0  0  0  0  0
   -3.2611   24.4659  -23.7989 C   0  0  0  0  0  0  0  0  0  0  0  0
   -4.5340   24.0451  -23.0276 C   0  0  0  0  0  0  0  0  0  0  0  0
   -5.6739   24.5842  -23.8654 C   0  0  0  0  0  0  0  0  0  0  0  0
   -5.7026   23.7949  -25.1645 C   0  0  0  0  0  0  0  0  0  0  0  0
   -4.4513   24.2334  -25.9327 C   0  0  0  0  0  0  0  0  0  0  0  0
   -6.9699   24.5967  -23.1793 C   0  0  0  0  0  0  0  0  0  0  0  0
   -8.0330   25.3033  -23.6536 C   0  0  0  0  0  0  0  0  0  0  0  0
   -9.1984   25.2586  -22.9360 C   0  0  0  0  0  0  0  0  0  0  0  0
   -9.3233   24.5466  -21.7926 C   0  0  0  0  0  0  0  0  0  0  0  0
   -8.2429   23.8065  -21.2774 C   0  0  0  0  0  0  0  0  0  0  0  0
   -7.0806   23.8485  -21.9903 C   0  0  0  0  0  0  0  0  0  0  0  0
   -8.4054   23.0583  -20.0938 N   0  0  0  0  0  0  0  0  0  0  0  0
   -8.5672   21.6801  -20.0302 C   0  0  0  0  0  0  0  0  0  0  0  0
   -8.5739   20.9665  -21.0565 O   0  0  0  0  0  0  0  0  0  0  0  0
   -8.4005   23.6301  -19.1897 H   0  0  0  0  0  0  0  0  0  0  0  0
   -8.7375   20.9960  -18.7645 C   0  0  0  0  0  0  0  0  0  0  0  0
   -7.8553   20.1644  -18.3019 C   0  0  0  0  0  0  0  0  0  0  0  0
 27 28  1  0  0  0
 28 25  1  0  0  0
 25 26  2  0  0  0
 25 20  1  0  0  0
 20 21  1  0  0  0
 21 22  1  0  0  0
 22 23  1  0  0  0
 23 24  1  0  0  0
 24 11  1  0  0  0
 11 12  2  0  0  0
 12  1  1  0  0  0
  1  2  2  0  0  0
  2  3  1  0  0  0
  3  4  2  0  0  0
  4  5  1  0  0  0
  5  6  2  0  0  0
  6  7  1  0  0  0
  7  8  1  0  0  0
  8  9  2  0  0  0
  6 29  1  0  0  0
 29 30  2  0  0  0
 29 31  1  0  0  0
 31 32  1  0  0  0
 32 33  1  0  0  0
 33 34  1  0  0  0
 34 35  1  0  0  0
 35 36  1  0  0  0
 34 37  1  0  0  0
 37 38  2  0  0  0
 38 39  1  0  0  0
 39 40  2  0  0  0
 40 41  1  0  0  0
 41 43  1  0  0  0
 43 44  1  0  0  0
 44 45  2  0  0  0
 44 47  1  0  0  0
 47 48  2  0  0  0
 41 42  2  0  0  0
 12 13  1  0  0  0
 13 14  2  0  0  0
 14 15  1  0  0  0
 14 16  1  0  0  0
 16 17  2  0  0  0
 17 18  1  0  0  0
 18 19  2  0  0  0
 24 20  1  0  0  0
 19 11  1  0  0  0
  9  1  1  0  0  0
 36 31  1  0  0  0
 42 37  1  0  0  0
 19 13  1  0  0  0
  8  4  1  0  0  0
  7 10  1  0  0  0
 43 46  1  0  0  0
M  END
> <minimizedAffinity>
-8.40072

> <CNNscore>
0.1723809093

> <CNNaffinity>
6.9328255653

> <CNN_VS>
1.1950867176

> <CNNaffinity_variance>
0.1649211347

$$$$
[H]C([H])=C([H])C(=O)N([H])c1c([H])c([H])c([H])c(C2([H])C([H])([H])C([H])([H])N(C(=O)c3nc4c([H])c([H])c(C5=C(N6C([H])([H])C([H])([H])C([H])([H])[C@@]6([H])C(=O)OC([H])([H])[H])c6c([H])c([H])c([H])c(Cl)c65)c([H])c4n3[H])C([H])([H])C2([H])[H])c1[H]


 48 54  0  0  0  0  0  0  0  0999 V2000
   -2.4321   22.3406  -24.9595 C   0  0  0  0  0  0  0  0  0  0  0  0
   -1.1571   22.4171  -25.4749 C   0  0  0  0  0  0  0  0  0  0  0  0
   -0.0465   22.0622  -24.7246 C   0  0  0  0  0  0  0  0  0  0  0  0
   -0.2009   21.6174  -23.4240 C   0  0  0  0  0  0  0  0  0  0  0  0
    0.6336   21.2096  -22.4569 N   0  0  0  0  0  0  0  0  0  0  0  0
   -0.0135   20.8685  -21.3371 C   0  0  0  0  0  0  0  0  0  0  0  0
   -1.3216   21.0812  -21.6399 N   0  0  0  0  0  0  0  0  0  0  0  0
   -1.4627   21.5339  -22.8929 C   0  0  0  0  0  0  0  0  0  0  0  0
   -2.5618   21.8969  -23.6670 C   0  0  0  0  0  0  0  0  0  0  0  0
   -2.1394   20.9298  -21.0202 H   0  0  0  0  0  0  0  0  0  0  0  0
   -4.8684   22.9152  -25.6415 C   0  0  0  0  0  0  0  0  0  0  0  0
   -3.5517   22.7441  -25.8140 C   0  0  0  0  0  0  0  0  0  0  0  0
   -3.7452   23.1297  -27.2074 C   0  0  0  0  0  0  0  0  0  0  0  0
   -3.2776   23.3773  -28.4866 C   0  0  0  0  0  0  0  0  0  0  0  0
   -1.5427   23.1811  -28.7906 Cl  0  0  0  0  0  0  0  0  0  0  0  0
   -4.0870   23.7748  -29.5354 C   0  0  0  0  0  0  0  0  0  0  0  0
   -5.4415   23.9347  -29.2975 C   0  0  0  0  0  0  0  0  0  0  0  0
   -5.9440   23.6982  -28.0420 C   0  0  0  0  0  0  0  0  0  0  0  0
   -5.1099   23.3047  -27.0214 C   0  0  0  0  0  0  0  0  0  0  0  0
   -6.1442   23.7570  -23.5490 C   0  0  0  0  0  0  0  0  0  0  0  0
   -6.0487   23.0296  -22.2119 C   0  0  0  0  0  0  0  0  0  0  0  0
   -6.6751   21.7046  -22.5918 C   0  0  0  0  0  0  0  0  0  0  0  0
   -6.3252   21.5027  -24.0481 C   0  0  0  0  0  0  0  0  0  0  0  0
   -5.7183   22.7559  -24.4830 N   0  0  0  0  0  0  0  0  0  0  0  0
   -5.3492   24.9926  -23.5465 C   0  0  0  0  0  0  0  0  0  0  0  0
   -4.3880   25.0427  -22.7242 O   0  0  0  0  0  0  0  0  0  0  0  0
   -4.4994   26.6054  -25.1479 C   0  0  0  0  0  0  0  0  0  0  0  0
   -5.5465   26.0959  -24.3474 O   0  0  0  0  0  0  0  0  0  0  0  0
    0.4244   20.3716  -20.0644 C   0  0  0  0  0  0  0  0  0  0  0  0
    0.5291   19.0929  -19.9390 O   0  0  0  0  0  0  0  0  0  0  0  0
    0.7379   21.1950  -18.9713 N   0  0  0  0  0  0  0  0  0  0  0  0
    0.6530   22.6114  -18.9463 C   0  0  0  0  0  0  0  0  0  0  0  0
    2.1089   23.1148  -18.8079 C   0  0  0  0  0  0  0  0  0  0  0  0
    2.5664   22.5719  -17.4707 C   0  0  0  0  0  0  0  0  0  0  0  0
    2.6660   21.0601  -17.5983 C   0  0  0  0  0  0  0  0  0  0  0  0
    1.2197   20.5670  -17.7124 C   0  0  0  0  0  0  0  0  0  0  0  0
    3.8002   23.1821  -16.9652 C   0  0  0  0  0  0  0  0  0  0  0  0
    4.1161   24.4842  -17.2089 C   0  0  0  0  0  0  0  0  0  0  0  0
    5.2959   24.9589  -16.7010 C   0  0  0  0  0  0  0  0  0  0  0  0
    6.1404   24.1885  -15.9779 C   0  0  0  0  0  0  0  0  0  0  0  0
    5.8417   22.8397  -15.7094 C   0  0  0  0  0  0  0  0  0  0  0  0
    4.6668   22.3639  -16.2134 C   0  0  0  0  0  0  0  0  0  0  0  0
    6.7304   22.0641  -14.9375 N   0  0  0  0  0  0  0  0  0  0  0  0
    6.7088   21.9571  -13.5527 C   0  0  0  0  0  0  0  0  0  0  0  0
    5.8621   22.5572  -12.8557 O   0  0  0  0  0  0  0  0  0  0  0  0
    7.4696   21.5287  -15.4954 H   0  0  0  0  0  0  0  0  0  0  0  0
    7.6715   21.1405  -12.8418 C   0  0  0  0  0  0  0  0  0  0  0  0
    7.5115   20.8042  -11.5988 C   0  0  0  0  0  0  0  0  0  0  0  0
 27 28  1  0  0  0
 28 25  1  0  0  0
 25 26  2  0  0  0
 25 20  1  0  0  0
 20 21  1  0  0  0
 21 22  1  0  0  0
 22 23  1  0  0  0
 23 24  1  0  0  0
 24 11  1  0  0  0
 11 12  2  0  0  0
 12  1  1  0  0  0
  1  2  2  0  0  0
  2  3  1  0  0  0
  3  4  2  0  0  0
  4  5  1  0  0  0
  5  6  2  0  0  0
  6  7  1  0  0  0
  7  8  1  0  0  0
  8  9  2  0  0  0
  6 29  1  0  0  0
 29 30  2  0  0  0
 29 31  1  0  0  0
 31 32  1  0  0  0
 32 33  1  0  0  0
 33 34  1  0  0  0
 34 35  1  0  0  0
 35 36  1  0  0  0
 34 37  1  0  0  0
 37 38  2  0  0  0
 38 39  1  0  0  0
 39 40  2  0  0  0
 40 41  1  0  0  0
 41 43  1  0  0  0
 43 44  1  0  0  0
 44 45  2  0  0  0
 44 47  1  0  0  0
 47 48  2  0  0  0
 41 42  2  0  0  0
 12 13  1  0  0  0
 13 14  2  0  0  0
 14 15  1  0  0  0
 14 16  1  0  0  0
 16 17  2  0  0  0
 17 18  1  0  0  0
 18 19  2  0  0  0
 24 20  1  0  0  0
 19 11  1  0  0  0
  9  1  1  0  0  0
 36 31  1  0  0  0
 42 37  1  0  0  0
 19 13  1  0  0  0
  8  4  1  0  0  0
  7 10  1  0  0  0
 43 46  1  0  0  0
M  END
> <minimizedAffinity>
-10.37915

> <CNNscore>
0.1694935411

> <CNNaffinity>
6.7100052834

> <CNN_VS>
1.1373025179

> <CNNaffinity_variance>
0.1456247866

$$$$
[H]c1nc(N([H])[H])nc(-c2c([H])c(OC([H])([H])[H])c([H])c(SC([H])([H])[H])c2[H])c1-c1c([H])c([H])c(N2C([H])([H])C([H])([H])N(C([H])([H])C([H])([H])[H])C([H])([H])C2([H])[H])c(F)c1[H]


 34 37  0  0  0  0  0  0  0  0999 V2000
   -2.8374   22.6656  -24.7797 C   0  0  0  0  0  0  0  0  0  0  0  0
   -1.8412   21.9012  -24.1908 C   0  0  0  0  0  0  0  0  0  0  0  0
   -0.6782   21.6998  -24.8492 N   0  0  0  0  0  0  0  0  0  0  0  0
   -0.4292   22.2099  -26.0678 C   0  0  0  0  0  0  0  0  0  0  0  0
    0.8298   21.9699  -26.7297 N   0  0  0  0  0  0  0  0  0  0  0  0
   -1.3876   22.9507  -26.6449 N   0  0  0  0  0  0  0  0  0  0  0  0
   -2.5819   23.1808  -26.0140 C   0  0  0  0  0  0  0  0  0  0  0  0
    1.4396   22.7563  -27.0510 H   0  0  0  0  0  0  0  0  0  0  0  0
    1.1834   21.0072  -26.9149 H   0  0  0  0  0  0  0  0  0  0  0  0
   -6.4567   23.5970  -22.8078 C   0  0  0  0  0  0  0  0  0  0  0  0
   -6.4324   22.6182  -23.8091 C   0  0  0  0  0  0  0  0  0  0  0  0
   -5.2758   22.2822  -24.4758 C   0  0  0  0  0  0  0  0  0  0  0  0
   -4.1151   22.9333  -24.1412 C   0  0  0  0  0  0  0  0  0  0  0  0
   -4.1468   23.9154  -23.1329 C   0  0  0  0  0  0  0  0  0  0  0  0
   -5.3000   24.2531  -22.4650 C   0  0  0  0  0  0  0  0  0  0  0  0
   -5.2999   25.2140  -21.4829 F   0  0  0  0  0  0  0  0  0  0  0  0
   -9.7130   24.9676  -20.6003 N   0  0  0  0  0  0  0  0  0  0  0  0
   -9.8249   24.9583  -22.0288 C   0  0  0  0  0  0  0  0  0  0  0  0
   -8.3922   25.1157  -22.5554 C   0  0  0  0  0  0  0  0  0  0  0  0
   -7.6748   23.9258  -22.1475 N   0  0  0  0  0  0  0  0  0  0  0  0
   -8.1935   23.0823  -21.0920 C   0  0  0  0  0  0  0  0  0  0  0  0
   -9.0101   23.8424  -20.0733 C   0  0  0  0  0  0  0  0  0  0  0  0
  -11.5686   26.5807  -20.4331 C   0  0  0  0  0  0  0  0  0  0  0  0
  -10.9045   25.3360  -19.9057 C   0  0  0  0  0  0  0  0  0  0  0  0
   -3.5677   23.9850  -26.6876 C   0  0  0  0  0  0  0  0  0  0  0  0
   -4.0586   23.5467  -27.8962 C   0  0  0  0  0  0  0  0  0  0  0  0
   -4.9932   24.2334  -28.6223 C   0  0  0  0  0  0  0  0  0  0  0  0
   -5.4786   25.4218  -28.1394 C   0  0  0  0  0  0  0  0  0  0  0  0
   -5.0129   25.8957  -26.9335 C   0  0  0  0  0  0  0  0  0  0  0  0
   -4.0620   25.1769  -26.2155 C   0  0  0  0  0  0  0  0  0  0  0  0
   -5.6033   23.6297  -30.1842 S   0  0  0  0  0  0  0  0  0  0  0  0
   -5.6645   25.0028  -31.3411 C   0  0  0  0  0  0  0  0  0  0  0  0
   -5.5189   27.0991  -26.4661 O   0  0  0  0  0  0  0  0  0  0  0  0
   -5.7571   27.3355  -25.1031 C   0  0  0  0  0  0  0  0  0  0  0  0
 23 24  1  0  0  0
 24 17  1  0  0  0
 17 18  1  0  0  0
 18 19  1  0  0  0
 19 20  1  0  0  0
 20 21  1  0  0  0
 21 22  1  0  0  0
 20 10  1  0  0  0
 10 11  2  0  0  0
 11 12  1  0  0  0
 12 13  2  0  0  0
 13 14  1  0  0  0
 14 15  2  0  0  0
 15 16  1  0  0  0
 13  1  1  0  0  0
  1  2  2  0  0  0
  2  3  1  0  0  0
  3  4  2  0  0  0
  4  5  1  0  0  0
  4  6  1  0  0  0
  6  7  2  0  0  0
  7 25  1  0  0  0
 25 26  2  0  0  0
 26 27  1  0  0  0
 27 31  1  0  0  0
 31 32  1  0  0  0
 27 28  2  0  0  0
 28 29  1  0  0  0
 29 33  1  0  0  0
 33 34  1  0  0  0
 29 30  2  0  0  0
 22 17  1  0  0  0
 15 10  1  0  0  0
  7  1  1  0  0  0
 30 25  1  0  0  0
  5  8  1  0  0  0
  5  9  1  0  0  0
M  END
> <minimizedAffinity>
-8.56170

> <CNNscore>
0.4180019498

> <CNNaffinity>
7.1521806717

> <CNN_VS>
2.9896254539

> <CNNaffinity_variance>
0.0324532688

$$$$
[H]c1nc(N([H])[H])nc(-c2c([H])c(OC([H])([H])[H])c([H])c(SC([H])([H])[H])c2[H])c1-c1c([H])c([H])c(N2C([H])([H])C([H])([H])N(C([H])([H])C([H])([H])[H])C([H])([H])C2([H])[H])c(F)c1[H]


 34 37  0  0  0  0  0  0  0  0999 V2000
   -5.4291   25.1517  -27.0770 C   0  0  0  0  0  0  0  0  0  0  0  0
   -6.2343   26.0153  -27.8047 C   0  0  0  0  0  0  0  0  0  0  0  0
   -6.1102   26.0686  -29.1495 N   0  0  0  0  0  0  0  0  0  0  0  0
   -5.2318   25.3155  -29.8340 C   0  0  0  0  0  0  0  0  0  0  0  0
   -5.1385   25.4054  -31.2707 N   0  0  0  0  0  0  0  0  0  0  0  0
   -4.4489   24.4773  -29.1378 N   0  0  0  0  0  0  0  0  0  0  0  0
   -4.5405   24.3904  -27.7734 C   0  0  0  0  0  0  0  0  0  0  0  0
   -5.2595   24.5656  -31.8820 H   0  0  0  0  0  0  0  0  0  0  0  0
   -4.9476   26.3066  -31.7579 H   0  0  0  0  0  0  0  0  0  0  0  0
   -5.8278   24.7149  -22.8931 C   0  0  0  0  0  0  0  0  0  0  0  0
   -4.6363   25.2086  -23.4388 C   0  0  0  0  0  0  0  0  0  0  0  0
   -4.4640   25.3685  -24.7952 C   0  0  0  0  0  0  0  0  0  0  0  0
   -5.4987   25.0301  -25.6306 C   0  0  0  0  0  0  0  0  0  0  0  0
   -6.6941   24.5354  -25.0749 C   0  0  0  0  0  0  0  0  0  0  0  0
   -6.8696   24.3748  -23.7209 C   0  0  0  0  0  0  0  0  0  0  0  0
   -8.0489   23.8922  -23.2070 F   0  0  0  0  0  0  0  0  0  0  0  0
   -5.7351   24.5402  -18.7318 N   0  0  0  0  0  0  0  0  0  0  0  0
   -6.8957   25.1034  -19.3557 C   0  0  0  0  0  0  0  0  0  0  0  0
   -6.4068   25.6801  -20.6910 C   0  0  0  0  0  0  0  0  0  0  0  0
   -5.9655   24.5525  -21.4851 N   0  0  0  0  0  0  0  0  0  0  0  0
   -5.6779   23.2808  -20.8569 C   0  0  0  0  0  0  0  0  0  0  0  0
   -5.1952   23.4194  -19.4320 C   0  0  0  0  0  0  0  0  0  0  0  0
   -6.5758   23.1837  -16.8540 C   0  0  0  0  0  0  0  0  0  0  0  0
   -5.8209   24.4033  -17.3135 C   0  0  0  0  0  0  0  0  0  0  0  0
   -3.6720   23.4703  -27.0867 C   0  0  0  0  0  0  0  0  0  0  0  0
   -4.2029   22.6872  -26.0875 C   0  0  0  0  0  0  0  0  0  0  0  0
   -3.4681   21.7839  -25.3688 C   0  0  0  0  0  0  0  0  0  0  0  0
   -2.1323   21.6359  -25.6418 C   0  0  0  0  0  0  0  0  0  0  0  0
   -1.5620   22.4012  -26.6341 C   0  0  0  0  0  0  0  0  0  0  0  0
   -2.3327   23.3125  -27.3498 C   0  0  0  0  0  0  0  0  0  0  0  0
   -4.1955   20.7880  -24.0822 S   0  0  0  0  0  0  0  0  0  0  0  0
   -5.9641   21.1015  -24.0502 C   0  0  0  0  0  0  0  0  0  0  0  0
   -0.2099   22.2336  -26.8917 O   0  0  0  0  0  0  0  0  0  0  0  0
    0.7067   21.8739  -25.8912 C   0  0  0  0  0  0  0  0  0  0  0  0
 23 24  1  0  0  0
 24 17  1  0  0  0
 17 18  1  0  0  0
 18 19  1  0  0  0
 19 20  1  0  0  0
 20 21  1  0  0  0
 21 22  1  0  0  0
 20 10  1  0  0  0
 10 11  2  0  0  0
 11 12  1  0  0  0
 12 13  2  0  0  0
 13 14  1  0  0  0
 14 15  2  0  0  0
 15 16  1  0  0  0
 13  1  1  0  0  0
  1  2  2  0  0  0
  2  3  1  0  0  0
  3  4  2  0  0  0
  4  5  1  0  0  0
  4  6  1  0  0  0
  6  7  2  0  0  0
  7 25  1  0  0  0
 25 26  2  0  0  0
 26 27  1  0  0  0
 27 31  1  0  0  0
 31 32  1  0  0  0
 27 28  2  0  0  0
 28 29  1  0  0  0
 29 33  1  0  0  0
 33 34  1  0  0  0
 29 30  2  0  0  0
 22 17  1  0  0  0
 15 10  1  0  0  0
  7  1  1  0  0  0
 30 25  1  0  0  0
  5  8  1  0  0  0
  5  9  1  0  0  0
M  END
> <minimizedAffinity>
-8.34397

> <CNNscore>
0.3680309951

> <CNNaffinity>
6.9603409767

> <CNN_VS>
2.5616211891

> <CNNaffinity_variance>
0.0874678195

$$$$
[H]c1nc(N([H])[H])nc(-c2c([H])c(OC([H])([H])[H])c([H])c(SC([H])([H])[H])c2[H])c1-c1c([H])c([H])c(N2C([H])([H])C([H])([H])N(C([H])([H])C([H])([H])[H])C([H])([H])C2([H])[H])c(F)c1[H]


 34 37  0  0  0  0  0  0  0  0999 V2000
   -2.6139   22.3332  -24.7974 C   0  0  0  0  0  0  0  0  0  0  0  0
   -1.4972   21.6778  -24.3004 C   0  0  0  0  0  0  0  0  0  0  0  0
   -0.3532   21.6704  -25.0202 N   0  0  0  0  0  0  0  0  0  0  0  0
   -0.2361   22.2753  -26.2150 C   0  0  0  0  0  0  0  0  0  0  0  0
    1.0078   22.2426  -26.9447 N   0  0  0  0  0  0  0  0  0  0  0  0
   -1.3118   22.9117  -26.7031 N   0  0  0  0  0  0  0  0  0  0  0  0
   -2.4919   22.9449  -26.0078 C   0  0  0  0  0  0  0  0  0  0  0  0
    1.4919   23.1201  -27.2435 H   0  0  0  0  0  0  0  0  0  0  0  0
    1.4744   21.3475  -27.2037 H   0  0  0  0  0  0  0  0  0  0  0  0
   -6.2131   22.6520  -22.6067 C   0  0  0  0  0  0  0  0  0  0  0  0
   -6.1384   21.8030  -23.7179 C   0  0  0  0  0  0  0  0  0  0  0  0
   -4.9861   21.6675  -24.4588 C   0  0  0  0  0  0  0  0  0  0  0  0
   -3.8811   22.3920  -24.0885 C   0  0  0  0  0  0  0  0  0  0  0  0
   -3.9632   23.2428  -22.9697 C   0  0  0  0  0  0  0  0  0  0  0  0
   -5.1122   23.3803  -22.2275 C   0  0  0  0  0  0  0  0  0  0  0  0
   -5.1619   24.2163  -21.1383 F   0  0  0  0  0  0  0  0  0  0  0  0
   -9.4298   23.2023  -20.0172 N   0  0  0  0  0  0  0  0  0  0  0  0
   -9.4593   23.8794  -21.2798 C   0  0  0  0  0  0  0  0  0  0  0  0
   -7.9899   24.0930  -21.6672 C   0  0  0  0  0  0  0  0  0  0  0  0
   -7.4261   22.7749  -21.8710 N   0  0  0  0  0  0  0  0  0  0  0  0
   -8.0906   21.6032  -21.3418 C   0  0  0  0  0  0  0  0  0  0  0  0
   -8.8805   21.8864  -20.0855 C   0  0  0  0  0  0  0  0  0  0  0  0
  -11.4790   24.5117  -19.6181 C   0  0  0  0  0  0  0  0  0  0  0  0
  -10.6143   23.3404  -19.2325 C   0  0  0  0  0  0  0  0  0  0  0  0
   -3.6079   23.6457  -26.5873 C   0  0  0  0  0  0  0  0  0  0  0  0
   -4.0581   24.7896  -25.9689 C   0  0  0  0  0  0  0  0  0  0  0  0
   -5.1120   25.5298  -26.4311 C   0  0  0  0  0  0  0  0  0  0  0  0
   -5.7676   25.1287  -27.5670 C   0  0  0  0  0  0  0  0  0  0  0  0
   -5.3486   23.9890  -28.2158 C   0  0  0  0  0  0  0  0  0  0  0  0
   -4.2736   23.2548  -27.7239 C   0  0  0  0  0  0  0  0  0  0  0  0
   -5.6631   27.0067  -25.5997 S   0  0  0  0  0  0  0  0  0  0  0  0
   -6.5959   26.5254  -24.1417 C   0  0  0  0  0  0  0  0  0  0  0  0
   -6.0271   23.6039  -29.3621 O   0  0  0  0  0  0  0  0  0  0  0  0
   -5.6937   24.0960  -30.6338 C   0  0  0  0  0  0  0  0  0  0  0  0
 23 24  1  0  0  0
 24 17  1  0  0  0
 17 18  1  0  0  0
 18 19  1  0  0  0
 19 20  1  0  0  0
 20 21  1  0  0  0
 21 22  1  0  0  0
 20 10  1  0  0  0
 10 11  2  0  0  0
 11 12  1  0  0  0
 12 13  2  0  0  0
 13 14  1  0  0  0
 14 15  2  0  0  0
 15 16  1  0  0  0
 13  1  1  0  0  0
  1  2  2  0  0  0
  2  3  1  0  0  0
  3  4  2  0  0  0
  4  5  1  0  0  0
  4  6  1  0  0  0
  6  7  2  0  0  0
  7 25  1  0  0  0
 25 26  2  0  0  0
 26 27  1  0  0  0
 27 31  1  0  0  0
 31 32  1  0  0  0
 27 28  2  0  0  0
 28 29  1  0  0  0
 29 33  1  0  0  0
 33 34  1  0  0  0
 29 30  2  0  0  0
 22 17  1  0  0  0
 15 10  1  0  0  0
  7  1  1  0  0  0
 30 25  1  0  0  0
  5  8  1  0  0  0
  5  9  1  0  0  0
M  END
> <minimizedAffinity>
-8.59435

> <CNNscore>
0.3308814764

> <CNNaffinity>
7.0395956039

> <CNN_VS>
2.3292717934

> <CNNaffinity_variance>
0.0208566021

$$$$
[H]c1nc(N([H])[H])nc(-c2c([H])c(OC([H])([H])[H])c([H])c(SC([H])([H])[H])c2[H])c1-c1c([H])c([H])c(N2C([H])([H])C([H])([H])N(C([H])([H])C([H])([H])[H])C([H])([H])C2([H])[H])c(F)c1[H]


 34 37  0  0  0  0  0  0  0  0999 V2000
   -5.6059   24.9352  -26.7823 C   0  0  0  0  0  0  0  0  0  0  0  0
   -6.4276   25.7792  -27.5145 C   0  0  0  0  0  0  0  0  0  0  0  0
   -6.3350   25.7951  -28.8628 N   0  0  0  0  0  0  0  0  0  0  0  0
   -5.4732   25.0225  -29.5466 C   0  0  0  0  0  0  0  0  0  0  0  0
   -5.4136   25.0724  -30.9870 N   0  0  0  0  0  0  0  0  0  0  0  0
   -4.6746   24.2030  -28.8459 N   0  0  0  0  0  0  0  0  0  0  0  0
   -4.7342   24.1540  -27.4779 C   0  0  0  0  0  0  0  0  0  0  0  0
   -5.5492   24.2162  -31.5718 H   0  0  0  0  0  0  0  0  0  0  0  0
   -5.2338   25.9596  -31.5033 H   0  0  0  0  0  0  0  0  0  0  0  0
   -5.8961   24.5935  -22.5806 C   0  0  0  0  0  0  0  0  0  0  0  0
   -4.7739   25.1969  -23.1618 C   0  0  0  0  0  0  0  0  0  0  0  0
   -4.6391   25.3305  -24.5253 C   0  0  0  0  0  0  0  0  0  0  0  0
   -5.6417   24.8538  -25.3318 C   0  0  0  0  0  0  0  0  0  0  0  0
   -6.7675   24.2493  -24.7405 C   0  0  0  0  0  0  0  0  0  0  0  0
   -6.9054   24.1145  -23.3794 C   0  0  0  0  0  0  0  0  0  0  0  0
   -8.0172   23.5225  -22.8305 F   0  0  0  0  0  0  0  0  0  0  0  0
   -5.6982   24.5245  -18.4199 N   0  0  0  0  0  0  0  0  0  0  0  0
   -6.8873   25.0437  -19.0282 C   0  0  0  0  0  0  0  0  0  0  0  0
   -6.4453   25.5988  -20.3888 C   0  0  0  0  0  0  0  0  0  0  0  0
   -5.9956   24.4629  -21.1661 N   0  0  0  0  0  0  0  0  0  0  0  0
   -5.6613   23.2145  -20.5146 C   0  0  0  0  0  0  0  0  0  0  0  0
   -5.1479   23.4000  -19.1059 C   0  0  0  0  0  0  0  0  0  0  0  0
   -4.5716   23.7005  -16.3889 C   0  0  0  0  0  0  0  0  0  0  0  0
   -5.7463   24.4208  -16.9969 C   0  0  0  0  0  0  0  0  0  0  0  0
   -3.8503   23.2524  -26.7865 C   0  0  0  0  0  0  0  0  0  0  0  0
   -2.5382   23.1769  -27.1946 C   0  0  0  0  0  0  0  0  0  0  0  0
   -1.6152   22.3521  -26.6115 C   0  0  0  0  0  0  0  0  0  0  0  0
   -1.9961   21.5508  -25.5656 C   0  0  0  0  0  0  0  0  0  0  0  0
   -3.3004   21.5960  -25.1270 C   0  0  0  0  0  0  0  0  0  0  0  0
   -4.2188   22.4442  -25.7382 C   0  0  0  0  0  0  0  0  0  0  0  0
    0.0757   22.2853  -27.1707 S   0  0  0  0  0  0  0  0  0  0  0  0
    0.2285   23.2995  -28.6456 C   0  0  0  0  0  0  0  0  0  0  0  0
   -3.6614   20.7768  -24.0681 O   0  0  0  0  0  0  0  0  0  0  0  0
   -4.6324   21.1507  -23.1258 C   0  0  0  0  0  0  0  0  0  0  0  0
 23 24  1  0  0  0
 24 17  1  0  0  0
 17 18  1  0  0  0
 18 19  1  0  0  0
 19 20  1  0  0  0
 20 21  1  0  0  0
 21 22  1  0  0  0
 20 10  1  0  0  0
 10 11  2  0  0  0
 11 12  1  0  0  0
 12 13  2  0  0  0
 13 14  1  0  0  0
 14 15  2  0  0  0
 15 16  1  0  0  0
 13  1  1  0  0  0
  1  2  2  0  0  0
  2  3  1  0  0  0
  3  4  2  0  0  0
  4  5  1  0  0  0
  4  6  1  0  0  0
  6  7  2  0  0  0
  7 25  1  0  0  0
 25 26  2  0  0  0
 26 27  1  0  0  0
 27 31  1  0  0  0
 31 32  1  0  0  0
 27 28  2  0  0  0
 28 29  1  0  0  0
 29 33  1  0  0  0
 33 34  1  0  0  0
 29 30  2  0  0  0
 22 17  1  0  0  0
 15 10  1  0  0  0
  7  1  1  0  0  0
 30 25  1  0  0  0
  5  8  1  0  0  0
  5  9  1  0  0  0
M  END
> <minimizedAffinity>
-8.30599

> <CNNscore>
0.2792044878

> <CNNaffinity>
6.8205351830

> <CNN_VS>
1.9043240547

> <CNNaffinity_variance>
0.1584555209

$$$$
[H]c1nc(N([H])[H])nc(-c2c([H])c(OC([H])([H])[H])c([H])c(SC([H])([H])[H])c2[H])c1-c1c([H])c([H])c(N2C([H])([H])C([H])([H])N(C([H])([H])C([H])([H])[H])C([H])([H])C2([H])[H])c(F)c1[H]


 34 37  0  0  0  0  0  0  0  0999 V2000
   -2.5145   22.4663  -25.0937 C   0  0  0  0  0  0  0  0  0  0  0  0
   -2.6822   22.6466  -26.4586 C   0  0  0  0  0  0  0  0  0  0  0  0
   -1.6018   22.6342  -27.2705 N   0  0  0  0  0  0  0  0  0  0  0  0
   -0.3487   22.4531  -26.8188 C   0  0  0  0  0  0  0  0  0  0  0  0
    0.7731   22.4445  -27.7255 N   0  0  0  0  0  0  0  0  0  0  0  0
   -0.1774   22.2779  -25.4996 N   0  0  0  0  0  0  0  0  0  0  0  0
   -1.2439   22.2831  -24.6394 C   0  0  0  0  0  0  0  0  0  0  0  0
    1.4289   21.6317  -27.7795 H   0  0  0  0  0  0  0  0  0  0  0  0
    0.9767   23.2440  -28.3622 H   0  0  0  0  0  0  0  0  0  0  0  0
   -5.7526   22.6679  -22.3866 C   0  0  0  0  0  0  0  0  0  0  0  0
   -5.1448   21.4378  -22.6664 C   0  0  0  0  0  0  0  0  0  0  0  0
   -4.0868   21.3265  -23.5401 C   0  0  0  0  0  0  0  0  0  0  0  0
   -3.6205   22.4633  -24.1512 C   0  0  0  0  0  0  0  0  0  0  0  0
   -4.2357   23.6967  -23.8643 C   0  0  0  0  0  0  0  0  0  0  0  0
   -5.2923   23.8114  -22.9922 C   0  0  0  0  0  0  0  0  0  0  0  0
   -5.8710   25.0295  -22.7293 F   0  0  0  0  0  0  0  0  0  0  0  0
   -9.2564   23.1460  -20.1842 N   0  0  0  0  0  0  0  0  0  0  0  0
   -8.7280   21.8218  -20.3284 C   0  0  0  0  0  0  0  0  0  0  0  0
   -7.9611   21.8267  -21.6575 C   0  0  0  0  0  0  0  0  0  0  0  0
   -6.8527   22.7425  -21.4853 N   0  0  0  0  0  0  0  0  0  0  0  0
   -6.8615   23.7107  -20.4097 C   0  0  0  0  0  0  0  0  0  0  0  0
   -8.2534   24.1480  -20.0173 C   0  0  0  0  0  0  0  0  0  0  0  0
  -11.2419   24.4681  -19.5655 C   0  0  0  0  0  0  0  0  0  0  0  0
  -10.3886   23.2513  -19.3211 C   0  0  0  0  0  0  0  0  0  0  0  0
   -0.9916   22.0886  -23.2356 C   0  0  0  0  0  0  0  0  0  0  0  0
   -0.5429   20.8583  -22.8131 C   0  0  0  0  0  0  0  0  0  0  0  0
   -0.2759   20.5638  -21.5038 C   0  0  0  0  0  0  0  0  0  0  0  0
   -0.4584   21.5297  -20.5473 C   0  0  0  0  0  0  0  0  0  0  0  0
   -0.9067   22.7744  -20.9286 C   0  0  0  0  0  0  0  0  0  0  0  0
   -1.1706   23.0470  -22.2674 C   0  0  0  0  0  0  0  0  0  0  0  0
    0.3049   18.9564  -20.9986 S   0  0  0  0  0  0  0  0  0  0  0  0
    2.1012   18.9674  -21.0187 C   0  0  0  0  0  0  0  0  0  0  0  0
   -1.0834   23.7341  -19.9435 O   0  0  0  0  0  0  0  0  0  0  0  0
   -0.3425   23.7325  -18.7512 C   0  0  0  0  0  0  0  0  0  0  0  0
 23 24  1  0  0  0
 24 17  1  0  0  0
 17 18  1  0  0  0
 18 19  1  0  0  0
 19 20  1  0  0  0
 20 21  1  0  0  0
 21 22  1  0  0  0
 20 10  1  0  0  0
 10 11  2  0  0  0
 11 12  1  0  0  0
 12 13  2  0  0  0
 13 14  1  0  0  0
 14 15  2  0  0  0
 15 16  1  0  0  0
 13  1  1  0  0  0
  1  2  2  0  0  0
  2  3  1  0  0  0
  3  4  2  0  0  0
  4  5  1  0  0  0
  4  6  1  0  0  0
  6  7  2  0  0  0
  7 25  1  0  0  0
 25 26  2  0  0  0
 26 27  1  0  0  0
 27 31  1  0  0  0
 31 32  1  0  0  0
 27 28  2  0  0  0
 28 29  1  0  0  0
 29 33  1  0  0  0
 33 34  1  0  0  0
 29 30  2  0  0  0
 22 17  1  0  0  0
 15 10  1  0  0  0
  7  1  1  0  0  0
 30 25  1  0  0  0
  5  8  1  0  0  0
  5  9  1  0  0  0
M  END
> <minimizedAffinity>
-7.25408

> <CNNscore>
0.2748905420

> <CNNaffinity>
6.5205965042

> <CNN_VS>
1.7924503088

> <CNNaffinity_variance>
0.2731149793

$$$$
[H]c1nc(N([H])[H])nc(-c2c([H])c(OC([H])([H])[H])c([H])c(SC([H])([H])[H])c2[H])c1-c1c([H])c([H])c(N2C([H])([H])C([H])([H])N(C([H])([H])C([H])([H])[H])C([H])([H])C2([H])[H])c(F)c1[H]


 34 37  0  0  0  0  0  0  0  0999 V2000
   -5.3997   22.7369  -16.0981 C   0  0  0  0  0  0  0  0  0  0  0  0
   -4.4551   23.3215  -15.2677 C   0  0  0  0  0  0  0  0  0  0  0  0
   -4.4363   23.0062  -13.9536 N   0  0  0  0  0  0  0  0  0  0  0  0
   -5.3002   22.1400  -13.3962 C   0  0  0  0  0  0  0  0  0  0  0  0
   -5.2385   21.8327  -11.9882 N   0  0  0  0  0  0  0  0  0  0  0  0
   -6.2174   21.5699  -14.1924 N   0  0  0  0  0  0  0  0  0  0  0  0
   -6.2732   21.8600  -15.5304 C   0  0  0  0  0  0  0  0  0  0  0  0
   -5.1264   20.8512  -11.6451 H   0  0  0  0  0  0  0  0  0  0  0  0
   -5.3027   22.5722  -11.2567 H   0  0  0  0  0  0  0  0  0  0  0  0
   -5.7739   23.7270  -20.1889 C   0  0  0  0  0  0  0  0  0  0  0  0
   -5.0162   22.6152  -19.8004 C   0  0  0  0  0  0  0  0  0  0  0  0
   -4.8691   22.2556  -18.4797 C   0  0  0  0  0  0  0  0  0  0  0  0
   -5.4885   23.0177  -17.5212 C   0  0  0  0  0  0  0  0  0  0  0  0
   -6.2495   24.1333  -17.9192 C   0  0  0  0  0  0  0  0  0  0  0  0
   -6.3986   24.4951  -19.2371 C   0  0  0  0  0  0  0  0  0  0  0  0
   -7.1502   25.5878  -19.5960 F   0  0  0  0  0  0  0  0  0  0  0  0
   -5.9583   24.1997  -24.3239 N   0  0  0  0  0  0  0  0  0  0  0  0
   -7.1406   24.4742  -23.5622 C   0  0  0  0  0  0  0  0  0  0  0  0
   -7.0381   23.5927  -22.3103 C   0  0  0  0  0  0  0  0  0  0  0  0
   -5.8943   24.0749  -21.5646 N   0  0  0  0  0  0  0  0  0  0  0  0
   -4.8962   24.9031  -22.2068 C   0  0  0  0  0  0  0  0  0  0  0  0
   -4.7539   24.6215  -23.6843 C   0  0  0  0  0  0  0  0  0  0  0  0
   -4.8750   25.2409  -26.2772 C   0  0  0  0  0  0  0  0  0  0  0  0
   -6.0578   24.4956  -25.7169 C   0  0  0  0  0  0  0  0  0  0  0  0
   -7.2811   21.2133  -16.3292 C   0  0  0  0  0  0  0  0  0  0  0  0
   -7.0129   19.9639  -16.8399 C   0  0  0  0  0  0  0  0  0  0  0  0
   -7.8963   19.2619  -17.6138 C   0  0  0  0  0  0  0  0  0  0  0  0
   -9.1171   19.8133  -17.9081 C   0  0  0  0  0  0  0  0  0  0  0  0
   -9.4245   21.0622  -17.4167 C   0  0  0  0  0  0  0  0  0  0  0  0
   -8.5073   21.7544  -16.6318 C   0  0  0  0  0  0  0  0  0  0  0  0
   -7.5093   17.6447  -18.2552 S   0  0  0  0  0  0  0  0  0  0  0  0
   -7.8016   16.4336  -16.9609 C   0  0  0  0  0  0  0  0  0  0  0  0
  -10.6649   21.5985  -17.7277 O   0  0  0  0  0  0  0  0  0  0  0  0
  -10.8138   22.6991  -18.5861 C   0  0  0  0  0  0  0  0  0  0  0  0
 23 24  1  0  0  0
 24 17  1  0  0  0
 17 18  1  0  0  0
 18 19  1  0  0  0
 19 20  1  0  0  0
 20 21  1  0  0  0
 21 22  1  0  0  0
 20 10  1  0  0  0
 10 11  2  0  0  0
 11 12  1  0  0  0
 12 13  2  0  0  0
 13 14  1  0  0  0
 14 15  2  0  0  0
 15 16  1  0  0  0
 13  1  1  0  0  0
  1  2  2  0  0  0
  2  3  1  0  0  0
  3  4  2  0  0  0
  4  5  1  0  0  0
  4  6  1  0  0  0
  6  7  2  0  0  0
  7 25  1  0  0  0
 25 26  2  0  0  0
 26 27  1  0  0  0
 27 31  1  0  0  0
 31 32  1  0  0  0
 27 28  2  0  0  0
 28 29  1  0  0  0
 29 33  1  0  0  0
 33 34  1  0  0  0
 29 30  2  0  0  0
 22 17  1  0  0  0
 15 10  1  0  0  0
  7  1  1  0  0  0
 30 25  1  0  0  0
  5  8  1  0  0  0
  5  9  1  0  0  0
M  END
> <minimizedAffinity>
-4.92313

> <CNNscore>
0.2351824045

> <CNNaffinity>
5.8467326164

> <CNN_VS>
1.3750486374

> <CNNaffinity_variance>
0.1202999502

$$$$
[H]c1nc(N([H])[H])nc(-c2c([H])c(OC([H])([H])[H])c([H])c(SC([H])([H])[H])c2[H])c1-c1c([H])c([H])c(N2C([H])([H])C([H])([H])N(C([H])([H])C([H])([H])[H])C([H])([H])C2([H])[H])c(F)c1[H]


 34 37  0  0  0  0  0  0  0  0999 V2000
   -5.6563   23.1675  -16.4279 C   0  0  0  0  0  0  0  0  0  0  0  0
   -4.8677   23.8970  -15.5508 C   0  0  0  0  0  0  0  0  0  0  0  0
   -5.0074   23.7143  -14.2189 N   0  0  0  0  0  0  0  0  0  0  0  0
   -5.8863   22.8470  -13.6873 C   0  0  0  0  0  0  0  0  0  0  0  0
   -5.9967   22.6845  -12.2583 N   0  0  0  0  0  0  0  0  0  0  0  0
   -6.6533   22.1371  -14.5288 N   0  0  0  0  0  0  0  0  0  0  0  0
   -6.5455   22.2899  -15.8862 C   0  0  0  0  0  0  0  0  0  0  0  0
   -5.8747   21.7520  -11.8010 H   0  0  0  0  0  0  0  0  0  0  0  0
   -6.2017   23.4856  -11.6240 H   0  0  0  0  0  0  0  0  0  0  0  0
   -5.5376   23.7195  -20.6156 C   0  0  0  0  0  0  0  0  0  0  0  0
   -4.7559   22.7252  -20.0143 C   0  0  0  0  0  0  0  0  0  0  0  0
   -4.7651   22.5098  -18.6547 C   0  0  0  0  0  0  0  0  0  0  0  0
   -5.5691   23.3002  -17.8724 C   0  0  0  0  0  0  0  0  0  0  0  0
   -6.3530   24.2972  -18.4838 C   0  0  0  0  0  0  0  0  0  0  0  0
   -6.3464   24.5147  -19.8413 C   0  0  0  0  0  0  0  0  0  0  0  0
   -7.1246   25.4937  -20.4104 F   0  0  0  0  0  0  0  0  0  0  0  0
   -5.1255   23.8006  -24.7603 N   0  0  0  0  0  0  0  0  0  0  0  0
   -6.4471   23.8910  -24.2139 C   0  0  0  0  0  0  0  0  0  0  0  0
   -6.3879   23.1556  -22.8684 C   0  0  0  0  0  0  0  0  0  0  0  0
   -5.4935   23.9205  -22.0246 N   0  0  0  0  0  0  0  0  0  0  0  0
   -4.5771   24.8783  -22.6055 C   0  0  0  0  0  0  0  0  0  0  0  0
   -4.1435   24.5101  -24.0052 C   0  0  0  0  0  0  0  0  0  0  0  0
   -3.9814   23.1173  -26.8333 C   0  0  0  0  0  0  0  0  0  0  0  0
   -5.0485   23.9537  -26.1775 C   0  0  0  0  0  0  0  0  0  0  0  0
   -7.3973   21.4972  -16.7336 C   0  0  0  0  0  0  0  0  0  0  0  0
   -8.6775   21.9395  -16.9765 C   0  0  0  0  0  0  0  0  0  0  0  0
   -9.5708   21.2634  -17.7621 C   0  0  0  0  0  0  0  0  0  0  0  0
   -9.1915   20.0822  -18.3468 C   0  0  0  0  0  0  0  0  0  0  0  0
   -7.9188   19.6045  -18.1286 C   0  0  0  0  0  0  0  0  0  0  0  0
   -7.0302   20.3124  -17.3250 C   0  0  0  0  0  0  0  0  0  0  0  0
  -11.2206   21.8721  -18.0517 S   0  0  0  0  0  0  0  0  0  0  0  0
  -11.1114   23.3602  -19.0523 C   0  0  0  0  0  0  0  0  0  0  0  0
   -7.5587   18.4084  -18.7306 O   0  0  0  0  0  0  0  0  0  0  0  0
   -7.8857   17.1604  -18.1774 C   0  0  0  0  0  0  0  0  0  0  0  0
 23 24  1  0  0  0
 24 17  1  0  0  0
 17 18  1  0  0  0
 18 19  1  0  0  0
 19 20  1  0  0  0
 20 21  1  0  0  0
 21 22  1  0  0  0
 20 10  1  0  0  0
 10 11  2  0  0  0
 11 12  1  0  0  0
 12 13  2  0  0  0
 13 14  1  0  0  0
 14 15  2  0  0  0
 15 16  1  0  0  0
 13  1  1  0  0  0
  1  2  2  0  0  0
  2  3  1  0  0  0
  3  4  2  0  0  0
  4  5  1  0  0  0
  4  6  1  0  0  0
  6  7  2  0  0  0
  7 25  1  0  0  0
 25 26  2  0  0  0
 26 27  1  0  0  0
 27 31  1  0  0  0
 31 32  1  0  0  0
 27 28  2  0  0  0
 28 29  1  0  0  0
 29 33  1  0  0  0
 33 34  1  0  0  0
 29 30  2  0  0  0
 22 17  1  0  0  0
 15 10  1  0  0  0
  7  1  1  0  0  0
 30 25  1  0  0  0
  5  8  1  0  0  0
  5  9  1  0  0  0
M  END
> <minimizedAffinity>
-5.31992

> <CNNscore>
0.1577235460

> <CNNaffinity>
5.9141855240

> <CNN_VS>
0.9328063130

> <CNNaffinity_variance>
0.2313866317

$$$$
[H]c1nc(N([H])[H])nc(-c2c([H])c(OC([H])([H])[H])c([H])c(SC([H])([H])[H])c2[H])c1-c1c([H])c([H])c(N2C([H])([H])C([H])([H])N(C([H])([H])C([H])([H])[H])C([H])([H])C2([H])[H])c(F)c1[H]


 34 37  0  0  0  0  0  0  0  0999 V2000
   -3.2678   23.4687  -21.6232 C   0  0  0  0  0  0  0  0  0  0  0  0
   -3.2368   24.2976  -22.7347 C   0  0  0  0  0  0  0  0  0  0  0  0
   -4.3788   24.8781  -23.1655 N   0  0  0  0  0  0  0  0  0  0  0  0
   -5.5666   24.6924  -22.5639 C   0  0  0  0  0  0  0  0  0  0  0  0
   -6.7583   25.3368  -23.0592 N   0  0  0  0  0  0  0  0  0  0  0  0
   -5.6055   23.8918  -21.4878 N   0  0  0  0  0  0  0  0  0  0  0  0
   -4.4724   23.2827  -21.0162 C   0  0  0  0  0  0  0  0  0  0  0  0
   -7.3415   25.9549  -22.4499 H   0  0  0  0  0  0  0  0  0  0  0  0
   -7.0869   25.2143  -24.0406 H   0  0  0  0  0  0  0  0  0  0  0  0
    0.1390   21.3940  -20.2288 C   0  0  0  0  0  0  0  0  0  0  0  0
   -0.2334   22.6100  -19.6425 C   0  0  0  0  0  0  0  0  0  0  0  0
   -1.3361   23.3181  -20.0641 C   0  0  0  0  0  0  0  0  0  0  0  0
   -2.0876   22.8075  -21.0925 C   0  0  0  0  0  0  0  0  0  0  0  0
   -1.7080   21.5839  -21.6764 C   0  0  0  0  0  0  0  0  0  0  0  0
   -0.6075   20.8742  -21.2577 C   0  0  0  0  0  0  0  0  0  0  0  0
   -0.2629   19.6808  -21.8449 F   0  0  0  0  0  0  0  0  0  0  0  0
    3.5300   19.1111  -19.4260 N   0  0  0  0  0  0  0  0  0  0  0  0
    3.6163   20.5300  -19.2454 C   0  0  0  0  0  0  0  0  0  0  0  0
    2.5982   21.1323  -20.2230 C   0  0  0  0  0  0  0  0  0  0  0  0
    1.2930   20.6950  -19.7733 N   0  0  0  0  0  0  0  0  0  0  0  0
    1.1671   19.5716  -18.8697 C   0  0  0  0  0  0  0  0  0  0  0  0
    2.2763   18.5578  -19.0262 C   0  0  0  0  0  0  0  0  0  0  0  0
    5.2153   17.4289  -20.0609 C   0  0  0  0  0  0  0  0  0  0  0  0
    4.6880   18.3814  -19.0203 C   0  0  0  0  0  0  0  0  0  0  0  0
   -4.5827   22.4365  -19.8568 C   0  0  0  0  0  0  0  0  0  0  0  0
   -4.5003   23.0152  -18.6110 C   0  0  0  0  0  0  0  0  0  0  0  0
   -4.5880   22.3055  -17.4444 C   0  0  0  0  0  0  0  0  0  0  0  0
   -4.7667   20.9467  -17.4967 C   0  0  0  0  0  0  0  0  0  0  0  0
   -4.8537   20.3287  -18.7239 C   0  0  0  0  0  0  0  0  0  0  0  0
   -4.7613   21.0747  -19.8950 C   0  0  0  0  0  0  0  0  0  0  0  0
   -4.4769   23.0946  -15.8503 S   0  0  0  0  0  0  0  0  0  0  0  0
   -5.7627   24.3447  -15.7426 C   0  0  0  0  0  0  0  0  0  0  0  0
   -5.0345   18.9541  -18.7509 O   0  0  0  0  0  0  0  0  0  0  0  0
   -4.2802   18.0812  -17.9513 C   0  0  0  0  0  0  0  0  0  0  0  0
 23 24  1  0  0  0
 24 17  1  0  0  0
 17 18  1  0  0  0
 18 19  1  0  0  0
 19 20  1  0  0  0
 20 21  1  0  0  0
 21 22  1  0  0  0
 20 10  1  0  0  0
 10 11  2  0  0  0
 11 12  1  0  0  0
 12 13  2  0  0  0
 13 14  1  0  0  0
 14 15  2  0  0  0
 15 16  1  0  0  0
 13  1  1  0  0  0
  1  2  2  0  0  0
  2  3  1  0  0  0
  3  4  2  0  0  0
  4  5  1  0  0  0
  4  6  1  0  0  0
  6  7  2  0  0  0
  7 25  1  0  0  0
 25 26  2  0  0  0
 26 27  1  0  0  0
 27 31  1  0  0  0
 31 32  1  0  0  0
 27 28  2  0  0  0
 28 29  1  0  0  0
 29 33  1  0  0  0
 33 34  1  0  0  0
 29 30  2  0  0  0
 22 17  1  0  0  0
 15 10  1  0  0  0
  7  1  1  0  0  0
 30 25  1  0  0  0
  5  8  1  0  0  0
  5  9  1  0  0  0
M  END
> <minimizedAffinity>
-5.11596

> <CNNscore>
0.1413359344

> <CNNaffinity>
5.8465585709

> <CNN_VS>
0.8263288140

> <CNNaffinity_variance>
0.3312207460

$$$$
[H]c1nc(N([H])[H])nc(-c2c([H])c(OC([H])([H])[H])c([H])c(SC([H])([H])[H])c2[H])c1-c1c([H])c([H])c(N2C([H])([H])C([H])([H])N(C([H])([H])C([H])([H])[H])C([H])([H])C2([H])[H])c(F)c1[H]


 34 37  0  0  0  0  0  0  0  0999 V2000
   -0.8933   22.2673  -22.2646 C   0  0  0  0  0  0  0  0  0  0  0  0
   -1.4333   22.9842  -23.3219 C   0  0  0  0  0  0  0  0  0  0  0  0
   -0.8872   22.8700  -24.5529 N   0  0  0  0  0  0  0  0  0  0  0  0
    0.1717   22.0840  -24.8138 C   0  0  0  0  0  0  0  0  0  0  0  0
    0.7176   21.9923  -26.1459 N   0  0  0  0  0  0  0  0  0  0  0  0
    0.7005   21.3869  -23.7966 N   0  0  0  0  0  0  0  0  0  0  0  0
    0.1792   21.4721  -22.5323 C   0  0  0  0  0  0  0  0  0  0  0  0
    0.8070   21.0752  -26.6404 H   0  0  0  0  0  0  0  0  0  0  0  0
    1.0444   22.8321  -26.6694 H   0  0  0  0  0  0  0  0  0  0  0  0
   -2.5849   22.3237  -18.3929 C   0  0  0  0  0  0  0  0  0  0  0  0
   -1.3767   22.9862  -18.6427 C   0  0  0  0  0  0  0  0  0  0  0  0
   -0.7912   22.9949  -19.8886 C   0  0  0  0  0  0  0  0  0  0  0  0
   -1.4195   22.3300  -20.9115 C   0  0  0  0  0  0  0  0  0  0  0  0
   -2.6345   21.6671  -20.6533 C   0  0  0  0  0  0  0  0  0  0  0  0
   -3.2220   21.6566  -19.4104 C   0  0  0  0  0  0  0  0  0  0  0  0
   -4.4101   21.0032  -19.1888 F   0  0  0  0  0  0  0  0  0  0  0  0
   -3.9011   22.7832  -14.4671 N   0  0  0  0  0  0  0  0  0  0  0  0
   -4.8776   22.8372  -15.5145 C   0  0  0  0  0  0  0  0  0  0  0  0
   -4.1267   23.3468  -16.7519 C   0  0  0  0  0  0  0  0  0  0  0  0
   -3.1550   22.3270  -17.0879 N   0  0  0  0  0  0  0  0  0  0  0  0
   -2.7777   21.3244  -16.1148 C   0  0  0  0  0  0  0  0  0  0  0  0
   -2.8754   21.8156  -14.6894 C   0  0  0  0  0  0  0  0  0  0  0  0
   -4.1469   21.6030  -12.3177 C   0  0  0  0  0  0  0  0  0  0  0  0
   -4.4349   22.8289  -13.1439 C   0  0  0  0  0  0  0  0  0  0  0  0
    0.7929   20.6975  -21.4857 C   0  0  0  0  0  0  0  0  0  0  0  0
    0.2009   19.5128  -21.1118 C   0  0  0  0  0  0  0  0  0  0  0  0
    0.6966   18.7017  -20.1276 C   0  0  0  0  0  0  0  0  0  0  0  0
    1.8408   19.0695  -19.4669 C   0  0  0  0  0  0  0  0  0  0  0  0
    2.4639   20.2481  -19.8106 C   0  0  0  0  0  0  0  0  0  0  0  0
    1.9382   21.0544  -20.8156 C   0  0  0  0  0  0  0  0  0  0  0  0
   -0.1014   17.1739  -19.6743 S   0  0  0  0  0  0  0  0  0  0  0  0
    0.9309   15.8084  -20.2193 C   0  0  0  0  0  0  0  0  0  0  0  0
    3.6193   20.5983  -19.1285 O   0  0  0  0  0  0  0  0  0  0  0  0
    4.1625   21.8915  -19.1849 C   0  0  0  0  0  0  0  0  0  0  0  0
 23 24  1  0  0  0
 24 17  1  0  0  0
 17 18  1  0  0  0
 18 19  1  0  0  0
 19 20  1  0  0  0
 20 21  1  0  0  0
 21 22  1  0  0  0
 20 10  1  0  0  0
 10 11  2  0  0  0
 11 12  1  0  0  0
 12 13  2  0  0  0
 13 14  1  0  0  0
 14 15  2  0  0  0
 15 16  1  0  0  0
 13  1  1  0  0  0
  1  2  2  0  0  0
  2  3  1  0  0  0
  3  4  2  0  0  0
  4  5  1  0  0  0
  4  6  1  0  0  0
  6  7  2  0  0  0
  7 25  1  0  0  0
 25 26  2  0  0  0
 26 27  1  0  0  0
 27 31  1  0  0  0
 31 32  1  0  0  0
 27 28  2  0  0  0
 28 29  1  0  0  0
 29 33  1  0  0  0
 33 34  1  0  0  0
 29 30  2  0  0  0
 22 17  1  0  0  0
 15 10  1  0  0  0
  7  1  1  0  0  0
 30 25  1  0  0  0
  5  8  1  0  0  0
  5  9  1  0  0  0
M  END
> <minimizedAffinity>
-5.57225

> <CNNscore>
0.1265245378

> <CNNaffinity>
5.7392420769

> <CNN_VS>
0.7261549234

> <CNNaffinity_variance>
0.0783313364

$$$$
[H]c1c([H])c([H])c(C([H])([H])N2C([H])([H])C([H])([H])N(C([H])([H])C(=O)N(C([H])([H])[H])C([H])([H])c3nn([H])c4c([H])c(N([H])C(=O)OC([H])([H])c5c([H])c([H])c([H])c(F)c5[H])c([H])c([H])c34)C([H])([H])C2([H])[H])c([H])c1[H]


 42 46  0  0  0  0  0  0  0  0999 V2000
   -2.5043   23.0079  -28.3463 C   0  0  0  0  0  0  0  0  0  0  0  0
   -1.2843   23.3148  -28.8351 N   0  0  0  0  0  0  0  0  0  0  0  0
   -0.3356   23.0956  -27.9589 N   0  0  0  0  0  0  0  0  0  0  0  0
   -0.9714   22.6214  -26.8410 C   0  0  0  0  0  0  0  0  0  0  0  0
   -0.4924   22.2380  -25.6191 C   0  0  0  0  0  0  0  0  0  0  0  0
   -1.2991   21.7911  -24.5873 C   0  0  0  0  0  0  0  0  0  0  0  0
   -2.6765   21.7270  -24.8095 C   0  0  0  0  0  0  0  0  0  0  0  0
   -3.1549   22.1137  -26.0425 C   0  0  0  0  0  0  0  0  0  0  0  0
   -2.3244   22.5613  -27.0655 C   0  0  0  0  0  0  0  0  0  0  0  0
    0.6935   23.2192  -27.9990 H   0  0  0  0  0  0  0  0  0  0  0  0
   -0.6757   21.4242  -23.3719 N   0  0  0  0  0  0  0  0  0  0  0  0
   -0.7546   22.3257  -22.2505 C   0  0  0  0  0  0  0  0  0  0  0  0
   -1.3651   23.3906  -22.4198 O   0  0  0  0  0  0  0  0  0  0  0  0
   -0.1692   20.5517  -23.2458 H   0  0  0  0  0  0  0  0  0  0  0  0
   -0.1980   22.0738  -21.0340 O   0  0  0  0  0  0  0  0  0  0  0  0
   -0.0398   20.7492  -20.5604 C   0  0  0  0  0  0  0  0  0  0  0  0
    1.3883   20.3067  -20.7182 C   0  0  0  0  0  0  0  0  0  0  0  0
    1.7515   19.0464  -21.0615 C   0  0  0  0  0  0  0  0  0  0  0  0
    3.0689   18.6484  -21.1780 C   0  0  0  0  0  0  0  0  0  0  0  0
    4.0039   19.6392  -20.9164 C   0  0  0  0  0  0  0  0  0  0  0  0
    3.6809   20.9206  -20.5686 C   0  0  0  0  0  0  0  0  0  0  0  0
    4.6628   21.8586  -20.3218 F   0  0  0  0  0  0  0  0  0  0  0  0
    2.3497   21.2841  -20.4611 C   0  0  0  0  0  0  0  0  0  0  0  0
   -3.8083   23.0979  -29.0650 C   0  0  0  0  0  0  0  0  0  0  0  0
   -3.8860   25.5379  -29.3425 C   0  0  0  0  0  0  0  0  0  0  0  0
   -4.4454   24.3959  -28.6796 N   0  0  0  0  0  0  0  0  0  0  0  0
   -5.4873   24.4435  -27.7756 C   0  0  0  0  0  0  0  0  0  0  0  0
   -5.8420   23.2674  -27.3126 O   0  0  0  0  0  0  0  0  0  0  0  0
   -6.2712   25.5227  -27.2382 C   0  0  0  0  0  0  0  0  0  0  0  0
   -6.4255   25.7996  -25.8993 N   0  0  0  0  0  0  0  0  0  0  0  0
   -5.3121   26.2008  -25.0988 C   0  0  0  0  0  0  0  0  0  0  0  0
   -4.8781   25.1129  -24.1341 C   0  0  0  0  0  0  0  0  0  0  0  0
   -5.9325   24.5977  -23.3194 N   0  0  0  0  0  0  0  0  0  0  0  0
   -7.1799   25.1736  -23.6685 C   0  0  0  0  0  0  0  0  0  0  0  0
   -7.4420   25.1039  -25.1621 C   0  0  0  0  0  0  0  0  0  0  0  0
   -5.9062   23.1959  -23.0929 C   0  0  0  0  0  0  0  0  0  0  0  0
   -6.6077   22.8816  -21.7941 C   0  0  0  0  0  0  0  0  0  0  0  0
   -6.2350   23.4759  -20.6185 C   0  0  0  0  0  0  0  0  0  0  0  0
   -6.9095   23.1482  -19.4481 C   0  0  0  0  0  0  0  0  0  0  0  0
   -7.9426   22.2354  -19.4650 C   0  0  0  0  0  0  0  0  0  0  0  0
   -8.2993   21.6532  -20.6473 C   0  0  0  0  0  0  0  0  0  0  0  0
   -7.6402   21.9700  -21.8071 C   0  0  0  0  0  0  0  0  0  0  0  0
 25 26  1  0  0  0
 26 24  1  0  0  0
 24  1  1  0  0  0
  1  2  2  0  0  0
  2  3  1  0  0  0
  3  4  1  0  0  0
  4  5  2  0  0  0
  5  6  1  0  0  0
  6 11  1  0  0  0
 11 12  1  0  0  0
 12 13  2  0  0  0
 12 15  1  0  0  0
 15 16  1  0  0  0
 16 17  1  0  0  0
 17 18  2  0  0  0
 18 19  1  0  0  0
 19 20  2  0  0  0
 20 21  1  0  0  0
 21 22  1  0  0  0
 21 23  2  0  0  0
  6  7  2  0  0  0
  7  8  1  0  0  0
  8  9  2  0  0  0
 26 27  1  0  0  0
 27 28  2  0  0  0
 27 29  1  0  0  0
 29 30  1  0  0  0
 30 31  1  0  0  0
 31 32  1  0  0  0
 32 33  1  0  0  0
 33 36  1  0  0  0
 36 37  1  0  0  0
 37 38  2  0  0  0
 38 39  1  0  0  0
 39 40  2  0  0  0
 40 41  1  0  0  0
 41 42  2  0  0  0
 33 34  1  0  0  0
 34 35  1  0  0  0
  9  1  1  0  0  0
 35 30  1  0  0  0
  9  4  1  0  0  0
 42 37  1  0  0  0
 23 17  1  0  0  0
  3 10  1  0  0  0
 11 14  1  0  0  0
M  END
> <minimizedAffinity>
-8.40373

> <CNNscore>
0.6160232425

> <CNNaffinity>
7.4320158958

> <CNN_VS>
4.5782947540

> <CNNaffinity_variance>
0.0447970554

$$$$
[H]c1c([H])c([H])c(C([H])([H])N2C([H])([H])C([H])([H])N(C([H])([H])C(=O)N(C([H])([H])[H])C([H])([H])c3nn([H])c4c([H])c(N([H])C(=O)OC([H])([H])c5c([H])c([H])c([H])c(F)c5[H])c([H])c([H])c34)C([H])([H])C2([H])[H])c([H])c1[H]


 42 46  0  0  0  0  0  0  0  0999 V2000
   -2.3660   22.9407  -28.2570 C   0  0  0  0  0  0  0  0  0  0  0  0
   -1.1166   23.2323  -28.6760 N   0  0  0  0  0  0  0  0  0  0  0  0
   -0.2285   23.0567  -27.7294 N   0  0  0  0  0  0  0  0  0  0  0  0
   -0.9368   22.6286  -26.6368 C   0  0  0  0  0  0  0  0  0  0  0  0
   -0.5401   22.3015  -25.3698 C   0  0  0  0  0  0  0  0  0  0  0  0
   -1.4133   21.8960  -24.3758 C   0  0  0  0  0  0  0  0  0  0  0  0
   -2.7725   21.8149  -24.6868 C   0  0  0  0  0  0  0  0  0  0  0  0
   -3.1678   22.1447  -25.9649 C   0  0  0  0  0  0  0  0  0  0  0  0
   -2.2716   22.5515  -26.9486 C   0  0  0  0  0  0  0  0  0  0  0  0
    0.8007   23.1838  -27.7058 H   0  0  0  0  0  0  0  0  0  0  0  0
   -0.8721   21.5860  -23.1063 N   0  0  0  0  0  0  0  0  0  0  0  0
   -0.9294   22.5801  -22.0648 C   0  0  0  0  0  0  0  0  0  0  0  0
   -1.4487   23.6692  -22.3471 O   0  0  0  0  0  0  0  0  0  0  0  0
   -0.4399   20.6922  -22.8872 H   0  0  0  0  0  0  0  0  0  0  0  0
   -0.4459   22.3893  -20.8066 O   0  0  0  0  0  0  0  0  0  0  0  0
   -0.4093   21.1002  -20.2230 C   0  0  0  0  0  0  0  0  0  0  0  0
   -0.1798   21.2058  -18.7410 C   0  0  0  0  0  0  0  0  0  0  0  0
    1.0373   21.0780  -18.1576 C   0  0  0  0  0  0  0  0  0  0  0  0
    1.2285   21.1525  -16.7917 C   0  0  0  0  0  0  0  0  0  0  0  0
    0.0756   21.3695  -16.0514 C   0  0  0  0  0  0  0  0  0  0  0  0
   -1.1689   21.5046  -16.5991 C   0  0  0  0  0  0  0  0  0  0  0  0
   -2.2758   21.7195  -15.8032 F   0  0  0  0  0  0  0  0  0  0  0  0
   -1.3231   21.4242  -17.9723 C   0  0  0  0  0  0  0  0  0  0  0  0
   -3.6190   22.9922  -29.0648 C   0  0  0  0  0  0  0  0  0  0  0  0
   -3.7236   25.4182  -29.4393 C   0  0  0  0  0  0  0  0  0  0  0  0
   -4.2962   24.2916  -28.7615 N   0  0  0  0  0  0  0  0  0  0  0  0
   -5.3828   24.3535  -27.9126 C   0  0  0  0  0  0  0  0  0  0  0  0
   -5.7404   23.1893  -27.4228 O   0  0  0  0  0  0  0  0  0  0  0  0
   -6.2106   25.4374  -27.4564 C   0  0  0  0  0  0  0  0  0  0  0  0
   -6.4965   25.7160  -26.1398 N   0  0  0  0  0  0  0  0  0  0  0  0
   -5.4758   26.1602  -25.2441 C   0  0  0  0  0  0  0  0  0  0  0  0
   -5.0952   25.0934  -24.2344 C   0  0  0  0  0  0  0  0  0  0  0  0
   -6.2016   24.5461  -23.5153 N   0  0  0  0  0  0  0  0  0  0  0  0
   -7.4307   25.0762  -23.9820 C   0  0  0  0  0  0  0  0  0  0  0  0
   -7.5521   24.9892  -25.4927 C   0  0  0  0  0  0  0  0  0  0  0  0
   -6.1481   23.1473  -23.2753 C   0  0  0  0  0  0  0  0  0  0  0  0
   -5.5964   22.8934  -21.8936 C   0  0  0  0  0  0  0  0  0  0  0  0
   -4.6234   21.9558  -21.6738 C   0  0  0  0  0  0  0  0  0  0  0  0
   -4.1525   21.7560  -20.3813 C   0  0  0  0  0  0  0  0  0  0  0  0
   -4.6561   22.4906  -19.3288 C   0  0  0  0  0  0  0  0  0  0  0  0
   -5.6264   23.4207  -19.5684 C   0  0  0  0  0  0  0  0  0  0  0  0
   -6.0973   23.6253  -20.8397 C   0  0  0  0  0  0  0  0  0  0  0  0
 25 26  1  0  0  0
 26 24  1  0  0  0
 24  1  1  0  0  0
  1  2  2  0  0  0
  2  3  1  0  0  0
  3  4  1  0  0  0
  4  5  2  0  0  0
  5  6  1  0  0  0
  6 11  1  0  0  0
 11 12  1  0  0  0
 12 13  2  0  0  0
 12 15  1  0  0  0
 15 16  1  0  0  0
 16 17  1  0  0  0
 17 18  2  0  0  0
 18 19  1  0  0  0
 19 20  2  0  0  0
 20 21  1  0  0  0
 21 22  1  0  0  0
 21 23  2  0  0  0
  6  7  2  0  0  0
  7  8  1  0  0  0
  8  9  2  0  0  0
 26 27  1  0  0  0
 27 28  2  0  0  0
 27 29  1  0  0  0
 29 30  1  0  0  0
 30 31  1  0  0  0
 31 32  1  0  0  0
 32 33  1  0  0  0
 33 36  1  0  0  0
 36 37  1  0  0  0
 37 38  2  0  0  0
 38 39  1  0  0  0
 39 40  2  0  0  0
 40 41  1  0  0  0
 41 42  2  0  0  0
 33 34  1  0  0  0
 34 35  1  0  0  0
  9  1  1  0  0  0
 35 30  1  0  0  0
  9  4  1  0  0  0
 42 37  1  0  0  0
 23 17  1  0  0  0
  3 10  1  0  0  0
 11 14  1  0  0  0
M  END
> <minimizedAffinity>
-7.98565

> <CNNscore>
0.5201091766

> <CNNaffinity>
7.3435621262

> <CNN_VS>
3.8194539547

> <CNNaffinity_variance>
0.0892565399

$$$$
[H]c1c([H])c([H])c(C([H])([H])N2C([H])([H])C([H])([H])N(C([H])([H])C(=O)N(C([H])([H])[H])C([H])([H])c3nn([H])c4c([H])c(N([H])C(=O)OC([H])([H])c5c([H])c([H])c([H])c(F)c5[H])c([H])c([H])c34)C([H])([H])C2([H])[H])c([H])c1[H]


 42 46  0  0  0  0  0  0  0  0999 V2000
   -2.0955   22.8918  -28.1932 C   0  0  0  0  0  0  0  0  0  0  0  0
   -0.8254   23.1543  -28.5663 N   0  0  0  0  0  0  0  0  0  0  0  0
    0.0197   22.9891  -27.5793 N   0  0  0  0  0  0  0  0  0  0  0  0
   -0.7401   22.5988  -26.5074 C   0  0  0  0  0  0  0  0  0  0  0  0
   -0.4017   22.2974  -25.2173 C   0  0  0  0  0  0  0  0  0  0  0  0
   -1.3218   21.9297  -24.2513 C   0  0  0  0  0  0  0  0  0  0  0  0
   -2.6680   21.8610  -24.6171 C   0  0  0  0  0  0  0  0  0  0  0  0
   -3.0045   22.1648  -25.9182 C   0  0  0  0  0  0  0  0  0  0  0  0
   -2.0618   22.5338  -26.8730 C   0  0  0  0  0  0  0  0  0  0  0  0
    1.0489   23.1016  -27.5156 H   0  0  0  0  0  0  0  0  0  0  0  0
   -0.8388   21.6432  -22.9531 N   0  0  0  0  0  0  0  0  0  0  0  0
   -0.9452   22.6554  -21.9330 C   0  0  0  0  0  0  0  0  0  0  0  0
   -1.4527   23.7382  -22.2580 O   0  0  0  0  0  0  0  0  0  0  0  0
   -0.4158   20.7544  -22.6987 H   0  0  0  0  0  0  0  0  0  0  0  0
   -0.5196   22.4879  -20.6509 O   0  0  0  0  0  0  0  0  0  0  0  0
   -1.0323   21.4484  -19.8382 C   0  0  0  0  0  0  0  0  0  0  0  0
   -2.3075   21.8875  -19.1738 C   0  0  0  0  0  0  0  0  0  0  0  0
   -2.3478   22.6145  -18.0301 C   0  0  0  0  0  0  0  0  0  0  0  0
   -3.5278   22.9890  -17.4179 C   0  0  0  0  0  0  0  0  0  0  0  0
   -4.6806   22.5646  -18.0622 C   0  0  0  0  0  0  0  0  0  0  0  0
   -4.6845   21.8319  -19.2156 C   0  0  0  0  0  0  0  0  0  0  0  0
   -5.8698   21.4420  -19.8055 F   0  0  0  0  0  0  0  0  0  0  0  0
   -3.4826   21.4742  -19.8014 C   0  0  0  0  0  0  0  0  0  0  0  0
   -3.3129   22.9418  -29.0539 C   0  0  0  0  0  0  0  0  0  0  0  0
   -3.3309   25.3311  -29.6262 C   0  0  0  0  0  0  0  0  0  0  0  0
   -3.9446   24.2845  -28.8615 N   0  0  0  0  0  0  0  0  0  0  0  0
   -5.0303   24.4539  -28.0261 C   0  0  0  0  0  0  0  0  0  0  0  0
   -5.4299   23.3469  -27.4446 O   0  0  0  0  0  0  0  0  0  0  0  0
   -5.8204   25.5997  -27.6645 C   0  0  0  0  0  0  0  0  0  0  0  0
   -5.8830   26.1538  -26.4067 N   0  0  0  0  0  0  0  0  0  0  0  0
   -4.7059   26.6381  -25.7575 C   0  0  0  0  0  0  0  0  0  0  0  0
   -4.2764   25.7448  -24.6085 C   0  0  0  0  0  0  0  0  0  0  0  0
   -5.3087   25.4758  -23.6583 N   0  0  0  0  0  0  0  0  0  0  0  0
   -6.5414   26.0470  -24.0630 C   0  0  0  0  0  0  0  0  0  0  0  0
   -6.8916   25.6902  -25.4965 C   0  0  0  0  0  0  0  0  0  0  0  0
   -5.3445   24.1512  -23.1473 C   0  0  0  0  0  0  0  0  0  0  0  0
   -6.3222   24.0797  -21.9997 C   0  0  0  0  0  0  0  0  0  0  0  0
   -7.4360   23.2858  -22.0582 C   0  0  0  0  0  0  0  0  0  0  0  0
   -8.3086   23.2594  -20.9765 C   0  0  0  0  0  0  0  0  0  0  0  0
   -8.0605   24.0221  -19.8550 C   0  0  0  0  0  0  0  0  0  0  0  0
   -6.9444   24.8075  -19.8160 C   0  0  0  0  0  0  0  0  0  0  0  0
   -6.0776   24.8404  -20.8778 C   0  0  0  0  0  0  0  0  0  0  0  0
 25 26  1  0  0  0
 26 24  1  0  0  0
 24  1  1  0  0  0
  1  2  2  0  0  0
  2  3  1  0  0  0
  3  4  1  0  0  0
  4  5  2  0  0  0
  5  6  1  0  0  0
  6 11  1  0  0  0
 11 12  1  0  0  0
 12 13  2  0  0  0
 12 15  1  0  0  0
 15 16  1  0  0  0
 16 17  1  0  0  0
 17 18  2  0  0  0
 18 19  1  0  0  0
 19 20  2  0  0  0
 20 21  1  0  0  0
 21 22  1  0  0  0
 21 23  2  0  0  0
  6  7  2  0  0  0
  7  8  1  0  0  0
  8  9  2  0  0  0
 26 27  1  0  0  0
 27 28  2  0  0  0
 27 29  1  0  0  0
 29 30  1  0  0  0
 30 31  1  0  0  0
 31 32  1  0  0  0
 32 33  1  0  0  0
 33 36  1  0  0  0
 36 37  1  0  0  0
 37 38  2  0  0  0
 38 39  1  0  0  0
 39 40  2  0  0  0
 40 41  1  0  0  0
 41 42  2  0  0  0
 33 34  1  0  0  0
 34 35  1  0  0  0
  9  1  1  0  0  0
 35 30  1  0  0  0
  9  4  1  0  0  0
 42 37  1  0  0  0
 23 17  1  0  0  0
  3 10  1  0  0  0
 11 14  1  0  0  0
M  END
> <minimizedAffinity>
-8.54319

> <CNNscore>
0.4563724697

> <CNNaffinity>
7.3517160416

> <CNN_VS>
3.3551208973

> <CNNaffinity_variance>
0.2074184716

$$$$
[H]c1c([H])c([H])c(C([H])([H])N2C([H])([H])C([H])([H])N(C([H])([H])C(=O)N(C([H])([H])[H])C([H])([H])c3nn([H])c4c([H])c(N([H])C(=O)OC([H])([H])c5c([H])c([H])c([H])c(F)c5[H])c([H])c([H])c34)C([H])([H])C2([H])[H])c([H])c1[H]


 42 46  0  0  0  0  0  0  0  0999 V2000
   -2.5791   22.5823  -26.3929 C   0  0  0  0  0  0  0  0  0  0  0  0
   -1.4520   22.8829  -27.0716 N   0  0  0  0  0  0  0  0  0  0  0  0
   -0.3785   22.7063  -26.3423 N   0  0  0  0  0  0  0  0  0  0  0  0
   -0.8303   22.2679  -25.1248 C   0  0  0  0  0  0  0  0  0  0  0  0
   -0.1661   21.9352  -23.9769 C   0  0  0  0  0  0  0  0  0  0  0  0
   -0.8004   21.5191  -22.8195 C   0  0  0  0  0  0  0  0  0  0  0  0
   -2.1944   21.4327  -22.8278 C   0  0  0  0  0  0  0  0  0  0  0  0
   -2.8597   21.7682  -23.9868 C   0  0  0  0  0  0  0  0  0  0  0  0
   -2.2006   22.1857  -25.1392 C   0  0  0  0  0  0  0  0  0  0  0  0
    0.6307   22.8387  -26.5424 H   0  0  0  0  0  0  0  0  0  0  0  0
    0.0054   21.2043  -21.7005 N   0  0  0  0  0  0  0  0  0  0  0  0
    0.0188   22.1073  -20.5777 C   0  0  0  0  0  0  0  0  0  0  0  0
   -0.6791   23.1278  -20.6612 O   0  0  0  0  0  0  0  0  0  0  0  0
    0.5817   20.3685  -21.6454 H   0  0  0  0  0  0  0  0  0  0  0  0
    0.7510   21.9027  -19.4484 O   0  0  0  0  0  0  0  0  0  0  0  0
    1.0647   22.9713  -18.5746 C   0  0  0  0  0  0  0  0  0  0  0  0
    2.5553   23.1074  -18.4326 C   0  0  0  0  0  0  0  0  0  0  0  0
    3.4478   22.3336  -19.0981 C   0  0  0  0  0  0  0  0  0  0  0  0
    4.8143   22.4539  -18.9379 C   0  0  0  0  0  0  0  0  0  0  0  0
    5.2133   23.4323  -18.0391 C   0  0  0  0  0  0  0  0  0  0  0  0
    4.3478   24.2335  -17.3491 C   0  0  0  0  0  0  0  0  0  0  0  0
    4.8128   25.1891  -16.4686 F   0  0  0  0  0  0  0  0  0  0  0  0
    2.9842   24.0847  -17.5346 C   0  0  0  0  0  0  0  0  0  0  0  0
   -3.9781   22.6321  -26.9082 C   0  0  0  0  0  0  0  0  0  0  0  0
   -4.1416   25.0785  -26.7502 C   0  0  0  0  0  0  0  0  0  0  0  0
   -4.6445   23.8184  -26.2856 N   0  0  0  0  0  0  0  0  0  0  0  0
   -5.6603   23.6689  -25.3631 C   0  0  0  0  0  0  0  0  0  0  0  0
   -5.9634   22.4178  -25.1060 O   0  0  0  0  0  0  0  0  0  0  0  0
   -6.4618   24.6081  -24.6259 C   0  0  0  0  0  0  0  0  0  0  0  0
   -6.1412   25.1266  -23.3925 N   0  0  0  0  0  0  0  0  0  0  0  0
   -4.7784   25.2866  -22.9943 C   0  0  0  0  0  0  0  0  0  0  0  0
   -4.3708   24.2846  -21.9302 C   0  0  0  0  0  0  0  0  0  0  0  0
   -5.2342   24.2545  -20.7925 N   0  0  0  0  0  0  0  0  0  0  0  0
   -6.3407   25.1238  -20.9640 C   0  0  0  0  0  0  0  0  0  0  0  0
   -7.0382   24.9033  -22.2942 C   0  0  0  0  0  0  0  0  0  0  0  0
   -5.4984   22.9669  -20.2546 C   0  0  0  0  0  0  0  0  0  0  0  0
   -4.7047   22.7783  -18.9848 C   0  0  0  0  0  0  0  0  0  0  0  0
   -5.1163   23.3213  -17.7974 C   0  0  0  0  0  0  0  0  0  0  0  0
   -4.3466   23.1232  -16.6570 C   0  0  0  0  0  0  0  0  0  0  0  0
   -3.1808   22.3893  -16.7152 C   0  0  0  0  0  0  0  0  0  0  0  0
   -2.7870   21.8561  -17.9088 C   0  0  0  0  0  0  0  0  0  0  0  0
   -3.5395   22.0458  -19.0392 C   0  0  0  0  0  0  0  0  0  0  0  0
 25 26  1  0  0  0
 26 24  1  0  0  0
 24  1  1  0  0  0
  1  2  2  0  0  0
  2  3  1  0  0  0
  3  4  1  0  0  0
  4  5  2  0  0  0
  5  6  1  0  0  0
  6 11  1  0  0  0
 11 12  1  0  0  0
 12 13  2  0  0  0
 12 15  1  0  0  0
 15 16  1  0  0  0
 16 17  1  0  0  0
 17 18  2  0  0  0
 18 19  1  0  0  0
 19 20  2  0  0  0
 20 21  1  0  0  0
 21 22  1  0  0  0
 21 23  2  0  0  0
  6  7  2  0  0  0
  7  8  1  0  0  0
  8  9  2  0  0  0
 26 27  1  0  0  0
 27 28  2  0  0  0
 27 29  1  0  0  0
 29 30  1  0  0  0
 30 31  1  0  0  0
 31 32  1  0  0  0
 32 33  1  0  0  0
 33 36  1  0  0  0
 36 37  1  0  0  0
 37 38  2  0  0  0
 38 39  1  0  0  0
 39 40  2  0  0  0
 40 41  1  0  0  0
 41 42  2  0  0  0
 33 34  1  0  0  0
 34 35  1  0  0  0
  9  1  1  0  0  0
 35 30  1  0  0  0
  9  4  1  0  0  0
 42 37  1  0  0  0
 23 17  1  0  0  0
  3 10  1  0  0  0
 11 14  1  0  0  0
M  END
> <minimizedAffinity>
-8.20925

> <CNNscore>
0.2115825117

> <CNNaffinity>
6.7815122604

> <CNN_VS>
1.4348493814

> <CNNaffinity_variance>
0.0565767474

$$$$
[H]c1c([H])c([H])c(C([H])([H])N2C([H])([H])C([H])([H])N(C([H])([H])C(=O)N(C([H])([H])[H])C([H])([H])c3nn([H])c4c([H])c(N([H])C(=O)OC([H])([H])c5c([H])c([H])c([H])c(F)c5[H])c([H])c([H])c34)C([H])([H])C2([H])[H])c([H])c1[H]


 42 46  0  0  0  0  0  0  0  0999 V2000
   -7.4483   24.1303  -19.2220 C   0  0  0  0  0  0  0  0  0  0  0  0
   -8.7889   23.9827  -19.1708 N   0  0  0  0  0  0  0  0  0  0  0  0
   -9.3585   24.2761  -20.3133 N   0  0  0  0  0  0  0  0  0  0  0  0
   -8.3351   24.6337  -21.1520 C   0  0  0  0  0  0  0  0  0  0  0  0
   -8.3327   25.0439  -22.4564 C   0  0  0  0  0  0  0  0  0  0  0  0
   -7.1838   25.3830  -23.1493 C   0  0  0  0  0  0  0  0  0  0  0  0
   -5.9617   25.2983  -22.4785 C   0  0  0  0  0  0  0  0  0  0  0  0
   -5.9686   24.8838  -21.1645 C   0  0  0  0  0  0  0  0  0  0  0  0
   -7.1371   24.5490  -20.4869 C   0  0  0  0  0  0  0  0  0  0  0  0
  -10.3493   24.2728  -20.6201 H   0  0  0  0  0  0  0  0  0  0  0  0
   -7.3204   25.7916  -24.4965 N   0  0  0  0  0  0  0  0  0  0  0  0
   -7.1490   24.8132  -25.5403 C   0  0  0  0  0  0  0  0  0  0  0  0
   -6.8785   23.6546  -25.1939 O   0  0  0  0  0  0  0  0  0  0  0  0
   -7.5338   26.7471  -24.7708 H   0  0  0  0  0  0  0  0  0  0  0  0
   -7.2628   25.0923  -26.8678 O   0  0  0  0  0  0  0  0  0  0  0  0
   -6.1832   25.6483  -27.5952 C   0  0  0  0  0  0  0  0  0  0  0  0
   -5.3274   24.5557  -28.1735 C   0  0  0  0  0  0  0  0  0  0  0  0
   -5.7419   23.7146  -29.1527 C   0  0  0  0  0  0  0  0  0  0  0  0
   -4.9526   22.6992  -29.6563 C   0  0  0  0  0  0  0  0  0  0  0  0
   -3.6930   22.5997  -29.0837 C   0  0  0  0  0  0  0  0  0  0  0  0
   -3.2360   23.4264  -28.0964 C   0  0  0  0  0  0  0  0  0  0  0  0
   -1.9695   23.2720  -27.5701 F   0  0  0  0  0  0  0  0  0  0  0  0
   -4.0549   24.4335  -27.6156 C   0  0  0  0  0  0  0  0  0  0  0  0
   -6.4724   23.8578  -18.1272 C   0  0  0  0  0  0  0  0  0  0  0  0
   -5.9330   21.5263  -18.6841 C   0  0  0  0  0  0  0  0  0  0  0  0
   -6.5929   22.4102  -17.7677 N   0  0  0  0  0  0  0  0  0  0  0  0
   -7.2731   22.0058  -16.6367 C   0  0  0  0  0  0  0  0  0  0  0  0
   -7.7802   22.9962  -15.9402 O   0  0  0  0  0  0  0  0  0  0  0  0
   -7.5369   20.7153  -16.0598 C   0  0  0  0  0  0  0  0  0  0  0  0
   -8.2366   19.7016  -16.6727 N   0  0  0  0  0  0  0  0  0  0  0  0
   -9.3479   19.9861  -17.5245 C   0  0  0  0  0  0  0  0  0  0  0  0
  -10.6709   19.6033  -16.8876 C   0  0  0  0  0  0  0  0  0  0  0  0
  -10.7244   18.2571  -16.4124 N   0  0  0  0  0  0  0  0  0  0  0  0
   -9.4756   17.6057  -16.5721 C   0  0  0  0  0  0  0  0  0  0  0  0
   -8.3279   18.4287  -16.0152 C   0  0  0  0  0  0  0  0  0  0  0  0
  -11.4020   18.0667  -15.1788 C   0  0  0  0  0  0  0  0  0  0  0  0
  -12.0517   16.7045  -15.1654 C   0  0  0  0  0  0  0  0  0  0  0  0
  -11.8586   15.8307  -14.1293 C   0  0  0  0  0  0  0  0  0  0  0  0
  -12.4751   14.5855  -14.1671 C   0  0  0  0  0  0  0  0  0  0  0  0
  -13.2728   14.2289  -15.2336 C   0  0  0  0  0  0  0  0  0  0  0  0
  -13.4528   15.1140  -16.2574 C   0  0  0  0  0  0  0  0  0  0  0  0
  -12.8491   16.3446  -16.2292 C   0  0  0  0  0  0  0  0  0  0  0  0
 25 26  1  0  0  0
 26 24  1  0  0  0
 24  1  1  0  0  0
  1  2  2  0  0  0
  2  3  1  0  0  0
  3  4  1  0  0  0
  4  5  2  0  0  0
  5  6  1  0  0  0
  6 11  1  0  0  0
 11 12  1  0  0  0
 12 13  2  0  0  0
 12 15  1  0  0  0
 15 16  1  0  0  0
 16 17  1  0  0  0
 17 18  2  0  0  0
 18 19  1  0  0  0
 19 20  2  0  0  0
 20 21  1  0  0  0
 21 22  1  0  0  0
 21 23  2  0  0  0
  6  7  2  0  0  0
  7  8  1  0  0  0
  8  9  2  0  0  0
 26 27  1  0  0  0
 27 28  2  0  0  0
 27 29  1  0  0  0
 29 30  1  0  0  0
 30 31  1  0  0  0
 31 32  1  0  0  0
 32 33  1  0  0  0
 33 36  1  0  0  0
 36 37  1  0  0  0
 37 38  2  0  0  0
 38 39  1  0  0  0
 39 40  2  0  0  0
 40 41  1  0  0  0
 41 42  2  0  0  0
 33 34  1  0  0  0
 34 35  1  0  0  0
  9  1  1  0  0  0
 35 30  1  0  0  0
  9  4  1  0  0  0
 42 37  1  0  0  0
 23 17  1  0  0  0
  3 10  1  0  0  0
 11 14  1  0  0  0
M  END
> <minimizedAffinity>
-7.26104

> <CNNscore>
0.1265328825

> <CNNaffinity>
5.5781083107

> <CNN_VS>
0.7058141232

> <CNNaffinity_variance>
0.1184803694

$$$$
[H]c1c([H])c([H])c(C([H])([H])N2C([H])([H])C([H])([H])N(C([H])([H])C(=O)N(C([H])([H])[H])C([H])([H])c3nn([H])c4c([H])c(N([H])C(=O)OC([H])([H])c5c([H])c([H])c([H])c(F)c5[H])c([H])c([H])c34)C([H])([H])C2([H])[H])c([H])c1[H]


 42 46  0  0  0  0  0  0  0  0999 V2000
   -8.5991   22.2430  -20.5892 C   0  0  0  0  0  0  0  0  0  0  0  0
   -7.8129   21.1876  -20.8881 N   0  0  0  0  0  0  0  0  0  0  0  0
   -6.9917   21.4515  -21.8739 N   0  0  0  0  0  0  0  0  0  0  0  0
   -7.2574   22.7465  -22.2357 C   0  0  0  0  0  0  0  0  0  0  0  0
   -6.7195   23.5457  -23.2061 C   0  0  0  0  0  0  0  0  0  0  0  0
   -7.1299   24.8465  -23.4400 C   0  0  0  0  0  0  0  0  0  0  0  0
   -8.1469   25.3696  -22.6383 C   0  0  0  0  0  0  0  0  0  0  0  0
   -8.6856   24.5611  -21.6613 C   0  0  0  0  0  0  0  0  0  0  0  0
   -8.2579   23.2547  -21.4449 C   0  0  0  0  0  0  0  0  0  0  0  0
   -6.2666   20.8822  -22.3494 H   0  0  0  0  0  0  0  0  0  0  0  0
   -6.4897   25.5656  -24.4760 N   0  0  0  0  0  0  0  0  0  0  0  0
   -6.9570   25.3992  -25.8289 C   0  0  0  0  0  0  0  0  0  0  0  0
   -7.9006   24.6172  -26.0118 O   0  0  0  0  0  0  0  0  0  0  0  0
   -5.7100   26.1984  -24.3167 H   0  0  0  0  0  0  0  0  0  0  0  0
   -6.4206   26.0438  -26.9014 O   0  0  0  0  0  0  0  0  0  0  0  0
   -5.1447   25.6934  -27.4044 C   0  0  0  0  0  0  0  0  0  0  0  0
   -5.2861   24.8336  -28.6296 C   0  0  0  0  0  0  0  0  0  0  0  0
   -5.1319   23.4866  -28.6248 C   0  0  0  0  0  0  0  0  0  0  0  0
   -5.2400   22.7129  -29.7638 C   0  0  0  0  0  0  0  0  0  0  0  0
   -5.5205   23.4184  -30.9248 C   0  0  0  0  0  0  0  0  0  0  0  0
   -5.6840   24.7741  -30.9733 C   0  0  0  0  0  0  0  0  0  0  0  0
   -5.9624   25.4139  -32.1641 F   0  0  0  0  0  0  0  0  0  0  0  0
   -5.5684   25.5179  -29.8118 C   0  0  0  0  0  0  0  0  0  0  0  0
   -9.6253   22.3211  -19.5094 C   0  0  0  0  0  0  0  0  0  0  0  0
   -9.5125   20.4098  -17.9696 C   0  0  0  0  0  0  0  0  0  0  0  0
   -9.0257   21.7236  -18.2754 N   0  0  0  0  0  0  0  0  0  0  0  0
   -8.0790   22.4035  -17.5359 C   0  0  0  0  0  0  0  0  0  0  0  0
   -7.7761   23.5854  -18.0201 O   0  0  0  0  0  0  0  0  0  0  0  0
   -7.3493   22.0782  -16.3402 C   0  0  0  0  0  0  0  0  0  0  0  0
   -6.3484   21.1382  -16.2540 N   0  0  0  0  0  0  0  0  0  0  0  0
   -5.2577   21.1393  -17.1771 C   0  0  0  0  0  0  0  0  0  0  0  0
   -5.3357   19.9840  -18.1578 C   0  0  0  0  0  0  0  0  0  0  0  0
   -5.4821   18.7027  -17.5431 N   0  0  0  0  0  0  0  0  0  0  0  0
   -5.6091   18.8193  -16.1360 C   0  0  0  0  0  0  0  0  0  0  0  0
   -6.6655   19.8354  -15.7412 C   0  0  0  0  0  0  0  0  0  0  0  0
   -6.3607   17.8015  -18.2010 C   0  0  0  0  0  0  0  0  0  0  0  0
   -5.5633   16.6741  -18.8101 C   0  0  0  0  0  0  0  0  0  0  0  0
   -4.1985   16.6297  -18.7122 C   0  0  0  0  0  0  0  0  0  0  0  0
   -3.5099   15.5725  -19.2954 C   0  0  0  0  0  0  0  0  0  0  0  0
   -4.1883   14.5772  -19.9663 C   0  0  0  0  0  0  0  0  0  0  0  0
   -5.5494   14.6394  -20.0533 C   0  0  0  0  0  0  0  0  0  0  0  0
   -6.2377   15.6781  -19.4813 C   0  0  0  0  0  0  0  0  0  0  0  0
 25 26  1  0  0  0
 26 24  1  0  0  0
 24  1  1  0  0  0
  1  2  2  0  0  0
  2  3  1  0  0  0
  3  4  1  0  0  0
  4  5  2  0  0  0
  5  6  1  0  0  0
  6 11  1  0  0  0
 11 12  1  0  0  0
 12 13  2  0  0  0
 12 15  1  0  0  0
 15 16  1  0  0  0
 16 17  1  0  0  0
 17 18  2  0  0  0
 18 19  1  0  0  0
 19 20  2  0  0  0
 20 21  1  0  0  0
 21 22  1  0  0  0
 21 23  2  0  0  0
  6  7  2  0  0  0
  7  8  1  0  0  0
  8  9  2  0  0  0
 26 27  1  0  0  0
 27 28  2  0  0  0
 27 29  1  0  0  0
 29 30  1  0  0  0
 30 31  1  0  0  0
 31 32  1  0  0  0
 32 33  1  0  0  0
 33 36  1  0  0  0
 36 37  1  0  0  0
 37 38  2  0  0  0
 38 39  1  0  0  0
 39 40  2  0  0  0
 40 41  1  0  0  0
 41 42  2  0  0  0
 33 34  1  0  0  0
 34 35  1  0  0  0
  9  1  1  0  0  0
 35 30  1  0  0  0
  9  4  1  0  0  0
 42 37  1  0  0  0
 23 17  1  0  0  0
  3 10  1  0  0  0
 11 14  1  0  0  0
M  END
> <minimizedAffinity>
-7.95559

> <CNNscore>
0.0811605677

> <CNNaffinity>
5.5448117256

> <CNN_VS>
0.4500200748

> <CNNaffinity_variance>
0.2213073224

$$$$
[H]c1c([H])c([H])c(C([H])([H])N2C([H])([H])C([H])([H])N(C([H])([H])C(=O)N(C([H])([H])[H])C([H])([H])c3nn([H])c4c([H])c(N([H])C(=O)OC([H])([H])c5c([H])c([H])c([H])c(F)c5[H])c([H])c([H])c34)C([H])([H])C2([H])[H])c([H])c1[H]


 42 46  0  0  0  0  0  0  0  0999 V2000
   -5.1141   22.2161  -18.9568 C   0  0  0  0  0  0  0  0  0  0  0  0
   -6.2184   21.4754  -18.7254 N   0  0  0  0  0  0  0  0  0  0  0  0
   -6.9403   21.3203  -19.8072 N   0  0  0  0  0  0  0  0  0  0  0  0
   -6.2711   21.9955  -20.7946 C   0  0  0  0  0  0  0  0  0  0  0  0
   -6.5575   22.1852  -22.1181 C   0  0  0  0  0  0  0  0  0  0  0  0
   -5.7586   22.9211  -22.9756 C   0  0  0  0  0  0  0  0  0  0  0  0
   -4.5962   23.4982  -22.4592 C   0  0  0  0  0  0  0  0  0  0  0  0
   -4.3111   23.3039  -21.1252 C   0  0  0  0  0  0  0  0  0  0  0  0
   -5.1303   22.5606  -20.2809 C   0  0  0  0  0  0  0  0  0  0  0  0
   -7.8315   20.8204  -19.9856 H   0  0  0  0  0  0  0  0  0  0  0  0
   -6.1695   23.0398  -24.3237 N   0  0  0  0  0  0  0  0  0  0  0  0
   -6.8252   24.2513  -24.7464 C   0  0  0  0  0  0  0  0  0  0  0  0
   -7.0028   25.1294  -23.8902 O   0  0  0  0  0  0  0  0  0  0  0  0
   -6.0272   22.3095  -25.0167 H   0  0  0  0  0  0  0  0  0  0  0  0
   -7.2572   24.4762  -26.0176 O   0  0  0  0  0  0  0  0  0  0  0  0
   -6.4915   25.2449  -26.9268 C   0  0  0  0  0  0  0  0  0  0  0  0
   -5.3903   24.4087  -27.5170 C   0  0  0  0  0  0  0  0  0  0  0  0
   -4.1241   24.3827  -27.0331 C   0  0  0  0  0  0  0  0  0  0  0  0
   -3.1166   23.6284  -27.6019 C   0  0  0  0  0  0  0  0  0  0  0  0
   -3.4955   22.8917  -28.7146 C   0  0  0  0  0  0  0  0  0  0  0  0
   -4.7595   22.8889  -29.2338 C   0  0  0  0  0  0  0  0  0  0  0  0
   -5.0693   22.1313  -30.3450 F   0  0  0  0  0  0  0  0  0  0  0  0
   -5.7442   23.6573  -28.6376 C   0  0  0  0  0  0  0  0  0  0  0  0
   -4.0485   22.5705  -17.9749 C   0  0  0  0  0  0  0  0  0  0  0  0
   -5.2282   24.3702  -16.7890 C   0  0  0  0  0  0  0  0  0  0  0  0
   -4.7262   23.0285  -16.7219 N   0  0  0  0  0  0  0  0  0  0  0  0
   -4.8505   22.1961  -15.6278 C   0  0  0  0  0  0  0  0  0  0  0  0
   -4.3287   21.0048  -15.8057 O   0  0  0  0  0  0  0  0  0  0  0  0
   -5.4420   22.3662  -14.3281 C   0  0  0  0  0  0  0  0  0  0  0  0
   -6.7441   22.0619  -14.0044 N   0  0  0  0  0  0  0  0  0  0  0  0
   -7.0932   20.7727  -13.4969 C   0  0  0  0  0  0  0  0  0  0  0  0
   -7.8614   19.9461  -14.5114 C   0  0  0  0  0  0  0  0  0  0  0  0
   -9.0045   20.6052  -15.0588 N   0  0  0  0  0  0  0  0  0  0  0  0
   -9.1082   21.9359  -14.5815 C   0  0  0  0  0  0  0  0  0  0  0  0
   -7.8046   22.6990  -14.7326 C   0  0  0  0  0  0  0  0  0  0  0  0
   -9.2314   20.3940  -16.4448 C   0  0  0  0  0  0  0  0  0  0  0  0
  -10.7123   20.4580  -16.7289 C   0  0  0  0  0  0  0  0  0  0  0  0
  -11.5927   19.5973  -16.1303 C   0  0  0  0  0  0  0  0  0  0  0  0
  -12.9466   19.6937  -16.4299 C   0  0  0  0  0  0  0  0  0  0  0  0
  -13.4034   20.6431  -17.3193 C   0  0  0  0  0  0  0  0  0  0  0  0
  -12.5096   21.4921  -17.9062 C   0  0  0  0  0  0  0  0  0  0  0  0
  -11.1722   21.4050  -17.6171 C   0  0  0  0  0  0  0  0  0  0  0  0
 25 26  1  0  0  0
 26 24  1  0  0  0
 24  1  1  0  0  0
  1  2  2  0  0  0
  2  3  1  0  0  0
  3  4  1  0  0  0
  4  5  2  0  0  0
  5  6  1  0  0  0
  6 11  1  0  0  0
 11 12  1  0  0  0
 12 13  2  0  0  0
 12 15  1  0  0  0
 15 16  1  0  0  0
 16 17  1  0  0  0
 17 18  2  0  0  0
 18 19  1  0  0  0
 19 20  2  0  0  0
 20 21  1  0  0  0
 21 22  1  0  0  0
 21 23  2  0  0  0
  6  7  2  0  0  0
  7  8  1  0  0  0
  8  9  2  0  0  0
 26 27  1  0  0  0
 27 28  2  0  0  0
 27 29  1  0  0  0
 29 30  1  0  0  0
 30 31  1  0  0  0
 31 32  1  0  0  0
 32 33  1  0  0  0
 33 36  1  0  0  0
 36 37  1  0  0  0
 37 38  2  0  0  0
 38 39  1  0  0  0
 39 40  2  0  0  0
 40 41  1  0  0  0
 41 42  2  0  0  0
 33 34  1  0  0  0
 34 35  1  0  0  0
  9  1  1  0  0  0
 35 30  1  0  0  0
  9  4  1  0  0  0
 42 37  1  0  0  0
 23 17  1  0  0  0
  3 10  1  0  0  0
 11 14  1  0  0  0
M  END
> <minimizedAffinity>
-6.92891

> <CNNscore>
0.0758739188

> <CNNaffinity>
5.5183453560

> <CNN_VS>
0.4186984897

> <CNNaffinity_variance>
0.2081722021

$$$$
[H]c1c([H])c([H])c(C([H])([H])N2C([H])([H])C([H])([H])N(C([H])([H])C(=O)N(C([H])([H])[H])C([H])([H])c3nn([H])c4c([H])c(N([H])C(=O)OC([H])([H])c5c([H])c([H])c([H])c(F)c5[H])c([H])c([H])c34)C([H])([H])C2([H])[H])c([H])c1[H]


 42 46  0  0  0  0  0  0  0  0999 V2000
    1.0251   22.1599  -19.1555 C   0  0  0  0  0  0  0  0  0  0  0  0
    0.1585   22.9328  -18.4675 N   0  0  0  0  0  0  0  0  0  0  0  0
   -0.9568   23.1254  -19.1268 N   0  0  0  0  0  0  0  0  0  0  0  0
   -0.8085   22.4423  -20.3058 C   0  0  0  0  0  0  0  0  0  0  0  0
   -1.6411   22.2965  -21.3805 C   0  0  0  0  0  0  0  0  0  0  0  0
   -1.3116   21.5681  -22.5100 C   0  0  0  0  0  0  0  0  0  0  0  0
   -0.0611   20.9473  -22.5509 C   0  0  0  0  0  0  0  0  0  0  0  0
    0.7746   21.0963  -21.4655 C   0  0  0  0  0  0  0  0  0  0  0  0
    0.4223   21.8351  -20.3401 C   0  0  0  0  0  0  0  0  0  0  0  0
   -1.8184   23.6567  -18.9003 H   0  0  0  0  0  0  0  0  0  0  0  0
   -2.2652   21.4961  -23.5520 N   0  0  0  0  0  0  0  0  0  0  0  0
   -1.9353   22.0602  -24.8363 C   0  0  0  0  0  0  0  0  0  0  0  0
   -0.8223   22.5921  -24.9540 O   0  0  0  0  0  0  0  0  0  0  0  0
   -3.1796   21.0652  -23.4427 H   0  0  0  0  0  0  0  0  0  0  0  0
   -2.7721   22.0430  -25.9099 O   0  0  0  0  0  0  0  0  0  0  0  0
   -2.3878   22.6117  -27.1480 C   0  0  0  0  0  0  0  0  0  0  0  0
   -3.3263   23.7247  -27.5235 C   0  0  0  0  0  0  0  0  0  0  0  0
   -4.0484   24.4355  -26.6226 C   0  0  0  0  0  0  0  0  0  0  0  0
   -4.9258   25.4386  -26.9852 C   0  0  0  0  0  0  0  0  0  0  0  0
   -5.0170   25.6700  -28.3499 C   0  0  0  0  0  0  0  0  0  0  0  0
   -4.3074   24.9779  -29.2904 C   0  0  0  0  0  0  0  0  0  0  0  0
   -4.4458   25.2597  -30.6343 F   0  0  0  0  0  0  0  0  0  0  0  0
   -3.4370   23.9787  -28.8905 C   0  0  0  0  0  0  0  0  0  0  0  0
    2.3738   21.7059  -18.7083 C   0  0  0  0  0  0  0  0  0  0  0  0
    1.3320   19.8072  -17.5479 C   0  0  0  0  0  0  0  0  0  0  0  0
    2.3073   20.2238  -18.5132 N   0  0  0  0  0  0  0  0  0  0  0  0
    3.1184   19.3683  -19.2312 C   0  0  0  0  0  0  0  0  0  0  0  0
    3.9211   19.9788  -20.0716 O   0  0  0  0  0  0  0  0  0  0  0  0
    3.2613   17.9375  -19.2506 C   0  0  0  0  0  0  0  0  0  0  0  0
    2.3749   17.0606  -19.8322 N   0  0  0  0  0  0  0  0  0  0  0  0
    1.4635   17.4985  -20.8418 C   0  0  0  0  0  0  0  0  0  0  0  0
    0.0336   17.5562  -20.3371 C   0  0  0  0  0  0  0  0  0  0  0  0
   -0.4221   16.3466  -19.7287 N   0  0  0  0  0  0  0  0  0  0  0  0
    0.6157   15.3834  -19.6597 C   0  0  0  0  0  0  0  0  0  0  0  0
    1.8858   15.9559  -19.0568 C   0  0  0  0  0  0  0  0  0  0  0  0
   -1.2361   16.5065  -18.5760 C   0  0  0  0  0  0  0  0  0  0  0  0
   -2.6683   16.1775  -18.9204 C   0  0  0  0  0  0  0  0  0  0  0  0
   -2.9819   15.1416  -19.7588 C   0  0  0  0  0  0  0  0  0  0  0  0
   -4.3164   14.8830  -20.0490 C   0  0  0  0  0  0  0  0  0  0  0  0
   -5.3171   15.6578  -19.5019 C   0  0  0  0  0  0  0  0  0  0  0  0
   -4.9841   16.6865  -18.6683 C   0  0  0  0  0  0  0  0  0  0  0  0
   -3.6706   16.9495  -18.3758 C   0  0  0  0  0  0  0  0  0  0  0  0
 25 26  1  0  0  0
 26 24  1  0  0  0
 24  1  1  0  0  0
  1  2  2  0  0  0
  2  3  1  0  0  0
  3  4  1  0  0  0
  4  5  2  0  0  0
  5  6  1  0  0  0
  6 11  1  0  0  0
 11 12  1  0  0  0
 12 13  2  0  0  0
 12 15  1  0  0  0
 15 16  1  0  0  0
 16 17  1  0  0  0
 17 18  2  0  0  0
 18 19  1  0  0  0
 19 20  2  0  0  0
 20 21  1  0  0  0
 21 22  1  0  0  0
 21 23  2  0  0  0
  6  7  2  0  0  0
  7  8  1  0  0  0
  8  9  2  0  0  0
 26 27  1  0  0  0
 27 28  2  0  0  0
 27 29  1  0  0  0
 29 30  1  0  0  0
 30 31  1  0  0  0
 31 32  1  0  0  0
 32 33  1  0  0  0
 33 36  1  0  0  0
 36 37  1  0  0  0
 37 38  2  0  0  0
 38 39  1  0  0  0
 39 40  2  0  0  0
 40 41  1  0  0  0
 41 42  2  0  0  0
 33 34  1  0  0  0
 34 35  1  0  0  0
  9  1  1  0  0  0
 35 30  1  0  0  0
  9  4  1  0  0  0
 42 37  1  0  0  0
 23 17  1  0  0  0
  3 10  1  0  0  0
 11 14  1  0  0  0
M  END
> <minimizedAffinity>
-7.05179

> <CNNscore>
0.0665285289

> <CNNaffinity>
5.6873855591

> <CNN_VS>
0.3783733845

> <CNNaffinity_variance>
0.0815204382

$$$$
[H]c1c([H])c([H])c(C([H])([H])N2C([H])([H])C([H])([H])N(C([H])([H])C(=O)N(C([H])([H])[H])C([H])([H])c3nn([H])c4c([H])c(N([H])C(=O)OC([H])([H])c5c([H])c([H])c([H])c(F)c5[H])c([H])c([H])c34)C([H])([H])C2([H])[H])c([H])c1[H]


 42 46  0  0  0  0  0  0  0  0999 V2000
   -8.5578   22.5369  -20.3819 C   0  0  0  0  0  0  0  0  0  0  0  0
   -8.1443   21.3525  -20.8794 N   0  0  0  0  0  0  0  0  0  0  0  0
   -7.3791   21.5029  -21.9318 N   0  0  0  0  0  0  0  0  0  0  0  0
   -7.2900   22.8562  -22.1299 C   0  0  0  0  0  0  0  0  0  0  0  0
   -6.6376   23.5930  -23.0792 C   0  0  0  0  0  0  0  0  0  0  0  0
   -6.6726   24.9754  -23.1320 C   0  0  0  0  0  0  0  0  0  0  0  0
   -7.4130   25.6523  -22.1603 C   0  0  0  0  0  0  0  0  0  0  0  0
   -8.0683   24.9061  -21.2052 C   0  0  0  0  0  0  0  0  0  0  0  0
   -8.0201   23.5157  -21.1725 C   0  0  0  0  0  0  0  0  0  0  0  0
   -6.8991   20.8211  -22.5488 H   0  0  0  0  0  0  0  0  0  0  0  0
   -5.9522   25.6161  -24.1669 N   0  0  0  0  0  0  0  0  0  0  0  0
   -6.5117   25.6344  -25.4947 C   0  0  0  0  0  0  0  0  0  0  0  0
   -7.6035   25.0718  -25.6588 O   0  0  0  0  0  0  0  0  0  0  0  0
   -5.0524   26.0673  -24.0238 H   0  0  0  0  0  0  0  0  0  0  0  0
   -5.9100   26.2254  -26.5633 O   0  0  0  0  0  0  0  0  0  0  0  0
   -4.7243   25.6929  -27.1240 C   0  0  0  0  0  0  0  0  0  0  0  0
   -5.0363   24.9501  -28.3933 C   0  0  0  0  0  0  0  0  0  0  0  0
   -5.1500   23.6011  -28.4665 C   0  0  0  0  0  0  0  0  0  0  0  0
   -5.4122   22.9311  -29.6455 C   0  0  0  0  0  0  0  0  0  0  0  0
   -5.5526   23.7440  -30.7607 C   0  0  0  0  0  0  0  0  0  0  0  0
   -5.4466   25.1060  -30.7305 C   0  0  0  0  0  0  0  0  0  0  0  0
   -5.5979   25.8559  -31.8792 F   0  0  0  0  0  0  0  0  0  0  0  0
   -5.1828   25.7439  -29.5308 C   0  0  0  0  0  0  0  0  0  0  0  0
   -9.4100   22.7568  -19.1775 C   0  0  0  0  0  0  0  0  0  0  0  0
   -9.5787   20.7365  -17.7894 C   0  0  0  0  0  0  0  0  0  0  0  0
   -8.8387   21.9333  -18.0663 N   0  0  0  0  0  0  0  0  0  0  0  0
   -7.6905   22.3189  -17.4044 C   0  0  0  0  0  0  0  0  0  0  0  0
   -7.1771   23.4441  -17.8443 O   0  0  0  0  0  0  0  0  0  0  0  0
   -6.9349   21.7347  -16.3292 C   0  0  0  0  0  0  0  0  0  0  0  0
   -6.5719   22.3841  -15.1719 N   0  0  0  0  0  0  0  0  0  0  0  0
   -6.1927   21.6507  -14.0057 C   0  0  0  0  0  0  0  0  0  0  0  0
   -7.2469   21.7211  -12.9166 C   0  0  0  0  0  0  0  0  0  0  0  0
   -7.6491   23.0487  -12.5755 N   0  0  0  0  0  0  0  0  0  0  0  0
   -7.0202   24.0066  -13.4100 C   0  0  0  0  0  0  0  0  0  0  0  0
   -7.1608   23.6607  -14.8815 C   0  0  0  0  0  0  0  0  0  0  0  0
   -9.0344   23.2244  -12.3164 C   0  0  0  0  0  0  0  0  0  0  0  0
   -9.2932   24.6531  -11.9042 C   0  0  0  0  0  0  0  0  0  0  0  0
   -9.9446   25.5286  -12.7308 C   0  0  0  0  0  0  0  0  0  0  0  0
  -10.1534   26.8357  -12.3065 C   0  0  0  0  0  0  0  0  0  0  0  0
   -9.7112   27.2514  -11.0685 C   0  0  0  0  0  0  0  0  0  0  0  0
   -9.0633   26.3634  -10.2588 C   0  0  0  0  0  0  0  0  0  0  0  0
   -8.8527   25.0719  -10.6682 C   0  0  0  0  0  0  0  0  0  0  0  0
 25 26  1  0  0  0
 26 24  1  0  0  0
 24  1  1  0  0  0
  1  2  2  0  0  0
  2  3  1  0  0  0
  3  4  1  0  0  0
  4  5  2  0  0  0
  5  6  1  0  0  0
  6 11  1  0  0  0
 11 12  1  0  0  0
 12 13  2  0  0  0
 12 15  1  0  0  0
 15 16  1  0  0  0
 16 17  1  0  0  0
 17 18  2  0  0  0
 18 19  1  0  0  0
 19 20  2  0  0  0
 20 21  1  0  0  0
 21 22  1  0  0  0
 21 23  2  0  0  0
  6  7  2  0  0  0
  7  8  1  0  0  0
  8  9  2  0  0  0
 26 27  1  0  0  0
 27 28  2  0  0  0
 27 29  1  0  0  0
 29 30  1  0  0  0
 30 31  1  0  0  0
 31 32  1  0  0  0
 32 33  1  0  0  0
 33 36  1  0  0  0
 36 37  1  0  0  0
 37 38  2  0  0  0
 38 39  1  0  0  0
 39 40  2  0  0  0
 40 41  1  0  0  0
 41 42  2  0  0  0
 33 34  1  0  0  0
 34 35  1  0  0  0
  9  1  1  0  0  0
 35 30  1  0  0  0
  9  4  1  0  0  0
 42 37  1  0  0  0
 23 17  1  0  0  0
  3 10  1  0  0  0
 11 14  1  0  0  0
M  END
> <minimizedAffinity>
-7.64022

> <CNNscore>
0.0611261018

> <CNNaffinity>
5.0718145370

> <CNN_VS>
0.3100202382

> <CNNaffinity_variance>
0.2381237298

$$$$
[H]c1nn(C([H])([H])[H])c([H])c1N1C([H])([H])C([H])([H])N(C(=O)c2nc3c([H])c(-c4c([H])c([H])c(C([H])([H])C([H])([H])[H])c([H])c4[H])c([H])c([H])c3n2[H])C([H])([H])C([H])([H])C1([H])[H]


 33 37  0  0  0  0  0  0  0  0999 V2000
   -2.8429   22.5202  -25.7921 C   0  0  0  0  0  0  0  0  0  0  0  0
   -3.5138   22.1571  -24.6515 C   0  0  0  0  0  0  0  0  0  0  0  0
   -2.8121   21.7064  -23.5320 C   0  0  0  0  0  0  0  0  0  0  0  0
   -1.4449   21.6225  -23.5623 C   0  0  0  0  0  0  0  0  0  0  0  0
   -0.5348   21.2250  -22.6305 N   0  0  0  0  0  0  0  0  0  0  0  0
    0.6885   21.3280  -23.1529 C   0  0  0  0  0  0  0  0  0  0  0  0
    0.5221   21.8000  -24.4358 N   0  0  0  0  0  0  0  0  0  0  0  0
   -0.7758   21.9809  -24.6892 C   0  0  0  0  0  0  0  0  0  0  0  0
   -1.4768   22.4320  -25.8100 C   0  0  0  0  0  0  0  0  0  0  0  0
   -0.8231   20.9042  -21.6847 H   0  0  0  0  0  0  0  0  0  0  0  0
    1.9969   21.0487  -22.6212 C   0  0  0  0  0  0  0  0  0  0  0  0
    2.9872   21.5213  -23.3203 O   0  0  0  0  0  0  0  0  0  0  0  0
    2.3829   20.3494  -21.4710 N   0  0  0  0  0  0  0  0  0  0  0  0
    3.8547   20.2580  -21.2425 C   0  0  0  0  0  0  0  0  0  0  0  0
    4.3023   21.2409  -20.2241 C   0  0  0  0  0  0  0  0  0  0  0  0
    3.8442   21.0174  -18.8281 C   0  0  0  0  0  0  0  0  0  0  0  0
    2.6088   20.3108  -18.6762 N   0  0  0  0  0  0  0  0  0  0  0  0
    2.0374   19.1882  -19.3934 C   0  0  0  0  0  0  0  0  0  0  0  0
    1.3560   19.8013  -20.6366 C   0  0  0  0  0  0  0  0  0  0  0  0
    1.7531   20.7751  -17.6119 C   0  0  0  0  0  0  0  0  0  0  0  0
    1.9246   21.8833  -16.8048 C   0  0  0  0  0  0  0  0  0  0  0  0
    0.9049   21.9916  -15.9271 N   0  0  0  0  0  0  0  0  0  0  0  0
    0.1120   20.9712  -16.1807 N   0  0  0  0  0  0  0  0  0  0  0  0
   -1.1230   20.7033  -15.4561 C   0  0  0  0  0  0  0  0  0  0  0  0
    0.5664   20.2099  -17.1762 C   0  0  0  0  0  0  0  0  0  0  0  0
   -5.0150   23.8999  -29.2166 C   0  0  0  0  0  0  0  0  0  0  0  0
   -3.6608   23.6743  -29.2692 C   0  0  0  0  0  0  0  0  0  0  0  0
   -2.9582   23.2296  -28.1684 C   0  0  0  0  0  0  0  0  0  0  0  0
   -3.5886   22.9887  -26.9524 C   0  0  0  0  0  0  0  0  0  0  0  0
   -4.9527   23.2178  -26.9056 C   0  0  0  0  0  0  0  0  0  0  0  0
   -5.6528   23.6659  -28.0197 C   0  0  0  0  0  0  0  0  0  0  0  0
   -5.0212   25.6409  -30.8994 C   0  0  0  0  0  0  0  0  0  0  0  0
   -5.7175   24.3790  -30.4381 C   0  0  0  0  0  0  0  0  0  0  0  0
 32 33  1  0  0  0
 33 26  1  0  0  0
 26 27  2  0  0  0
 27 28  1  0  0  0
 28 29  2  0  0  0
 29 30  1  0  0  0
 30 31  2  0  0  0
 29  1  1  0  0  0
  1  2  2  0  0  0
  2  3  1  0  0  0
  3  4  2  0  0  0
  4  5  1  0  0  0
  5  6  1  0  0  0
  6  7  2  0  0  0
  7  8  1  0  0  0
  8  9  2  0  0  0
  6 11  1  0  0  0
 11 12  2  0  0  0
 11 13  1  0  0  0
 13 14  1  0  0  0
 14 15  1  0  0  0
 15 16  1  0  0  0
 16 17  1  0  0  0
 17 18  1  0  0  0
 18 19  1  0  0  0
 17 20  1  0  0  0
 20 21  1  0  0  0
 21 22  2  0  0  0
 22 23  1  0  0  0
 23 24  1  0  0  0
 23 25  1  0  0  0
 31 26  1  0  0  0
  9  1  1  0  0  0
 19 13  1  0  0  0
 25 20  2  0  0  0
  8  4  1  0  0  0
  5 10  1  0  0  0
M  END
> <minimizedAffinity>
-8.99041

> <CNNscore>
0.3155975938

> <CNNaffinity>
6.3774871826

> <CNN_VS>
2.0127196312

> <CNNaffinity_variance>
0.1058872193

$$$$
[H]c1nn(C([H])([H])[H])c([H])c1N1C([H])([H])C([H])([H])N(C(=O)c2nc3c([H])c(-c4c([H])c([H])c(C([H])([H])C([H])([H])[H])c([H])c4[H])c([H])c([H])c3n2[H])C([H])([H])C([H])([H])C1([H])[H]


 33 37  0  0  0  0  0  0  0  0999 V2000
   -6.7534   23.2415  -23.6500 C   0  0  0  0  0  0  0  0  0  0  0  0
   -7.5625   24.2276  -23.1441 C   0  0  0  0  0  0  0  0  0  0  0  0
   -8.2150   24.0492  -21.9229 C   0  0  0  0  0  0  0  0  0  0  0  0
   -8.0530   22.8857  -21.2176 C   0  0  0  0  0  0  0  0  0  0  0  0
   -8.5620   22.4625  -20.0276 N   0  0  0  0  0  0  0  0  0  0  0  0
   -8.0960   21.2389  -19.7714 C   0  0  0  0  0  0  0  0  0  0  0  0
   -7.2822   20.9059  -20.8310 N   0  0  0  0  0  0  0  0  0  0  0  0
   -7.2531   21.9062  -21.7142 C   0  0  0  0  0  0  0  0  0  0  0  0
   -6.5996   22.0836  -22.9359 C   0  0  0  0  0  0  0  0  0  0  0  0
   -9.2061   23.0540  -19.4654 H   0  0  0  0  0  0  0  0  0  0  0  0
   -8.3023   20.3331  -18.6715 C   0  0  0  0  0  0  0  0  0  0  0  0
   -7.7710   19.1550  -18.8221 O   0  0  0  0  0  0  0  0  0  0  0  0
   -8.9832   20.5099  -17.4607 N   0  0  0  0  0  0  0  0  0  0  0  0
   -8.9912   19.3254  -16.5532 C   0  0  0  0  0  0  0  0  0  0  0  0
   -7.9885   19.4728  -15.4685 C   0  0  0  0  0  0  0  0  0  0  0  0
   -8.2436   20.5316  -14.4575 C   0  0  0  0  0  0  0  0  0  0  0  0
   -9.0203   21.6500  -14.8990 N   0  0  0  0  0  0  0  0  0  0  0  0
  -10.1707   21.7481  -15.7752 C   0  0  0  0  0  0  0  0  0  0  0  0
   -9.5924   21.7810  -17.2071 C   0  0  0  0  0  0  0  0  0  0  0  0
   -8.6101   22.9340  -14.3858 C   0  0  0  0  0  0  0  0  0  0  0  0
   -9.3063   23.7723  -13.5363 C   0  0  0  0  0  0  0  0  0  0  0  0
   -8.5875   24.8845  -13.2753 N   0  0  0  0  0  0  0  0  0  0  0  0
   -7.4644   24.7440  -13.9484 N   0  0  0  0  0  0  0  0  0  0  0  0
   -6.3899   25.7276  -13.9487 C   0  0  0  0  0  0  0  0  0  0  0  0
   -7.4205   23.5993  -14.6303 C   0  0  0  0  0  0  0  0  0  0  0  0
   -4.7485   23.8313  -27.3892 C   0  0  0  0  0  0  0  0  0  0  0  0
   -4.0487   23.6469  -26.2214 C   0  0  0  0  0  0  0  0  0  0  0  0
   -4.6912   23.4563  -25.0155 C   0  0  0  0  0  0  0  0  0  0  0  0
   -6.0789   23.4420  -24.9255 C   0  0  0  0  0  0  0  0  0  0  0  0
   -6.7783   23.6284  -26.1052 C   0  0  0  0  0  0  0  0  0  0  0  0
   -6.1227   23.8197  -27.3159 C   0  0  0  0  0  0  0  0  0  0  0  0
   -2.7299   23.2111  -28.5737 C   0  0  0  0  0  0  0  0  0  0  0  0
   -3.9986   24.0315  -28.6591 C   0  0  0  0  0  0  0  0  0  0  0  0
 32 33  1  0  0  0
 33 26  1  0  0  0
 26 27  2  0  0  0
 27 28  1  0  0  0
 28 29  2  0  0  0
 29 30  1  0  0  0
 30 31  2  0  0  0
 29  1  1  0  0  0
  1  2  2  0  0  0
  2  3  1  0  0  0
  3  4  2  0  0  0
  4  5  1  0  0  0
  5  6  1  0  0  0
  6  7  2  0  0  0
  7  8  1  0  0  0
  8  9  2  0  0  0
  6 11  1  0  0  0
 11 12  2  0  0  0
 11 13  1  0  0  0
 13 14  1  0  0  0
 14 15  1  0  0  0
 15 16  1  0  0  0
 16 17  1  0  0  0
 17 18  1  0  0  0
 18 19  1  0  0  0
 17 20  1  0  0  0
 20 21  1  0  0  0
 21 22  2  0  0  0
 22 23  1  0  0  0
 23 24  1  0  0  0
 23 25  1  0  0  0
 31 26  1  0  0  0
  9  1  1  0  0  0
 19 13  1  0  0  0
 25 20  2  0  0  0
  8  4  1  0  0  0
  5 10  1  0  0  0
M  END
> <minimizedAffinity>
-7.76558

> <CNNscore>
0.2171786129

> <CNNaffinity>
5.6302237511

> <CNN_VS>
1.2227641344

> <CNNaffinity_variance>
0.0253708065

$$$$
[H]c1nn(C([H])([H])[H])c([H])c1N1C([H])([H])C([H])([H])N(C(=O)c2nc3c([H])c(-c4c([H])c([H])c(C([H])([H])C([H])([H])[H])c([H])c4[H])c([H])c([H])c3n2[H])C([H])([H])C([H])([H])C1([H])[H]


 33 37  0  0  0  0  0  0  0  0999 V2000
   -1.4280   22.1168  -25.1412 C   0  0  0  0  0  0  0  0  0  0  0  0
   -0.0809   22.0900  -25.4008 C   0  0  0  0  0  0  0  0  0  0  0  0
    0.8249   21.7355  -24.3996 C   0  0  0  0  0  0  0  0  0  0  0  0
    0.3759   21.4106  -23.1465 C   0  0  0  0  0  0  0  0  0  0  0  0
    1.0299   21.0367  -22.0120 N   0  0  0  0  0  0  0  0  0  0  0  0
    0.1323   20.8278  -21.0472 C   0  0  0  0  0  0  0  0  0  0  0  0
   -1.1007   21.0804  -21.6057 N   0  0  0  0  0  0  0  0  0  0  0  0
   -0.9570   21.4356  -22.8842 C   0  0  0  0  0  0  0  0  0  0  0  0
   -1.8642   21.7902  -23.8854 C   0  0  0  0  0  0  0  0  0  0  0  0
    2.0654   20.9507  -21.9793 H   0  0  0  0  0  0  0  0  0  0  0  0
    0.2632   20.4222  -19.6721 C   0  0  0  0  0  0  0  0  0  0  0  0
    0.4734   21.3918  -18.8302 O   0  0  0  0  0  0  0  0  0  0  0  0
    0.2016   19.1515  -19.0870 N   0  0  0  0  0  0  0  0  0  0  0  0
    0.3914   19.1194  -17.6073 C   0  0  0  0  0  0  0  0  0  0  0  0
   -0.9083   18.9905  -16.9016 C   0  0  0  0  0  0  0  0  0  0  0  0
   -1.6351   17.7043  -17.0624 C   0  0  0  0  0  0  0  0  0  0  0  0
   -1.3798   16.9837  -18.2725 N   0  0  0  0  0  0  0  0  0  0  0  0
   -0.1691   16.7756  -19.0420 C   0  0  0  0  0  0  0  0  0  0  0  0
   -0.0354   18.0254  -19.9397 C   0  0  0  0  0  0  0  0  0  0  0  0
   -2.5213   16.3225  -18.8558 C   0  0  0  0  0  0  0  0  0  0  0  0
   -2.5291   15.2616  -19.7411 C   0  0  0  0  0  0  0  0  0  0  0  0
   -3.7959   14.9160  -20.0538 N   0  0  0  0  0  0  0  0  0  0  0  0
   -4.5642   15.7445  -19.3774 N   0  0  0  0  0  0  0  0  0  0  0  0
   -6.0201   15.7222  -19.4238 C   0  0  0  0  0  0  0  0  0  0  0  0
   -3.8599   16.6069  -18.6444 C   0  0  0  0  0  0  0  0  0  0  0  0
   -4.1538   23.2116  -28.2591 C   0  0  0  0  0  0  0  0  0  0  0  0
   -2.8195   23.0042  -28.5129 C   0  0  0  0  0  0  0  0  0  0  0  0
   -1.9390   22.6512  -27.5112 C   0  0  0  0  0  0  0  0  0  0  0  0
   -2.3612   22.4886  -26.1961 C   0  0  0  0  0  0  0  0  0  0  0  0
   -3.7063   22.6988  -25.9468 C   0  0  0  0  0  0  0  0  0  0  0  0
   -4.5865   23.0543  -26.9622 C   0  0  0  0  0  0  0  0  0  0  0  0
   -4.6310   24.9607  -29.8639 C   0  0  0  0  0  0  0  0  0  0  0  0
   -5.0543   23.5902  -29.3819 C   0  0  0  0  0  0  0  0  0  0  0  0
 32 33  1  0  0  0
 33 26  1  0  0  0
 26 27  2  0  0  0
 27 28  1  0  0  0
 28 29  2  0  0  0
 29 30  1  0  0  0
 30 31  2  0  0  0
 29  1  1  0  0  0
  1  2  2  0  0  0
  2  3  1  0  0  0
  3  4  2  0  0  0
  4  5  1  0  0  0
  5  6  1  0  0  0
  6  7  2  0  0  0
  7  8  1  0  0  0
  8  9  2  0  0  0
  6 11  1  0  0  0
 11 12  2  0  0  0
 11 13  1  0  0  0
 13 14  1  0  0  0
 14 15  1  0  0  0
 15 16  1  0  0  0
 16 17  1  0  0  0
 17 18  1  0  0  0
 18 19  1  0  0  0
 17 20  1  0  0  0
 20 21  1  0  0  0
 21 22  2  0  0  0
 22 23  1  0  0  0
 23 24  1  0  0  0
 23 25  1  0  0  0
 31 26  1  0  0  0
  9  1  1  0  0  0
 19 13  1  0  0  0
 25 20  2  0  0  0
  8  4  1  0  0  0
  5 10  1  0  0  0
M  END
> <minimizedAffinity>
-8.85701

> <CNNscore>
0.1856435537

> <CNNaffinity>
5.9041652679

> <CNN_VS>
1.0960701704

> <CNNaffinity_variance>
0.0258088410

$$$$
[H]c1nn(C([H])([H])[H])c([H])c1N1C([H])([H])C([H])([H])N(C(=O)c2nc3c([H])c(-c4c([H])c([H])c(C([H])([H])C([H])([H])[H])c([H])c4[H])c([H])c([H])c3n2[H])C([H])([H])C([H])([H])C1([H])[H]


 33 37  0  0  0  0  0  0  0  0999 V2000
   -1.5848   22.3368  -25.1869 C   0  0  0  0  0  0  0  0  0  0  0  0
   -0.5979   22.3380  -26.1404 C   0  0  0  0  0  0  0  0  0  0  0  0
    0.7118   21.9927  -25.8025 C   0  0  0  0  0  0  0  0  0  0  0  0
    1.0240   21.6490  -24.5134 C   0  0  0  0  0  0  0  0  0  0  0  0
    2.1957   21.2784  -23.9268 N   0  0  0  0  0  0  0  0  0  0  0  0
    1.9734   21.0445  -22.6322 C   0  0  0  0  0  0  0  0  0  0  0  0
    0.6326   21.2779  -22.4223 N   0  0  0  0  0  0  0  0  0  0  0  0
    0.0505   21.6462  -23.5655 C   0  0  0  0  0  0  0  0  0  0  0  0
   -1.2603   21.9915  -23.9025 C   0  0  0  0  0  0  0  0  0  0  0  0
    3.0819   21.2121  -24.4663 H   0  0  0  0  0  0  0  0  0  0  0  0
    2.8388   20.6302  -21.5589 C   0  0  0  0  0  0  0  0  0  0  0  0
    3.6266   21.5576  -21.0983 O   0  0  0  0  0  0  0  0  0  0  0  0
    2.9745   19.3889  -20.9251 N   0  0  0  0  0  0  0  0  0  0  0  0
    3.9961   19.3344  -19.8387 C   0  0  0  0  0  0  0  0  0  0  0  0
    3.3612   19.4196  -18.4996 C   0  0  0  0  0  0  0  0  0  0  0  0
    2.5242   18.2661  -18.0785 C   0  0  0  0  0  0  0  0  0  0  0  0
    1.9213   17.5077  -19.1320 N   0  0  0  0  0  0  0  0  0  0  0  0
    2.4049   17.1037  -20.4374 C   0  0  0  0  0  0  0  0  0  0  0  0
    2.1393   18.3112  -21.3634 C   0  0  0  0  0  0  0  0  0  0  0  0
    0.5834   17.0355  -18.8721 C   0  0  0  0  0  0  0  0  0  0  0  0
   -0.2146   17.3020  -17.7760 C   0  0  0  0  0  0  0  0  0  0  0  0
   -1.4084   16.6844  -17.8989 N   0  0  0  0  0  0  0  0  0  0  0  0
   -1.3574   16.0447  -19.0489 N   0  0  0  0  0  0  0  0  0  0  0  0
   -2.4495   15.2392  -19.5787 C   0  0  0  0  0  0  0  0  0  0  0  0
   -0.1931   16.2170  -19.6748 C   0  0  0  0  0  0  0  0  0  0  0  0
   -5.5988   23.3890  -26.2496 C   0  0  0  0  0  0  0  0  0  0  0  0
   -5.3263   22.6357  -25.1334 C   0  0  0  0  0  0  0  0  0  0  0  0
   -4.0348   22.2953  -24.7881 C   0  0  0  0  0  0  0  0  0  0  0  0
   -2.9469   22.6992  -25.5545 C   0  0  0  0  0  0  0  0  0  0  0  0
   -3.2278   23.4578  -26.6776 C   0  0  0  0  0  0  0  0  0  0  0  0
   -4.5322   23.7962  -27.0181 C   0  0  0  0  0  0  0  0  0  0  0  0
   -7.4968   24.7059  -25.5243 C   0  0  0  0  0  0  0  0  0  0  0  0
   -7.0131   23.7244  -26.5696 C   0  0  0  0  0  0  0  0  0  0  0  0
 32 33  1  0  0  0
 33 26  1  0  0  0
 26 27  2  0  0  0
 27 28  1  0  0  0
 28 29  2  0  0  0
 29 30  1  0  0  0
 30 31  2  0  0  0
 29  1  1  0  0  0
  1  2  2  0  0  0
  2  3  1  0  0  0
  3  4  2  0  0  0
  4  5  1  0  0  0
  5  6  1  0  0  0
  6  7  2  0  0  0
  7  8  1  0  0  0
  8  9  2  0  0  0
  6 11  1  0  0  0
 11 12  2  0  0  0
 11 13  1  0  0  0
 13 14  1  0  0  0
 14 15  1  0  0  0
 15 16  1  0  0  0
 16 17  1  0  0  0
 17 18  1  0  0  0
 18 19  1  0  0  0
 17 20  1  0  0  0
 20 21  1  0  0  0
 21 22  2  0  0  0
 22 23  1  0  0  0
 23 24  1  0  0  0
 23 25  1  0  0  0
 31 26  1  0  0  0
  9  1  1  0  0  0
 19 13  1  0  0  0
 25 20  2  0  0  0
  8  4  1  0  0  0
  5 10  1  0  0  0
M  END
> <minimizedAffinity>
-8.53989

> <CNNscore>
0.1706763506

> <CNNaffinity>
5.9711036682

> <CNN_VS>
1.0191261768

> <CNNaffinity_variance>
0.0454187281

$$$$
[H]c1nn(C([H])([H])[H])c([H])c1N1C([H])([H])C([H])([H])N(C(=O)c2nc3c([H])c(-c4c([H])c([H])c(C([H])([H])C([H])([H])[H])c([H])c4[H])c([H])c([H])c3n2[H])C([H])([H])C([H])([H])C1([H])[H]


 33 37  0  0  0  0  0  0  0  0999 V2000
   -1.8318   22.1889  -24.9188 C   0  0  0  0  0  0  0  0  0  0  0  0
   -2.5565   21.8503  -23.8038 C   0  0  0  0  0  0  0  0  0  0  0  0
   -1.9126   21.3766  -22.6594 C   0  0  0  0  0  0  0  0  0  0  0  0
   -0.5490   21.2451  -22.6394 C   0  0  0  0  0  0  0  0  0  0  0  0
    0.3118   20.8170  -21.6750 N   0  0  0  0  0  0  0  0  0  0  0  0
    1.5564   20.8769  -22.1519 C   0  0  0  0  0  0  0  0  0  0  0  0
    1.4538   21.3533  -23.4398 N   0  0  0  0  0  0  0  0  0  0  0  0
    0.1732   21.5790  -23.7408 C   0  0  0  0  0  0  0  0  0  0  0  0
   -0.4699   22.0532  -24.8865 C   0  0  0  0  0  0  0  0  0  0  0  0
   -0.0221   20.5073  -20.7405 H   0  0  0  0  0  0  0  0  0  0  0  0
    2.8338   20.5527  -21.5725 C   0  0  0  0  0  0  0  0  0  0  0  0
    3.6468   21.5592  -21.4349 O   0  0  0  0  0  0  0  0  0  0  0  0
    3.3494   19.3282  -21.1302 N   0  0  0  0  0  0  0  0  0  0  0  0
    4.7371   19.3792  -20.5838 C   0  0  0  0  0  0  0  0  0  0  0  0
    4.7304   19.3762  -19.0993 C   0  0  0  0  0  0  0  0  0  0  0  0
    4.2724   18.1298  -18.4323 C   0  0  0  0  0  0  0  0  0  0  0  0
    3.3554   17.3189  -19.1742 N   0  0  0  0  0  0  0  0  0  0  0  0
    3.2721   16.9876  -20.5828 C   0  0  0  0  0  0  0  0  0  0  0  0
    2.5182   18.1668  -21.2363 C   0  0  0  0  0  0  0  0  0  0  0  0
    2.3109   16.6936  -18.4006 C   0  0  0  0  0  0  0  0  0  0  0  0
    1.6047   15.5438  -18.6977 C   0  0  0  0  0  0  0  0  0  0  0  0
    0.7117   15.2720  -17.7227 N   0  0  0  0  0  0  0  0  0  0  0  0
    0.8571   16.2329  -16.8340 N   0  0  0  0  0  0  0  0  0  0  0  0
    0.0791   16.3272  -15.6061 C   0  0  0  0  0  0  0  0  0  0  0  0
    1.7971   17.1109  -17.1843 C   0  0  0  0  0  0  0  0  0  0  0  0
   -3.8688   23.6414  -28.3959 C   0  0  0  0  0  0  0  0  0  0  0  0
   -4.4847   23.6006  -27.1684 C   0  0  0  0  0  0  0  0  0  0  0  0
   -3.8316   23.1337  -26.0465 C   0  0  0  0  0  0  0  0  0  0  0  0
   -2.5176   22.6820  -26.1056 C   0  0  0  0  0  0  0  0  0  0  0  0
   -1.9026   22.7256  -27.3447 C   0  0  0  0  0  0  0  0  0  0  0  0
   -2.5683   23.1976  -28.4700 C   0  0  0  0  0  0  0  0  0  0  0  0
   -4.0115   25.4823  -29.9622 C   0  0  0  0  0  0  0  0  0  0  0  0
   -4.6258   24.1563  -29.5693 C   0  0  0  0  0  0  0  0  0  0  0  0
 32 33  1  0  0  0
 33 26  1  0  0  0
 26 27  2  0  0  0
 27 28  1  0  0  0
 28 29  2  0  0  0
 29 30  1  0  0  0
 30 31  2  0  0  0
 29  1  1  0  0  0
  1  2  2  0  0  0
  2  3  1  0  0  0
  3  4  2  0  0  0
  4  5  1  0  0  0
  5  6  1  0  0  0
  6  7  2  0  0  0
  7  8  1  0  0  0
  8  9  2  0  0  0
  6 11  1  0  0  0
 11 12  2  0  0  0
 11 13  1  0  0  0
 13 14  1  0  0  0
 14 15  1  0  0  0
 15 16  1  0  0  0
 16 17  1  0  0  0
 17 18  1  0  0  0
 18 19  1  0  0  0
 17 20  1  0  0  0
 20 21  1  0  0  0
 21 22  2  0  0  0
 22 23  1  0  0  0
 23 24  1  0  0  0
 23 25  1  0  0  0
 31 26  1  0  0  0
  9  1  1  0  0  0
 19 13  1  0  0  0
 25 20  2  0  0  0
  8  4  1  0  0  0
  5 10  1  0  0  0
M  END
> <minimizedAffinity>
-8.32029

> <CNNscore>
0.1686395407

> <CNNaffinity>
6.0251035690

> <CNN_VS>
1.0160707235

> <CNNaffinity_variance>
0.1107381359

$$$$
[H]c1nn(C([H])([H])[H])c([H])c1N1C([H])([H])C([H])([H])N(C(=O)c2nc3c([H])c(-c4c([H])c([H])c(C([H])([H])C([H])([H])[H])c([H])c4[H])c([H])c([H])c3n2[H])C([H])([H])C([H])([H])C1([H])[H]


 33 37  0  0  0  0  0  0  0  0999 V2000
    0.4091   21.7088  -24.1780 C   0  0  0  0  0  0  0  0  0  0  0  0
    0.8909   21.8137  -25.4585 C   0  0  0  0  0  0  0  0  0  0  0  0
    0.0764   22.3004  -26.4824 C   0  0  0  0  0  0  0  0  0  0  0  0
   -1.2136   22.6784  -26.2173 C   0  0  0  0  0  0  0  0  0  0  0  0
   -2.2001   23.1756  -27.0135 N   0  0  0  0  0  0  0  0  0  0  0  0
   -3.2877   23.3862  -26.2701 C   0  0  0  0  0  0  0  0  0  0  0  0
   -2.9580   23.0082  -24.9877 N   0  0  0  0  0  0  0  0  0  0  0  0
   -1.6955   22.5766  -24.9510 C   0  0  0  0  0  0  0  0  0  0  0  0
   -0.8815   22.0897  -23.9257 C   0  0  0  0  0  0  0  0  0  0  0  0
   -2.0547   23.3373  -28.0301 H   0  0  0  0  0  0  0  0  0  0  0  0
   -4.5966   23.8943  -26.5883 C   0  0  0  0  0  0  0  0  0  0  0  0
   -5.1666   23.3398  -27.6182 O   0  0  0  0  0  0  0  0  0  0  0  0
   -5.3621   24.8911  -25.9707 N   0  0  0  0  0  0  0  0  0  0  0  0
   -6.6920   25.1540  -26.5946 C   0  0  0  0  0  0  0  0  0  0  0  0
   -7.7832   24.5006  -25.8291 C   0  0  0  0  0  0  0  0  0  0  0  0
   -8.0632   25.0341  -24.4707 C   0  0  0  0  0  0  0  0  0  0  0  0
   -6.9627   25.6557  -23.7989 N   0  0  0  0  0  0  0  0  0  0  0  0
   -5.8926   26.5105  -24.2735 C   0  0  0  0  0  0  0  0  0  0  0  0
   -4.8150   25.5497  -24.8227 C   0  0  0  0  0  0  0  0  0  0  0  0
   -6.8809   25.4105  -22.3799 C   0  0  0  0  0  0  0  0  0  0  0  0
   -7.4868   26.1166  -21.3584 C   0  0  0  0  0  0  0  0  0  0  0  0
   -7.1768   25.5760  -20.1611 N   0  0  0  0  0  0  0  0  0  0  0  0
   -6.3928   24.5524  -20.4291 N   0  0  0  0  0  0  0  0  0  0  0  0
   -5.8213   23.6797  -19.4124 C   0  0  0  0  0  0  0  0  0  0  0  0
   -6.1804   24.4040  -21.7368 C   0  0  0  0  0  0  0  0  0  0  0  0
    2.9614   20.2085  -21.0822 C   0  0  0  0  0  0  0  0  0  0  0  0
    3.4385   20.4612  -22.3456 C   0  0  0  0  0  0  0  0  0  0  0  0
    2.6194   20.9448  -23.3448 C   0  0  0  0  0  0  0  0  0  0  0  0
    1.2708   21.1993  -23.1198 C   0  0  0  0  0  0  0  0  0  0  0  0
    0.7962   20.9428  -21.8453 C   0  0  0  0  0  0  0  0  0  0  0  0
    1.6286   20.4556  -20.8444 C   0  0  0  0  0  0  0  0  0  0  0  0
    5.2710   19.6093  -20.6704 C   0  0  0  0  0  0  0  0  0  0  0  0
    3.8947   19.6879  -20.0463 C   0  0  0  0  0  0  0  0  0  0  0  0
 32 33  1  0  0  0
 33 26  1  0  0  0
 26 27  2  0  0  0
 27 28  1  0  0  0
 28 29  2  0  0  0
 29 30  1  0  0  0
 30 31  2  0  0  0
 29  1  1  0  0  0
  1  2  2  0  0  0
  2  3  1  0  0  0
  3  4  2  0  0  0
  4  5  1  0  0  0
  5  6  1  0  0  0
  6  7  2  0  0  0
  7  8  1  0  0  0
  8  9  2  0  0  0
  6 11  1  0  0  0
 11 12  2  0  0  0
 11 13  1  0  0  0
 13 14  1  0  0  0
 14 15  1  0  0  0
 15 16  1  0  0  0
 16 17  1  0  0  0
 17 18  1  0  0  0
 18 19  1  0  0  0
 17 20  1  0  0  0
 20 21  1  0  0  0
 21 22  2  0  0  0
 22 23  1  0  0  0
 23 24  1  0  0  0
 23 25  1  0  0  0
 31 26  1  0  0  0
  9  1  1  0  0  0
 19 13  1  0  0  0
 25 20  2  0  0  0
  8  4  1  0  0  0
  5 10  1  0  0  0
M  END
> <minimizedAffinity>
-8.96374

> <CNNscore>
0.1682584584

> <CNNaffinity>
6.4438691139

> <CNN_VS>
1.0842354298

> <CNNaffinity_variance>
0.2344448119

$$$$
[H]c1nn(C([H])([H])[H])c([H])c1N1C([H])([H])C([H])([H])N(C(=O)c2nc3c([H])c(-c4c([H])c([H])c(C([H])([H])C([H])([H])[H])c([H])c4[H])c([H])c([H])c3n2[H])C([H])([H])C([H])([H])C1([H])[H]


 33 37  0  0  0  0  0  0  0  0999 V2000
   -5.2553   22.8797  -24.1987 C   0  0  0  0  0  0  0  0  0  0  0  0
   -6.2373   23.8361  -24.2615 C   0  0  0  0  0  0  0  0  0  0  0  0
   -7.2599   23.8624  -23.3116 C   0  0  0  0  0  0  0  0  0  0  0  0
   -7.2921   22.9320  -22.3064 C   0  0  0  0  0  0  0  0  0  0  0  0
   -8.1571   22.7353  -21.2732 N   0  0  0  0  0  0  0  0  0  0  0  0
   -7.7468   21.6830  -20.5631 C   0  0  0  0  0  0  0  0  0  0  0  0
   -6.6027   21.2250  -21.1775 N   0  0  0  0  0  0  0  0  0  0  0  0
   -6.3221   21.9830  -22.2397 C   0  0  0  0  0  0  0  0  0  0  0  0
   -5.2984   21.9555  -23.1896 C   0  0  0  0  0  0  0  0  0  0  0  0
   -8.9840   23.3481  -21.1264 H   0  0  0  0  0  0  0  0  0  0  0  0
   -8.2727   21.0426  -19.3859 C   0  0  0  0  0  0  0  0  0  0  0  0
   -9.5273   21.2860  -19.1413 O   0  0  0  0  0  0  0  0  0  0  0  0
   -7.6556   20.1973  -18.4556 N   0  0  0  0  0  0  0  0  0  0  0  0
   -8.5307   19.7238  -17.3434 C   0  0  0  0  0  0  0  0  0  0  0  0
   -9.0028   18.3372  -17.5844 C   0  0  0  0  0  0  0  0  0  0  0  0
   -7.9786   17.2614  -17.5374 C   0  0  0  0  0  0  0  0  0  0  0  0
   -6.6407   17.6509  -17.8647 N   0  0  0  0  0  0  0  0  0  0  0  0
   -5.8763   18.8456  -17.5658 C   0  0  0  0  0  0  0  0  0  0  0  0
   -6.2755   19.8687  -18.6521 C   0  0  0  0  0  0  0  0  0  0  0  0
   -5.8822   16.6908  -18.6284 C   0  0  0  0  0  0  0  0  0  0  0  0
   -6.3600   15.7103  -19.4767 C   0  0  0  0  0  0  0  0  0  0  0  0
   -5.3382   15.0130  -20.0166 N   0  0  0  0  0  0  0  0  0  0  0  0
   -4.2437   15.5470  -19.5156 N   0  0  0  0  0  0  0  0  0  0  0  0
   -2.8978   15.0914  -19.8368 C   0  0  0  0  0  0  0  0  0  0  0  0
   -4.5054   16.5526  -18.6805 C   0  0  0  0  0  0  0  0  0  0  0  0
   -2.1500   22.8486  -27.1492 C   0  0  0  0  0  0  0  0  0  0  0  0
   -3.3181   23.5451  -27.3445 C   0  0  0  0  0  0  0  0  0  0  0  0
   -4.3201   23.5575  -26.3963 C   0  0  0  0  0  0  0  0  0  0  0  0
   -4.1945   22.8648  -25.1969 C   0  0  0  0  0  0  0  0  0  0  0  0
   -3.0157   22.1652  -25.0060 C   0  0  0  0  0  0  0  0  0  0  0  0
   -2.0113   22.1582  -25.9669 C   0  0  0  0  0  0  0  0  0  0  0  0
    0.1922   22.4137  -27.5822 C   0  0  0  0  0  0  0  0  0  0  0  0
   -1.1057   22.8740  -28.2093 C   0  0  0  0  0  0  0  0  0  0  0  0
 32 33  1  0  0  0
 33 26  1  0  0  0
 26 27  2  0  0  0
 27 28  1  0  0  0
 28 29  2  0  0  0
 29 30  1  0  0  0
 30 31  2  0  0  0
 29  1  1  0  0  0
  1  2  2  0  0  0
  2  3  1  0  0  0
  3  4  2  0  0  0
  4  5  1  0  0  0
  5  6  1  0  0  0
  6  7  2  0  0  0
  7  8  1  0  0  0
  8  9  2  0  0  0
  6 11  1  0  0  0
 11 12  2  0  0  0
 11 13  1  0  0  0
 13 14  1  0  0  0
 14 15  1  0  0  0
 15 16  1  0  0  0
 16 17  1  0  0  0
 17 18  1  0  0  0
 18 19  1  0  0  0
 17 20  1  0  0  0
 20 21  1  0  0  0
 21 22  2  0  0  0
 22 23  1  0  0  0
 23 24  1  0  0  0
 23 25  1  0  0  0
 31 26  1  0  0  0
  9  1  1  0  0  0
 19 13  1  0  0  0
 25 20  2  0  0  0
  8  4  1  0  0  0
  5 10  1  0  0  0
M  END
> <minimizedAffinity>
-8.18609

> <CNNscore>
0.1673589647

> <CNNaffinity>
5.6200571060

> <CNN_VS>
0.9405669570

> <CNNaffinity_variance>
0.2050685585

$$$$
[H]c1nn(C([H])([H])[H])c([H])c1N1C([H])([H])C([H])([H])N(C(=O)c2nc3c([H])c(-c4c([H])c([H])c(C([H])([H])C([H])([H])[H])c([H])c4[H])c([H])c([H])c3n2[H])C([H])([H])C([H])([H])C1([H])[H]


 33 37  0  0  0  0  0  0  0  0999 V2000
   -0.3362   21.4312  -22.7964 C   0  0  0  0  0  0  0  0  0  0  0  0
    0.9439   21.0499  -22.4816 C   0  0  0  0  0  0  0  0  0  0  0  0
    1.2734   20.6932  -21.1728 C   0  0  0  0  0  0  0  0  0  0  0  0
    0.3198   20.7206  -20.1893 C   0  0  0  0  0  0  0  0  0  0  0  0
    0.3717   20.4277  -18.8604 N   0  0  0  0  0  0  0  0  0  0  0  0
   -0.8388   20.6140  -18.3314 C   0  0  0  0  0  0  0  0  0  0  0  0
   -1.6507   21.0311  -19.3623 N   0  0  0  0  0  0  0  0  0  0  0  0
   -0.9491   21.0973  -20.4958 C   0  0  0  0  0  0  0  0  0  0  0  0
   -1.2800   21.4545  -21.8050 C   0  0  0  0  0  0  0  0  0  0  0  0
    1.2511   20.1159  -18.4018 H   0  0  0  0  0  0  0  0  0  0  0  0
   -1.3477   20.4552  -16.9941 C   0  0  0  0  0  0  0  0  0  0  0  0
   -0.7629   21.1885  -16.0923 O   0  0  0  0  0  0  0  0  0  0  0  0
   -2.3724   19.6387  -16.4999 N   0  0  0  0  0  0  0  0  0  0  0  0
   -2.6182   19.7399  -15.0316 C   0  0  0  0  0  0  0  0  0  0  0  0
   -3.7986   20.5923  -14.7420 C   0  0  0  0  0  0  0  0  0  0  0  0
   -5.1251   20.0654  -15.1557 C   0  0  0  0  0  0  0  0  0  0  0  0
   -5.1253   19.1596  -16.2640 N   0  0  0  0  0  0  0  0  0  0  0  0
   -4.2151   18.1007  -16.6530 C   0  0  0  0  0  0  0  0  0  0  0  0
   -3.0769   18.8033  -17.4256 C   0  0  0  0  0  0  0  0  0  0  0  0
   -6.2313   19.2966  -17.1796 C   0  0  0  0  0  0  0  0  0  0  0  0
   -6.7059   18.3671  -18.0852 C   0  0  0  0  0  0  0  0  0  0  0  0
   -7.7645   18.8625  -18.7604 N   0  0  0  0  0  0  0  0  0  0  0  0
   -7.9476   20.0773  -18.2863 N   0  0  0  0  0  0  0  0  0  0  0  0
   -8.9985   20.9769  -18.7429 C   0  0  0  0  0  0  0  0  0  0  0  0
   -7.0628   20.3922  -17.3402 C   0  0  0  0  0  0  0  0  0  0  0  0
   -1.2801   22.5218  -26.8299 C   0  0  0  0  0  0  0  0  0  0  0  0
    0.0200   22.4534  -26.3908 C   0  0  0  0  0  0  0  0  0  0  0  0
    0.3276   22.1022  -25.0926 C   0  0  0  0  0  0  0  0  0  0  0  0
   -0.6651   21.8006  -24.1665 C   0  0  0  0  0  0  0  0  0  0  0  0
   -1.9727   21.8712  -24.6148 C   0  0  0  0  0  0  0  0  0  0  0  0
   -2.2735   22.2260  -25.9246 C   0  0  0  0  0  0  0  0  0  0  0  0
   -0.2395   23.3679  -28.8458 C   0  0  0  0  0  0  0  0  0  0  0  0
   -1.5482   22.9061  -28.2425 C   0  0  0  0  0  0  0  0  0  0  0  0
 32 33  1  0  0  0
 33 26  1  0  0  0
 26 27  2  0  0  0
 27 28  1  0  0  0
 28 29  2  0  0  0
 29 30  1  0  0  0
 30 31  2  0  0  0
 29  1  1  0  0  0
  1  2  2  0  0  0
  2  3  1  0  0  0
  3  4  2  0  0  0
  4  5  1  0  0  0
  5  6  1  0  0  0
  6  7  2  0  0  0
  7  8  1  0  0  0
  8  9  2  0  0  0
  6 11  1  0  0  0
 11 12  2  0  0  0
 11 13  1  0  0  0
 13 14  1  0  0  0
 14 15  1  0  0  0
 15 16  1  0  0  0
 16 17  1  0  0  0
 17 18  1  0  0  0
 18 19  1  0  0  0
 17 20  1  0  0  0
 20 21  1  0  0  0
 21 22  2  0  0  0
 22 23  1  0  0  0
 23 24  1  0  0  0
 23 25  1  0  0  0
 31 26  1  0  0  0
  9  1  1  0  0  0
 19 13  1  0  0  0
 25 20  2  0  0  0
  8  4  1  0  0  0
  5 10  1  0  0  0
M  END
> <minimizedAffinity>
-7.14111

> <CNNscore>
0.1660006940

> <CNNaffinity>
5.7801370621

> <CNN_VS>
0.9595067501

> <CNNaffinity_variance>
0.0293339100

$$$$
[H]c1nn(C([H])([H])[H])c([H])c1N1C([H])([H])C([H])([H])N(C(=O)c2nc3c([H])c(-c4c([H])c([H])c(C([H])([H])C([H])([H])[H])c([H])c4[H])c([H])c([H])c3n2[H])C([H])([H])C([H])([H])C1([H])[H]


 33 37  0  0  0  0  0  0  0  0999 V2000
   -1.8564   22.4574  -26.0470 C   0  0  0  0  0  0  0  0  0  0  0  0
   -0.5196   22.4931  -26.3548 C   0  0  0  0  0  0  0  0  0  0  0  0
    0.4347   22.1293  -25.4032 C   0  0  0  0  0  0  0  0  0  0  0  0
    0.0443   21.7327  -24.1511 C   0  0  0  0  0  0  0  0  0  0  0  0
    0.7527   21.3341  -23.0586 N   0  0  0  0  0  0  0  0  0  0  0  0
   -0.1005   21.0491  -22.0733 C   0  0  0  0  0  0  0  0  0  0  0  0
   -1.3617   21.2792  -22.5760 N   0  0  0  0  0  0  0  0  0  0  0  0
   -1.2781   21.6955  -23.8413 C   0  0  0  0  0  0  0  0  0  0  0  0
   -2.2339   22.0594  -24.7927 C   0  0  0  0  0  0  0  0  0  0  0  0
    1.7911   21.2860  -23.0663 H   0  0  0  0  0  0  0  0  0  0  0  0
    0.0955   20.5884  -20.7235 C   0  0  0  0  0  0  0  0  0  0  0  0
   -0.9783   20.5641  -19.9892 O   0  0  0  0  0  0  0  0  0  0  0  0
    1.2554   20.1602  -20.0661 N   0  0  0  0  0  0  0  0  0  0  0  0
    1.0702   19.7553  -18.6419 C   0  0  0  0  0  0  0  0  0  0  0  0
    1.0141   18.2781  -18.5062 C   0  0  0  0  0  0  0  0  0  0  0  0
    2.2658   17.5295  -18.7912 C   0  0  0  0  0  0  0  0  0  0  0  0
    3.1775   18.1509  -19.7030 N   0  0  0  0  0  0  0  0  0  0  0  0
    3.5708   19.5331  -19.8924 C   0  0  0  0  0  0  0  0  0  0  0  0
    2.4837   20.1464  -20.8025 C   0  0  0  0  0  0  0  0  0  0  0  0
    3.8539   17.2584  -20.6120 C   0  0  0  0  0  0  0  0  0  0  0  0
    3.6244   15.9100  -20.8084 C   0  0  0  0  0  0  0  0  0  0  0  0
    4.4564   15.4212  -21.7521 N   0  0  0  0  0  0  0  0  0  0  0  0
    5.1913   16.4437  -22.1377 N   0  0  0  0  0  0  0  0  0  0  0  0
    6.2306   16.3585  -23.1548 C   0  0  0  0  0  0  0  0  0  0  0  0
    4.8772   17.5671  -21.4923 C   0  0  0  0  0  0  0  0  0  0  0  0
   -4.7330   23.5850  -29.0140 C   0  0  0  0  0  0  0  0  0  0  0  0
   -3.3992   23.4600  -29.3190 C   0  0  0  0  0  0  0  0  0  0  0  0
   -2.4702   23.0967  -28.3661 C   0  0  0  0  0  0  0  0  0  0  0  0
   -2.8407   22.8398  -27.0505 C   0  0  0  0  0  0  0  0  0  0  0  0
   -4.1855   22.9673  -26.7494 C   0  0  0  0  0  0  0  0  0  0  0  0
   -5.1148   23.3339  -27.7159 C   0  0  0  0  0  0  0  0  0  0  0  0
   -5.2890   25.3583  -30.5661 C   0  0  0  0  0  0  0  0  0  0  0  0
   -5.6872   23.9797  -30.0858 C   0  0  0  0  0  0  0  0  0  0  0  0
 32 33  1  0  0  0
 33 26  1  0  0  0
 26 27  2  0  0  0
 27 28  1  0  0  0
 28 29  2  0  0  0
 29 30  1  0  0  0
 30 31  2  0  0  0
 29  1  1  0  0  0
  1  2  2  0  0  0
  2  3  1  0  0  0
  3  4  2  0  0  0
  4  5  1  0  0  0
  5  6  1  0  0  0
  6  7  2  0  0  0
  7  8  1  0  0  0
  8  9  2  0  0  0
  6 11  1  0  0  0
 11 12  2  0  0  0
 11 13  1  0  0  0
 13 14  1  0  0  0
 14 15  1  0  0  0
 15 16  1  0  0  0
 16 17  1  0  0  0
 17 18  1  0  0  0
 18 19  1  0  0  0
 17 20  1  0  0  0
 20 21  1  0  0  0
 21 22  2  0  0  0
 22 23  1  0  0  0
 23 24  1  0  0  0
 23 25  1  0  0  0
 31 26  1  0  0  0
  9  1  1  0  0  0
 19 13  1  0  0  0
 25 20  2  0  0  0
  8  4  1  0  0  0
  5 10  1  0  0  0
M  END
> <minimizedAffinity>
-8.82174

> <CNNscore>
0.1650657058

> <CNNaffinity>
5.9959344864

> <CNN_VS>
0.9897231460

> <CNNaffinity_variance>
0.0359550975

$$$$
[H]c1nc(N([H])[H])c2c(n1)C1(C([H])([H])C(=O)N2C([H])([H])c2c([H])c([H])nc(OC([H])([H])[H])c2OC([H])([H])[H])C([H])([H])C([H])([H])N(C([H])([H])[H])C([H])([H])C1([H])[H]


 31 34  0  0  0  0  0  0  0  0999 V2000
   -0.5539   21.6895  -22.5384 N   0  0  0  0  0  0  0  0  0  0  0  0
   -1.8995   21.8462  -21.9410 C   0  0  0  0  0  0  0  0  0  0  0  0
   -1.9697   22.3343  -20.7933 O   0  0  0  0  0  0  0  0  0  0  0  0
   -3.1215   21.4551  -22.6483 C   0  0  0  0  0  0  0  0  0  0  0  0
   -3.2249   22.2429  -23.9381 C   0  0  0  0  0  0  0  0  0  0  0  0
   -3.5145   23.6778  -23.5523 C   0  0  0  0  0  0  0  0  0  0  0  0
   -3.8315   24.5001  -24.7589 C   0  0  0  0  0  0  0  0  0  0  0  0
   -4.9184   23.9509  -25.4977 N   0  0  0  0  0  0  0  0  0  0  0  0
   -6.2123   24.4380  -25.1426 C   0  0  0  0  0  0  0  0  0  0  0  0
   -4.8314   22.5765  -25.8431 C   0  0  0  0  0  0  0  0  0  0  0  0
   -4.3038   21.6659  -24.7876 C   0  0  0  0  0  0  0  0  0  0  0  0
   -1.8876   22.1963  -24.5787 C   0  0  0  0  0  0  0  0  0  0  0  0
   -1.8411   22.4501  -25.9261 N   0  0  0  0  0  0  0  0  0  0  0  0
   -0.7110   22.4287  -26.6331 C   0  0  0  0  0  0  0  0  0  0  0  0
    0.4588   22.1543  -26.0563 N   0  0  0  0  0  0  0  0  0  0  0  0
    0.4846   21.8922  -24.7136 C   0  0  0  0  0  0  0  0  0  0  0  0
    1.7480   21.6485  -24.1476 N   0  0  0  0  0  0  0  0  0  0  0  0
   -0.6631   21.9071  -23.9657 C   0  0  0  0  0  0  0  0  0  0  0  0
    2.3388   22.3341  -23.6747 H   0  0  0  0  0  0  0  0  0  0  0  0
    2.1017   20.6574  -24.2667 H   0  0  0  0  0  0  0  0  0  0  0  0
    0.5421   21.3919  -21.7491 C   0  0  0  0  0  0  0  0  0  0  0  0
    2.2660   19.6142  -21.4003 C   0  0  0  0  0  0  0  0  0  0  0  0
    1.0116   20.0502  -21.3678 C   0  0  0  0  0  0  0  0  0  0  0  0
    0.0321   19.1423  -20.9493 C   0  0  0  0  0  0  0  0  0  0  0  0
    0.3292   17.8830  -20.5877 C   0  0  0  0  0  0  0  0  0  0  0  0
    1.5988   17.4643  -20.6225 N   0  0  0  0  0  0  0  0  0  0  0  0
    2.5690   18.2929  -21.0174 C   0  0  0  0  0  0  0  0  0  0  0  0
    3.9492   21.2039  -20.7607 C   0  0  0  0  0  0  0  0  0  0  0  0
    3.4089   20.3330  -21.8061 O   0  0  0  0  0  0  0  0  0  0  0  0
    3.8862   17.8279  -21.0439 O   0  0  0  0  0  0  0  0  0  0  0  0
    4.2697   16.8930  -22.0296 C   0  0  0  0  0  0  0  0  0  0  0  0
 28 29  1  0  0  0
 29 22  1  0  0  0
 22 23  2  0  0  0
 23 21  1  0  0  0
 21  1  1  0  0  0
  1  2  1  0  0  0
  2  3  2  0  0  0
  2  4  1  0  0  0
  4  5  1  0  0  0
  5  6  1  0  0  0
  6  7  1  0  0  0
  7  8  1  0  0  0
  8  9  1  0  0  0
  8 10  1  0  0  0
 10 11  1  0  0  0
  5 12  1  0  0  0
 12 13  2  0  0  0
 13 14  1  0  0  0
 14 15  2  0  0  0
 15 16  1  0  0  0
 16 17  1  0  0  0
 16 18  2  0  0  0
 23 24  1  0  0  0
 24 25  2  0  0  0
 25 26  1  0  0  0
 26 27  2  0  0  0
 27 30  1  0  0  0
 30 31  1  0  0  0
 27 22  1  0  0  0
 18  1  1  0  0  0
 11  5  1  0  0  0
 18 12  1  0  0  0
 17 19  1  0  0  0
 17 20  1  0  0  0
M  END
> <minimizedAffinity>
-7.02779

> <CNNscore>
0.5139951110

> <CNNaffinity>
6.5457854271

> <CNN_VS>
3.3645017147

> <CNNaffinity_variance>
0.3626059890

$$$$
[H]c1nc(N([H])[H])c2c(n1)C1(C([H])([H])C(=O)N2C([H])([H])c2c([H])c([H])nc(OC([H])([H])[H])c2OC([H])([H])[H])C([H])([H])C([H])([H])N(C([H])([H])[H])C([H])([H])C1([H])[H]


 31 34  0  0  0  0  0  0  0  0999 V2000
   -3.9451   22.4730  -25.8398 N   0  0  0  0  0  0  0  0  0  0  0  0
   -5.2956   22.9952  -26.1488 C   0  0  0  0  0  0  0  0  0  0  0  0
   -5.9686   23.4551  -25.2023 O   0  0  0  0  0  0  0  0  0  0  0  0
   -5.8467   22.9888  -27.5063 C   0  0  0  0  0  0  0  0  0  0  0  0
   -4.9478   23.8040  -28.4132 C   0  0  0  0  0  0  0  0  0  0  0  0
   -5.1079   25.2518  -28.0013 C   0  0  0  0  0  0  0  0  0  0  0  0
   -4.4140   26.1593  -28.9644 C   0  0  0  0  0  0  0  0  0  0  0  0
   -4.8773   25.9636  -30.2970 N   0  0  0  0  0  0  0  0  0  0  0  0
   -5.9676   26.7931  -30.6977 C   0  0  0  0  0  0  0  0  0  0  0  0
   -4.8817   24.6308  -30.7866 C   0  0  0  0  0  0  0  0  0  0  0  0
   -5.3412   23.5819  -29.8326 C   0  0  0  0  0  0  0  0  0  0  0  0
   -3.5534   23.3906  -28.1208 C   0  0  0  0  0  0  0  0  0  0  0  0
   -2.6175   23.6527  -29.0891 N   0  0  0  0  0  0  0  0  0  0  0  0
   -1.3312   23.3245  -28.9670 C   0  0  0  0  0  0  0  0  0  0  0  0
   -0.8758   22.7118  -27.8745 N   0  0  0  0  0  0  0  0  0  0  0  0
   -1.7564   22.4211  -26.8683 C   0  0  0  0  0  0  0  0  0  0  0  0
   -1.2178   21.8112  -25.7220 N   0  0  0  0  0  0  0  0  0  0  0  0
   -3.0831   22.7471  -26.9704 C   0  0  0  0  0  0  0  0  0  0  0  0
   -0.9301   22.2865  -24.8653 H   0  0  0  0  0  0  0  0  0  0  0  0
   -1.0850   20.7634  -25.8003 H   0  0  0  0  0  0  0  0  0  0  0  0
   -3.6836   21.8541  -24.6309 C   0  0  0  0  0  0  0  0  0  0  0  0
   -2.5055   22.7801  -22.6288 C   0  0  0  0  0  0  0  0  0  0  0  0
   -3.6107   22.5006  -23.3107 C   0  0  0  0  0  0  0  0  0  0  0  0
   -4.8307   22.8334  -22.7111 C   0  0  0  0  0  0  0  0  0  0  0  0
   -4.9005   23.4149  -21.5020 C   0  0  0  0  0  0  0  0  0  0  0  0
   -3.7762   23.6928  -20.8331 N   0  0  0  0  0  0  0  0  0  0  0  0
   -2.5876   23.3918  -21.3626 C   0  0  0  0  0  0  0  0  0  0  0  0
   -0.6725   21.2309  -22.5318 C   0  0  0  0  0  0  0  0  0  0  0  0
   -1.1752   22.5180  -23.0153 O   0  0  0  0  0  0  0  0  0  0  0  0
   -1.4299   23.6936  -20.6409 O   0  0  0  0  0  0  0  0  0  0  0  0
   -1.2229   23.0897  -19.3818 C   0  0  0  0  0  0  0  0  0  0  0  0
 28 29  1  0  0  0
 29 22  1  0  0  0
 22 23  2  0  0  0
 23 21  1  0  0  0
 21  1  1  0  0  0
  1  2  1  0  0  0
  2  3  2  0  0  0
  2  4  1  0  0  0
  4  5  1  0  0  0
  5  6  1  0  0  0
  6  7  1  0  0  0
  7  8  1  0  0  0
  8  9  1  0  0  0
  8 10  1  0  0  0
 10 11  1  0  0  0
  5 12  1  0  0  0
 12 13  2  0  0  0
 13 14  1  0  0  0
 14 15  2  0  0  0
 15 16  1  0  0  0
 16 17  1  0  0  0
 16 18  2  0  0  0
 23 24  1  0  0  0
 24 25  2  0  0  0
 25 26  1  0  0  0
 26 27  2  0  0  0
 27 30  1  0  0  0
 30 31  1  0  0  0
 27 22  1  0  0  0
 18  1  1  0  0  0
 11  5  1  0  0  0
 18 12  1  0  0  0
 17 19  1  0  0  0
 17 20  1  0  0  0
M  END
> <minimizedAffinity>
-7.47441

> <CNNscore>
0.4502626956

> <CNNaffinity>
7.1216750145

> <CNN_VS>
3.2066245079

> <CNNaffinity_variance>
0.3197076619

$$$$
[H]c1nc(N([H])[H])c2c(n1)C1(C([H])([H])C(=O)N2C([H])([H])c2c([H])c([H])nc(OC([H])([H])[H])c2OC([H])([H])[H])C([H])([H])C([H])([H])N(C([H])([H])[H])C([H])([H])C1([H])[H]


 31 34  0  0  0  0  0  0  0  0999 V2000
   -1.4342   22.6360  -23.0513 N   0  0  0  0  0  0  0  0  0  0  0  0
   -2.7807   23.0695  -22.6142 C   0  0  0  0  0  0  0  0  0  0  0  0
   -2.8555   23.7793  -21.5890 O   0  0  0  0  0  0  0  0  0  0  0  0
   -3.9979   22.6976  -23.3399 C   0  0  0  0  0  0  0  0  0  0  0  0
   -3.9124   23.2220  -24.7585 C   0  0  0  0  0  0  0  0  0  0  0  0
   -4.0278   24.7290  -24.6756 C   0  0  0  0  0  0  0  0  0  0  0  0
   -4.1540   25.3293  -26.0381 C   0  0  0  0  0  0  0  0  0  0  0  0
   -5.2572   24.7811  -26.7531 N   0  0  0  0  0  0  0  0  0  0  0  0
   -6.4925   25.4818  -26.6104 C   0  0  0  0  0  0  0  0  0  0  0  0
   -5.3364   23.3653  -26.8256 C   0  0  0  0  0  0  0  0  0  0  0  0
   -5.0045   22.6238  -25.5760 C   0  0  0  0  0  0  0  0  0  0  0  0
   -2.5565   22.8880  -25.2593 C   0  0  0  0  0  0  0  0  0  0  0  0
   -2.3918   22.8634  -26.6211 N   0  0  0  0  0  0  0  0  0  0  0  0
   -1.2332   22.5659  -27.2097 C   0  0  0  0  0  0  0  0  0  0  0  0
   -0.1498   22.2710  -26.4914 N   0  0  0  0  0  0  0  0  0  0  0  0
   -0.2439   22.2779  -25.1263 C   0  0  0  0  0  0  0  0  0  0  0  0
    0.9368   21.9994  -24.4162 N   0  0  0  0  0  0  0  0  0  0  0  0
   -1.4234   22.5792  -24.4980 C   0  0  0  0  0  0  0  0  0  0  0  0
    1.5846   22.6880  -24.0303 H   0  0  0  0  0  0  0  0  0  0  0  0
    1.1592   20.9688  -24.3159 H   0  0  0  0  0  0  0  0  0  0  0  0
   -0.4404   22.3693  -22.1273 C   0  0  0  0  0  0  0  0  0  0  0  0
   -0.8346   21.3540  -19.8762 C   0  0  0  0  0  0  0  0  0  0  0  0
   -0.4294   21.2787  -21.1390 C   0  0  0  0  0  0  0  0  0  0  0  0
    0.0777   20.0487  -21.5733 C   0  0  0  0  0  0  0  0  0  0  0  0
    0.1543   18.9788  -20.7644 C   0  0  0  0  0  0  0  0  0  0  0  0
   -0.2633   19.0731  -19.4974 N   0  0  0  0  0  0  0  0  0  0  0  0
   -0.7528   20.2267  -19.0355 C   0  0  0  0  0  0  0  0  0  0  0  0
   -0.3312   23.4623  -18.8413 C   0  0  0  0  0  0  0  0  0  0  0  0
   -1.3550   22.4841  -19.2129 O   0  0  0  0  0  0  0  0  0  0  0  0
   -1.1814   20.2959  -17.7075 O   0  0  0  0  0  0  0  0  0  0  0  0
   -0.2621   20.0306  -16.6695 C   0  0  0  0  0  0  0  0  0  0  0  0
 28 29  1  0  0  0
 29 22  1  0  0  0
 22 23  2  0  0  0
 23 21  1  0  0  0
 21  1  1  0  0  0
  1  2  1  0  0  0
  2  3  2  0  0  0
  2  4  1  0  0  0
  4  5  1  0  0  0
  5  6  1  0  0  0
  6  7  1  0  0  0
  7  8  1  0  0  0
  8  9  1  0  0  0
  8 10  1  0  0  0
 10 11  1  0  0  0
  5 12  1  0  0  0
 12 13  2  0  0  0
 13 14  1  0  0  0
 14 15  2  0  0  0
 15 16  1  0  0  0
 16 17  1  0  0  0
 16 18  2  0  0  0
 23 24  1  0  0  0
 24 25  2  0  0  0
 25 26  1  0  0  0
 26 27  2  0  0  0
 27 30  1  0  0  0
 30 31  1  0  0  0
 27 22  1  0  0  0
 18  1  1  0  0  0
 11  5  1  0  0  0
 18 12  1  0  0  0
 17 19  1  0  0  0
 17 20  1  0  0  0
M  END
> <minimizedAffinity>
-7.00840

> <CNNscore>
0.3113342226

> <CNNaffinity>
6.4766144753

> <CNN_VS>
2.0163917542

> <CNNaffinity_variance>
0.4203641415

$$$$
[H]c1nc(N([H])[H])c2c(n1)C1(C([H])([H])C(=O)N2C([H])([H])c2c([H])c([H])nc(OC([H])([H])[H])c2OC([H])([H])[H])C([H])([H])C([H])([H])N(C([H])([H])[H])C([H])([H])C1([H])[H]


 31 34  0  0  0  0  0  0  0  0999 V2000
   -3.5090   22.1618  -23.8069 N   0  0  0  0  0  0  0  0  0  0  0  0
   -4.0897   22.3689  -22.4608 C   0  0  0  0  0  0  0  0  0  0  0  0
   -5.2028   21.8532  -22.2254 O   0  0  0  0  0  0  0  0  0  0  0  0
   -3.4048   23.1428  -21.4223 C   0  0  0  0  0  0  0  0  0  0  0  0
   -2.0660   22.5003  -21.1231 C   0  0  0  0  0  0  0  0  0  0  0  0
   -2.3561   21.1919  -20.4193 C   0  0  0  0  0  0  0  0  0  0  0  0
   -1.0971   20.5738  -19.9039 C   0  0  0  0  0  0  0  0  0  0  0  0
   -0.3916   21.4609  -19.0413 N   0  0  0  0  0  0  0  0  0  0  0  0
   -0.7092   21.3525  -17.6539 C   0  0  0  0  0  0  0  0  0  0  0  0
   -0.1371   22.7684  -19.5329 C   0  0  0  0  0  0  0  0  0  0  0  0
   -1.2518   23.4185  -20.2788 C   0  0  0  0  0  0  0  0  0  0  0  0
   -1.4349   22.1932  -22.4301 C   0  0  0  0  0  0  0  0  0  0  0  0
   -0.0739   22.0201  -22.4313 N   0  0  0  0  0  0  0  0  0  0  0  0
    0.6258   21.7536  -23.5343 C   0  0  0  0  0  0  0  0  0  0  0  0
    0.0279   21.6382  -24.7199 N   0  0  0  0  0  0  0  0  0  0  0  0
   -1.3292   21.7984  -24.7904 C   0  0  0  0  0  0  0  0  0  0  0  0
   -1.9147   21.6269  -26.0568 N   0  0  0  0  0  0  0  0  0  0  0  0
   -2.0702   22.0737  -23.6715 C   0  0  0  0  0  0  0  0  0  0  0  0
   -2.3441   20.7710  -26.4112 H   0  0  0  0  0  0  0  0  0  0  0  0
   -1.8620   22.4767  -26.6865 H   0  0  0  0  0  0  0  0  0  0  0  0
   -4.3202   22.0771  -24.9238 C   0  0  0  0  0  0  0  0  0  0  0  0
   -4.6923   23.9592  -26.5279 C   0  0  0  0  0  0  0  0  0  0  0  0
   -5.0909   23.1720  -25.5348 C   0  0  0  0  0  0  0  0  0  0  0  0
   -6.3606   23.4156  -24.9989 C   0  0  0  0  0  0  0  0  0  0  0  0
   -7.1573   24.3946  -25.4589 C   0  0  0  0  0  0  0  0  0  0  0  0
   -6.7401   25.1735  -26.4628 N   0  0  0  0  0  0  0  0  0  0  0  0
   -5.5350   24.9819  -27.0056 C   0  0  0  0  0  0  0  0  0  0  0  0
   -3.4799   23.0944  -28.4124 C   0  0  0  0  0  0  0  0  0  0  0  0
   -3.4557   23.9202  -27.2038 O   0  0  0  0  0  0  0  0  0  0  0  0
   -5.1255   25.8111  -28.0529 O   0  0  0  0  0  0  0  0  0  0  0  0
   -5.7536   25.6962  -29.3119 C   0  0  0  0  0  0  0  0  0  0  0  0
 28 29  1  0  0  0
 29 22  1  0  0  0
 22 23  2  0  0  0
 23 21  1  0  0  0
 21  1  1  0  0  0
  1  2  1  0  0  0
  2  3  2  0  0  0
  2  4  1  0  0  0
  4  5  1  0  0  0
  5  6  1  0  0  0
  6  7  1  0  0  0
  7  8  1  0  0  0
  8  9  1  0  0  0
  8 10  1  0  0  0
 10 11  1  0  0  0
  5 12  1  0  0  0
 12 13  2  0  0  0
 13 14  1  0  0  0
 14 15  2  0  0  0
 15 16  1  0  0  0
 16 17  1  0  0  0
 16 18  2  0  0  0
 23 24  1  0  0  0
 24 25  2  0  0  0
 25 26  1  0  0  0
 26 27  2  0  0  0
 27 30  1  0  0  0
 30 31  1  0  0  0
 27 22  1  0  0  0
 18  1  1  0  0  0
 11  5  1  0  0  0
 18 12  1  0  0  0
 17 19  1  0  0  0
 17 20  1  0  0  0
M  END
> <minimizedAffinity>
-6.69549

> <CNNscore>
0.2075117826

> <CNNaffinity>
6.4544868469

> <CNN_VS>
1.3393820524

> <CNNaffinity_variance>
0.2833794951

$$$$
[H]c1nc(N([H])[H])c2c(n1)C1(C([H])([H])C(=O)N2C([H])([H])c2c([H])c([H])nc(OC([H])([H])[H])c2OC([H])([H])[H])C([H])([H])C([H])([H])N(C([H])([H])[H])C([H])([H])C1([H])[H]


 31 34  0  0  0  0  0  0  0  0999 V2000
   -1.7217   22.7994  -22.8304 N   0  0  0  0  0  0  0  0  0  0  0  0
   -3.0707   23.3056  -22.4900 C   0  0  0  0  0  0  0  0  0  0  0  0
   -3.1679   24.0863  -21.5197 O   0  0  0  0  0  0  0  0  0  0  0  0
   -4.2652   22.9245  -23.2481 C   0  0  0  0  0  0  0  0  0  0  0  0
   -4.0946   23.3471  -24.6928 C   0  0  0  0  0  0  0  0  0  0  0  0
   -4.1597   24.8593  -24.7170 C   0  0  0  0  0  0  0  0  0  0  0  0
   -4.2004   25.3683  -26.1212 C   0  0  0  0  0  0  0  0  0  0  0  0
   -5.2878   24.8085  -26.8512 N   0  0  0  0  0  0  0  0  0  0  0  0
   -6.5025   25.5573  -26.8167 C   0  0  0  0  0  0  0  0  0  0  0  0
   -5.4143   23.3944  -26.8324 C   0  0  0  0  0  0  0  0  0  0  0  0
   -5.1680   22.7301  -25.5210 C   0  0  0  0  0  0  0  0  0  0  0  0
   -2.7296   22.9356  -25.1029 C   0  0  0  0  0  0  0  0  0  0  0  0
   -2.5023   22.8120  -26.4502 N   0  0  0  0  0  0  0  0  0  0  0  0
   -1.3288   22.4372  -26.9598 C   0  0  0  0  0  0  0  0  0  0  0  0
   -0.2916   22.1572  -26.1710 N   0  0  0  0  0  0  0  0  0  0  0  0
   -0.4491   22.2610  -24.8158 C   0  0  0  0  0  0  0  0  0  0  0  0
    0.6863   21.9936  -24.0314 N   0  0  0  0  0  0  0  0  0  0  0  0
   -1.6452   22.6430  -24.2678 C   0  0  0  0  0  0  0  0  0  0  0  0
    1.3395   22.6856  -23.6612 H   0  0  0  0  0  0  0  0  0  0  0  0
    0.8666   20.9657  -23.8513 H   0  0  0  0  0  0  0  0  0  0  0  0
   -0.7824   22.5646  -21.8429 C   0  0  0  0  0  0  0  0  0  0  0  0
    0.0525   20.4566  -20.7881 C   0  0  0  0  0  0  0  0  0  0  0  0
   -0.7998   21.4733  -20.8556 C   0  0  0  0  0  0  0  0  0  0  0  0
   -1.8304   21.5048  -19.9093 C   0  0  0  0  0  0  0  0  0  0  0  0
   -1.9647   20.5600  -18.9637 C   0  0  0  0  0  0  0  0  0  0  0  0
   -1.0936   19.5467  -18.9090 N   0  0  0  0  0  0  0  0  0  0  0  0
   -0.0944   19.4714  -19.7920 C   0  0  0  0  0  0  0  0  0  0  0  0
    2.3894   20.8339  -21.1953 C   0  0  0  0  0  0  0  0  0  0  0  0
    1.1463   20.2019  -21.6405 O   0  0  0  0  0  0  0  0  0  0  0  0
    0.8005   18.4015  -19.7109 O   0  0  0  0  0  0  0  0  0  0  0  0
    1.5582   18.2216  -18.5335 C   0  0  0  0  0  0  0  0  0  0  0  0
 28 29  1  0  0  0
 29 22  1  0  0  0
 22 23  2  0  0  0
 23 21  1  0  0  0
 21  1  1  0  0  0
  1  2  1  0  0  0
  2  3  2  0  0  0
  2  4  1  0  0  0
  4  5  1  0  0  0
  5  6  1  0  0  0
  6  7  1  0  0  0
  7  8  1  0  0  0
  8  9  1  0  0  0
  8 10  1  0  0  0
 10 11  1  0  0  0
  5 12  1  0  0  0
 12 13  2  0  0  0
 13 14  1  0  0  0
 14 15  2  0  0  0
 15 16  1  0  0  0
 16 17  1  0  0  0
 16 18  2  0  0  0
 23 24  1  0  0  0
 24 25  2  0  0  0
 25 26  1  0  0  0
 26 27  2  0  0  0
 27 30  1  0  0  0
 30 31  1  0  0  0
 27 22  1  0  0  0
 18  1  1  0  0  0
 11  5  1  0  0  0
 18 12  1  0  0  0
 17 19  1  0  0  0
 17 20  1  0  0  0
M  END
> <minimizedAffinity>
-6.76310

> <CNNscore>
0.2040880620

> <CNNaffinity>
6.3602237701

> <CNN_VS>
1.2980457544

> <CNNaffinity_variance>
0.5230087042

$$$$
[H]c1nc(N([H])[H])c2c(n1)C1(C([H])([H])C(=O)N2C([H])([H])c2c([H])c([H])nc(OC([H])([H])[H])c2OC([H])([H])[H])C([H])([H])C([H])([H])N(C([H])([H])[H])C([H])([H])C1([H])[H]


 31 34  0  0  0  0  0  0  0  0999 V2000
   -4.5795   23.2504  -25.6820 N   0  0  0  0  0  0  0  0  0  0  0  0
   -6.0249   23.4624  -25.4411 C   0  0  0  0  0  0  0  0  0  0  0  0
   -6.8296   22.8260  -26.1537 O   0  0  0  0  0  0  0  0  0  0  0  0
   -6.5218   24.3762  -24.4093 C   0  0  0  0  0  0  0  0  0  0  0  0
   -6.0110   23.9255  -23.0562 C   0  0  0  0  0  0  0  0  0  0  0  0
   -6.7296   22.6351  -22.7249 C   0  0  0  0  0  0  0  0  0  0  0  0
   -6.4433   22.2113  -21.3209 C   0  0  0  0  0  0  0  0  0  0  0  0
   -6.7851   23.2294  -20.3853 N   0  0  0  0  0  0  0  0  0  0  0  0
   -8.1115   23.1644  -19.8622 C   0  0  0  0  0  0  0  0  0  0  0  0
   -6.2624   24.5271  -20.6280 C   0  0  0  0  0  0  0  0  0  0  0  0
   -6.2776   24.9869  -22.0458 C   0  0  0  0  0  0  0  0  0  0  0  0
   -4.5679   23.6231  -23.2204 C   0  0  0  0  0  0  0  0  0  0  0  0
   -3.8052   23.6222  -22.0800 N   0  0  0  0  0  0  0  0  0  0  0  0
   -2.4941   23.3808  -22.0804 C   0  0  0  0  0  0  0  0  0  0  0  0
   -1.8405   23.1212  -23.2126 N   0  0  0  0  0  0  0  0  0  0  0  0
   -2.5412   23.1056  -24.3878 C   0  0  0  0  0  0  0  0  0  0  0  0
   -1.8124   22.7873  -25.5468 N   0  0  0  0  0  0  0  0  0  0  0  0
   -3.8887   23.3516  -24.4136 C   0  0  0  0  0  0  0  0  0  0  0  0
   -1.7394   21.8648  -25.9785 H   0  0  0  0  0  0  0  0  0  0  0  0
   -1.2779   23.5982  -25.9691 H   0  0  0  0  0  0  0  0  0  0  0  0
   -4.1023   22.9986  -26.9554 C   0  0  0  0  0  0  0  0  0  0  0  0
   -4.6169   24.8959  -28.5011 C   0  0  0  0  0  0  0  0  0  0  0  0
   -4.5843   23.6004  -28.2091 C   0  0  0  0  0  0  0  0  0  0  0  0
   -5.0736   22.7164  -29.1775 C   0  0  0  0  0  0  0  0  0  0  0  0
   -5.5544   23.1405  -30.3580 C   0  0  0  0  0  0  0  0  0  0  0  0
   -5.5744   24.4487  -30.6355 N   0  0  0  0  0  0  0  0  0  0  0  0
   -5.1207   25.3319  -29.7422 C   0  0  0  0  0  0  0  0  0  0  0  0
   -5.2841   26.5195  -26.8615 C   0  0  0  0  0  0  0  0  0  0  0  0
   -4.2046   25.9661  -27.6811 O   0  0  0  0  0  0  0  0  0  0  0  0
   -5.1541   26.6922  -30.0592 O   0  0  0  0  0  0  0  0  0  0  0  0
   -5.8417   27.1157  -31.2171 C   0  0  0  0  0  0  0  0  0  0  0  0
 28 29  1  0  0  0
 29 22  1  0  0  0
 22 23  2  0  0  0
 23 21  1  0  0  0
 21  1  1  0  0  0
  1  2  1  0  0  0
  2  3  2  0  0  0
  2  4  1  0  0  0
  4  5  1  0  0  0
  5  6  1  0  0  0
  6  7  1  0  0  0
  7  8  1  0  0  0
  8  9  1  0  0  0
  8 10  1  0  0  0
 10 11  1  0  0  0
  5 12  1  0  0  0
 12 13  2  0  0  0
 13 14  1  0  0  0
 14 15  2  0  0  0
 15 16  1  0  0  0
 16 17  1  0  0  0
 16 18  2  0  0  0
 23 24  1  0  0  0
 24 25  2  0  0  0
 25 26  1  0  0  0
 26 27  2  0  0  0
 27 30  1  0  0  0
 30 31  1  0  0  0
 27 22  1  0  0  0
 18  1  1  0  0  0
 11  5  1  0  0  0
 18 12  1  0  0  0
 17 19  1  0  0  0
 17 20  1  0  0  0
M  END
> <minimizedAffinity>
-7.69614

> <CNNscore>
0.1514018476

> <CNNaffinity>
6.3676490784

> <CNN_VS>
0.9640738368

> <CNNaffinity_variance>
0.1264486909

$$$$
[H]c1nc(N([H])[H])c2c(n1)C1(C([H])([H])C(=O)N2C([H])([H])c2c([H])c([H])nc(OC([H])([H])[H])c2OC([H])([H])[H])C([H])([H])C([H])([H])N(C([H])([H])[H])C([H])([H])C1([H])[H]


 31 34  0  0  0  0  0  0  0  0999 V2000
   -4.9290   22.6064  -25.7801 N   0  0  0  0  0  0  0  0  0  0  0  0
   -6.1598   23.2559  -26.2857 C   0  0  0  0  0  0  0  0  0  0  0  0
   -6.8901   23.8371  -25.4556 O   0  0  0  0  0  0  0  0  0  0  0  0
   -6.5307   23.2365  -27.7030 C   0  0  0  0  0  0  0  0  0  0  0  0
   -5.4356   23.8982  -28.5140 C   0  0  0  0  0  0  0  0  0  0  0  0
   -5.4784   25.3749  -28.1842 C   0  0  0  0  0  0  0  0  0  0  0  0
   -4.5674   26.1478  -29.0817 C   0  0  0  0  0  0  0  0  0  0  0  0
   -4.8768   25.9322  -30.4553 N   0  0  0  0  0  0  0  0  0  0  0  0
   -5.8040   26.8532  -31.0292 C   0  0  0  0  0  0  0  0  0  0  0  0
   -4.9728   24.5834  -30.8884 C   0  0  0  0  0  0  0  0  0  0  0  0
   -5.6681   23.6441  -29.9632 C   0  0  0  0  0  0  0  0  0  0  0  0
   -4.1469   23.3511  -28.0234 C   0  0  0  0  0  0  0  0  0  0  0  0
   -3.0714   23.4565  -28.8686 N   0  0  0  0  0  0  0  0  0  0  0  0
   -1.8577   22.9966  -28.5643 C   0  0  0  0  0  0  0  0  0  0  0  0
   -1.6189   22.3976  -27.3978 N   0  0  0  0  0  0  0  0  0  0  0  0
   -2.6480   22.2598  -26.5066 C   0  0  0  0  0  0  0  0  0  0  0  0
   -2.3338   21.6575  -25.2760 N   0  0  0  0  0  0  0  0  0  0  0  0
   -3.9043   22.7230  -26.7964 C   0  0  0  0  0  0  0  0  0  0  0  0
   -2.1046   22.1440  -24.4080 H   0  0  0  0  0  0  0  0  0  0  0  0
   -2.3141   20.5987  -25.2947 H   0  0  0  0  0  0  0  0  0  0  0  0
   -4.8968   22.0289  -24.5239 C   0  0  0  0  0  0  0  0  0  0  0  0
   -5.2139   22.4169  -22.0739 C   0  0  0  0  0  0  0  0  0  0  0  0
   -4.6652   22.7197  -23.2452 C   0  0  0  0  0  0  0  0  0  0  0  0
   -3.7950   23.8154  -23.2769 C   0  0  0  0  0  0  0  0  0  0  0  0
   -3.5112   24.5377  -22.1804 C   0  0  0  0  0  0  0  0  0  0  0  0
   -4.0700   24.2142  -21.0092 N   0  0  0  0  0  0  0  0  0  0  0  0
   -4.9092   23.1784  -20.9286 C   0  0  0  0  0  0  0  0  0  0  0  0
   -7.5255   21.7659  -22.0278 C   0  0  0  0  0  0  0  0  0  0  0  0
   -6.1310   21.3807  -21.8037 O   0  0  0  0  0  0  0  0  0  0  0  0
   -5.4782   22.8636  -19.6920 O   0  0  0  0  0  0  0  0  0  0  0  0
   -6.3350   23.7959  -19.0677 C   0  0  0  0  0  0  0  0  0  0  0  0
 28 29  1  0  0  0
 29 22  1  0  0  0
 22 23  2  0  0  0
 23 21  1  0  0  0
 21  1  1  0  0  0
  1  2  1  0  0  0
  2  3  2  0  0  0
  2  4  1  0  0  0
  4  5  1  0  0  0
  5  6  1  0  0  0
  6  7  1  0  0  0
  7  8  1  0  0  0
  8  9  1  0  0  0
  8 10  1  0  0  0
 10 11  1  0  0  0
  5 12  1  0  0  0
 12 13  2  0  0  0
 13 14  1  0  0  0
 14 15  2  0  0  0
 15 16  1  0  0  0
 16 17  1  0  0  0
 16 18  2  0  0  0
 23 24  1  0  0  0
 24 25  2  0  0  0
 25 26  1  0  0  0
 26 27  2  0  0  0
 27 30  1  0  0  0
 30 31  1  0  0  0
 27 22  1  0  0  0
 18  1  1  0  0  0
 11  5  1  0  0  0
 18 12  1  0  0  0
 17 19  1  0  0  0
 17 20  1  0  0  0
M  END
> <minimizedAffinity>
-7.29265

> <CNNscore>
0.1409062892

> <CNNaffinity>
6.6734161377

> <CNN_VS>
0.9403263330

> <CNNaffinity_variance>
1.0006234646

$$$$
[H]c1nc(N([H])[H])c2c(n1)C1(C([H])([H])C(=O)N2C([H])([H])c2c([H])c([H])nc(OC([H])([H])[H])c2OC([H])([H])[H])C([H])([H])C([H])([H])N(C([H])([H])[H])C([H])([H])C1([H])[H]


 31 34  0  0  0  0  0  0  0  0999 V2000
   -3.6078   23.3205  -24.2621 N   0  0  0  0  0  0  0  0  0  0  0  0
   -3.4953   22.3038  -25.3325 C   0  0  0  0  0  0  0  0  0  0  0  0
   -3.8665   21.1409  -25.0672 O   0  0  0  0  0  0  0  0  0  0  0  0
   -2.9748   22.6223  -26.6644 C   0  0  0  0  0  0  0  0  0  0  0  0
   -3.8426   23.6912  -27.2964 C   0  0  0  0  0  0  0  0  0  0  0  0
   -5.1744   23.0440  -27.6110 C   0  0  0  0  0  0  0  0  0  0  0  0
   -6.0348   23.9612  -28.4180 C   0  0  0  0  0  0  0  0  0  0  0  0
   -5.3832   24.3741  -29.6154 N   0  0  0  0  0  0  0  0  0  0  0  0
   -5.6245   23.5569  -30.7605 C   0  0  0  0  0  0  0  0  0  0  0  0
   -4.0749   24.9097  -29.4833 C   0  0  0  0  0  0  0  0  0  0  0  0
   -3.1743   24.2142  -28.5206 C   0  0  0  0  0  0  0  0  0  0  0  0
   -4.0657   24.7309  -26.2619 C   0  0  0  0  0  0  0  0  0  0  0  0
   -4.4372   25.9739  -26.7082 N   0  0  0  0  0  0  0  0  0  0  0  0
   -4.6574   27.0052  -25.8926 C   0  0  0  0  0  0  0  0  0  0  0  0
   -4.5262   26.8810  -24.5721 N   0  0  0  0  0  0  0  0  0  0  0  0
   -4.1584   25.6670  -24.0589 C   0  0  0  0  0  0  0  0  0  0  0  0
   -4.0734   25.5792  -22.6586 N   0  0  0  0  0  0  0  0  0  0  0  0
   -3.9255   24.5925  -24.8763 C   0  0  0  0  0  0  0  0  0  0  0  0
   -4.8020   25.2362  -22.0309 H   0  0  0  0  0  0  0  0  0  0  0  0
   -3.1655   25.9381  -22.2479 H   0  0  0  0  0  0  0  0  0  0  0  0
   -3.4238   22.9765  -22.9352 C   0  0  0  0  0  0  0  0  0  0  0  0
   -5.7148   22.2146  -22.2840 C   0  0  0  0  0  0  0  0  0  0  0  0
   -4.4163   22.3566  -22.0427 C   0  0  0  0  0  0  0  0  0  0  0  0
   -3.9423   21.8904  -20.8111 C   0  0  0  0  0  0  0  0  0  0  0  0
   -4.7492   21.3173  -19.9027 C   0  0  0  0  0  0  0  0  0  0  0  0
   -6.0531   21.1789  -20.1662 N   0  0  0  0  0  0  0  0  0  0  0  0
   -6.5534   21.6105  -21.3268 C   0  0  0  0  0  0  0  0  0  0  0  0
   -7.1332   23.8911  -23.2571 C   0  0  0  0  0  0  0  0  0  0  0  0
   -6.4189   22.6256  -23.4343 O   0  0  0  0  0  0  0  0  0  0  0  0
   -7.9193   21.4529  -21.5747 O   0  0  0  0  0  0  0  0  0  0  0  0
   -8.8496   21.8163  -20.5770 C   0  0  0  0  0  0  0  0  0  0  0  0
 28 29  1  0  0  0
 29 22  1  0  0  0
 22 23  2  0  0  0
 23 21  1  0  0  0
 21  1  1  0  0  0
  1  2  1  0  0  0
  2  3  2  0  0  0
  2  4  1  0  0  0
  4  5  1  0  0  0
  5  6  1  0  0  0
  6  7  1  0  0  0
  7  8  1  0  0  0
  8  9  1  0  0  0
  8 10  1  0  0  0
 10 11  1  0  0  0
  5 12  1  0  0  0
 12 13  2  0  0  0
 13 14  1  0  0  0
 14 15  2  0  0  0
 15 16  1  0  0  0
 16 17  1  0  0  0
 16 18  2  0  0  0
 23 24  1  0  0  0
 24 25  2  0  0  0
 25 26  1  0  0  0
 26 27  2  0  0  0
 27 30  1  0  0  0
 30 31  1  0  0  0
 27 22  1  0  0  0
 18  1  1  0  0  0
 11  5  1  0  0  0
 18 12  1  0  0  0
 17 19  1  0  0  0
 17 20  1  0  0  0
M  END
> <minimizedAffinity>
-8.08125

> <CNNscore>
0.1402899772

> <CNNaffinity>
5.8903312683

> <CNN_VS>
0.8263544440

> <CNNaffinity_variance>
0.4619024396

$$$$
[H]c1nc(N([H])[H])c2c(n1)C1(C([H])([H])C(=O)N2C([H])([H])c2c([H])c([H])nc(OC([H])([H])[H])c2OC([H])([H])[H])C([H])([H])C([H])([H])N(C([H])([H])[H])C([H])([H])C1([H])[H]


 31 34  0  0  0  0  0  0  0  0999 V2000
   -7.4218   23.3371  -21.1796 N   0  0  0  0  0  0  0  0  0  0  0  0
   -8.0382   21.9916  -21.1370 C   0  0  0  0  0  0  0  0  0  0  0  0
   -7.8465   21.2363  -22.1133 O   0  0  0  0  0  0  0  0  0  0  0  0
   -8.8452   21.5347  -20.0028 C   0  0  0  0  0  0  0  0  0  0  0  0
   -8.0006   21.5651  -18.7456 C   0  0  0  0  0  0  0  0  0  0  0  0
   -6.9730   20.4620  -18.8821 C   0  0  0  0  0  0  0  0  0  0  0  0
   -6.2160   20.2785  -17.6070 C   0  0  0  0  0  0  0  0  0  0  0  0
   -7.0883   20.0177  -16.5115 N   0  0  0  0  0  0  0  0  0  0  0  0
   -7.3550   18.6398  -16.2518 C   0  0  0  0  0  0  0  0  0  0  0  0
   -8.1687   20.9192  -16.3216 C   0  0  0  0  0  0  0  0  0  0  0  0
   -8.8742   21.3684  -17.5552 C   0  0  0  0  0  0  0  0  0  0  0  0
   -7.2864   22.8654  -18.7388 C   0  0  0  0  0  0  0  0  0  0  0  0
   -6.8184   23.3045  -17.5263 N   0  0  0  0  0  0  0  0  0  0  0  0
   -6.1714   24.4597  -17.3700 C   0  0  0  0  0  0  0  0  0  0  0  0
   -5.9393   25.2664  -18.4052 N   0  0  0  0  0  0  0  0  0  0  0  0
   -6.3787   24.8885  -19.6448 C   0  0  0  0  0  0  0  0  0  0  0  0
   -6.0731   25.7555  -20.7083 N   0  0  0  0  0  0  0  0  0  0  0  0
   -7.0467   23.7071  -19.8310 C   0  0  0  0  0  0  0  0  0  0  0  0
   -5.2785   25.6724  -21.3442 H   0  0  0  0  0  0  0  0  0  0  0  0
   -6.7335   26.5768  -20.8123 H   0  0  0  0  0  0  0  0  0  0  0  0
   -7.2811   24.0151  -22.3768 C   0  0  0  0  0  0  0  0  0  0  0  0
   -5.0356   23.4531  -23.3232 C   0  0  0  0  0  0  0  0  0  0  0  0
   -6.3338   23.7007  -23.4583 C   0  0  0  0  0  0  0  0  0  0  0  0
   -6.8543   23.6817  -24.7574 C   0  0  0  0  0  0  0  0  0  0  0  0
   -6.0910   23.4215  -25.8319 C   0  0  0  0  0  0  0  0  0  0  0  0
   -4.7870   23.1698  -25.6749 N   0  0  0  0  0  0  0  0  0  0  0  0
   -4.2431   23.1791  -24.4551 C   0  0  0  0  0  0  0  0  0  0  0  0
   -4.1931   22.1144  -21.5157 C   0  0  0  0  0  0  0  0  0  0  0  0
   -4.2893   23.4410  -22.1272 O   0  0  0  0  0  0  0  0  0  0  0  0
   -2.8781   22.9129  -24.3213 O   0  0  0  0  0  0  0  0  0  0  0  0
   -2.2917   21.8963  -25.1058 C   0  0  0  0  0  0  0  0  0  0  0  0
 28 29  1  0  0  0
 29 22  1  0  0  0
 22 23  2  0  0  0
 23 21  1  0  0  0
 21  1  1  0  0  0
  1  2  1  0  0  0
  2  3  2  0  0  0
  2  4  1  0  0  0
  4  5  1  0  0  0
  5  6  1  0  0  0
  6  7  1  0  0  0
  7  8  1  0  0  0
  8  9  1  0  0  0
  8 10  1  0  0  0
 10 11  1  0  0  0
  5 12  1  0  0  0
 12 13  2  0  0  0
 13 14  1  0  0  0
 14 15  2  0  0  0
 15 16  1  0  0  0
 16 17  1  0  0  0
 16 18  2  0  0  0
 23 24  1  0  0  0
 24 25  2  0  0  0
 25 26  1  0  0  0
 26 27  2  0  0  0
 27 30  1  0  0  0
 30 31  1  0  0  0
 27 22  1  0  0  0
 18  1  1  0  0  0
 11  5  1  0  0  0
 18 12  1  0  0  0
 17 19  1  0  0  0
 17 20  1  0  0  0
M  END
> <minimizedAffinity>
-6.60486

> <CNNscore>
0.1200042218

> <CNNaffinity>
5.0049018860

> <CNN_VS>
0.6006093621

> <CNNaffinity_variance>
0.4515935779

$$$$
[H]c1c([H])c([H])c(N(C(=O)C([H])([H])[H])C([H])([H])c2c(F)c(F)c(Cl)c(C(=O)N([H])c3c([H])c([H])c(C([H])([H])N4C([H])([H])C([H])([H])N(C5([H])C([H])([H])OC5([H])[H])C([H])([H])C4([H])[H])c([H])c3Cl)c2F)c([H])c1[H]


 43 47  0  0  0  0  0  0  0  0999 V2000
   -1.9763   22.7699  -23.4044 C   0  0  0  0  0  0  0  0  0  0  0  0
   -1.6804   23.8995  -22.8989 O   0  0  0  0  0  0  0  0  0  0  0  0
   -2.2385   21.6978  -22.5563 N   0  0  0  0  0  0  0  0  0  0  0  0
   -2.5334   20.7620  -22.9807 H   0  0  0  0  0  0  0  0  0  0  0  0
   -3.4746   22.8373  -26.8367 C   0  0  0  0  0  0  0  0  0  0  0  0
   -2.3427   22.6113  -27.6296 C   0  0  0  0  0  0  0  0  0  0  0  0
   -2.4728   22.5436  -28.9882 F   0  0  0  0  0  0  0  0  0  0  0  0
   -1.1413   22.4637  -27.0511 C   0  0  0  0  0  0  0  0  0  0  0  0
   -0.0305   22.2414  -27.8229 F   0  0  0  0  0  0  0  0  0  0  0  0
   -0.9548   22.5244  -25.6751 C   0  0  0  0  0  0  0  0  0  0  0  0
    0.6919   22.3911  -25.0682 Cl  0  0  0  0  0  0  0  0  0  0  0  0
   -2.0112   22.7376  -24.8636 C   0  0  0  0  0  0  0  0  0  0  0  0
   -3.2776   22.8928  -25.4964 C   0  0  0  0  0  0  0  0  0  0  0  0
   -4.3126   23.1204  -24.6505 F   0  0  0  0  0  0  0  0  0  0  0  0
   -4.7237   23.0184  -27.5645 C   0  0  0  0  0  0  0  0  0  0  0  0
   -5.4915   23.8897  -30.2579 C   0  0  0  0  0  0  0  0  0  0  0  0
   -5.6777   24.7558  -29.0562 C   0  0  0  0  0  0  0  0  0  0  0  0
   -6.1915   25.8741  -29.2331 O   0  0  0  0  0  0  0  0  0  0  0  0
   -5.2821   24.3109  -27.7560 N   0  0  0  0  0  0  0  0  0  0  0  0
   -5.5684   25.2144  -26.6666 C   0  0  0  0  0  0  0  0  0  0  0  0
   -4.6811   26.2544  -26.4292 C   0  0  0  0  0  0  0  0  0  0  0  0
   -4.9127   27.1173  -25.3799 C   0  0  0  0  0  0  0  0  0  0  0  0
   -6.0124   26.9720  -24.5546 C   0  0  0  0  0  0  0  0  0  0  0  0
   -6.8915   25.9469  -24.7851 C   0  0  0  0  0  0  0  0  0  0  0  0
   -6.6410   25.0811  -25.8533 C   0  0  0  0  0  0  0  0  0  0  0  0
   -2.2117   21.7037  -21.1461 C   0  0  0  0  0  0  0  0  0  0  0  0
   -3.2525   22.0530  -20.3371 C   0  0  0  0  0  0  0  0  0  0  0  0
   -3.1614   22.0077  -18.9322 C   0  0  0  0  0  0  0  0  0  0  0  0
   -1.9909   21.5994  -18.3216 C   0  0  0  0  0  0  0  0  0  0  0  0
   -0.9546   21.2515  -19.1339 C   0  0  0  0  0  0  0  0  0  0  0  0
   -1.0320   21.2912  -20.5053 C   0  0  0  0  0  0  0  0  0  0  0  0
    0.3932   20.8058  -21.4419 Cl  0  0  0  0  0  0  0  0  0  0  0  0
   -1.8878   21.5547  -16.8480 C   0  0  0  0  0  0  0  0  0  0  0  0
   -2.5992   20.4398  -16.2769 N   0  0  0  0  0  0  0  0  0  0  0  0
   -3.4872   20.9770  -15.2447 C   0  0  0  0  0  0  0  0  0  0  0  0
   -2.7361   21.4528  -14.0252 C   0  0  0  0  0  0  0  0  0  0  0  0
   -2.0111   20.3080  -13.4898 N   0  0  0  0  0  0  0  0  0  0  0  0
   -1.0162   19.9547  -14.4473 C   0  0  0  0  0  0  0  0  0  0  0  0
   -1.7281   19.4308  -15.6938 C   0  0  0  0  0  0  0  0  0  0  0  0
   -1.5388   20.5569  -12.1575 C   0  0  0  0  0  0  0  0  0  0  0  0
   -1.1880   21.9662  -11.8571 C   0  0  0  0  0  0  0  0  0  0  0  0
   -1.6623   21.7435  -10.5441 O   0  0  0  0  0  0  0  0  0  0  0  0
   -2.5585   20.8039  -11.1029 C   0  0  0  0  0  0  0  0  0  0  0  0
 16 17  1  0  0  0
 17 18  2  0  0  0
 17 19  1  0  0  0
 19 15  1  0  0  0
 15  5  1  0  0  0
  5  6  2  0  0  0
  6  7  1  0  0  0
  6  8  1  0  0  0
  8  9  1  0  0  0
  8 10  2  0  0  0
 10 11  1  0  0  0
 10 12  1  0  0  0
 12  1  1  0  0  0
  1  2  2  0  0  0
  1  3  1  0  0  0
  3 26  1  0  0  0
 26 27  2  0  0  0
 27 28  1  0  0  0
 28 29  2  0  0  0
 29 33  1  0  0  0
 33 34  1  0  0  0
 34 35  1  0  0  0
 35 36  1  0  0  0
 36 37  1  0  0  0
 37 38  1  0  0  0
 38 39  1  0  0  0
 37 40  1  0  0  0
 40 41  1  0  0  0
 41 42  1  0  0  0
 42 43  1  0  0  0
 29 30  1  0  0  0
 30 31  2  0  0  0
 31 32  1  0  0  0
 12 13  2  0  0  0
 13 14  1  0  0  0
 19 20  1  0  0  0
 20 21  2  0  0  0
 21 22  1  0  0  0
 22 23  2  0  0  0
 23 24  1  0  0  0
 24 25  2  0  0  0
 13  5  1  0  0  0
 25 20  1  0  0  0
 31 26  1  0  0  0
 39 34  1  0  0  0
 43 40  1  0  0  0
  3  4  1  0  0  0
M  END
> <minimizedAffinity>
-8.36971

> <CNNscore>
0.5737485290

> <CNNaffinity>
7.6510725021

> <CNN_VS>
4.3897914886

> <CNNaffinity_variance>
0.2131062448

$$$$
[H]c1c([H])c([H])c(N(C(=O)C([H])([H])[H])C([H])([H])c2c(F)c(F)c(Cl)c(C(=O)N([H])c3c([H])c([H])c(C([H])([H])N4C([H])([H])C([H])([H])N(C5([H])C([H])([H])OC5([H])[H])C([H])([H])C4([H])[H])c([H])c3Cl)c2F)c([H])c1[H]


 43 47  0  0  0  0  0  0  0  0999 V2000
   -2.3297   22.2096  -23.6647 C   0  0  0  0  0  0  0  0  0  0  0  0
   -2.3970   20.9753  -23.3633 O   0  0  0  0  0  0  0  0  0  0  0  0
   -2.3713   23.1574  -22.6460 N   0  0  0  0  0  0  0  0  0  0  0  0
   -2.2669   24.1914  -22.8962 H   0  0  0  0  0  0  0  0  0  0  0  0
   -3.4567   22.8705  -27.1751 C   0  0  0  0  0  0  0  0  0  0  0  0
   -2.2288   22.9320  -27.8456 C   0  0  0  0  0  0  0  0  0  0  0  0
   -2.2065   23.1468  -29.1949 F   0  0  0  0  0  0  0  0  0  0  0  0
   -1.0857   22.7804  -27.1598 C   0  0  0  0  0  0  0  0  0  0  0  0
    0.1187   22.8389  -27.8118 F   0  0  0  0  0  0  0  0  0  0  0  0
   -1.0534   22.5605  -25.7879 C   0  0  0  0  0  0  0  0  0  0  0  0
    0.5244   22.4600  -25.0146 Cl  0  0  0  0  0  0  0  0  0  0  0  0
   -2.2072   22.4899  -25.0923 C   0  0  0  0  0  0  0  0  0  0  0  0
   -3.4096   22.6542  -25.8374 C   0  0  0  0  0  0  0  0  0  0  0  0
   -4.5476   22.5921  -25.1029 F   0  0  0  0  0  0  0  0  0  0  0  0
   -4.6352   23.0821  -28.0051 C   0  0  0  0  0  0  0  0  0  0  0  0
   -5.5548   24.1024  -30.5968 C   0  0  0  0  0  0  0  0  0  0  0  0
   -5.7320   24.8705  -29.3290 C   0  0  0  0  0  0  0  0  0  0  0  0
   -6.3054   25.9712  -29.4043 O   0  0  0  0  0  0  0  0  0  0  0  0
   -5.2621   24.3552  -28.0806 N   0  0  0  0  0  0  0  0  0  0  0  0
   -5.5458   25.1635  -26.9182 C   0  0  0  0  0  0  0  0  0  0  0  0
   -4.6427   26.1610  -26.5792 C   0  0  0  0  0  0  0  0  0  0  0  0
   -4.8719   26.9314  -25.4597 C   0  0  0  0  0  0  0  0  0  0  0  0
   -5.9846   26.7344  -24.6629 C   0  0  0  0  0  0  0  0  0  0  0  0
   -6.8792   25.7510  -24.9936 C   0  0  0  0  0  0  0  0  0  0  0  0
   -6.6309   24.9791  -26.1320 C   0  0  0  0  0  0  0  0  0  0  0  0
   -2.4887   22.9124  -21.2619 C   0  0  0  0  0  0  0  0  0  0  0  0
   -1.4539   22.8803  -20.3743 C   0  0  0  0  0  0  0  0  0  0  0  0
   -1.6504   22.6569  -18.9975 C   0  0  0  0  0  0  0  0  0  0  0  0
   -2.9235   22.4600  -18.4972 C   0  0  0  0  0  0  0  0  0  0  0  0
   -3.9533   22.4932  -19.3878 C   0  0  0  0  0  0  0  0  0  0  0  0
   -3.7739   22.7108  -20.7327 C   0  0  0  0  0  0  0  0  0  0  0  0
   -5.2052   22.7333  -21.7789 Cl  0  0  0  0  0  0  0  0  0  0  0  0
   -3.1353   22.2202  -17.0544 C   0  0  0  0  0  0  0  0  0  0  0  0
   -3.8104   20.9746  -16.7936 N   0  0  0  0  0  0  0  0  0  0  0  0
   -4.3410   21.0479  -15.4313 C   0  0  0  0  0  0  0  0  0  0  0  0
   -3.2574   20.9759  -14.3832 C   0  0  0  0  0  0  0  0  0  0  0  0
   -2.5650   19.7068  -14.5636 N   0  0  0  0  0  0  0  0  0  0  0  0
   -1.8908   19.7697  -15.8178 C   0  0  0  0  0  0  0  0  0  0  0  0
   -2.9493   19.8086  -16.9193 C   0  0  0  0  0  0  0  0  0  0  0  0
   -1.7483   19.3836  -13.4283 C   0  0  0  0  0  0  0  0  0  0  0  0
   -0.8536   20.4679  -12.9559 C   0  0  0  0  0  0  0  0  0  0  0  0
   -1.0685   19.9934  -11.6416 O   0  0  0  0  0  0  0  0  0  0  0  0
   -2.3448   19.5710  -12.0785 C   0  0  0  0  0  0  0  0  0  0  0  0
 16 17  1  0  0  0
 17 18  2  0  0  0
 17 19  1  0  0  0
 19 15  1  0  0  0
 15  5  1  0  0  0
  5  6  2  0  0  0
  6  7  1  0  0  0
  6  8  1  0  0  0
  8  9  1  0  0  0
  8 10  2  0  0  0
 10 11  1  0  0  0
 10 12  1  0  0  0
 12  1  1  0  0  0
  1  2  2  0  0  0
  1  3  1  0  0  0
  3 26  1  0  0  0
 26 27  2  0  0  0
 27 28  1  0  0  0
 28 29  2  0  0  0
 29 33  1  0  0  0
 33 34  1  0  0  0
 34 35  1  0  0  0
 35 36  1  0  0  0
 36 37  1  0  0  0
 37 38  1  0  0  0
 38 39  1  0  0  0
 37 40  1  0  0  0
 40 41  1  0  0  0
 41 42  1  0  0  0
 42 43  1  0  0  0
 29 30  1  0  0  0
 30 31  2  0  0  0
 31 32  1  0  0  0
 12 13  2  0  0  0
 13 14  1  0  0  0
 19 20  1  0  0  0
 20 21  2  0  0  0
 21 22  1  0  0  0
 22 23  2  0  0  0
 23 24  1  0  0  0
 24 25  2  0  0  0
 13  5  1  0  0  0
 25 20  1  0  0  0
 31 26  1  0  0  0
 39 34  1  0  0  0
 43 40  1  0  0  0
  3  4  1  0  0  0
M  END
> <minimizedAffinity>
-8.80381

> <CNNscore>
0.4031985104

> <CNNaffinity>
7.5546007156

> <CNN_VS>
3.0460038185

> <CNNaffinity_variance>
0.1567377746

$$$$
[H]c1c([H])c([H])c(N(C(=O)C([H])([H])[H])C([H])([H])c2c(F)c(F)c(Cl)c(C(=O)N([H])c3c([H])c([H])c(C([H])([H])N4C([H])([H])C([H])([H])N(C5([H])C([H])([H])OC5([H])[H])C([H])([H])C4([H])[H])c([H])c3Cl)c2F)c([H])c1[H]


 43 47  0  0  0  0  0  0  0  0999 V2000
   -5.9244   22.6625  -23.2783 C   0  0  0  0  0  0  0  0  0  0  0  0
   -6.6808   21.6483  -23.1436 O   0  0  0  0  0  0  0  0  0  0  0  0
   -5.5802   23.4035  -22.1514 N   0  0  0  0  0  0  0  0  0  0  0  0
   -4.9067   24.2266  -22.2588 H   0  0  0  0  0  0  0  0  0  0  0  0
   -3.7432   22.4878  -26.3184 C   0  0  0  0  0  0  0  0  0  0  0  0
   -4.4110   23.3665  -27.1804 C   0  0  0  0  0  0  0  0  0  0  0  0
   -3.9066   23.6012  -28.4286 F   0  0  0  0  0  0  0  0  0  0  0  0
   -5.5390   23.9697  -26.7758 C   0  0  0  0  0  0  0  0  0  0  0  0
   -6.1958   24.8312  -27.6156 F   0  0  0  0  0  0  0  0  0  0  0  0
   -6.0936   23.7650  -25.5179 C   0  0  0  0  0  0  0  0  0  0  0  0
   -7.6195   24.5653  -25.1590 Cl  0  0  0  0  0  0  0  0  0  0  0  0
   -5.4904   22.9304  -24.6464 C   0  0  0  0  0  0  0  0  0  0  0  0
   -4.2952   22.2990  -25.0945 C   0  0  0  0  0  0  0  0  0  0  0  0
   -3.7257   21.4563  -24.1977 F   0  0  0  0  0  0  0  0  0  0  0  0
   -2.5485   21.8593  -26.8665 C   0  0  0  0  0  0  0  0  0  0  0  0
   -0.9691   23.3177  -28.8619 C   0  0  0  0  0  0  0  0  0  0  0  0
   -0.4647   23.0565  -27.4813 C   0  0  0  0  0  0  0  0  0  0  0  0
    0.6616   23.4971  -27.1927 O   0  0  0  0  0  0  0  0  0  0  0  0
   -1.2505   22.3310  -26.5321 N   0  0  0  0  0  0  0  0  0  0  0  0
   -0.6788   22.1952  -25.2131 C   0  0  0  0  0  0  0  0  0  0  0  0
    0.5232   21.5132  -25.0885 C   0  0  0  0  0  0  0  0  0  0  0  0
    1.0803   21.3436  -23.8394 C   0  0  0  0  0  0  0  0  0  0  0  0
    0.4687   21.8389  -22.7026 C   0  0  0  0  0  0  0  0  0  0  0  0
   -0.7179   22.5131  -22.8205 C   0  0  0  0  0  0  0  0  0  0  0  0
   -1.2688   22.6756  -24.0947 C   0  0  0  0  0  0  0  0  0  0  0  0
   -5.9854   23.1652  -20.8216 C   0  0  0  0  0  0  0  0  0  0  0  0
   -7.1525   23.5945  -20.2619 C   0  0  0  0  0  0  0  0  0  0  0  0
   -7.5042   23.2936  -18.9315 C   0  0  0  0  0  0  0  0  0  0  0  0
   -6.6592   22.5393  -18.1399 C   0  0  0  0  0  0  0  0  0  0  0  0
   -5.4951   22.1129  -18.7036 C   0  0  0  0  0  0  0  0  0  0  0  0
   -5.1418   22.3996  -20.0003 C   0  0  0  0  0  0  0  0  0  0  0  0
   -3.5971   21.7762  -20.6080 Cl  0  0  0  0  0  0  0  0  0  0  0  0
   -7.0205   22.2247  -16.7418 C   0  0  0  0  0  0  0  0  0  0  0  0
   -7.2247   23.4063  -15.9435 N   0  0  0  0  0  0  0  0  0  0  0  0
   -5.9596   24.1425  -15.9302 C   0  0  0  0  0  0  0  0  0  0  0  0
   -4.8990   23.4561  -15.1044 C   0  0  0  0  0  0  0  0  0  0  0  0
   -5.4105   23.3512  -13.7442 N   0  0  0  0  0  0  0  0  0  0  0  0
   -6.5182   22.4551  -13.7791 C   0  0  0  0  0  0  0  0  0  0  0  0
   -7.6376   23.1217  -14.5777 C   0  0  0  0  0  0  0  0  0  0  0  0
   -4.3696   23.0255  -12.8112 C   0  0  0  0  0  0  0  0  0  0  0  0
   -4.1834   23.9897  -11.6999 C   0  0  0  0  0  0  0  0  0  0  0  0
   -3.8534   22.8885  -10.8770 O   0  0  0  0  0  0  0  0  0  0  0  0
   -4.7160   22.1151  -11.6869 C   0  0  0  0  0  0  0  0  0  0  0  0
 16 17  1  0  0  0
 17 18  2  0  0  0
 17 19  1  0  0  0
 19 15  1  0  0  0
 15  5  1  0  0  0
  5  6  2  0  0  0
  6  7  1  0  0  0
  6  8  1  0  0  0
  8  9  1  0  0  0
  8 10  2  0  0  0
 10 11  1  0  0  0
 10 12  1  0  0  0
 12  1  1  0  0  0
  1  2  2  0  0  0
  1  3  1  0  0  0
  3 26  1  0  0  0
 26 27  2  0  0  0
 27 28  1  0  0  0
 28 29  2  0  0  0
 29 33  1  0  0  0
 33 34  1  0  0  0
 34 35  1  0  0  0
 35 36  1  0  0  0
 36 37  1  0  0  0
 37 38  1  0  0  0
 38 39  1  0  0  0
 37 40  1  0  0  0
 40 41  1  0  0  0
 41 42  1  0  0  0
 42 43  1  0  0  0
 29 30  1  0  0  0
 30 31  2  0  0  0
 31 32  1  0  0  0
 12 13  2  0  0  0
 13 14  1  0  0  0
 19 20  1  0  0  0
 20 21  2  0  0  0
 21 22  1  0  0  0
 22 23  2  0  0  0
 23 24  1  0  0  0
 24 25  2  0  0  0
 13  5  1  0  0  0
 25 20  1  0  0  0
 31 26  1  0  0  0
 39 34  1  0  0  0
 43 40  1  0  0  0
  3  4  1  0  0  0
M  END
> <minimizedAffinity>
-8.35239

> <CNNscore>
0.3947522342

> <CNNaffinity>
7.2432503700

> <CNN_VS>
2.8592891693

> <CNNaffinity_variance>
0.1891805977

$$$$
[H]c1c([H])c([H])c(N(C(=O)C([H])([H])[H])C([H])([H])c2c(F)c(F)c(Cl)c(C(=O)N([H])c3c([H])c([H])c(C([H])([H])N4C([H])([H])C([H])([H])N(C5([H])C([H])([H])OC5([H])[H])C([H])([H])C4([H])[H])c([H])c3Cl)c2F)c([H])c1[H]


 43 47  0  0  0  0  0  0  0  0999 V2000
   -3.5297   21.7770  -23.7472 C   0  0  0  0  0  0  0  0  0  0  0  0
   -3.9372   20.5725  -23.7018 O   0  0  0  0  0  0  0  0  0  0  0  0
   -3.6111   22.5618  -22.6005 N   0  0  0  0  0  0  0  0  0  0  0  0
   -3.2249   23.5582  -22.6265 H   0  0  0  0  0  0  0  0  0  0  0  0
   -3.6064   22.8995  -27.3199 C   0  0  0  0  0  0  0  0  0  0  0  0
   -2.2390   22.9412  -27.6190 C   0  0  0  0  0  0  0  0  0  0  0  0
   -1.8330   23.2997  -28.8736 F   0  0  0  0  0  0  0  0  0  0  0  0
   -1.3394   22.6302  -26.6736 C   0  0  0  0  0  0  0  0  0  0  0  0
    0.0002   22.6687  -26.9617 F   0  0  0  0  0  0  0  0  0  0  0  0
   -1.6994   22.2602  -25.3832 C   0  0  0  0  0  0  0  0  0  0  0  0
   -0.4048   21.9576  -24.2299 Cl  0  0  0  0  0  0  0  0  0  0  0  0
   -3.0031   22.2012  -25.0412 C   0  0  0  0  0  0  0  0  0  0  0  0
   -3.9426   22.5358  -26.0578 C   0  0  0  0  0  0  0  0  0  0  0  0
   -5.2416   22.4798  -25.6732 F   0  0  0  0  0  0  0  0  0  0  0  0
   -4.4974   23.2885  -28.4051 C   0  0  0  0  0  0  0  0  0  0  0  0
   -5.6507   24.3647  -30.8779 C   0  0  0  0  0  0  0  0  0  0  0  0
   -5.7710   25.0714  -29.5684 C   0  0  0  0  0  0  0  0  0  0  0  0
   -6.3996   26.1441  -29.5547 O   0  0  0  0  0  0  0  0  0  0  0  0
   -5.1875   24.5305  -28.3802 N   0  0  0  0  0  0  0  0  0  0  0  0
   -5.4234   25.2762  -27.1663 C   0  0  0  0  0  0  0  0  0  0  0  0
   -6.5875   25.0185  -26.4565 C   0  0  0  0  0  0  0  0  0  0  0  0
   -6.8540   25.7330  -25.3085 C   0  0  0  0  0  0  0  0  0  0  0  0
   -5.9860   26.7041  -24.8445 C   0  0  0  0  0  0  0  0  0  0  0  0
   -4.8353   26.9619  -25.5417 C   0  0  0  0  0  0  0  0  0  0  0  0
   -4.5812   26.2282  -26.7038 C   0  0  0  0  0  0  0  0  0  0  0  0
   -4.1146   22.1757  -21.3407 C   0  0  0  0  0  0  0  0  0  0  0  0
   -3.3792   21.6350  -20.3276 C   0  0  0  0  0  0  0  0  0  0  0  0
   -3.9464   21.2989  -19.0827 C   0  0  0  0  0  0  0  0  0  0  0  0
   -5.2914   21.5122  -18.8484 C   0  0  0  0  0  0  0  0  0  0  0  0
   -6.0213   22.0525  -19.8633 C   0  0  0  0  0  0  0  0  0  0  0  0
   -5.4789   22.3849  -21.0814 C   0  0  0  0  0  0  0  0  0  0  0  0
   -6.5446   23.0860  -22.3129 Cl  0  0  0  0  0  0  0  0  0  0  0  0
   -5.8931   21.1569  -17.5461 C   0  0  0  0  0  0  0  0  0  0  0  0
   -5.8120   19.7463  -17.2653 N   0  0  0  0  0  0  0  0  0  0  0  0
   -6.6573   19.0616  -18.2447 C   0  0  0  0  0  0  0  0  0  0  0  0
   -8.1290   19.2874  -17.9977 C   0  0  0  0  0  0  0  0  0  0  0  0
   -8.4266   18.7797  -16.6648 N   0  0  0  0  0  0  0  0  0  0  0  0
   -7.7425   19.6144  -15.7340 C   0  0  0  0  0  0  0  0  0  0  0  0
   -6.2417   19.3951  -15.9203 C   0  0  0  0  0  0  0  0  0  0  0  0
   -9.8395   18.6353  -16.4570 C   0  0  0  0  0  0  0  0  0  0  0  0
  -10.2326   17.8926  -15.2351 C   0  0  0  0  0  0  0  0  0  0  0  0
  -11.3471   18.7570  -15.1384 O   0  0  0  0  0  0  0  0  0  0  0  0
  -10.5472   19.7428  -15.7601 C   0  0  0  0  0  0  0  0  0  0  0  0
 16 17  1  0  0  0
 17 18  2  0  0  0
 17 19  1  0  0  0
 19 15  1  0  0  0
 15  5  1  0  0  0
  5  6  2  0  0  0
  6  7  1  0  0  0
  6  8  1  0  0  0
  8  9  1  0  0  0
  8 10  2  0  0  0
 10 11  1  0  0  0
 10 12  1  0  0  0
 12  1  1  0  0  0
  1  2  2  0  0  0
  1  3  1  0  0  0
  3 26  1  0  0  0
 26 27  2  0  0  0
 27 28  1  0  0  0
 28 29  2  0  0  0
 29 33  1  0  0  0
 33 34  1  0  0  0
 34 35  1  0  0  0
 35 36  1  0  0  0
 36 37  1  0  0  0
 37 38  1  0  0  0
 38 39  1  0  0  0
 37 40  1  0  0  0
 40 41  1  0  0  0
 41 42  1  0  0  0
 42 43  1  0  0  0
 29 30  1  0  0  0
 30 31  2  0  0  0
 31 32  1  0  0  0
 12 13  2  0  0  0
 13 14  1  0  0  0
 19 20  1  0  0  0
 20 21  2  0  0  0
 21 22  1  0  0  0
 22 23  2  0  0  0
 23 24  1  0  0  0
 24 25  2  0  0  0
 13  5  1  0  0  0
 25 20  1  0  0  0
 31 26  1  0  0  0
 39 34  1  0  0  0
 43 40  1  0  0  0
  3  4  1  0  0  0
M  END
> <minimizedAffinity>
-9.24743

> <CNNscore>
0.3906390667

> <CNNaffinity>
7.4646520615

> <CNN_VS>
2.9159846306

> <CNNaffinity_variance>
0.1600192636

$$$$
[H]c1c([H])c([H])c(N(C(=O)C([H])([H])[H])C([H])([H])c2c(F)c(F)c(Cl)c(C(=O)N([H])c3c([H])c([H])c(C([H])([H])N4C([H])([H])C([H])([H])N(C5([H])C([H])([H])OC5([H])[H])C([H])([H])C4([H])[H])c([H])c3Cl)c2F)c([H])c1[H]


 43 47  0  0  0  0  0  0  0  0999 V2000
   -2.2721   22.2521  -23.7569 C   0  0  0  0  0  0  0  0  0  0  0  0
   -2.2134   21.0216  -23.4387 O   0  0  0  0  0  0  0  0  0  0  0  0
   -2.4235   23.2036  -22.7523 N   0  0  0  0  0  0  0  0  0  0  0  0
   -2.4248   24.2395  -23.0162 H   0  0  0  0  0  0  0  0  0  0  0  0
   -3.4342   22.8974  -27.2588 C   0  0  0  0  0  0  0  0  0  0  0  0
   -2.2133   22.9529  -27.9423 C   0  0  0  0  0  0  0  0  0  0  0  0
   -2.2046   23.1609  -29.2929 F   0  0  0  0  0  0  0  0  0  0  0  0
   -1.0634   22.8024  -27.2677 C   0  0  0  0  0  0  0  0  0  0  0  0
    0.1342   22.8550  -27.9325 F   0  0  0  0  0  0  0  0  0  0  0  0
   -1.0173   22.5893  -25.8951 C   0  0  0  0  0  0  0  0  0  0  0  0
    0.5684   22.4894  -25.1378 Cl  0  0  0  0  0  0  0  0  0  0  0  0
   -2.1638   22.5248  -25.1872 C   0  0  0  0  0  0  0  0  0  0  0  0
   -3.3736   22.6879  -25.9206 C   0  0  0  0  0  0  0  0  0  0  0  0
   -4.5041   22.6320  -25.1739 F   0  0  0  0  0  0  0  0  0  0  0  0
   -4.6209   23.1074  -28.0776 C   0  0  0  0  0  0  0  0  0  0  0  0
   -5.5778   24.1482  -30.6475 C   0  0  0  0  0  0  0  0  0  0  0  0
   -5.7500   24.8995  -29.3689 C   0  0  0  0  0  0  0  0  0  0  0  0
   -6.3356   25.9948  -29.4254 O   0  0  0  0  0  0  0  0  0  0  0  0
   -5.2619   24.3745  -28.1316 N   0  0  0  0  0  0  0  0  0  0  0  0
   -5.5420   25.1661  -26.9568 C   0  0  0  0  0  0  0  0  0  0  0  0
   -4.6492   26.1731  -26.6188 C   0  0  0  0  0  0  0  0  0  0  0  0
   -4.8748   26.9281  -25.4881 C   0  0  0  0  0  0  0  0  0  0  0  0
   -5.9740   26.7063  -24.6791 C   0  0  0  0  0  0  0  0  0  0  0  0
   -6.8584   25.7135  -25.0089 C   0  0  0  0  0  0  0  0  0  0  0  0
   -6.6139   24.9574  -26.1587 C   0  0  0  0  0  0  0  0  0  0  0  0
   -2.5298   22.9659  -21.3661 C   0  0  0  0  0  0  0  0  0  0  0  0
   -1.4843   22.8991  -20.4931 C   0  0  0  0  0  0  0  0  0  0  0  0
   -1.6690   22.6858  -19.1130 C   0  0  0  0  0  0  0  0  0  0  0  0
   -2.9410   22.5352  -18.5943 C   0  0  0  0  0  0  0  0  0  0  0  0
   -3.9816   22.6029  -19.4703 C   0  0  0  0  0  0  0  0  0  0  0  0
   -3.8137   22.8111  -20.8182 C   0  0  0  0  0  0  0  0  0  0  0  0
   -5.2581   22.8820  -21.8441 Cl  0  0  0  0  0  0  0  0  0  0  0  0
   -3.1407   22.3061  -17.1480 C   0  0  0  0  0  0  0  0  0  0  0  0
   -2.5851   21.0534  -16.7040 N   0  0  0  0  0  0  0  0  0  0  0  0
   -3.4117   19.9882  -17.2738 C   0  0  0  0  0  0  0  0  0  0  0  0
   -4.7744   19.9059  -16.6302 C   0  0  0  0  0  0  0  0  0  0  0  0
   -4.5676   19.6494  -15.2110 N   0  0  0  0  0  0  0  0  0  0  0  0
   -3.9456   20.8074  -14.6602 C   0  0  0  0  0  0  0  0  0  0  0  0
   -2.5427   20.9161  -15.2562 C   0  0  0  0  0  0  0  0  0  0  0  0
   -5.7782   19.2224  -14.5687 C   0  0  0  0  0  0  0  0  0  0  0  0
   -6.8550   20.2394  -14.4951 C   0  0  0  0  0  0  0  0  0  0  0  0
   -7.7825   19.1845  -14.6557 O   0  0  0  0  0  0  0  0  0  0  0  0
   -6.7865   18.5172  -15.4046 C   0  0  0  0  0  0  0  0  0  0  0  0
 16 17  1  0  0  0
 17 18  2  0  0  0
 17 19  1  0  0  0
 19 15  1  0  0  0
 15  5  1  0  0  0
  5  6  2  0  0  0
  6  7  1  0  0  0
  6  8  1  0  0  0
  8  9  1  0  0  0
  8 10  2  0  0  0
 10 11  1  0  0  0
 10 12  1  0  0  0
 12  1  1  0  0  0
  1  2  2  0  0  0
  1  3  1  0  0  0
  3 26  1  0  0  0
 26 27  2  0  0  0
 27 28  1  0  0  0
 28 29  2  0  0  0
 29 33  1  0  0  0
 33 34  1  0  0  0
 34 35  1  0  0  0
 35 36  1  0  0  0
 36 37  1  0  0  0
 37 38  1  0  0  0
 38 39  1  0  0  0
 37 40  1  0  0  0
 40 41  1  0  0  0
 41 42  1  0  0  0
 42 43  1  0  0  0
 29 30  1  0  0  0
 30 31  2  0  0  0
 31 32  1  0  0  0
 12 13  2  0  0  0
 13 14  1  0  0  0
 19 20  1  0  0  0
 20 21  2  0  0  0
 21 22  1  0  0  0
 22 23  2  0  0  0
 23 24  1  0  0  0
 24 25  2  0  0  0
 13  5  1  0  0  0
 25 20  1  0  0  0
 31 26  1  0  0  0
 39 34  1  0  0  0
 43 40  1  0  0  0
  3  4  1  0  0  0
M  END
> <minimizedAffinity>
-8.92397

> <CNNscore>
0.3711981475

> <CNNaffinity>
7.5396132469

> <CNN_VS>
2.7986905575

> <CNNaffinity_variance>
0.0768684670

$$$$
[H]c1c([H])c([H])c(N(C(=O)C([H])([H])[H])C([H])([H])c2c(F)c(F)c(Cl)c(C(=O)N([H])c3c([H])c([H])c(C([H])([H])N4C([H])([H])C([H])([H])N(C5([H])C([H])([H])OC5([H])[H])C([H])([H])C4([H])[H])c([H])c3Cl)c2F)c([H])c1[H]


 43 47  0  0  0  0  0  0  0  0999 V2000
   -2.6940   22.1562  -23.6869 C   0  0  0  0  0  0  0  0  0  0  0  0
   -2.6652   20.9186  -23.3927 O   0  0  0  0  0  0  0  0  0  0  0  0
   -2.9746   23.0824  -22.6864 N   0  0  0  0  0  0  0  0  0  0  0  0
   -2.9517   24.1243  -22.9242 H   0  0  0  0  0  0  0  0  0  0  0  0
   -3.4251   22.9179  -27.2806 C   0  0  0  0  0  0  0  0  0  0  0  0
   -2.1315   22.9650  -27.8150 C   0  0  0  0  0  0  0  0  0  0  0  0
   -1.9606   23.2081  -29.1488 F   0  0  0  0  0  0  0  0  0  0  0  0
   -1.0718   22.7722  -27.0152 C   0  0  0  0  0  0  0  0  0  0  0  0
    0.1964   22.8164  -27.5337 F   0  0  0  0  0  0  0  0  0  0  0  0
   -1.1910   22.5223  -25.6533 C   0  0  0  0  0  0  0  0  0  0  0  0
    0.2927   22.3685  -24.7190 Cl  0  0  0  0  0  0  0  0  0  0  0  0
   -2.4137   22.4639  -25.0863 C   0  0  0  0  0  0  0  0  0  0  0  0
   -3.5258   22.6721  -25.9511 C   0  0  0  0  0  0  0  0  0  0  0  0
   -4.7369   22.6210  -25.3435 F   0  0  0  0  0  0  0  0  0  0  0  0
   -4.5034   23.1748  -28.2261 C   0  0  0  0  0  0  0  0  0  0  0  0
   -5.5815   24.2037  -30.7525 C   0  0  0  0  0  0  0  0  0  0  0  0
   -5.7265   24.9430  -29.4636 C   0  0  0  0  0  0  0  0  0  0  0  0
   -6.3427   26.0226  -29.4914 O   0  0  0  0  0  0  0  0  0  0  0  0
   -5.1793   24.4245  -28.2484 N   0  0  0  0  0  0  0  0  0  0  0  0
   -5.4370   25.2019  -27.0591 C   0  0  0  0  0  0  0  0  0  0  0  0
   -6.5926   24.9327  -26.3397 C   0  0  0  0  0  0  0  0  0  0  0  0
   -6.8800   25.6759  -25.2152 C   0  0  0  0  0  0  0  0  0  0  0  0
   -6.0412   26.6870  -24.7840 C   0  0  0  0  0  0  0  0  0  0  0  0
   -4.8989   26.9562  -25.4907 C   0  0  0  0  0  0  0  0  0  0  0  0
   -4.6234   26.1930  -26.6287 C   0  0  0  0  0  0  0  0  0  0  0  0
   -3.2479   22.8107  -21.3295 C   0  0  0  0  0  0  0  0  0  0  0  0
   -2.3111   22.6341  -20.3545 C   0  0  0  0  0  0  0  0  0  0  0  0
   -2.6596   22.3931  -19.0111 C   0  0  0  0  0  0  0  0  0  0  0  0
   -3.9879   22.3278  -18.6358 C   0  0  0  0  0  0  0  0  0  0  0  0
   -4.9195   22.5050  -19.6132 C   0  0  0  0  0  0  0  0  0  0  0  0
   -4.5915   22.7413  -20.9266 C   0  0  0  0  0  0  0  0  0  0  0  0
   -5.9069   22.9584  -22.0956 Cl  0  0  0  0  0  0  0  0  0  0  0  0
   -4.3597   22.0703  -17.2288 C   0  0  0  0  0  0  0  0  0  0  0  0
   -3.9380   23.1250  -16.3429 N   0  0  0  0  0  0  0  0  0  0  0  0
   -3.9053   22.5659  -14.9905 C   0  0  0  0  0  0  0  0  0  0  0  0
   -5.2855   22.3047  -14.4384 C   0  0  0  0  0  0  0  0  0  0  0  0
   -5.9909   23.5793  -14.4167 N   0  0  0  0  0  0  0  0  0  0  0  0
   -6.1819   23.9779  -15.7716 C   0  0  0  0  0  0  0  0  0  0  0  0
   -4.8099   24.2895  -16.3681 C   0  0  0  0  0  0  0  0  0  0  0  0
   -7.1758   23.5145  -13.6092 C   0  0  0  0  0  0  0  0  0  0  0  0
   -7.9874   24.7550  -13.5655 C   0  0  0  0  0  0  0  0  0  0  0  0
   -9.1351   23.9324  -13.4951 O   0  0  0  0  0  0  0  0  0  0  0  0
   -8.4096   22.9772  -14.2431 C   0  0  0  0  0  0  0  0  0  0  0  0
 16 17  1  0  0  0
 17 18  2  0  0  0
 17 19  1  0  0  0
 19 15  1  0  0  0
 15  5  1  0  0  0
  5  6  2  0  0  0
  6  7  1  0  0  0
  6  8  1  0  0  0
  8  9  1  0  0  0
  8 10  2  0  0  0
 10 11  1  0  0  0
 10 12  1  0  0  0
 12  1  1  0  0  0
  1  2  2  0  0  0
  1  3  1  0  0  0
  3 26  1  0  0  0
 26 27  2  0  0  0
 27 28  1  0  0  0
 28 29  2  0  0  0
 29 33  1  0  0  0
 33 34  1  0  0  0
 34 35  1  0  0  0
 35 36  1  0  0  0
 36 37  1  0  0  0
 37 38  1  0  0  0
 38 39  1  0  0  0
 37 40  1  0  0  0
 40 41  1  0  0  0
 41 42  1  0  0  0
 42 43  1  0  0  0
 29 30  1  0  0  0
 30 31  2  0  0  0
 31 32  1  0  0  0
 12 13  2  0  0  0
 13 14  1  0  0  0
 19 20  1  0  0  0
 20 21  2  0  0  0
 21 22  1  0  0  0
 22 23  2  0  0  0
 23 24  1  0  0  0
 24 25  2  0  0  0
 13  5  1  0  0  0
 25 20  1  0  0  0
 31 26  1  0  0  0
 39 34  1  0  0  0
 43 40  1  0  0  0
  3  4  1  0  0  0
M  END
> <minimizedAffinity>
-9.56434

> <CNNscore>
0.3591838479

> <CNNaffinity>
7.4861679077

> <CNN_VS>
2.6889104843

> <CNNaffinity_variance>
0.0951737016

$$$$
[H]c1c([H])c([H])c(N(C(=O)C([H])([H])[H])C([H])([H])c2c(F)c(F)c(Cl)c(C(=O)N([H])c3c([H])c([H])c(C([H])([H])N4C([H])([H])C([H])([H])N(C5([H])C([H])([H])OC5([H])[H])C([H])([H])C4([H])[H])c([H])c3Cl)c2F)c([H])c1[H]


 43 47  0  0  0  0  0  0  0  0999 V2000
   -6.3860   22.1564  -23.7378 C   0  0  0  0  0  0  0  0  0  0  0  0
   -6.9033   21.0143  -23.9541 O   0  0  0  0  0  0  0  0  0  0  0  0
   -6.4755   22.7085  -22.4632 N   0  0  0  0  0  0  0  0  0  0  0  0
   -5.9996   23.6461  -22.2704 H   0  0  0  0  0  0  0  0  0  0  0  0
   -3.7296   22.7287  -26.3157 C   0  0  0  0  0  0  0  0  0  0  0  0
   -4.2543   23.8295  -27.0041 C   0  0  0  0  0  0  0  0  0  0  0  0
   -3.5525   24.3732  -28.0429 F   0  0  0  0  0  0  0  0  0  0  0  0
   -5.4399   24.3410  -26.6398 C   0  0  0  0  0  0  0  0  0  0  0  0
   -5.9573   25.4191  -27.3099 F   0  0  0  0  0  0  0  0  0  0  0  0
   -6.1931   23.8255  -25.5917 C   0  0  0  0  0  0  0  0  0  0  0  0
   -7.7656   24.5529  -25.2820 Cl  0  0  0  0  0  0  0  0  0  0  0  0
   -5.7342   22.7667  -24.8929 C   0  0  0  0  0  0  0  0  0  0  0  0
   -4.4748   22.2373  -25.2951 C   0  0  0  0  0  0  0  0  0  0  0  0
   -4.0532   21.1653  -24.5800 F   0  0  0  0  0  0  0  0  0  0  0  0
   -2.4542   22.2289  -26.8122 C   0  0  0  0  0  0  0  0  0  0  0  0
   -0.1092   23.0830  -28.3532 C   0  0  0  0  0  0  0  0  0  0  0  0
   -0.0830   22.9558  -26.8659 C   0  0  0  0  0  0  0  0  0  0  0  0
    0.9797   23.2424  -26.2876 O   0  0  0  0  0  0  0  0  0  0  0  0
   -1.2373   22.5243  -26.1405 N   0  0  0  0  0  0  0  0  0  0  0  0
   -1.1050   22.4988  -24.7028 C   0  0  0  0  0  0  0  0  0  0  0  0
   -0.4759   21.4061  -24.1234 C   0  0  0  0  0  0  0  0  0  0  0  0
   -0.3583   21.3398  -22.7519 C   0  0  0  0  0  0  0  0  0  0  0  0
   -0.8535   22.3399  -21.9355 C   0  0  0  0  0  0  0  0  0  0  0  0
   -1.4752   23.4208  -22.5029 C   0  0  0  0  0  0  0  0  0  0  0  0
   -1.5859   23.4714  -23.8952 C   0  0  0  0  0  0  0  0  0  0  0  0
   -7.0985   22.1396  -21.3327 C   0  0  0  0  0  0  0  0  0  0  0  0
   -8.4373   22.1597  -21.0741 C   0  0  0  0  0  0  0  0  0  0  0  0
   -8.9928   21.5443  -19.9353 C   0  0  0  0  0  0  0  0  0  0  0  0
   -8.1801   20.8893  -19.0297 C   0  0  0  0  0  0  0  0  0  0  0  0
   -6.8439   20.8719  -19.2927 C   0  0  0  0  0  0  0  0  0  0  0  0
   -6.2908   21.4681  -20.4004 C   0  0  0  0  0  0  0  0  0  0  0  0
   -4.5347   21.3646  -20.6220 Cl  0  0  0  0  0  0  0  0  0  0  0  0
   -8.7566   20.2461  -17.8305 C   0  0  0  0  0  0  0  0  0  0  0  0
   -9.7896   21.0417  -17.2181 N   0  0  0  0  0  0  0  0  0  0  0  0
   -9.5364   21.0429  -15.7764 C   0  0  0  0  0  0  0  0  0  0  0  0
   -9.8287   19.7077  -15.1362 C   0  0  0  0  0  0  0  0  0  0  0  0
  -11.2341   19.4102  -15.3790 N   0  0  0  0  0  0  0  0  0  0  0  0
  -11.3860   19.2114  -16.7821 C   0  0  0  0  0  0  0  0  0  0  0  0
  -11.1339   20.5490  -17.4766 C   0  0  0  0  0  0  0  0  0  0  0  0
  -11.7016   18.3432  -14.5404 C   0  0  0  0  0  0  0  0  0  0  0  0
  -11.3642   16.9745  -15.0008 C   0  0  0  0  0  0  0  0  0  0  0  0
  -11.2380   16.6107  -13.6405 O   0  0  0  0  0  0  0  0  0  0  0  0
  -10.8418   17.9450  -13.3936 C   0  0  0  0  0  0  0  0  0  0  0  0
 16 17  1  0  0  0
 17 18  2  0  0  0
 17 19  1  0  0  0
 19 15  1  0  0  0
 15  5  1  0  0  0
  5  6  2  0  0  0
  6  7  1  0  0  0
  6  8  1  0  0  0
  8  9  1  0  0  0
  8 10  2  0  0  0
 10 11  1  0  0  0
 10 12  1  0  0  0
 12  1  1  0  0  0
  1  2  2  0  0  0
  1  3  1  0  0  0
  3 26  1  0  0  0
 26 27  2  0  0  0
 27 28  1  0  0  0
 28 29  2  0  0  0
 29 33  1  0  0  0
 33 34  1  0  0  0
 34 35  1  0  0  0
 35 36  1  0  0  0
 36 37  1  0  0  0
 37 38  1  0  0  0
 38 39  1  0  0  0
 37 40  1  0  0  0
 40 41  1  0  0  0
 41 42  1  0  0  0
 42 43  1  0  0  0
 29 30  1  0  0  0
 30 31  2  0  0  0
 31 32  1  0  0  0
 12 13  2  0  0  0
 13 14  1  0  0  0
 19 20  1  0  0  0
 20 21  2  0  0  0
 21 22  1  0  0  0
 22 23  2  0  0  0
 23 24  1  0  0  0
 24 25  2  0  0  0
 13  5  1  0  0  0
 25 20  1  0  0  0
 31 26  1  0  0  0
 39 34  1  0  0  0
 43 40  1  0  0  0
  3  4  1  0  0  0
M  END
> <minimizedAffinity>
-8.63351

> <CNNscore>
0.3520783782

> <CNNaffinity>
6.9764671326

> <CNN_VS>
2.4562633038

> <CNNaffinity_variance>
0.0445897654

$$$$
[H]c1c([H])c([H])c(N(C(=O)C([H])([H])[H])C([H])([H])c2c(F)c(F)c(Cl)c(C(=O)N([H])c3c([H])c([H])c(C([H])([H])N4C([H])([H])C([H])([H])N(C5([H])C([H])([H])OC5([H])[H])C([H])([H])C4([H])[H])c([H])c3Cl)c2F)c([H])c1[H]


 43 47  0  0  0  0  0  0  0  0999 V2000
   -2.2564   22.2385  -23.7332 C   0  0  0  0  0  0  0  0  0  0  0  0
   -2.2561   21.0058  -23.4180 O   0  0  0  0  0  0  0  0  0  0  0  0
   -2.3403   23.1940  -22.7245 N   0  0  0  0  0  0  0  0  0  0  0  0
   -2.2925   24.2292  -22.9866 H   0  0  0  0  0  0  0  0  0  0  0  0
   -3.4467   22.8844  -27.2255 C   0  0  0  0  0  0  0  0  0  0  0  0
   -2.2316   22.9336  -27.9199 C   0  0  0  0  0  0  0  0  0  0  0  0
   -2.2340   23.1398  -29.2707 F   0  0  0  0  0  0  0  0  0  0  0  0
   -1.0765   22.7789  -27.2552 C   0  0  0  0  0  0  0  0  0  0  0  0
    0.1155   22.8254  -27.9306 F   0  0  0  0  0  0  0  0  0  0  0  0
   -1.0191   22.5675  -25.8828 C   0  0  0  0  0  0  0  0  0  0  0  0
    0.5727   22.4616  -25.1394 Cl  0  0  0  0  0  0  0  0  0  0  0  0
   -2.1597   22.5088  -25.1647 C   0  0  0  0  0  0  0  0  0  0  0  0
   -3.3752   22.6763  -25.8876 C   0  0  0  0  0  0  0  0  0  0  0  0
   -4.4992   22.6264  -25.1308 F   0  0  0  0  0  0  0  0  0  0  0  0
   -4.6397   23.0985  -28.0340 C   0  0  0  0  0  0  0  0  0  0  0  0
   -5.5752   24.1195  -30.6197 C   0  0  0  0  0  0  0  0  0  0  0  0
   -5.7364   24.8913  -29.3519 C   0  0  0  0  0  0  0  0  0  0  0  0
   -6.3033   25.9955  -29.4245 O   0  0  0  0  0  0  0  0  0  0  0  0
   -5.2590   24.3754  -28.1066 N   0  0  0  0  0  0  0  0  0  0  0  0
   -5.5273   25.1878  -26.9434 C   0  0  0  0  0  0  0  0  0  0  0  0
   -4.6243   26.1922  -26.6250 C   0  0  0  0  0  0  0  0  0  0  0  0
   -4.8386   26.9669  -25.5055 C   0  0  0  0  0  0  0  0  0  0  0  0
   -5.9362   26.7675  -24.6886 C   0  0  0  0  0  0  0  0  0  0  0  0
   -6.8307   25.7773  -24.9991 C   0  0  0  0  0  0  0  0  0  0  0  0
   -6.5976   25.0011  -26.1377 C   0  0  0  0  0  0  0  0  0  0  0  0
   -2.4341   22.9586  -21.3369 C   0  0  0  0  0  0  0  0  0  0  0  0
   -1.3857   22.9445  -20.4649 C   0  0  0  0  0  0  0  0  0  0  0  0
   -1.5590   22.7298  -19.0836 C   0  0  0  0  0  0  0  0  0  0  0  0
   -2.8221   22.5233  -18.5625 C   0  0  0  0  0  0  0  0  0  0  0  0
   -3.8656   22.5386  -19.4375 C   0  0  0  0  0  0  0  0  0  0  0  0
   -3.7088   22.7476  -20.7866 C   0  0  0  0  0  0  0  0  0  0  0  0
   -5.1560   22.7467  -21.8111 Cl  0  0  0  0  0  0  0  0  0  0  0  0
   -3.0095   22.2925  -17.1149 C   0  0  0  0  0  0  0  0  0  0  0  0
   -4.2868   21.7007  -16.8095 N   0  0  0  0  0  0  0  0  0  0  0  0
   -5.1619   22.7779  -16.3442 C   0  0  0  0  0  0  0  0  0  0  0  0
   -4.7800   23.2831  -14.9742 C   0  0  0  0  0  0  0  0  0  0  0  0
   -4.8728   22.1556  -14.0561 N   0  0  0  0  0  0  0  0  0  0  0  0
   -3.8572   21.2268  -14.4263 C   0  0  0  0  0  0  0  0  0  0  0  0
   -4.2177   20.6574  -15.7977 C   0  0  0  0  0  0  0  0  0  0  0  0
   -4.8602   22.5859  -12.6869 C   0  0  0  0  0  0  0  0  0  0  0  0
   -3.5169   22.8154  -12.1020 C   0  0  0  0  0  0  0  0  0  0  0  0
   -4.0865   23.8721  -11.3552 O   0  0  0  0  0  0  0  0  0  0  0  0
   -4.9949   24.0439  -12.4246 C   0  0  0  0  0  0  0  0  0  0  0  0
 16 17  1  0  0  0
 17 18  2  0  0  0
 17 19  1  0  0  0
 19 15  1  0  0  0
 15  5  1  0  0  0
  5  6  2  0  0  0
  6  7  1  0  0  0
  6  8  1  0  0  0
  8  9  1  0  0  0
  8 10  2  0  0  0
 10 11  1  0  0  0
 10 12  1  0  0  0
 12  1  1  0  0  0
  1  2  2  0  0  0
  1  3  1  0  0  0
  3 26  1  0  0  0
 26 27  2  0  0  0
 27 28  1  0  0  0
 28 29  2  0  0  0
 29 33  1  0  0  0
 33 34  1  0  0  0
 34 35  1  0  0  0
 35 36  1  0  0  0
 36 37  1  0  0  0
 37 38  1  0  0  0
 38 39  1  0  0  0
 37 40  1  0  0  0
 40 41  1  0  0  0
 41 42  1  0  0  0
 42 43  1  0  0  0
 29 30  1  0  0  0
 30 31  2  0  0  0
 31 32  1  0  0  0
 12 13  2  0  0  0
 13 14  1  0  0  0
 19 20  1  0  0  0
 20 21  2  0  0  0
 21 22  1  0  0  0
 22 23  2  0  0  0
 23 24  1  0  0  0
 24 25  2  0  0  0
 13  5  1  0  0  0
 25 20  1  0  0  0
 31 26  1  0  0  0
 39 34  1  0  0  0
 43 40  1  0  0  0
  3  4  1  0  0  0
M  END
> <minimizedAffinity>
-9.37027

> <CNNscore>
0.3292583823

> <CNNaffinity>
7.4440231323

> <CNN_VS>
2.4510071278

> <CNNaffinity_variance>
0.0732908696

$$$$
[H]c1c([H])c([H])c(N(C(=O)C([H])([H])[H])C([H])([H])c2c(F)c(F)c(Cl)c(C(=O)N([H])c3c([H])c([H])c(C([H])([H])N4C([H])([H])C([H])([H])N(C5([H])C([H])([H])OC5([H])[H])C([H])([H])C4([H])[H])c([H])c3Cl)c2F)c([H])c1[H]


 43 47  0  0  0  0  0  0  0  0999 V2000
   -1.4825   22.6800  -22.9570 C   0  0  0  0  0  0  0  0  0  0  0  0
   -1.3095   23.8534  -22.4966 O   0  0  0  0  0  0  0  0  0  0  0  0
   -1.5023   21.6038  -22.0744 N   0  0  0  0  0  0  0  0  0  0  0  0
   -1.6950   20.6242  -22.4565 H   0  0  0  0  0  0  0  0  0  0  0  0
   -3.2928   22.5841  -26.2347 C   0  0  0  0  0  0  0  0  0  0  0  0
   -2.2299   22.3849  -27.1243 C   0  0  0  0  0  0  0  0  0  0  0  0
   -2.4816   22.2729  -28.4627 F   0  0  0  0  0  0  0  0  0  0  0  0
   -0.9746   22.3063  -26.6572 C   0  0  0  0  0  0  0  0  0  0  0  0
    0.0692   22.1105  -27.5239 F   0  0  0  0  0  0  0  0  0  0  0  0
   -0.6649   22.4143  -25.3066 C   0  0  0  0  0  0  0  0  0  0  0  0
    1.0352   22.3701  -24.8534 Cl  0  0  0  0  0  0  0  0  0  0  0  0
   -1.6505   22.6045  -24.4053 C   0  0  0  0  0  0  0  0  0  0  0  0
   -2.9756   22.6864  -24.9204 C   0  0  0  0  0  0  0  0  0  0  0  0
   -3.9375   22.8928  -23.9873 F   0  0  0  0  0  0  0  0  0  0  0  0
   -4.6108   22.6899  -26.8467 C   0  0  0  0  0  0  0  0  0  0  0  0
   -5.4637   23.0303  -29.6324 C   0  0  0  0  0  0  0  0  0  0  0  0
   -5.5569   24.1323  -28.6295 C   0  0  0  0  0  0  0  0  0  0  0  0
   -6.0296   25.2158  -29.0148 O   0  0  0  0  0  0  0  0  0  0  0  0
   -5.1213   23.9430  -27.2807 N   0  0  0  0  0  0  0  0  0  0  0  0
   -5.3180   25.0638  -26.3917 C   0  0  0  0  0  0  0  0  0  0  0  0
   -6.4584   25.0791  -25.6013 C   0  0  0  0  0  0  0  0  0  0  0  0
   -6.6878   26.1482  -24.7625 C   0  0  0  0  0  0  0  0  0  0  0  0
   -5.8056   27.2103  -24.6883 C   0  0  0  0  0  0  0  0  0  0  0  0
   -4.6782   27.1996  -25.4665 C   0  0  0  0  0  0  0  0  0  0  0  0
   -4.4615   26.1076  -26.3115 C   0  0  0  0  0  0  0  0  0  0  0  0
   -1.3430   21.6507  -20.6737 C   0  0  0  0  0  0  0  0  0  0  0  0
   -1.8992   22.5806  -19.8456 C   0  0  0  0  0  0  0  0  0  0  0  0
   -1.7187   22.5480  -18.4490 C   0  0  0  0  0  0  0  0  0  0  0  0
   -0.9576   21.5524  -17.8668 C   0  0  0  0  0  0  0  0  0  0  0  0
   -0.4046   20.6262  -18.6981 C   0  0  0  0  0  0  0  0  0  0  0  0
   -0.5741   20.6475  -20.0616 C   0  0  0  0  0  0  0  0  0  0  0  0
    0.1996   19.3756  -21.0247 Cl  0  0  0  0  0  0  0  0  0  0  0  0
   -0.7606   21.5160  -16.4025 C   0  0  0  0  0  0  0  0  0  0  0  0
    0.3918   20.7419  -16.0180 N   0  0  0  0  0  0  0  0  0  0  0  0
    0.3586   20.6127  -14.5603 C   0  0  0  0  0  0  0  0  0  0  0  0
    0.6755   21.9098  -13.8568 C   0  0  0  0  0  0  0  0  0  0  0  0
    2.0115   22.3134  -14.2751 N   0  0  0  0  0  0  0  0  0  0  0  0
    1.9404   22.6299  -15.6629 C   0  0  0  0  0  0  0  0  0  0  0  0
    1.6551   21.3370  -16.4261 C   0  0  0  0  0  0  0  0  0  0  0  0
    2.5448   23.3393  -13.4246 C   0  0  0  0  0  0  0  0  0  0  0  0
    1.7566   23.6291  -12.2022 C   0  0  0  0  0  0  0  0  0  0  0  0
    2.9816   23.8774  -11.5415 O   0  0  0  0  0  0  0  0  0  0  0  0
    3.5650   22.9361  -12.4199 C   0  0  0  0  0  0  0  0  0  0  0  0
 16 17  1  0  0  0
 17 18  2  0  0  0
 17 19  1  0  0  0
 19 15  1  0  0  0
 15  5  1  0  0  0
  5  6  2  0  0  0
  6  7  1  0  0  0
  6  8  1  0  0  0
  8  9  1  0  0  0
  8 10  2  0  0  0
 10 11  1  0  0  0
 10 12  1  0  0  0
 12  1  1  0  0  0
  1  2  2  0  0  0
  1  3  1  0  0  0
  3 26  1  0  0  0
 26 27  2  0  0  0
 27 28  1  0  0  0
 28 29  2  0  0  0
 29 33  1  0  0  0
 33 34  1  0  0  0
 34 35  1  0  0  0
 35 36  1  0  0  0
 36 37  1  0  0  0
 37 38  1  0  0  0
 38 39  1  0  0  0
 37 40  1  0  0  0
 40 41  1  0  0  0
 41 42  1  0  0  0
 42 43  1  0  0  0
 29 30  1  0  0  0
 30 31  2  0  0  0
 31 32  1  0  0  0
 12 13  2  0  0  0
 13 14  1  0  0  0
 19 20  1  0  0  0
 20 21  2  0  0  0
 21 22  1  0  0  0
 22 23  2  0  0  0
 23 24  1  0  0  0
 24 25  2  0  0  0
 13  5  1  0  0  0
 25 20  1  0  0  0
 31 26  1  0  0  0
 39 34  1  0  0  0
 43 40  1  0  0  0
  3  4  1  0  0  0
M  END
> <minimizedAffinity>
-9.05431

> <CNNscore>
0.3260806799

> <CNNaffinity>
7.3349585533

> <CNN_VS>
2.3917882442

> <CNNaffinity_variance>
0.0374104977

$$$$
[H]c1nc(-c2nc3c([H])c([H])c(-c4c([H])nc([H])n4C([H])([H])C([H])([H])C(F)(F)F)c([H])c3c(N([H])C(=O)N3C([H])([H])C([H])([H])OC([H])([H])C3([H])[H])c2[H])c([H])c([H])c1C([H])([H])[H]


 38 42  0  0  0  0  0  0  0  0999 V2000
   -3.1202   23.3283  -27.7226 C   0  0  0  0  0  0  0  0  0  0  0  0
   -1.8934   22.9938  -28.1931 C   0  0  0  0  0  0  0  0  0  0  0  0
   -0.8727   22.5307  -27.3393 C   0  0  0  0  0  0  0  0  0  0  0  0
   -1.0496   22.3895  -25.9844 C   0  0  0  0  0  0  0  0  0  0  0  0
   -0.0471   21.9464  -25.2099 N   0  0  0  0  0  0  0  0  0  0  0  0
   -0.1943   21.7991  -23.8675 C   0  0  0  0  0  0  0  0  0  0  0  0
   -1.4165   22.1226  -23.3282 C   0  0  0  0  0  0  0  0  0  0  0  0
   -2.4650   22.5803  -24.1012 C   0  0  0  0  0  0  0  0  0  0  0  0
   -2.2894   22.7261  -25.4937 C   0  0  0  0  0  0  0  0  0  0  0  0
   -3.2767   23.1747  -26.3280 C   0  0  0  0  0  0  0  0  0  0  0  0
   -3.7161   22.9189  -23.5554 N   0  0  0  0  0  0  0  0  0  0  0  0
   -4.7618   22.0436  -23.2909 C   0  0  0  0  0  0  0  0  0  0  0  0
   -4.7478   20.8349  -23.4996 O   0  0  0  0  0  0  0  0  0  0  0  0
   -5.9995   22.5510  -22.7171 N   0  0  0  0  0  0  0  0  0  0  0  0
   -7.1046   21.6848  -22.4228 C   0  0  0  0  0  0  0  0  0  0  0  0
   -7.7159   21.9699  -21.0667 C   0  0  0  0  0  0  0  0  0  0  0  0
   -7.3526   23.2253  -20.5731 O   0  0  0  0  0  0  0  0  0  0  0  0
   -7.3604   24.1737  -21.5925 C   0  0  0  0  0  0  0  0  0  0  0  0
   -6.1203   23.9752  -22.4253 C   0  0  0  0  0  0  0  0  0  0  0  0
   -3.9223   23.9247  -23.3070 H   0  0  0  0  0  0  0  0  0  0  0  0
    0.9510   21.3194  -23.1145 C   0  0  0  0  0  0  0  0  0  0  0  0
    0.8215   20.9891  -21.7957 C   0  0  0  0  0  0  0  0  0  0  0  0
    1.9203   20.5280  -21.0504 C   0  0  0  0  0  0  0  0  0  0  0  0
    3.1336   20.4129  -21.6692 C   0  0  0  0  0  0  0  0  0  0  0  0
    4.3081   19.9270  -20.9004 C   0  0  0  0  0  0  0  0  0  0  0  0
    3.2504   20.7506  -23.0061 C   0  0  0  0  0  0  0  0  0  0  0  0
    2.1728   21.1864  -23.6752 N   0  0  0  0  0  0  0  0  0  0  0  0
   -4.9631   24.9021  -28.5025 N   0  0  0  0  0  0  0  0  0  0  0  0
   -5.9382   24.8267  -29.4826 C   0  0  0  0  0  0  0  0  0  0  0  0
   -5.8606   23.6558  -30.0929 N   0  0  0  0  0  0  0  0  0  0  0  0
   -4.8643   23.0046  -29.5160 C   0  0  0  0  0  0  0  0  0  0  0  0
   -4.2716   23.7701  -28.4998 C   0  0  0  0  0  0  0  0  0  0  0  0
   -4.8024   26.0653  -27.6684 C   0  0  0  0  0  0  0  0  0  0  0  0
   -5.7259   25.8901  -26.4552 C   0  0  0  0  0  0  0  0  0  0  0  0
   -4.8195   27.9118  -25.7607 F   0  0  0  0  0  0  0  0  0  0  0  0
   -5.2549   26.6950  -25.2797 C   0  0  0  0  0  0  0  0  0  0  0  0
   -6.2882   26.8790  -24.3901 F   0  0  0  0  0  0  0  0  0  0  0  0
   -4.1820   26.0099  -24.7069 F   0  0  0  0  0  0  0  0  0  0  0  0
 35 36  1  0  0  0
 36 37  1  0  0  0
 36 38  1  0  0  0
 36 34  1  0  0  0
 34 33  1  0  0  0
 33 28  1  0  0  0
 28 29  1  0  0  0
 29 30  2  0  0  0
 30 31  1  0  0  0
 31 32  2  0  0  0
 32  1  1  0  0  0
  1  2  2  0  0  0
  2  3  1  0  0  0
  3  4  2  0  0  0
  4  5  1  0  0  0
  5  6  2  0  0  0
  6  7  1  0  0  0
  7  8  2  0  0  0
  8 11  1  0  0  0
 11 12  1  0  0  0
 12 13  2  0  0  0
 12 14  1  0  0  0
 14 15  1  0  0  0
 15 16  1  0  0  0
 16 17  1  0  0  0
 17 18  1  0  0  0
 18 19  1  0  0  0
  8  9  1  0  0  0
  9 10  2  0  0  0
  6 21  1  0  0  0
 21 22  2  0  0  0
 22 23  1  0  0  0
 23 24  2  0  0  0
 24 25  1  0  0  0
 24 26  1  0  0  0
 26 27  2  0  0  0
 32 28  1  0  0  0
 10  1  1  0  0  0
 27 21  1  0  0  0
  9  4  1  0  0  0
 19 14  1  0  0  0
 11 20  1  0  0  0
M  END
> <minimizedAffinity>
-10.04854

> <CNNscore>
0.5603125691

> <CNNaffinity>
7.7156667709

> <CNN_VS>
4.3231849670

> <CNNaffinity_variance>
0.0414512232

$$$$
[H]c1nc(-c2nc3c([H])c([H])c(-c4c([H])nc([H])n4C([H])([H])C([H])([H])C(F)(F)F)c([H])c3c(N([H])C(=O)N3C([H])([H])C([H])([H])OC([H])([H])C3([H])[H])c2[H])c([H])c([H])c1C([H])([H])[H]


 38 42  0  0  0  0  0  0  0  0999 V2000
    0.3356   21.7396  -24.4157 C   0  0  0  0  0  0  0  0  0  0  0  0
    0.8087   21.9271  -25.6724 C   0  0  0  0  0  0  0  0  0  0  0  0
   -0.0231   22.3719  -26.7191 C   0  0  0  0  0  0  0  0  0  0  0  0
   -1.3578   22.6419  -26.5389 C   0  0  0  0  0  0  0  0  0  0  0  0
   -2.1119   23.0618  -27.5667 N   0  0  0  0  0  0  0  0  0  0  0  0
   -3.4342   23.3342  -27.4168 C   0  0  0  0  0  0  0  0  0  0  0  0
   -3.9750   23.1631  -26.1648 C   0  0  0  0  0  0  0  0  0  0  0  0
   -3.2228   22.7328  -25.0898 C   0  0  0  0  0  0  0  0  0  0  0  0
   -1.8509   22.4552  -25.2689 C   0  0  0  0  0  0  0  0  0  0  0  0
   -1.0381   22.0236  -24.2564 C   0  0  0  0  0  0  0  0  0  0  0  0
   -3.7708   22.5497  -23.8076 N   0  0  0  0  0  0  0  0  0  0  0  0
   -4.3913   23.5210  -23.0324 C   0  0  0  0  0  0  0  0  0  0  0  0
   -4.5512   24.6937  -23.3550 O   0  0  0  0  0  0  0  0  0  0  0  0
   -4.9142   23.1709  -21.7199 N   0  0  0  0  0  0  0  0  0  0  0  0
   -5.5665   24.1387  -20.8857 C   0  0  0  0  0  0  0  0  0  0  0  0
   -6.8326   23.5970  -20.2551 C   0  0  0  0  0  0  0  0  0  0  0  0
   -6.8898   22.2017  -20.2916 O   0  0  0  0  0  0  0  0  0  0  0  0
   -5.6412   21.6526  -20.0122 C   0  0  0  0  0  0  0  0  0  0  0  0
   -4.7803   21.7997  -21.2403 C   0  0  0  0  0  0  0  0  0  0  0  0
   -3.7290   21.5971  -23.3533 H   0  0  0  0  0  0  0  0  0  0  0  0
   -4.1666   23.7763  -28.5903 C   0  0  0  0  0  0  0  0  0  0  0  0
   -4.8490   22.8766  -29.3584 C   0  0  0  0  0  0  0  0  0  0  0  0
   -5.5588   23.2862  -30.5003 C   0  0  0  0  0  0  0  0  0  0  0  0
   -5.5576   24.6113  -30.8358 C   0  0  0  0  0  0  0  0  0  0  0  0
   -6.3018   25.0660  -32.0382 C   0  0  0  0  0  0  0  0  0  0  0  0
   -4.8624   25.5121  -30.0482 C   0  0  0  0  0  0  0  0  0  0  0  0
   -4.1995   25.0729  -28.9683 N   0  0  0  0  0  0  0  0  0  0  0  0
    0.7279   21.0426  -21.9987 N   0  0  0  0  0  0  0  0  0  0  0  0
    1.8477   20.6586  -21.2806 C   0  0  0  0  0  0  0  0  0  0  0  0
    2.9122   20.7070  -22.0641 N   0  0  0  0  0  0  0  0  0  0  0  0
    2.4811   21.1114  -23.2474 C   0  0  0  0  0  0  0  0  0  0  0  0
    1.0953   21.3335  -23.2397 C   0  0  0  0  0  0  0  0  0  0  0  0
   -0.5844   21.0882  -21.4068 C   0  0  0  0  0  0  0  0  0  0  0  0
   -0.4339   21.6951  -20.0053 C   0  0  0  0  0  0  0  0  0  0  0  0
   -2.3231   22.7766  -19.1975 F   0  0  0  0  0  0  0  0  0  0  0  0
   -1.1529   23.0070  -19.8897 C   0  0  0  0  0  0  0  0  0  0  0  0
   -0.3718   23.9144  -19.2118 F   0  0  0  0  0  0  0  0  0  0  0  0
   -1.4541   23.4341  -21.1841 F   0  0  0  0  0  0  0  0  0  0  0  0
 35 36  1  0  0  0
 36 37  1  0  0  0
 36 38  1  0  0  0
 36 34  1  0  0  0
 34 33  1  0  0  0
 33 28  1  0  0  0
 28 29  1  0  0  0
 29 30  2  0  0  0
 30 31  1  0  0  0
 31 32  2  0  0  0
 32  1  1  0  0  0
  1  2  2  0  0  0
  2  3  1  0  0  0
  3  4  2  0  0  0
  4  5  1  0  0  0
  5  6  2  0  0  0
  6  7  1  0  0  0
  7  8  2  0  0  0
  8 11  1  0  0  0
 11 12  1  0  0  0
 12 13  2  0  0  0
 12 14  1  0  0  0
 14 15  1  0  0  0
 15 16  1  0  0  0
 16 17  1  0  0  0
 17 18  1  0  0  0
 18 19  1  0  0  0
  8  9  1  0  0  0
  9 10  2  0  0  0
  6 21  1  0  0  0
 21 22  2  0  0  0
 22 23  1  0  0  0
 23 24  2  0  0  0
 24 25  1  0  0  0
 24 26  1  0  0  0
 26 27  2  0  0  0
 32 28  1  0  0  0
 10  1  1  0  0  0
 27 21  1  0  0  0
  9  4  1  0  0  0
 19 14  1  0  0  0
 11 20  1  0  0  0
M  END
> <minimizedAffinity>
-10.17156

> <CNNscore>
0.2791833282

> <CNNaffinity>
7.3545393944

> <CNN_VS>
2.0532648563

> <CNNaffinity_variance>
0.0694603622

$$$$
[H]c1nc(-c2nc3c([H])c([H])c(-c4c([H])nc([H])n4C([H])([H])C([H])([H])C(F)(F)F)c([H])c3c(N([H])C(=O)N3C([H])([H])C([H])([H])OC([H])([H])C3([H])[H])c2[H])c([H])c([H])c1C([H])([H])[H]


 38 42  0  0  0  0  0  0  0  0999 V2000
   -2.8837   23.1370  -27.4184 C   0  0  0  0  0  0  0  0  0  0  0  0
   -1.6249   22.8874  -27.8561 C   0  0  0  0  0  0  0  0  0  0  0  0
   -0.6117   22.4411  -26.9845 C   0  0  0  0  0  0  0  0  0  0  0  0
   -0.8286   22.2318  -25.6443 C   0  0  0  0  0  0  0  0  0  0  0  0
    0.1681   21.8079  -24.8518 N   0  0  0  0  0  0  0  0  0  0  0  0
   -0.0183   21.5947  -23.5232 C   0  0  0  0  0  0  0  0  0  0  0  0
   -1.2744   21.8304  -23.0172 C   0  0  0  0  0  0  0  0  0  0  0  0
   -2.3179   22.2665  -23.8094 C   0  0  0  0  0  0  0  0  0  0  0  0
   -2.1012   22.4818  -25.1870 C   0  0  0  0  0  0  0  0  0  0  0  0
   -3.0810   22.9146  -26.0384 C   0  0  0  0  0  0  0  0  0  0  0  0
   -3.6039   22.5155  -23.2973 N   0  0  0  0  0  0  0  0  0  0  0  0
   -3.9797   23.5950  -22.5081 C   0  0  0  0  0  0  0  0  0  0  0  0
   -3.2363   24.4971  -22.1360 O   0  0  0  0  0  0  0  0  0  0  0  0
   -5.3590   23.7144  -22.0587 N   0  0  0  0  0  0  0  0  0  0  0  0
   -5.7945   24.8135  -21.2462 C   0  0  0  0  0  0  0  0  0  0  0  0
   -7.1148   25.3895  -21.7144 C   0  0  0  0  0  0  0  0  0  0  0  0
   -7.8064   24.5166  -22.5579 O   0  0  0  0  0  0  0  0  0  0  0  0
   -7.7020   23.2062  -22.0989 C   0  0  0  0  0  0  0  0  0  0  0  0
   -6.3279   22.6961  -22.4490 C   0  0  0  0  0  0  0  0  0  0  0  0
   -4.3898   21.8426  -23.5101 H   0  0  0  0  0  0  0  0  0  0  0  0
    1.1236   21.1426  -22.7483 C   0  0  0  0  0  0  0  0  0  0  0  0
    2.3593   21.0587  -23.3237 C   0  0  0  0  0  0  0  0  0  0  0  0
    3.4745   20.6184  -22.5901 C   0  0  0  0  0  0  0  0  0  0  0  0
    3.3046   20.2717  -21.2789 C   0  0  0  0  0  0  0  0  0  0  0  0
    4.4698   19.8043  -20.4850 C   0  0  0  0  0  0  0  0  0  0  0  0
    2.0469   20.3620  -20.7086 C   0  0  0  0  0  0  0  0  0  0  0  0
    1.0132   20.7874  -21.4496 N   0  0  0  0  0  0  0  0  0  0  0  0
   -4.6843   24.7018  -28.3074 N   0  0  0  0  0  0  0  0  0  0  0  0
   -5.6717   24.5796  -29.2703 C   0  0  0  0  0  0  0  0  0  0  0  0
   -5.6376   23.3617  -29.7851 N   0  0  0  0  0  0  0  0  0  0  0  0
   -4.6561   22.7270  -29.1658 C   0  0  0  0  0  0  0  0  0  0  0  0
   -4.0289   23.5519  -28.2193 C   0  0  0  0  0  0  0  0  0  0  0  0
   -4.4783   25.9223  -27.5708 C   0  0  0  0  0  0  0  0  0  0  0  0
   -5.7286   26.1557  -26.7121 C   0  0  0  0  0  0  0  0  0  0  0  0
   -4.1337   25.8170  -25.0589 F   0  0  0  0  0  0  0  0  0  0  0  0
   -5.4945   25.7785  -25.2787 C   0  0  0  0  0  0  0  0  0  0  0  0
   -6.1345   26.6679  -24.4468 F   0  0  0  0  0  0  0  0  0  0  0  0
   -5.9567   24.4722  -25.1094 F   0  0  0  0  0  0  0  0  0  0  0  0
 35 36  1  0  0  0
 36 37  1  0  0  0
 36 38  1  0  0  0
 36 34  1  0  0  0
 34 33  1  0  0  0
 33 28  1  0  0  0
 28 29  1  0  0  0
 29 30  2  0  0  0
 30 31  1  0  0  0
 31 32  2  0  0  0
 32  1  1  0  0  0
  1  2  2  0  0  0
  2  3  1  0  0  0
  3  4  2  0  0  0
  4  5  1  0  0  0
  5  6  2  0  0  0
  6  7  1  0  0  0
  7  8  2  0  0  0
  8 11  1  0  0  0
 11 12  1  0  0  0
 12 13  2  0  0  0
 12 14  1  0  0  0
 14 15  1  0  0  0
 15 16  1  0  0  0
 16 17  1  0  0  0
 17 18  1  0  0  0
 18 19  1  0  0  0
  8  9  1  0  0  0
  9 10  2  0  0  0
  6 21  1  0  0  0
 21 22  2  0  0  0
 22 23  1  0  0  0
 23 24  2  0  0  0
 24 25  1  0  0  0
 24 26  1  0  0  0
 26 27  2  0  0  0
 32 28  1  0  0  0
 10  1  1  0  0  0
 27 21  1  0  0  0
  9  4  1  0  0  0
 19 14  1  0  0  0
 11 20  1  0  0  0
M  END
> <minimizedAffinity>
-9.78351

> <CNNscore>
0.2505490482

> <CNNaffinity>
7.3096055984

> <CNN_VS>
1.8314146996

> <CNNaffinity_variance>
0.0713844001

$$$$
[H]c1nc(-c2nc3c([H])c([H])c(-c4c([H])nc([H])n4C([H])([H])C([H])([H])C(F)(F)F)c([H])c3c(N([H])C(=O)N3C([H])([H])C([H])([H])OC([H])([H])C3([H])[H])c2[H])c([H])c([H])c1C([H])([H])[H]


 38 42  0  0  0  0  0  0  0  0999 V2000
    0.6763   21.4927  -23.9251 C   0  0  0  0  0  0  0  0  0  0  0  0
    1.1372   21.6947  -25.1842 C   0  0  0  0  0  0  0  0  0  0  0  0
    0.2929   22.1413  -26.2201 C   0  0  0  0  0  0  0  0  0  0  0  0
   -1.0424   22.3988  -26.0263 C   0  0  0  0  0  0  0  0  0  0  0  0
   -1.8086   22.8210  -27.0442 N   0  0  0  0  0  0  0  0  0  0  0  0
   -3.1318   23.0812  -26.8808 C   0  0  0  0  0  0  0  0  0  0  0  0
   -3.6605   22.8951  -25.6257 C   0  0  0  0  0  0  0  0  0  0  0  0
   -2.8957   22.4621  -24.5609 C   0  0  0  0  0  0  0  0  0  0  0  0
   -1.5231   22.1973  -24.7538 C   0  0  0  0  0  0  0  0  0  0  0  0
   -0.6982   21.7640  -23.7519 C   0  0  0  0  0  0  0  0  0  0  0  0
   -3.4312   22.2637  -23.2757 N   0  0  0  0  0  0  0  0  0  0  0  0
   -4.2096   23.1655  -22.5612 C   0  0  0  0  0  0  0  0  0  0  0  0
   -4.5449   24.2796  -22.9497 O   0  0  0  0  0  0  0  0  0  0  0  0
   -4.6949   22.8080  -21.2363 N   0  0  0  0  0  0  0  0  0  0  0  0
   -5.5051   23.7043  -20.4631 C   0  0  0  0  0  0  0  0  0  0  0  0
   -6.6822   23.0050  -19.8154 C   0  0  0  0  0  0  0  0  0  0  0  0
   -6.5200   21.6180  -19.7751 O   0  0  0  0  0  0  0  0  0  0  0  0
   -5.2062   21.2873  -19.4541 C   0  0  0  0  0  0  0  0  0  0  0  0
   -4.3570   21.5022  -20.6803 C   0  0  0  0  0  0  0  0  0  0  0  0
   -3.2493   21.3550  -22.7689 H   0  0  0  0  0  0  0  0  0  0  0  0
   -3.8777   23.5271  -28.0443 C   0  0  0  0  0  0  0  0  0  0  0  0
   -3.8503   24.8395  -28.4211 C   0  0  0  0  0  0  0  0  0  0  0  0
   -4.5702   25.2894  -29.5413 C   0  0  0  0  0  0  0  0  0  0  0  0
   -5.3060   24.3867  -30.2569 C   0  0  0  0  0  0  0  0  0  0  0  0
   -6.0738   24.8406  -31.4447 C   0  0  0  0  0  0  0  0  0  0  0  0
   -5.3242   23.0599  -29.8641 C   0  0  0  0  0  0  0  0  0  0  0  0
   -4.6211   22.6786  -28.7875 N   0  0  0  0  0  0  0  0  0  0  0  0
    1.0982   20.5192  -21.6109 N   0  0  0  0  0  0  0  0  0  0  0  0
    2.2387   20.2864  -20.8613 C   0  0  0  0  0  0  0  0  0  0  0  0
    3.3003   20.7003  -21.5330 N   0  0  0  0  0  0  0  0  0  0  0  0
    2.8469   21.1837  -22.6777 C   0  0  0  0  0  0  0  0  0  0  0  0
    1.4494   21.0831  -22.7591 C   0  0  0  0  0  0  0  0  0  0  0  0
   -0.2162   20.1707  -21.1359 C   0  0  0  0  0  0  0  0  0  0  0  0
   -0.0550   19.5980  -19.7213 C   0  0  0  0  0  0  0  0  0  0  0  0
   -0.1230   17.6886  -21.0407 F   0  0  0  0  0  0  0  0  0  0  0  0
   -0.0844   18.0978  -19.7244 C   0  0  0  0  0  0  0  0  0  0  0  0
    1.0412   17.6031  -19.1069 F   0  0  0  0  0  0  0  0  0  0  0  0
   -1.2570   17.7013  -19.0790 F   0  0  0  0  0  0  0  0  0  0  0  0
 35 36  1  0  0  0
 36 37  1  0  0  0
 36 38  1  0  0  0
 36 34  1  0  0  0
 34 33  1  0  0  0
 33 28  1  0  0  0
 28 29  1  0  0  0
 29 30  2  0  0  0
 30 31  1  0  0  0
 31 32  2  0  0  0
 32  1  1  0  0  0
  1  2  2  0  0  0
  2  3  1  0  0  0
  3  4  2  0  0  0
  4  5  1  0  0  0
  5  6  2  0  0  0
  6  7  1  0  0  0
  7  8  2  0  0  0
  8 11  1  0  0  0
 11 12  1  0  0  0
 12 13  2  0  0  0
 12 14  1  0  0  0
 14 15  1  0  0  0
 15 16  1  0  0  0
 16 17  1  0  0  0
 17 18  1  0  0  0
 18 19  1  0  0  0
  8  9  1  0  0  0
  9 10  2  0  0  0
  6 21  1  0  0  0
 21 22  2  0  0  0
 22 23  1  0  0  0
 23 24  2  0  0  0
 24 25  1  0  0  0
 24 26  1  0  0  0
 26 27  2  0  0  0
 32 28  1  0  0  0
 10  1  1  0  0  0
 27 21  1  0  0  0
  9  4  1  0  0  0
 19 14  1  0  0  0
 11 20  1  0  0  0
M  END
> <minimizedAffinity>
-8.89077

> <CNNscore>
0.1685901433

> <CNNaffinity>
7.1189622879

> <CNN_VS>
1.2001868486

> <CNNaffinity_variance>
0.0682116151

$$$$
[H]c1nc(-c2nc3c([H])c([H])c(-c4c([H])nc([H])n4C([H])([H])C([H])([H])C(F)(F)F)c([H])c3c(N([H])C(=O)N3C([H])([H])C([H])([H])OC([H])([H])C3([H])[H])c2[H])c([H])c([H])c1C([H])([H])[H]


 38 42  0  0  0  0  0  0  0  0999 V2000
   -2.5294   23.1520  -26.5743 C   0  0  0  0  0  0  0  0  0  0  0  0
   -1.3953   22.6003  -27.0719 C   0  0  0  0  0  0  0  0  0  0  0  0
   -0.4009   22.0632  -26.2303 C   0  0  0  0  0  0  0  0  0  0  0  0
   -0.5119   22.0635  -24.8612 C   0  0  0  0  0  0  0  0  0  0  0  0
    0.4623   21.5421  -24.0995 N   0  0  0  0  0  0  0  0  0  0  0  0
    0.3791   21.5310  -22.7436 C   0  0  0  0  0  0  0  0  0  0  0  0
   -0.7479   22.0769  -22.1769 C   0  0  0  0  0  0  0  0  0  0  0  0
   -1.7654   22.6196  -22.9362 C   0  0  0  0  0  0  0  0  0  0  0  0
   -1.6574   22.6208  -24.3431 C   0  0  0  0  0  0  0  0  0  0  0  0
   -2.6196   23.1403  -25.1655 C   0  0  0  0  0  0  0  0  0  0  0  0
   -2.9184   23.1853  -22.3629 N   0  0  0  0  0  0  0  0  0  0  0  0
   -3.6745   22.6429  -21.3317 C   0  0  0  0  0  0  0  0  0  0  0  0
   -3.4465   21.5785  -20.7660 O   0  0  0  0  0  0  0  0  0  0  0  0
   -4.8449   23.3569  -20.8427 N   0  0  0  0  0  0  0  0  0  0  0  0
   -5.6535   22.8385  -19.7772 C   0  0  0  0  0  0  0  0  0  0  0  0
   -6.0157   23.8996  -18.7589 C   0  0  0  0  0  0  0  0  0  0  0  0
   -5.8343   25.1939  -19.2525 O   0  0  0  0  0  0  0  0  0  0  0  0
   -6.2564   25.2770  -20.5767 C   0  0  0  0  0  0  0  0  0  0  0  0
   -5.2035   24.6367  -21.4441 C   0  0  0  0  0  0  0  0  0  0  0  0
   -3.2782   24.1118  -22.7203 H   0  0  0  0  0  0  0  0  0  0  0  0
    1.4878   20.9504  -22.0070 C   0  0  0  0  0  0  0  0  0  0  0  0
    2.6754   20.6975  -22.6320 C   0  0  0  0  0  0  0  0  0  0  0  0
    3.7572   20.1313  -21.9357 C   0  0  0  0  0  0  0  0  0  0  0  0
    3.6038   19.8341  -20.6104 C   0  0  0  0  0  0  0  0  0  0  0  0
    4.7345   19.2359  -19.8553 C   0  0  0  0  0  0  0  0  0  0  0  0
    2.3951   20.0963  -19.9897 C   0  0  0  0  0  0  0  0  0  0  0  0
    1.3917   20.6370  -20.6964 N   0  0  0  0  0  0  0  0  0  0  0  0
   -4.8620   24.0939  -26.9658 N   0  0  0  0  0  0  0  0  0  0  0  0
   -5.5260   24.5800  -28.0793 C   0  0  0  0  0  0  0  0  0  0  0  0
   -4.7385   24.4873  -29.1380 N   0  0  0  0  0  0  0  0  0  0  0  0
   -3.6055   23.9561  -28.7093 C   0  0  0  0  0  0  0  0  0  0  0  0
   -3.6512   23.6941  -27.3313 C   0  0  0  0  0  0  0  0  0  0  0  0
   -5.4710   24.0669  -25.6608 C   0  0  0  0  0  0  0  0  0  0  0  0
   -6.4419   22.8788  -25.6330 C   0  0  0  0  0  0  0  0  0  0  0  0
   -6.9938   20.8872  -24.5746 F   0  0  0  0  0  0  0  0  0  0  0  0
   -6.2532   22.0379  -24.4046 C   0  0  0  0  0  0  0  0  0  0  0  0
   -4.9224   21.7263  -24.2467 F   0  0  0  0  0  0  0  0  0  0  0  0
   -6.7574   22.7605  -23.3219 F   0  0  0  0  0  0  0  0  0  0  0  0
 35 36  1  0  0  0
 36 37  1  0  0  0
 36 38  1  0  0  0
 36 34  1  0  0  0
 34 33  1  0  0  0
 33 28  1  0  0  0
 28 29  1  0  0  0
 29 30  2  0  0  0
 30 31  1  0  0  0
 31 32  2  0  0  0
 32  1  1  0  0  0
  1  2  2  0  0  0
  2  3  1  0  0  0
  3  4  2  0  0  0
  4  5  1  0  0  0
  5  6  2  0  0  0
  6  7  1  0  0  0
  7  8  2  0  0  0
  8 11  1  0  0  0
 11 12  1  0  0  0
 12 13  2  0  0  0
 12 14  1  0  0  0
 14 15  1  0  0  0
 15 16  1  0  0  0
 16 17  1  0  0  0
 17 18  1  0  0  0
 18 19  1  0  0  0
  8  9  1  0  0  0
  9 10  2  0  0  0
  6 21  1  0  0  0
 21 22  2  0  0  0
 22 23  1  0  0  0
 23 24  2  0  0  0
 24 25  1  0  0  0
 24 26  1  0  0  0
 26 27  2  0  0  0
 32 28  1  0  0  0
 10  1  1  0  0  0
 27 21  1  0  0  0
  9  4  1  0  0  0
 19 14  1  0  0  0
 11 20  1  0  0  0
M  END
> <minimizedAffinity>
-8.82938

> <CNNscore>
0.1425253451

> <CNNaffinity>
7.1269049644

> <CNN_VS>
1.0157645941

> <CNNaffinity_variance>
0.1082787737

$$$$
[H]c1nc(-c2nc3c([H])c([H])c(-c4c([H])nc([H])n4C([H])([H])C([H])([H])C(F)(F)F)c([H])c3c(N([H])C(=O)N3C([H])([H])C([H])([H])OC([H])([H])C3([H])[H])c2[H])c([H])c([H])c1C([H])([H])[H]


 38 42  0  0  0  0  0  0  0  0999 V2000
   -3.3405   23.0652  -26.2848 C   0  0  0  0  0  0  0  0  0  0  0  0
   -2.2461   22.5086  -26.8600 C   0  0  0  0  0  0  0  0  0  0  0  0
   -1.1822   21.9984  -26.0897 C   0  0  0  0  0  0  0  0  0  0  0  0
   -1.1816   22.0313  -24.7165 C   0  0  0  0  0  0  0  0  0  0  0  0
   -0.1443   21.5347  -24.0245 N   0  0  0  0  0  0  0  0  0  0  0  0
   -0.1170   21.5561  -22.6666 C   0  0  0  0  0  0  0  0  0  0  0  0
   -1.1986   22.1085  -22.0230 C   0  0  0  0  0  0  0  0  0  0  0  0
   -2.2789   22.6263  -22.7095 C   0  0  0  0  0  0  0  0  0  0  0  0
   -2.2856   22.5939  -24.1202 C   0  0  0  0  0  0  0  0  0  0  0  0
   -3.3158   23.0873  -24.8736 C   0  0  0  0  0  0  0  0  0  0  0  0
   -3.3860   23.1985  -22.0578 N   0  0  0  0  0  0  0  0  0  0  0  0
   -4.0522   22.6759  -20.9566 C   0  0  0  0  0  0  0  0  0  0  0  0
   -3.7712   21.6263  -20.3873 O   0  0  0  0  0  0  0  0  0  0  0  0
   -5.1847   23.3943  -20.3909 N   0  0  0  0  0  0  0  0  0  0  0  0
   -5.9006   22.8962  -19.2520 C   0  0  0  0  0  0  0  0  0  0  0  0
   -6.1874   23.9787  -18.2321 C   0  0  0  0  0  0  0  0  0  0  0  0
   -6.0563   25.2621  -18.7680 O   0  0  0  0  0  0  0  0  0  0  0  0
   -6.5846   25.3120  -20.0552 C   0  0  0  0  0  0  0  0  0  0  0  0
   -5.6004   24.6577  -20.9903 C   0  0  0  0  0  0  0  0  0  0  0  0
   -3.7806   24.1143  -22.4058 H   0  0  0  0  0  0  0  0  0  0  0  0
    1.0527   21.0006  -22.0091 C   0  0  0  0  0  0  0  0  0  0  0  0
    2.2327   20.8786  -22.6857 C   0  0  0  0  0  0  0  0  0  0  0  0
    3.3732   20.3386  -22.0666 C   0  0  0  0  0  0  0  0  0  0  0  0
    3.2853   19.9328  -20.7643 C   0  0  0  0  0  0  0  0  0  0  0  0
    4.4787   19.3598  -20.0905 C   0  0  0  0  0  0  0  0  0  0  0  0
    2.0835   20.0627  -20.0907 C   0  0  0  0  0  0  0  0  0  0  0  0
    1.0226   20.5837  -20.7245 N   0  0  0  0  0  0  0  0  0  0  0  0
   -5.5280   24.3419  -26.5427 N   0  0  0  0  0  0  0  0  0  0  0  0
   -6.3742   24.5897  -27.6102 C   0  0  0  0  0  0  0  0  0  0  0  0
   -5.9064   23.9902  -28.6925 N   0  0  0  0  0  0  0  0  0  0  0  0
   -4.7939   23.3775  -28.3228 C   0  0  0  0  0  0  0  0  0  0  0  0
   -4.5245   23.5817  -26.9606 C   0  0  0  0  0  0  0  0  0  0  0  0
   -5.7802   24.8682  -25.2259 C   0  0  0  0  0  0  0  0  0  0  0  0
   -4.5353   25.6595  -24.8027 C   0  0  0  0  0  0  0  0  0  0  0  0
   -4.0803   26.8818  -26.7237 F   0  0  0  0  0  0  0  0  0  0  0  0
   -4.5107   27.0262  -25.4216 C   0  0  0  0  0  0  0  0  0  0  0  0
   -5.7712   27.5772  -25.3972 F   0  0  0  0  0  0  0  0  0  0  0  0
   -3.5870   27.7917  -24.7080 F   0  0  0  0  0  0  0  0  0  0  0  0
 35 36  1  0  0  0
 36 37  1  0  0  0
 36 38  1  0  0  0
 36 34  1  0  0  0
 34 33  1  0  0  0
 33 28  1  0  0  0
 28 29  1  0  0  0
 29 30  2  0  0  0
 30 31  1  0  0  0
 31 32  2  0  0  0
 32  1  1  0  0  0
  1  2  2  0  0  0
  2  3  1  0  0  0
  3  4  2  0  0  0
  4  5  1  0  0  0
  5  6  2  0  0  0
  6  7  1  0  0  0
  7  8  2  0  0  0
  8 11  1  0  0  0
 11 12  1  0  0  0
 12 13  2  0  0  0
 12 14  1  0  0  0
 14 15  1  0  0  0
 15 16  1  0  0  0
 16 17  1  0  0  0
 17 18  1  0  0  0
 18 19  1  0  0  0
  8  9  1  0  0  0
  9 10  2  0  0  0
  6 21  1  0  0  0
 21 22  2  0  0  0
 22 23  1  0  0  0
 23 24  2  0  0  0
 24 25  1  0  0  0
 24 26  1  0  0  0
 26 27  2  0  0  0
 32 28  1  0  0  0
 10  1  1  0  0  0
 27 21  1  0  0  0
  9  4  1  0  0  0
 19 14  1  0  0  0
 11 20  1  0  0  0
M  END
> <minimizedAffinity>
-9.51048

> <CNNscore>
0.1422441900

> <CNNaffinity>
7.0193872452

> <CNN_VS>
0.9984670281

> <CNNaffinity_variance>
0.1213009953

$$$$
[H]c1nc(-c2nc3c([H])c([H])c(-c4c([H])nc([H])n4C([H])([H])C([H])([H])C(F)(F)F)c([H])c3c(N([H])C(=O)N3C([H])([H])C([H])([H])OC([H])([H])C3([H])[H])c2[H])c([H])c([H])c1C([H])([H])[H]


 38 42  0  0  0  0  0  0  0  0999 V2000
    0.9937   21.0102  -22.1131 C   0  0  0  0  0  0  0  0  0  0  0  0
    1.5090   21.2769  -23.3386 C   0  0  0  0  0  0  0  0  0  0  0  0
    0.6915   21.6688  -24.4173 C   0  0  0  0  0  0  0  0  0  0  0  0
   -0.6704   21.8047  -24.3015 C   0  0  0  0  0  0  0  0  0  0  0  0
   -1.4091   22.1788  -25.3578 N   0  0  0  0  0  0  0  0  0  0  0  0
   -2.7575   22.3191  -25.2716 C   0  0  0  0  0  0  0  0  0  0  0  0
   -3.3413   22.0625  -24.0539 C   0  0  0  0  0  0  0  0  0  0  0  0
   -2.6058   21.6765  -22.9509 C   0  0  0  0  0  0  0  0  0  0  0  0
   -1.2062   21.5366  -23.0637 C   0  0  0  0  0  0  0  0  0  0  0  0
   -0.4072   21.1569  -22.0199 C   0  0  0  0  0  0  0  0  0  0  0  0
   -3.1971   21.4065  -21.7038 N   0  0  0  0  0  0  0  0  0  0  0  0
   -3.6768   22.3464  -20.8006 C   0  0  0  0  0  0  0  0  0  0  0  0
   -3.6519   23.5626  -20.9590 O   0  0  0  0  0  0  0  0  0  0  0  0
   -4.2692   21.9050  -19.5464 N   0  0  0  0  0  0  0  0  0  0  0  0
   -4.7817   22.8382  -18.5851 C   0  0  0  0  0  0  0  0  0  0  0  0
   -6.1259   22.4150  -18.0299 C   0  0  0  0  0  0  0  0  0  0  0  0
   -6.3928   21.0627  -18.2569 O   0  0  0  0  0  0  0  0  0  0  0  0
   -5.2466   20.2971  -18.0600 C   0  0  0  0  0  0  0  0  0  0  0  0
   -4.3524   20.4770  -19.2596 C   0  0  0  0  0  0  0  0  0  0  0  0
   -3.3078   20.4058  -21.3844 H   0  0  0  0  0  0  0  0  0  0  0  0
   -3.4695   22.7214  -26.4717 C   0  0  0  0  0  0  0  0  0  0  0  0
   -2.8310   22.7441  -27.6787 C   0  0  0  0  0  0  0  0  0  0  0  0
   -3.5032   23.1357  -28.8494 C   0  0  0  0  0  0  0  0  0  0  0  0
   -4.8186   23.4973  -28.7634 C   0  0  0  0  0  0  0  0  0  0  0  0
   -5.5482   23.9139  -29.9884 C   0  0  0  0  0  0  0  0  0  0  0  0
   -5.4531   23.4691  -27.5339 C   0  0  0  0  0  0  0  0  0  0  0  0
   -4.7692   23.0886  -26.4448 N   0  0  0  0  0  0  0  0  0  0  0  0
    2.4646   19.5864  -20.5997 N   0  0  0  0  0  0  0  0  0  0  0  0
    2.9917   19.7631  -19.3316 C   0  0  0  0  0  0  0  0  0  0  0  0
    2.5915   20.9264  -18.8457 N   0  0  0  0  0  0  0  0  0  0  0  0
    1.8303   21.4735  -19.7789 C   0  0  0  0  0  0  0  0  0  0  0  0
    1.7293   20.6464  -20.9082 C   0  0  0  0  0  0  0  0  0  0  0  0
    2.7283   18.4062  -21.3822 C   0  0  0  0  0  0  0  0  0  0  0  0
    2.4060   17.1913  -20.5017 C   0  0  0  0  0  0  0  0  0  0  0  0
    0.2064   17.2271  -21.2446 F   0  0  0  0  0  0  0  0  0  0  0  0
    1.2795   16.3789  -21.0695 C   0  0  0  0  0  0  0  0  0  0  0  0
    1.6538   15.8325  -22.2755 F   0  0  0  0  0  0  0  0  0  0  0  0
    0.9522   15.4022  -20.1273 F   0  0  0  0  0  0  0  0  0  0  0  0
 35 36  1  0  0  0
 36 37  1  0  0  0
 36 38  1  0  0  0
 36 34  1  0  0  0
 34 33  1  0  0  0
 33 28  1  0  0  0
 28 29  1  0  0  0
 29 30  2  0  0  0
 30 31  1  0  0  0
 31 32  2  0  0  0
 32  1  1  0  0  0
  1  2  2  0  0  0
  2  3  1  0  0  0
  3  4  2  0  0  0
  4  5  1  0  0  0
  5  6  2  0  0  0
  6  7  1  0  0  0
  7  8  2  0  0  0
  8 11  1  0  0  0
 11 12  1  0  0  0
 12 13  2  0  0  0
 12 14  1  0  0  0
 14 15  1  0  0  0
 15 16  1  0  0  0
 16 17  1  0  0  0
 17 18  1  0  0  0
 18 19  1  0  0  0
  8  9  1  0  0  0
  9 10  2  0  0  0
  6 21  1  0  0  0
 21 22  2  0  0  0
 22 23  1  0  0  0
 23 24  2  0  0  0
 24 25  1  0  0  0
 24 26  1  0  0  0
 26 27  2  0  0  0
 32 28  1  0  0  0
 10  1  1  0  0  0
 27 21  1  0  0  0
  9  4  1  0  0  0
 19 14  1  0  0  0
 11 20  1  0  0  0
M  END
> <minimizedAffinity>
-9.03376

> <CNNscore>
0.1398371011

> <CNNaffinity>
6.5851454735

> <CNN_VS>
0.9208476543

> <CNNaffinity_variance>
0.0552366786

$$$$
[H]c1nc(-c2nc3c([H])c([H])c(-c4c([H])nc([H])n4C([H])([H])C([H])([H])C(F)(F)F)c([H])c3c(N([H])C(=O)N3C([H])([H])C([H])([H])OC([H])([H])C3([H])[H])c2[H])c([H])c([H])c1C([H])([H])[H]


 38 42  0  0  0  0  0  0  0  0999 V2000
   -3.3939   22.8302  -25.9684 C   0  0  0  0  0  0  0  0  0  0  0  0
   -2.1872   22.7846  -26.5850 C   0  0  0  0  0  0  0  0  0  0  0  0
   -1.0248   22.3630  -25.9093 C   0  0  0  0  0  0  0  0  0  0  0  0
   -1.0354   21.9743  -24.5919 C   0  0  0  0  0  0  0  0  0  0  0  0
    0.0978   21.5820  -23.9891 N   0  0  0  0  0  0  0  0  0  0  0  0
    0.1161   21.1945  -22.6873 C   0  0  0  0  0  0  0  0  0  0  0  0
   -1.0773   21.2188  -22.0056 C   0  0  0  0  0  0  0  0  0  0  0  0
   -2.2577   21.6174  -22.6007 C   0  0  0  0  0  0  0  0  0  0  0  0
   -2.2530   22.0164  -23.9542 C   0  0  0  0  0  0  0  0  0  0  0  0
   -3.3784   22.4263  -24.6158 C   0  0  0  0  0  0  0  0  0  0  0  0
   -3.4810   21.6505  -21.9077 N   0  0  0  0  0  0  0  0  0  0  0  0
   -4.0192   22.7442  -21.2416 C   0  0  0  0  0  0  0  0  0  0  0  0
   -3.4993   23.8521  -21.1570 O   0  0  0  0  0  0  0  0  0  0  0  0
   -5.3056   22.6196  -20.5721 N   0  0  0  0  0  0  0  0  0  0  0  0
   -5.9029   23.7223  -19.8755 C   0  0  0  0  0  0  0  0  0  0  0  0
   -7.3800   23.8645  -20.1788 C   0  0  0  0  0  0  0  0  0  0  0  0
   -7.9227   22.7035  -20.7349 O   0  0  0  0  0  0  0  0  0  0  0  0
   -7.4115   21.5726  -20.1038 C   0  0  0  0  0  0  0  0  0  0  0  0
   -6.0124   21.3440  -20.6150 C   0  0  0  0  0  0  0  0  0  0  0  0
   -4.0808   20.7821  -21.8656 H   0  0  0  0  0  0  0  0  0  0  0  0
    1.3929   20.7938  -22.1232 C   0  0  0  0  0  0  0  0  0  0  0  0
    2.5197   20.7946  -22.8948 C   0  0  0  0  0  0  0  0  0  0  0  0
    3.7626   20.4049  -22.3667 C   0  0  0  0  0  0  0  0  0  0  0  0
    3.8300   20.0211  -21.0565 C   0  0  0  0  0  0  0  0  0  0  0  0
    5.1336   19.6061  -20.4780 C   0  0  0  0  0  0  0  0  0  0  0  0
    2.6804   20.0256  -20.2862 C   0  0  0  0  0  0  0  0  0  0  0  0
    1.5172   20.4053  -20.8353 N   0  0  0  0  0  0  0  0  0  0  0  0
   -5.0442   23.4094  -27.8183 N   0  0  0  0  0  0  0  0  0  0  0  0
   -6.4017   23.6808  -27.8428 C   0  0  0  0  0  0  0  0  0  0  0  0
   -6.8822   23.6389  -26.6112 N   0  0  0  0  0  0  0  0  0  0  0  0
   -5.8582   23.3497  -25.8255 C   0  0  0  0  0  0  0  0  0  0  0  0
   -4.6736   23.1970  -26.5625 C   0  0  0  0  0  0  0  0  0  0  0  0
   -4.2454   23.3845  -29.0166 C   0  0  0  0  0  0  0  0  0  0  0  0
   -5.0123   24.1621  -30.0946 C   0  0  0  0  0  0  0  0  0  0  0  0
   -5.0288   26.3910  -29.4440 F   0  0  0  0  0  0  0  0  0  0  0  0
   -4.4198   25.5214  -30.3242 C   0  0  0  0  0  0  0  0  0  0  0  0
   -3.0633   25.4888  -30.0963 F   0  0  0  0  0  0  0  0  0  0  0  0
   -4.7254   25.8949  -31.6340 F   0  0  0  0  0  0  0  0  0  0  0  0
 35 36  1  0  0  0
 36 37  1  0  0  0
 36 38  1  0  0  0
 36 34  1  0  0  0
 34 33  1  0  0  0
 33 28  1  0  0  0
 28 29  1  0  0  0
 29 30  2  0  0  0
 30 31  1  0  0  0
 31 32  2  0  0  0
 32  1  1  0  0  0
  1  2  2  0  0  0
  2  3  1  0  0  0
  3  4  2  0  0  0
  4  5  1  0  0  0
  5  6  2  0  0  0
  6  7  1  0  0  0
  7  8  2  0  0  0
  8 11  1  0  0  0
 11 12  1  0  0  0
 12 13  2  0  0  0
 12 14  1  0  0  0
 14 15  1  0  0  0
 15 16  1  0  0  0
 16 17  1  0  0  0
 17 18  1  0  0  0
 18 19  1  0  0  0
  8  9  1  0  0  0
  9 10  2  0  0  0
  6 21  1  0  0  0
 21 22  2  0  0  0
 22 23  1  0  0  0
 23 24  2  0  0  0
 24 25  1  0  0  0
 24 26  1  0  0  0
 26 27  2  0  0  0
 32 28  1  0  0  0
 10  1  1  0  0  0
 27 21  1  0  0  0
  9  4  1  0  0  0
 19 14  1  0  0  0
 11 20  1  0  0  0
M  END
> <minimizedAffinity>
-9.75891

> <CNNscore>
0.1238235235

> <CNNaffinity>
6.8465638161

> <CNN_VS>
0.8477656841

> <CNNaffinity_variance>
0.1238691062

$$$$
[H]c1nc(-c2nc3c([H])c([H])c(-c4c([H])nc([H])n4C([H])([H])C([H])([H])C(F)(F)F)c([H])c3c(N([H])C(=O)N3C([H])([H])C([H])([H])OC([H])([H])C3([H])[H])c2[H])c([H])c([H])c1C([H])([H])[H]


 38 42  0  0  0  0  0  0  0  0999 V2000
   -0.5648   21.6135  -23.3688 C   0  0  0  0  0  0  0  0  0  0  0  0
    0.0943   21.8166  -24.5362 C   0  0  0  0  0  0  0  0  0  0  0  0
   -0.5600   22.3162  -25.6797 C   0  0  0  0  0  0  0  0  0  0  0  0
   -1.8979   22.6272  -25.6894 C   0  0  0  0  0  0  0  0  0  0  0  0
   -2.4788   23.0987  -26.8036 N   0  0  0  0  0  0  0  0  0  0  0  0
   -3.8000   23.4125  -26.8413 C   0  0  0  0  0  0  0  0  0  0  0  0
   -4.5247   23.2282  -25.6880 C   0  0  0  0  0  0  0  0  0  0  0  0
   -3.9529   22.7451  -24.5278 C   0  0  0  0  0  0  0  0  0  0  0  0
   -2.5786   22.4252  -24.5117 C   0  0  0  0  0  0  0  0  0  0  0  0
   -1.9377   21.9403  -23.4044 C   0  0  0  0  0  0  0  0  0  0  0  0
   -4.6896   22.5483  -23.3461 N   0  0  0  0  0  0  0  0  0  0  0  0
   -4.9620   23.5064  -22.3780 C   0  0  0  0  0  0  0  0  0  0  0  0
   -4.5937   24.6761  -22.4112 O   0  0  0  0  0  0  0  0  0  0  0  0
   -5.7471   23.1454  -21.2067 N   0  0  0  0  0  0  0  0  0  0  0  0
   -6.0575   24.1015  -20.1832 C   0  0  0  0  0  0  0  0  0  0  0  0
   -7.5046   24.0260  -19.7427 C   0  0  0  0  0  0  0  0  0  0  0  0
   -8.1128   22.8257  -20.1186 O   0  0  0  0  0  0  0  0  0  0  0  0
   -7.2381   21.7569  -19.9421 C   0  0  0  0  0  0  0  0  0  0  0  0
   -6.2393   21.7789  -21.0703 C   0  0  0  0  0  0  0  0  0  0  0  0
   -5.0937   21.5954  -23.1354 H   0  0  0  0  0  0  0  0  0  0  0  0
   -4.3372   23.9093  -28.0957 C   0  0  0  0  0  0  0  0  0  0  0  0
   -4.9719   23.0625  -28.9590 C   0  0  0  0  0  0  0  0  0  0  0  0
   -5.4934   23.5252  -30.1795 C   0  0  0  0  0  0  0  0  0  0  0  0
   -5.3558   24.8481  -30.4947 C   0  0  0  0  0  0  0  0  0  0  0  0
   -5.9001   25.3584  -31.7792 C   0  0  0  0  0  0  0  0  0  0  0  0
   -4.7109   25.6949  -29.6104 C   0  0  0  0  0  0  0  0  0  0  0  0
   -4.2296   25.2063  -28.4579 N   0  0  0  0  0  0  0  0  0  0  0  0
    1.2357   20.8260  -21.7504 N   0  0  0  0  0  0  0  0  0  0  0  0
    1.2407   20.5017  -20.4044 C   0  0  0  0  0  0  0  0  0  0  0  0
    0.0171   20.6231  -19.9168 N   0  0  0  0  0  0  0  0  0  0  0  0
   -0.7447   21.0129  -20.9254 C   0  0  0  0  0  0  0  0  0  0  0  0
    0.0003   21.1518  -22.1068 C   0  0  0  0  0  0  0  0  0  0  0  0
    2.4309   20.7861  -22.5533 C   0  0  0  0  0  0  0  0  0  0  0  0
    3.6122   20.5425  -21.6044 C   0  0  0  0  0  0  0  0  0  0  0  0
    3.4417   18.5272  -22.7451 F   0  0  0  0  0  0  0  0  0  0  0  0
    4.1717   19.1589  -21.7604 C   0  0  0  0  0  0  0  0  0  0  0  0
    5.4977   19.2247  -22.1215 F   0  0  0  0  0  0  0  0  0  0  0  0
    3.9883   18.4946  -20.5464 F   0  0  0  0  0  0  0  0  0  0  0  0
 35 36  1  0  0  0
 36 37  1  0  0  0
 36 38  1  0  0  0
 36 34  1  0  0  0
 34 33  1  0  0  0
 33 28  1  0  0  0
 28 29  1  0  0  0
 29 30  2  0  0  0
 30 31  1  0  0  0
 31 32  2  0  0  0
 32  1  1  0  0  0
  1  2  2  0  0  0
  2  3  1  0  0  0
  3  4  2  0  0  0
  4  5  1  0  0  0
  5  6  2  0  0  0
  6  7  1  0  0  0
  7  8  2  0  0  0
  8 11  1  0  0  0
 11 12  1  0  0  0
 12 13  2  0  0  0
 12 14  1  0  0  0
 14 15  1  0  0  0
 15 16  1  0  0  0
 16 17  1  0  0  0
 17 18  1  0  0  0
 18 19  1  0  0  0
  8  9  1  0  0  0
  9 10  2  0  0  0
  6 21  1  0  0  0
 21 22  2  0  0  0
 22 23  1  0  0  0
 23 24  2  0  0  0
 24 25  1  0  0  0
 24 26  1  0  0  0
 26 27  2  0  0  0
 32 28  1  0  0  0
 10  1  1  0  0  0
 27 21  1  0  0  0
  9  4  1  0  0  0
 19 14  1  0  0  0
 11 20  1  0  0  0
M  END
> <minimizedAffinity>
-9.52016

> <CNNscore>
0.1051959097

> <CNNaffinity>
6.9262757301

> <CNN_VS>
0.7286158800

> <CNNaffinity_variance>
0.0703270286

$$$$
[H]c1nc(N([H])[H])c2c(-c3sc4c(C([H])([H])[H])c([H])c(C([H])([H])[H])c([H])c4c3[H])c(C([H])([H])N3C([H])([H])C([H])([H])N(C(=O)N([H])c4c([H])c(F)c([H])c(C(C([H])([H])[H])(C([H])([H])[H])C([H])([H])[H])c4[H])C([H])([H])C3([H])[H])c([H])n2n1


 45 50  0  0  0  0  0  0  0  0999 V2000
    4.6355   21.5208  -17.9454 C   0  0  0  0  0  0  0  0  0  0  0  0
    4.8564   20.9249  -19.1981 C   0  0  0  0  0  0  0  0  0  0  0  0
    5.8411   21.6161  -19.8087 C   0  0  0  0  0  0  0  0  0  0  0  0
    6.2513   22.6184  -18.9956 N   0  0  0  0  0  0  0  0  0  0  0  0
    7.1764   23.5391  -19.1144 N   0  0  0  0  0  0  0  0  0  0  0  0
    7.4594   24.4378  -18.1828 C   0  0  0  0  0  0  0  0  0  0  0  0
    6.7508   24.3979  -17.0425 N   0  0  0  0  0  0  0  0  0  0  0  0
    5.7921   23.4907  -16.8505 C   0  0  0  0  0  0  0  0  0  0  0  0
    5.1312   23.4155  -15.5869 N   0  0  0  0  0  0  0  0  0  0  0  0
    5.5052   22.5643  -17.8283 C   0  0  0  0  0  0  0  0  0  0  0  0
    4.5272   24.2035  -15.3033 H   0  0  0  0  0  0  0  0  0  0  0  0
    5.2413   22.6088  -14.9489 H   0  0  0  0  0  0  0  0  0  0  0  0
   -0.6329   21.2990  -14.8487 C   0  0  0  0  0  0  0  0  0  0  0  0
    0.5352   20.4383  -14.5130 C   0  0  0  0  0  0  0  0  0  0  0  0
    0.5399   19.5270  -13.4808 C   0  0  0  0  0  0  0  0  0  0  0  0
    1.6685   18.7671  -13.2835 C   0  0  0  0  0  0  0  0  0  0  0  0
    1.7033   17.7476  -12.1591 C   0  0  0  0  0  0  0  0  0  0  0  0
    2.7515   18.9219  -14.0998 C   0  0  0  0  0  0  0  0  0  0  0  0
    2.7898   19.8379  -15.1630 C   0  0  0  0  0  0  0  0  0  0  0  0
    3.8108   20.0580  -16.0147 C   0  0  0  0  0  0  0  0  0  0  0  0
    3.6509   21.0016  -16.9925 C   0  0  0  0  0  0  0  0  0  0  0  0
    2.0520   21.5614  -16.6815 S   0  0  0  0  0  0  0  0  0  0  0  0
    1.6627   20.5850  -15.3447 C   0  0  0  0  0  0  0  0  0  0  0  0
    4.1092   19.7596  -19.6917 C   0  0  0  0  0  0  0  0  0  0  0  0
    3.1673   19.9913  -20.7244 N   0  0  0  0  0  0  0  0  0  0  0  0
    3.5895   19.9656  -22.0696 C   0  0  0  0  0  0  0  0  0  0  0  0
    2.8074   20.8372  -23.0275 C   0  0  0  0  0  0  0  0  0  0  0  0
    1.4614   21.0744  -22.6668 N   0  0  0  0  0  0  0  0  0  0  0  0
    1.0225   20.8239  -21.2923 C   0  0  0  0  0  0  0  0  0  0  0  0
    2.2229   21.0405  -20.4117 C   0  0  0  0  0  0  0  0  0  0  0  0
    0.5107   21.5559  -23.6186 C   0  0  0  0  0  0  0  0  0  0  0  0
   -0.6910   21.7231  -23.1930 O   0  0  0  0  0  0  0  0  0  0  0  0
    0.8411   21.8373  -24.9494 N   0  0  0  0  0  0  0  0  0  0  0  0
    1.8738   21.6850  -25.1964 H   0  0  0  0  0  0  0  0  0  0  0  0
   -0.0443   22.2865  -25.9345 C   0  0  0  0  0  0  0  0  0  0  0  0
    0.3281   22.4932  -27.2346 C   0  0  0  0  0  0  0  0  0  0  0  0
   -0.6036   22.9236  -28.1892 C   0  0  0  0  0  0  0  0  0  0  0  0
   -0.1830   23.1155  -29.4705 F   0  0  0  0  0  0  0  0  0  0  0  0
   -1.8776   23.1295  -27.7901 C   0  0  0  0  0  0  0  0  0  0  0  0
   -2.3335   22.9427  -26.4856 C   0  0  0  0  0  0  0  0  0  0  0  0
   -1.3867   22.5191  -25.5801 C   0  0  0  0  0  0  0  0  0  0  0  0
   -3.7502   23.2090  -26.1596 C   0  0  0  0  0  0  0  0  0  0  0  0
   -4.2373   22.0998  -25.2187 C   0  0  0  0  0  0  0  0  0  0  0  0
   -3.9930   24.4987  -25.4455 C   0  0  0  0  0  0  0  0  0  0  0  0
   -4.6235   23.0926  -27.4122 C   0  0  0  0  0  0  0  0  0  0  0  0
 13 14  1  0  0  0
 14 15  2  0  0  0
 15 16  1  0  0  0
 16 17  1  0  0  0
 16 18  2  0  0  0
 18 19  1  0  0  0
 19 20  1  0  0  0
 20 21  2  0  0  0
 21 22  1  0  0  0
 22 23  1  0  0  0
 21  1  1  0  0  0
  1  2  1  0  0  0
  2 24  1  0  0  0
 24 25  1  0  0  0
 25 26  1  0  0  0
 26 27  1  0  0  0
 27 28  1  0  0  0
 28 29  1  0  0  0
 29 30  1  0  0  0
 28 31  1  0  0  0
 31 32  2  0  0  0
 31 33  1  0  0  0
 33 35  1  0  0  0
 35 36  2  0  0  0
 36 37  1  0  0  0
 37 38  1  0  0  0
 37 39  2  0  0  0
 39 40  1  0  0  0
 40 41  2  0  0  0
 40 42  1  0  0  0
 42 43  1  0  0  0
 42 44  1  0  0  0
 42 45  1  0  0  0
  2  3  2  0  0  0
  3  4  1  0  0  0
  4  5  1  0  0  0
  5  6  2  0  0  0
  6  7  1  0  0  0
  7  8  2  0  0  0
  8  9  1  0  0  0
  8 10  1  0  0  0
 23 14  1  0  0  0
 10  1  2  0  0  0
 23 19  2  0  0  0
 30 25  1  0  0  0
 41 35  1  0  0  0
 10  4  1  0  0  0
 33 34  1  0  0  0
  9 11  1  0  0  0
  9 12  1  0  0  0
M  END
> <minimizedAffinity>
-9.03707

> <CNNscore>
0.1656823158

> <CNNaffinity>
6.7627172470

> <CNN_VS>
1.1204626560

> <CNNaffinity_variance>
0.1058691889

$$$$
[H]c1nc(N([H])[H])c2c(-c3sc4c(C([H])([H])[H])c([H])c(C([H])([H])[H])c([H])c4c3[H])c(C([H])([H])N3C([H])([H])C([H])([H])N(C(=O)N([H])c4c([H])c(F)c([H])c(C(C([H])([H])[H])(C([H])([H])[H])C([H])([H])[H])c4[H])C([H])([H])C3([H])[H])c([H])n2n1


 45 50  0  0  0  0  0  0  0  0999 V2000
    3.6587   21.9647  -17.9048 C   0  0  0  0  0  0  0  0  0  0  0  0
    4.0633   21.2206  -19.0255 C   0  0  0  0  0  0  0  0  0  0  0  0
    5.1817   21.7965  -19.5131 C   0  0  0  0  0  0  0  0  0  0  0  0
    5.5003   22.8677  -18.7483 N   0  0  0  0  0  0  0  0  0  0  0  0
    6.4863   23.7301  -18.7904 N   0  0  0  0  0  0  0  0  0  0  0  0
    6.6525   24.7173  -17.9224 C   0  0  0  0  0  0  0  0  0  0  0  0
    5.7503   24.8372  -16.9347 N   0  0  0  0  0  0  0  0  0  0  0  0
    4.7191   23.9980  -16.8286 C   0  0  0  0  0  0  0  0  0  0  0  0
    3.8395   24.0952  -15.7079 N   0  0  0  0  0  0  0  0  0  0  0  0
    4.5556   22.9782  -17.7395 C   0  0  0  0  0  0  0  0  0  0  0  0
    3.2438   24.9345  -15.6250 H   0  0  0  0  0  0  0  0  0  0  0  0
    3.7841   23.3630  -14.9792 H   0  0  0  0  0  0  0  0  0  0  0  0
    0.4052   18.7874  -13.8165 C   0  0  0  0  0  0  0  0  0  0  0  0
   -0.2087   19.7919  -14.7286 C   0  0  0  0  0  0  0  0  0  0  0  0
   -1.5528   20.0906  -14.7409 C   0  0  0  0  0  0  0  0  0  0  0  0
   -2.0006   21.0576  -15.6094 C   0  0  0  0  0  0  0  0  0  0  0  0
   -3.4755   21.4162  -15.6423 C   0  0  0  0  0  0  0  0  0  0  0  0
   -1.1225   21.6994  -16.4341 C   0  0  0  0  0  0  0  0  0  0  0  0
    0.2546   21.4268  -16.4545 C   0  0  0  0  0  0  0  0  0  0  0  0
    1.1903   22.0069  -17.2319 C   0  0  0  0  0  0  0  0  0  0  0  0
    2.4897   21.5988  -17.1008 C   0  0  0  0  0  0  0  0  0  0  0  0
    2.3573   20.3950  -15.8761 S   0  0  0  0  0  0  0  0  0  0  0  0
    0.6827   20.4640  -15.5878 C   0  0  0  0  0  0  0  0  0  0  0  0
    3.3466   20.0381  -19.5232 C   0  0  0  0  0  0  0  0  0  0  0  0
    2.5181   20.2199  -20.6580 N   0  0  0  0  0  0  0  0  0  0  0  0
    3.1002   20.2867  -21.9407 C   0  0  0  0  0  0  0  0  0  0  0  0
    2.3576   21.1172  -22.9642 C   0  0  0  0  0  0  0  0  0  0  0  0
    0.9611   21.2120  -22.7669 N   0  0  0  0  0  0  0  0  0  0  0  0
    0.3862   20.8678  -21.4647 C   0  0  0  0  0  0  0  0  0  0  0  0
    1.4442   21.1622  -20.4365 C   0  0  0  0  0  0  0  0  0  0  0  0
    0.0896   21.6384  -23.8158 C   0  0  0  0  0  0  0  0  0  0  0  0
   -1.1653   21.6747  -23.5382 O   0  0  0  0  0  0  0  0  0  0  0  0
    0.5489   22.0014  -25.0872 N   0  0  0  0  0  0  0  0  0  0  0  0
    1.6139   21.9571  -25.2084 H   0  0  0  0  0  0  0  0  0  0  0  0
   -0.2508   22.4031  -26.1621 C   0  0  0  0  0  0  0  0  0  0  0  0
    0.2293   22.5541  -27.4341 C   0  0  0  0  0  0  0  0  0  0  0  0
   -0.6192   22.9382  -28.4816 C   0  0  0  0  0  0  0  0  0  0  0  0
   -0.0926   23.0755  -29.7304 F   0  0  0  0  0  0  0  0  0  0  0  0
   -1.9223   23.1559  -28.2003 C   0  0  0  0  0  0  0  0  0  0  0  0
   -2.4861   23.0247  -26.9316 C   0  0  0  0  0  0  0  0  0  0  0  0
   -1.6184   22.6452  -25.9321 C   0  0  0  0  0  0  0  0  0  0  0  0
   -3.9253   23.2988  -26.7377 C   0  0  0  0  0  0  0  0  0  0  0  0
   -4.0737   24.7561  -26.2826 C   0  0  0  0  0  0  0  0  0  0  0  0
   -4.7572   23.1599  -27.9710 C   0  0  0  0  0  0  0  0  0  0  0  0
   -4.4858   22.4548  -25.5894 C   0  0  0  0  0  0  0  0  0  0  0  0
 13 14  1  0  0  0
 14 15  2  0  0  0
 15 16  1  0  0  0
 16 17  1  0  0  0
 16 18  2  0  0  0
 18 19  1  0  0  0
 19 20  1  0  0  0
 20 21  2  0  0  0
 21 22  1  0  0  0
 22 23  1  0  0  0
 21  1  1  0  0  0
  1  2  1  0  0  0
  2 24  1  0  0  0
 24 25  1  0  0  0
 25 26  1  0  0  0
 26 27  1  0  0  0
 27 28  1  0  0  0
 28 29  1  0  0  0
 29 30  1  0  0  0
 28 31  1  0  0  0
 31 32  2  0  0  0
 31 33  1  0  0  0
 33 35  1  0  0  0
 35 36  2  0  0  0
 36 37  1  0  0  0
 37 38  1  0  0  0
 37 39  2  0  0  0
 39 40  1  0  0  0
 40 41  2  0  0  0
 40 42  1  0  0  0
 42 43  1  0  0  0
 42 44  1  0  0  0
 42 45  1  0  0  0
  2  3  2  0  0  0
  3  4  1  0  0  0
  4  5  1  0  0  0
  5  6  2  0  0  0
  6  7  1  0  0  0
  7  8  2  0  0  0
  8  9  1  0  0  0
  8 10  1  0  0  0
 23 14  1  0  0  0
 10  1  2  0  0  0
 23 19  2  0  0  0
 30 25  1  0  0  0
 41 35  1  0  0  0
 10  4  1  0  0  0
 33 34  1  0  0  0
  9 11  1  0  0  0
  9 12  1  0  0  0
M  END
> <minimizedAffinity>
-9.71590

> <CNNscore>
0.1356794834

> <CNNaffinity>
6.5897674561

> <CNN_VS>
0.8940962553

> <CNNaffinity_variance>
0.1566552222

$$$$
[H]c1nc(N([H])[H])c2c(-c3sc4c(C([H])([H])[H])c([H])c(C([H])([H])[H])c([H])c4c3[H])c(C([H])([H])N3C([H])([H])C([H])([H])N(C(=O)N([H])c4c([H])c(F)c([H])c(C(C([H])([H])[H])(C([H])([H])[H])C([H])([H])[H])c4[H])C([H])([H])C3([H])[H])c([H])n2n1


 45 50  0  0  0  0  0  0  0  0999 V2000
   -3.7483   23.7636  -25.3754 C   0  0  0  0  0  0  0  0  0  0  0  0
   -4.6416   24.6336  -24.7285 C   0  0  0  0  0  0  0  0  0  0  0  0
   -5.4874   25.1154  -25.6627 C   0  0  0  0  0  0  0  0  0  0  0  0
   -5.1681   24.5859  -26.8675 N   0  0  0  0  0  0  0  0  0  0  0  0
   -5.6879   24.7167  -28.0635 N   0  0  0  0  0  0  0  0  0  0  0  0
   -5.2484   24.0847  -29.1419 C   0  0  0  0  0  0  0  0  0  0  0  0
   -4.2027   23.2547  -28.9950 N   0  0  0  0  0  0  0  0  0  0  0  0
   -3.6204   23.0722  -27.8090 C   0  0  0  0  0  0  0  0  0  0  0  0
   -2.5779   22.1059  -27.6733 N   0  0  0  0  0  0  0  0  0  0  0  0
   -4.0846   23.7380  -26.6965 C   0  0  0  0  0  0  0  0  0  0  0  0
   -1.6817   22.2825  -28.1547 H   0  0  0  0  0  0  0  0  0  0  0  0
   -2.6913   21.2396  -27.1195 H   0  0  0  0  0  0  0  0  0  0  0  0
   -1.1079   20.9270  -20.6450 C   0  0  0  0  0  0  0  0  0  0  0  0
   -0.3728   21.2595  -21.8968 C   0  0  0  0  0  0  0  0  0  0  0  0
    0.9575   20.9683  -22.1007 C   0  0  0  0  0  0  0  0  0  0  0  0
    1.5222   21.2990  -23.3098 C   0  0  0  0  0  0  0  0  0  0  0  0
    2.9846   20.9845  -23.5695 C   0  0  0  0  0  0  0  0  0  0  0  0
    0.7700   21.9007  -24.2769 C   0  0  0  0  0  0  0  0  0  0  0  0
   -0.5882   22.2151  -24.1119 C   0  0  0  0  0  0  0  0  0  0  0  0
   -1.4039   22.8069  -25.0067 C   0  0  0  0  0  0  0  0  0  0  0  0
   -2.7067   23.0292  -24.6526 C   0  0  0  0  0  0  0  0  0  0  0  0
   -2.7479   22.3952  -23.0516 S   0  0  0  0  0  0  0  0  0  0  0  0
   -1.1332   21.8817  -22.9063 C   0  0  0  0  0  0  0  0  0  0  0  0
   -4.6019   24.9225  -23.2882 C   0  0  0  0  0  0  0  0  0  0  0  0
   -5.6015   24.3203  -22.4848 N   0  0  0  0  0  0  0  0  0  0  0  0
   -5.6338   24.5849  -21.1000 C   0  0  0  0  0  0  0  0  0  0  0  0
   -6.1987   23.4857  -20.2273 C   0  0  0  0  0  0  0  0  0  0  0  0
   -7.1455   22.6435  -20.8536 N   0  0  0  0  0  0  0  0  0  0  0  0
   -7.2385   22.6153  -22.3149 C   0  0  0  0  0  0  0  0  0  0  0  0
   -5.8673   22.9440  -22.8392 C   0  0  0  0  0  0  0  0  0  0  0  0
   -8.0215   21.8127  -20.0895 C   0  0  0  0  0  0  0  0  0  0  0  0
   -8.8567   21.0967  -20.7551 O   0  0  0  0  0  0  0  0  0  0  0  0
   -7.9956   21.7620  -18.6910 N   0  0  0  0  0  0  0  0  0  0  0  0
   -7.2479   22.3808  -18.2340 H   0  0  0  0  0  0  0  0  0  0  0  0
   -8.8392   20.9911  -17.8846 C   0  0  0  0  0  0  0  0  0  0  0  0
   -8.3755   20.1307  -16.9275 C   0  0  0  0  0  0  0  0  0  0  0  0
   -9.2640   19.3964  -16.1300 C   0  0  0  0  0  0  0  0  0  0  0  0
   -8.7525   18.5523  -15.1912 F   0  0  0  0  0  0  0  0  0  0  0  0
  -10.5892   19.5608  -16.3333 C   0  0  0  0  0  0  0  0  0  0  0  0
  -11.1388   20.4158  -17.2881 C   0  0  0  0  0  0  0  0  0  0  0  0
  -10.2316   21.1185  -18.0490 C   0  0  0  0  0  0  0  0  0  0  0  0
  -12.6069   20.5086  -17.4298 C   0  0  0  0  0  0  0  0  0  0  0  0
  -12.9246   21.7465  -18.2779 C   0  0  0  0  0  0  0  0  0  0  0  0
  -13.2393   19.3497  -18.1295 C   0  0  0  0  0  0  0  0  0  0  0  0
  -13.2653   20.7661  -16.0713 C   0  0  0  0  0  0  0  0  0  0  0  0
 13 14  1  0  0  0
 14 15  2  0  0  0
 15 16  1  0  0  0
 16 17  1  0  0  0
 16 18  2  0  0  0
 18 19  1  0  0  0
 19 20  1  0  0  0
 20 21  2  0  0  0
 21 22  1  0  0  0
 22 23  1  0  0  0
 21  1  1  0  0  0
  1  2  1  0  0  0
  2 24  1  0  0  0
 24 25  1  0  0  0
 25 26  1  0  0  0
 26 27  1  0  0  0
 27 28  1  0  0  0
 28 29  1  0  0  0
 29 30  1  0  0  0
 28 31  1  0  0  0
 31 32  2  0  0  0
 31 33  1  0  0  0
 33 35  1  0  0  0
 35 36  2  0  0  0
 36 37  1  0  0  0
 37 38  1  0  0  0
 37 39  2  0  0  0
 39 40  1  0  0  0
 40 41  2  0  0  0
 40 42  1  0  0  0
 42 43  1  0  0  0
 42 44  1  0  0  0
 42 45  1  0  0  0
  2  3  2  0  0  0
  3  4  1  0  0  0
  4  5  1  0  0  0
  5  6  2  0  0  0
  6  7  1  0  0  0
  7  8  2  0  0  0
  8  9  1  0  0  0
  8 10  1  0  0  0
 23 14  1  0  0  0
 10  1  2  0  0  0
 23 19  2  0  0  0
 30 25  1  0  0  0
 41 35  1  0  0  0
 10  4  1  0  0  0
 33 34  1  0  0  0
  9 11  1  0  0  0
  9 12  1  0  0  0
M  END
> <minimizedAffinity>
-9.53113

> <CNNscore>
0.1095796376

> <CNNaffinity>
7.0931754112

> <CNN_VS>
0.7772675753

> <CNNaffinity_variance>
0.0983797088

$$$$
[H]c1nc(N([H])[H])c2c(-c3sc4c(C([H])([H])[H])c([H])c(C([H])([H])[H])c([H])c4c3[H])c(C([H])([H])N3C([H])([H])C([H])([H])N(C(=O)N([H])c4c([H])c(F)c([H])c(C(C([H])([H])[H])(C([H])([H])[H])C([H])([H])[H])c4[H])C([H])([H])C3([H])[H])c([H])n2n1


 45 50  0  0  0  0  0  0  0  0999 V2000
   -8.5227   22.0343  -17.6303 C   0  0  0  0  0  0  0  0  0  0  0  0
   -8.7946   22.9599  -18.6513 C   0  0  0  0  0  0  0  0  0  0  0  0
  -10.0561   22.7382  -19.0751 C   0  0  0  0  0  0  0  0  0  0  0  0
  -10.5909   21.7165  -18.3651 N   0  0  0  0  0  0  0  0  0  0  0  0
  -11.7693   21.1430  -18.3798 N   0  0  0  0  0  0  0  0  0  0  0  0
  -12.1282   20.1535  -17.5750 C   0  0  0  0  0  0  0  0  0  0  0  0
  -11.2227   19.7136  -16.6858 N   0  0  0  0  0  0  0  0  0  0  0  0
  -10.0025   20.2472  -16.6135 C   0  0  0  0  0  0  0  0  0  0  0  0
   -9.1036   19.8224  -15.5886 N   0  0  0  0  0  0  0  0  0  0  0  0
   -9.6406   21.2729  -17.4583 C   0  0  0  0  0  0  0  0  0  0  0  0
   -8.7450   18.8547  -15.6226 H   0  0  0  0  0  0  0  0  0  0  0  0
   -8.8072   20.4436  -14.8162 H   0  0  0  0  0  0  0  0  0  0  0  0
   -2.7946   20.2962  -16.3803 C   0  0  0  0  0  0  0  0  0  0  0  0
   -3.5990   21.1426  -15.4559 C   0  0  0  0  0  0  0  0  0  0  0  0
   -3.1352   21.6020  -14.2436 C   0  0  0  0  0  0  0  0  0  0  0  0
   -3.9599   22.4004  -13.4870 C   0  0  0  0  0  0  0  0  0  0  0  0
   -3.4759   22.9299  -12.1490 C   0  0  0  0  0  0  0  0  0  0  0  0
   -5.2066   22.7232  -13.9395 C   0  0  0  0  0  0  0  0  0  0  0  0
   -5.7193   22.2774  -15.1681 C   0  0  0  0  0  0  0  0  0  0  0  0
   -6.9323   22.5437  -15.6916 C   0  0  0  0  0  0  0  0  0  0  0  0
   -7.2457   22.0110  -16.9123 C   0  0  0  0  0  0  0  0  0  0  0  0
   -5.8105   21.1381  -17.2928 S   0  0  0  0  0  0  0  0  0  0  0  0
   -4.8891   21.4853  -15.9062 C   0  0  0  0  0  0  0  0  0  0  0  0
   -7.8288   23.9615  -19.1245 C   0  0  0  0  0  0  0  0  0  0  0  0
   -7.4014   23.8553  -20.4711 N   0  0  0  0  0  0  0  0  0  0  0  0
   -6.8262   22.6505  -20.9253 C   0  0  0  0  0  0  0  0  0  0  0  0
   -5.8192   22.7774  -22.0472 C   0  0  0  0  0  0  0  0  0  0  0  0
   -6.0001   23.8914  -22.8983 N   0  0  0  0  0  0  0  0  0  0  0  0
   -6.8391   25.0100  -22.4626 C   0  0  0  0  0  0  0  0  0  0  0  0
   -6.7540   25.0516  -20.9612 C   0  0  0  0  0  0  0  0  0  0  0  0
   -5.3797   23.9531  -24.1839 C   0  0  0  0  0  0  0  0  0  0  0  0
   -5.6214   25.0025  -24.8864 O   0  0  0  0  0  0  0  0  0  0  0  0
   -4.5504   22.9398  -24.6786 N   0  0  0  0  0  0  0  0  0  0  0  0
   -4.3962   22.1186  -24.0058 H   0  0  0  0  0  0  0  0  0  0  0  0
   -3.9339   22.9273  -25.9340 C   0  0  0  0  0  0  0  0  0  0  0  0
   -4.6260   23.0588  -27.1067 C   0  0  0  0  0  0  0  0  0  0  0  0
   -3.9580   23.0617  -28.3389 C   0  0  0  0  0  0  0  0  0  0  0  0
   -4.6923   23.1949  -29.4784 F   0  0  0  0  0  0  0  0  0  0  0  0
   -2.6136   22.9300  -28.3364 C   0  0  0  0  0  0  0  0  0  0  0  0
   -1.8387   22.7901  -27.1855 C   0  0  0  0  0  0  0  0  0  0  0  0
   -2.5340   22.7931  -25.9970 C   0  0  0  0  0  0  0  0  0  0  0  0
   -0.3729   22.6429  -27.3028 C   0  0  0  0  0  0  0  0  0  0  0  0
    0.2751   23.4014  -26.1377 C   0  0  0  0  0  0  0  0  0  0  0  0
    0.1208   21.2357  -27.2108 C   0  0  0  0  0  0  0  0  0  0  0  0
    0.1391   23.3312  -28.5713 C   0  0  0  0  0  0  0  0  0  0  0  0
 13 14  1  0  0  0
 14 15  2  0  0  0
 15 16  1  0  0  0
 16 17  1  0  0  0
 16 18  2  0  0  0
 18 19  1  0  0  0
 19 20  1  0  0  0
 20 21  2  0  0  0
 21 22  1  0  0  0
 22 23  1  0  0  0
 21  1  1  0  0  0
  1  2  1  0  0  0
  2 24  1  0  0  0
 24 25  1  0  0  0
 25 26  1  0  0  0
 26 27  1  0  0  0
 27 28  1  0  0  0
 28 29  1  0  0  0
 29 30  1  0  0  0
 28 31  1  0  0  0
 31 32  2  0  0  0
 31 33  1  0  0  0
 33 35  1  0  0  0
 35 36  2  0  0  0
 36 37  1  0  0  0
 37 38  1  0  0  0
 37 39  2  0  0  0
 39 40  1  0  0  0
 40 41  2  0  0  0
 40 42  1  0  0  0
 42 43  1  0  0  0
 42 44  1  0  0  0
 42 45  1  0  0  0
  2  3  2  0  0  0
  3  4  1  0  0  0
  4  5  1  0  0  0
  5  6  2  0  0  0
  6  7  1  0  0  0
  7  8  2  0  0  0
  8  9  1  0  0  0
  8 10  1  0  0  0
 23 14  1  0  0  0
 10  1  2  0  0  0
 23 19  2  0  0  0
 30 25  1  0  0  0
 41 35  1  0  0  0
 10  4  1  0  0  0
 33 34  1  0  0  0
  9 11  1  0  0  0
  9 12  1  0  0  0
M  END
> <minimizedAffinity>
-8.05262

> <CNNscore>
0.0896013901

> <CNNaffinity>
6.4278779030

> <CNN_VS>
0.5759468079

> <CNNaffinity_variance>
0.5582473874

$$$$
[H]c1nc(N([H])[H])c2c(-c3sc4c(C([H])([H])[H])c([H])c(C([H])([H])[H])c([H])c4c3[H])c(C([H])([H])N3C([H])([H])C([H])([H])N(C(=O)N([H])c4c([H])c(F)c([H])c(C(C([H])([H])[H])(C([H])([H])[H])C([H])([H])[H])c4[H])C([H])([H])C3([H])[H])c([H])n2n1


 45 50  0  0  0  0  0  0  0  0999 V2000
   -4.6333   22.7665  -25.0737 C   0  0  0  0  0  0  0  0  0  0  0  0
   -3.5399   21.8891  -24.9840 C   0  0  0  0  0  0  0  0  0  0  0  0
   -2.9076   21.9051  -26.1756 C   0  0  0  0  0  0  0  0  0  0  0  0
   -3.5524   22.7547  -27.0101 N   0  0  0  0  0  0  0  0  0  0  0  0
   -3.3282   23.1307  -28.2454 N   0  0  0  0  0  0  0  0  0  0  0  0
   -4.0673   24.0117  -28.9037 C   0  0  0  0  0  0  0  0  0  0  0  0
   -5.1126   24.5544  -28.2581 N   0  0  0  0  0  0  0  0  0  0  0  0
   -5.4040   24.2192  -27.0005 C   0  0  0  0  0  0  0  0  0  0  0  0
   -6.4605   24.8922  -26.3150 N   0  0  0  0  0  0  0  0  0  0  0  0
   -4.6300   23.2993  -26.3287 C   0  0  0  0  0  0  0  0  0  0  0  0
   -7.4284   24.7448  -26.6432 H   0  0  0  0  0  0  0  0  0  0  0  0
   -6.2901   25.5220  -25.5122 H   0  0  0  0  0  0  0  0  0  0  0  0
   -6.9458   25.8123  -20.3018 C   0  0  0  0  0  0  0  0  0  0  0  0
   -7.3283   24.4094  -20.6235 C   0  0  0  0  0  0  0  0  0  0  0  0
   -8.2236   23.6730  -19.8804 C   0  0  0  0  0  0  0  0  0  0  0  0
   -8.5203   22.3950  -20.2911 C   0  0  0  0  0  0  0  0  0  0  0  0
   -9.5094   21.5594  -19.4984 C   0  0  0  0  0  0  0  0  0  0  0  0
   -7.9346   21.8809  -21.4117 C   0  0  0  0  0  0  0  0  0  0  0  0
   -7.0175   22.5957  -22.1984 C   0  0  0  0  0  0  0  0  0  0  0  0
   -6.3924   22.1697  -23.3138 C   0  0  0  0  0  0  0  0  0  0  0  0
   -5.5273   23.0239  -23.9417 C   0  0  0  0  0  0  0  0  0  0  0  0
   -5.6160   24.4170  -22.9328 S   0  0  0  0  0  0  0  0  0  0  0  0
   -6.7329   23.8617  -21.7768 C   0  0  0  0  0  0  0  0  0  0  0  0
   -3.2054   21.1213  -23.7764 C   0  0  0  0  0  0  0  0  0  0  0  0
   -2.2971   21.7178  -22.8673 N   0  0  0  0  0  0  0  0  0  0  0  0
   -1.0273   21.1368  -22.6708 C   0  0  0  0  0  0  0  0  0  0  0  0
   -0.4063   21.3444  -21.3069 C   0  0  0  0  0  0  0  0  0  0  0  0
   -0.8066   22.5211  -20.6336 N   0  0  0  0  0  0  0  0  0  0  0  0
   -2.0111   23.2323  -21.0672 C   0  0  0  0  0  0  0  0  0  0  0  0
   -2.9302   22.1992  -21.6599 C   0  0  0  0  0  0  0  0  0  0  0  0
   -0.0582   23.0381  -19.5318 C   0  0  0  0  0  0  0  0  0  0  0  0
   -0.4981   24.1226  -18.9995 O   0  0  0  0  0  0  0  0  0  0  0  0
    1.0963   22.4193  -19.0382 N   0  0  0  0  0  0  0  0  0  0  0  0
    1.3655   21.5092  -19.5382 H   0  0  0  0  0  0  0  0  0  0  0  0
    1.8862   22.8850  -17.9820 C   0  0  0  0  0  0  0  0  0  0  0  0
    2.9107   23.7754  -18.1524 C   0  0  0  0  0  0  0  0  0  0  0  0
    3.6589   24.2282  -17.0570 C   0  0  0  0  0  0  0  0  0  0  0  0
    4.6693   25.1143  -17.2791 F   0  0  0  0  0  0  0  0  0  0  0  0
    3.3414   23.7606  -15.8302 C   0  0  0  0  0  0  0  0  0  0  0  0
    2.3143   22.8524  -15.5757 C   0  0  0  0  0  0  0  0  0  0  0  0
    1.6041   22.4340  -16.6786 C   0  0  0  0  0  0  0  0  0  0  0  0
    2.0622   22.4007  -14.1913 C   0  0  0  0  0  0  0  0  0  0  0  0
    0.6253   21.8688  -14.1198 C   0  0  0  0  0  0  0  0  0  0  0  0
    2.9434   21.2858  -13.7299 C   0  0  0  0  0  0  0  0  0  0  0  0
    2.1067   23.5844  -13.2206 C   0  0  0  0  0  0  0  0  0  0  0  0
 13 14  1  0  0  0
 14 15  2  0  0  0
 15 16  1  0  0  0
 16 17  1  0  0  0
 16 18  2  0  0  0
 18 19  1  0  0  0
 19 20  1  0  0  0
 20 21  2  0  0  0
 21 22  1  0  0  0
 22 23  1  0  0  0
 21  1  1  0  0  0
  1  2  1  0  0  0
  2 24  1  0  0  0
 24 25  1  0  0  0
 25 26  1  0  0  0
 26 27  1  0  0  0
 27 28  1  0  0  0
 28 29  1  0  0  0
 29 30  1  0  0  0
 28 31  1  0  0  0
 31 32  2  0  0  0
 31 33  1  0  0  0
 33 35  1  0  0  0
 35 36  2  0  0  0
 36 37  1  0  0  0
 37 38  1  0  0  0
 37 39  2  0  0  0
 39 40  1  0  0  0
 40 41  2  0  0  0
 40 42  1  0  0  0
 42 43  1  0  0  0
 42 44  1  0  0  0
 42 45  1  0  0  0
  2  3  2  0  0  0
  3  4  1  0  0  0
  4  5  1  0  0  0
  5  6  2  0  0  0
  6  7  1  0  0  0
  7  8  2  0  0  0
  8  9  1  0  0  0
  8 10  1  0  0  0
 23 14  1  0  0  0
 10  1  2  0  0  0
 23 19  2  0  0  0
 30 25  1  0  0  0
 41 35  1  0  0  0
 10  4  1  0  0  0
 33 34  1  0  0  0
  9 11  1  0  0  0
  9 12  1  0  0  0
M  END
> <minimizedAffinity>
-10.48751

> <CNNscore>
0.0761673898

> <CNNaffinity>
6.6150803566

> <CNN_VS>
0.5038533807

> <CNNaffinity_variance>
0.1755679399

$$$$
[H]c1nc(N([H])[H])c2c(-c3sc4c(C([H])([H])[H])c([H])c(C([H])([H])[H])c([H])c4c3[H])c(C([H])([H])N3C([H])([H])C([H])([H])N(C(=O)N([H])c4c([H])c(F)c([H])c(C(C([H])([H])[H])(C([H])([H])[H])C([H])([H])[H])c4[H])C([H])([H])C3([H])[H])c([H])n2n1


 45 50  0  0  0  0  0  0  0  0999 V2000
   -2.7618   23.4406  -24.5221 C   0  0  0  0  0  0  0  0  0  0  0  0
   -3.5543   24.4185  -23.8985 C   0  0  0  0  0  0  0  0  0  0  0  0
   -4.4406   24.8661  -24.8119 C   0  0  0  0  0  0  0  0  0  0  0  0
   -4.2431   24.2122  -25.9812 N   0  0  0  0  0  0  0  0  0  0  0  0
   -4.8439   24.2673  -27.1446 N   0  0  0  0  0  0  0  0  0  0  0  0
   -4.5228   23.5154  -28.1873 C   0  0  0  0  0  0  0  0  0  0  0  0
   -3.5162   22.6388  -28.0371 N   0  0  0  0  0  0  0  0  0  0  0  0
   -2.8568   22.5276  -26.8832 C   0  0  0  0  0  0  0  0  0  0  0  0
   -1.8617   21.5148  -26.7311 N   0  0  0  0  0  0  0  0  0  0  0  0
   -3.1980   23.3177  -25.8081 C   0  0  0  0  0  0  0  0  0  0  0  0
   -0.9961   21.5919  -27.2888 H   0  0  0  0  0  0  0  0  0  0  0  0
   -1.9804   20.7102  -26.0918 H   0  0  0  0  0  0  0  0  0  0  0  0
    2.8355   21.2048  -23.4896 C   0  0  0  0  0  0  0  0  0  0  0  0
    1.6471   20.8024  -22.6872 C   0  0  0  0  0  0  0  0  0  0  0  0
    1.6963   19.8940  -21.6536 C   0  0  0  0  0  0  0  0  0  0  0  0
    0.5376   19.6217  -20.9656 C   0  0  0  0  0  0  0  0  0  0  0  0
    0.5594   18.6308  -19.8156 C   0  0  0  0  0  0  0  0  0  0  0  0
   -0.6271   20.2450  -21.3090 C   0  0  0  0  0  0  0  0  0  0  0  0
   -0.7225   21.1770  -22.3546 C   0  0  0  0  0  0  0  0  0  0  0  0
   -1.8248   21.8367  -22.7623 C   0  0  0  0  0  0  0  0  0  0  0  0
   -1.7104   22.7109  -23.8087 C   0  0  0  0  0  0  0  0  0  0  0  0
   -0.0376   22.5770  -24.1963 S   0  0  0  0  0  0  0  0  0  0  0  0
    0.4356   21.4353  -23.0281 C   0  0  0  0  0  0  0  0  0  0  0  0
   -3.3898   24.8322  -22.4980 C   0  0  0  0  0  0  0  0  0  0  0  0
   -4.4143   24.4583  -21.5935 N   0  0  0  0  0  0  0  0  0  0  0  0
   -4.5018   23.1204  -21.1562 C   0  0  0  0  0  0  0  0  0  0  0  0
   -5.8868   22.6290  -20.7967 C   0  0  0  0  0  0  0  0  0  0  0  0
   -6.7846   23.6256  -20.3507 N   0  0  0  0  0  0  0  0  0  0  0  0
   -6.4930   25.0365  -20.6136 C   0  0  0  0  0  0  0  0  0  0  0  0
   -5.6873   25.0795  -21.8833 C   0  0  0  0  0  0  0  0  0  0  0  0
   -7.9791   23.2873  -19.6435 C   0  0  0  0  0  0  0  0  0  0  0  0
   -8.7193   24.2690  -19.2676 O   0  0  0  0  0  0  0  0  0  0  0  0
   -8.3479   21.9672  -19.3596 N   0  0  0  0  0  0  0  0  0  0  0  0
   -7.6733   21.2227  -19.7357 H   0  0  0  0  0  0  0  0  0  0  0  0
   -9.4876   21.5703  -18.6526 C   0  0  0  0  0  0  0  0  0  0  0  0
  -10.6971   22.1979  -18.7736 C   0  0  0  0  0  0  0  0  0  0  0  0
  -11.8153   21.7471  -18.0587 C   0  0  0  0  0  0  0  0  0  0  0  0
  -12.9973   22.4064  -18.2131 F   0  0  0  0  0  0  0  0  0  0  0  0
  -11.6653   20.6778  -17.2470 C   0  0  0  0  0  0  0  0  0  0  0  0
  -10.4673   19.9866  -17.0693 C   0  0  0  0  0  0  0  0  0  0  0  0
   -9.3947   20.4615  -17.7902 C   0  0  0  0  0  0  0  0  0  0  0  0
  -10.4167   18.8340  -16.1457 C   0  0  0  0  0  0  0  0  0  0  0  0
  -10.0987   19.3641  -14.7419 C   0  0  0  0  0  0  0  0  0  0  0  0
  -11.6987   18.0761  -16.0251 C   0  0  0  0  0  0  0  0  0  0  0  0
   -9.2523   17.9060  -16.5036 C   0  0  0  0  0  0  0  0  0  0  0  0
 13 14  1  0  0  0
 14 15  2  0  0  0
 15 16  1  0  0  0
 16 17  1  0  0  0
 16 18  2  0  0  0
 18 19  1  0  0  0
 19 20  1  0  0  0
 20 21  2  0  0  0
 21 22  1  0  0  0
 22 23  1  0  0  0
 21  1  1  0  0  0
  1  2  1  0  0  0
  2 24  1  0  0  0
 24 25  1  0  0  0
 25 26  1  0  0  0
 26 27  1  0  0  0
 27 28  1  0  0  0
 28 29  1  0  0  0
 29 30  1  0  0  0
 28 31  1  0  0  0
 31 32  2  0  0  0
 31 33  1  0  0  0
 33 35  1  0  0  0
 35 36  2  0  0  0
 36 37  1  0  0  0
 37 38  1  0  0  0
 37 39  2  0  0  0
 39 40  1  0  0  0
 40 41  2  0  0  0
 40 42  1  0  0  0
 42 43  1  0  0  0
 42 44  1  0  0  0
 42 45  1  0  0  0
  2  3  2  0  0  0
  3  4  1  0  0  0
  4  5  1  0  0  0
  5  6  2  0  0  0
  6  7  1  0  0  0
  7  8  2  0  0  0
  8  9  1  0  0  0
  8 10  1  0  0  0
 23 14  1  0  0  0
 10  1  2  0  0  0
 23 19  2  0  0  0
 30 25  1  0  0  0
 41 35  1  0  0  0
 10  4  1  0  0  0
 33 34  1  0  0  0
  9 11  1  0  0  0
  9 12  1  0  0  0
M  END
> <minimizedAffinity>
-8.82713

> <CNNscore>
0.0645689145

> <CNNaffinity>
6.6117753983

> <CNN_VS>
0.4269151688

> <CNNaffinity_variance>
0.1816078871

$$$$
[H]c1nc(N([H])[H])c2c(-c3sc4c(C([H])([H])[H])c([H])c(C([H])([H])[H])c([H])c4c3[H])c(C([H])([H])N3C([H])([H])C([H])([H])N(C(=O)N([H])c4c([H])c(F)c([H])c(C(C([H])([H])[H])(C([H])([H])[H])C([H])([H])[H])c4[H])C([H])([H])C3([H])[H])c([H])n2n1


 45 50  0  0  0  0  0  0  0  0999 V2000
   -9.1945   22.0274  -18.2822 C   0  0  0  0  0  0  0  0  0  0  0  0
   -9.0262   23.2609  -18.9327 C   0  0  0  0  0  0  0  0  0  0  0  0
  -10.2530   23.7220  -19.2529 C   0  0  0  0  0  0  0  0  0  0  0  0
  -11.1856   22.8353  -18.8310 N   0  0  0  0  0  0  0  0  0  0  0  0
  -12.4952   22.8288  -18.8817 N   0  0  0  0  0  0  0  0  0  0  0  0
  -13.2571   21.8672  -18.3812 C   0  0  0  0  0  0  0  0  0  0  0  0
  -12.6431   20.8342  -17.7813 N   0  0  0  0  0  0  0  0  0  0  0  0
  -11.3138   20.7708  -17.6932 C   0  0  0  0  0  0  0  0  0  0  0  0
  -10.7026   19.7090  -16.9597 N   0  0  0  0  0  0  0  0  0  0  0  0
  -10.5330   21.7750  -18.2209 C   0  0  0  0  0  0  0  0  0  0  0  0
  -10.7851   18.7484  -17.3293 H   0  0  0  0  0  0  0  0  0  0  0  0
  -10.1903   19.8671  -16.0750 H   0  0  0  0  0  0  0  0  0  0  0  0
   -4.6321   20.5945  -14.4709 C   0  0  0  0  0  0  0  0  0  0  0  0
   -4.8250   19.9209  -15.7850 C   0  0  0  0  0  0  0  0  0  0  0  0
   -3.9988   18.9281  -16.2622 C   0  0  0  0  0  0  0  0  0  0  0  0
   -4.2931   18.3600  -17.4789 C   0  0  0  0  0  0  0  0  0  0  0  0
   -3.4066   17.2574  -18.0298 C   0  0  0  0  0  0  0  0  0  0  0  0
   -5.3824   18.7791  -18.1866 C   0  0  0  0  0  0  0  0  0  0  0  0
   -6.2509   19.7869  -17.7383 C   0  0  0  0  0  0  0  0  0  0  0  0
   -7.3435   20.2627  -18.3676 C   0  0  0  0  0  0  0  0  0  0  0  0
   -8.0640   21.2550  -17.7605 C   0  0  0  0  0  0  0  0  0  0  0  0
   -7.1728   21.4959  -16.3065 S   0  0  0  0  0  0  0  0  0  0  0  0
   -5.9444   20.3413  -16.5299 C   0  0  0  0  0  0  0  0  0  0  0  0
   -7.7171   23.8783  -19.1874 C   0  0  0  0  0  0  0  0  0  0  0  0
   -7.2629   23.8901  -20.5294 N   0  0  0  0  0  0  0  0  0  0  0  0
   -7.0740   22.6698  -21.2105 C   0  0  0  0  0  0  0  0  0  0  0  0
   -6.0113   22.6684  -22.2874 C   0  0  0  0  0  0  0  0  0  0  0  0
   -5.7752   23.9179  -22.9047 N   0  0  0  0  0  0  0  0  0  0  0  0
   -6.2400   25.1471  -22.2584 C   0  0  0  0  0  0  0  0  0  0  0  0
   -6.2395   24.8807  -20.7777 C   0  0  0  0  0  0  0  0  0  0  0  0
   -5.0889   24.0115  -24.1544 C   0  0  0  0  0  0  0  0  0  0  0  0
   -4.9400   25.1933  -24.6386 O   0  0  0  0  0  0  0  0  0  0  0  0
   -4.5961   22.8940  -24.8382 N   0  0  0  0  0  0  0  0  0  0  0  0
   -4.7532   21.9578  -24.3385 H   0  0  0  0  0  0  0  0  0  0  0  0
   -3.9390   22.9146  -26.0727 C   0  0  0  0  0  0  0  0  0  0  0  0
   -4.5925   23.0777  -27.2634 C   0  0  0  0  0  0  0  0  0  0  0  0
   -3.8846   23.1130  -28.4726 C   0  0  0  0  0  0  0  0  0  0  0  0
   -4.5814   23.2770  -29.6316 F   0  0  0  0  0  0  0  0  0  0  0  0
   -2.5410   22.9805  -28.4298 C   0  0  0  0  0  0  0  0  0  0  0  0
   -1.8041   22.8095  -27.2584 C   0  0  0  0  0  0  0  0  0  0  0  0
   -2.5377   22.7812  -26.0935 C   0  0  0  0  0  0  0  0  0  0  0  0
   -0.3352   22.6645  -27.3317 C   0  0  0  0  0  0  0  0  0  0  0  0
    0.2737   23.3821  -26.1204 C   0  0  0  0  0  0  0  0  0  0  0  0
    0.1551   21.2543  -27.2712 C   0  0  0  0  0  0  0  0  0  0  0  0
    0.2190   23.3950  -28.5583 C   0  0  0  0  0  0  0  0  0  0  0  0
 13 14  1  0  0  0
 14 15  2  0  0  0
 15 16  1  0  0  0
 16 17  1  0  0  0
 16 18  2  0  0  0
 18 19  1  0  0  0
 19 20  1  0  0  0
 20 21  2  0  0  0
 21 22  1  0  0  0
 22 23  1  0  0  0
 21  1  1  0  0  0
  1  2  1  0  0  0
  2 24  1  0  0  0
 24 25  1  0  0  0
 25 26  1  0  0  0
 26 27  1  0  0  0
 27 28  1  0  0  0
 28 29  1  0  0  0
 29 30  1  0  0  0
 28 31  1  0  0  0
 31 32  2  0  0  0
 31 33  1  0  0  0
 33 35  1  0  0  0
 35 36  2  0  0  0
 36 37  1  0  0  0
 37 38  1  0  0  0
 37 39  2  0  0  0
 39 40  1  0  0  0
 40 41  2  0  0  0
 40 42  1  0  0  0
 42 43  1  0  0  0
 42 44  1  0  0  0
 42 45  1  0  0  0
  2  3  2  0  0  0
  3  4  1  0  0  0
  4  5  1  0  0  0
  5  6  2  0  0  0
  6  7  1  0  0  0
  7  8  2  0  0  0
  8  9  1  0  0  0
  8 10  1  0  0  0
 23 14  1  0  0  0
 10  1  2  0  0  0
 23 19  2  0  0  0
 30 25  1  0  0  0
 41 35  1  0  0  0
 10  4  1  0  0  0
 33 34  1  0  0  0
  9 11  1  0  0  0
  9 12  1  0  0  0
M  END
> <minimizedAffinity>
-8.23898

> <CNNscore>
0.0633311793

> <CNNaffinity>
6.2725033760

> <CNN_VS>
0.3972450495

> <CNNaffinity_variance>
0.1432120204

$$$$
[H]c1nc(N([H])[H])c2c(-c3sc4c(C([H])([H])[H])c([H])c(C([H])([H])[H])c([H])c4c3[H])c(C([H])([H])N3C([H])([H])C([H])([H])N(C(=O)N([H])c4c([H])c(F)c([H])c(C(C([H])([H])[H])(C([H])([H])[H])C([H])([H])[H])c4[H])C([H])([H])C3([H])[H])c([H])n2n1


 45 50  0  0  0  0  0  0  0  0999 V2000
   -3.9531   23.8651  -25.7271 C   0  0  0  0  0  0  0  0  0  0  0  0
   -4.7991   24.8187  -25.1370 C   0  0  0  0  0  0  0  0  0  0  0  0
   -5.6353   25.2683  -26.0955 C   0  0  0  0  0  0  0  0  0  0  0  0
   -5.3552   24.6389  -27.2614 N   0  0  0  0  0  0  0  0  0  0  0  0
   -5.8844   24.7053  -28.4585 N   0  0  0  0  0  0  0  0  0  0  0  0
   -5.4870   23.9775  -29.4921 C   0  0  0  0  0  0  0  0  0  0  0  0
   -4.4766   23.1148  -29.2951 N   0  0  0  0  0  0  0  0  0  0  0  0
   -3.8873   22.9935  -28.1047 C   0  0  0  0  0  0  0  0  0  0  0  0
   -2.8862   21.9943  -27.9088 N   0  0  0  0  0  0  0  0  0  0  0  0
   -4.3074   23.7584  -27.0394 C   0  0  0  0  0  0  0  0  0  0  0  0
   -1.9895   22.0954  -28.4108 H   0  0  0  0  0  0  0  0  0  0  0  0
   -3.0299   21.1764  -27.2919 H   0  0  0  0  0  0  0  0  0  0  0  0
   -1.4668   21.0820  -20.8828 C   0  0  0  0  0  0  0  0  0  0  0  0
   -0.6912   21.4023  -22.1132 C   0  0  0  0  0  0  0  0  0  0  0  0
    0.6453   21.1108  -22.2703 C   0  0  0  0  0  0  0  0  0  0  0  0
    1.2491   21.4294  -23.4636 C   0  0  0  0  0  0  0  0  0  0  0  0
    2.7195   21.1141  -23.6718 C   0  0  0  0  0  0  0  0  0  0  0  0
    0.5285   22.0198  -24.4612 C   0  0  0  0  0  0  0  0  0  0  0  0
   -0.8347   22.3342  -24.3442 C   0  0  0  0  0  0  0  0  0  0  0  0
   -1.6211   22.9154  -25.2716 C   0  0  0  0  0  0  0  0  0  0  0  0
   -2.9351   23.1397  -24.9627 C   0  0  0  0  0  0  0  0  0  0  0  0
   -3.0282   22.5227  -23.3574 S   0  0  0  0  0  0  0  0  0  0  0  0
   -1.4187   22.0128  -23.1538 C   0  0  0  0  0  0  0  0  0  0  0  0
   -4.7280   25.2096  -23.7221 C   0  0  0  0  0  0  0  0  0  0  0  0
   -5.4279   24.3976  -22.7957 N   0  0  0  0  0  0  0  0  0  0  0  0
   -6.6680   23.8350  -23.1620 C   0  0  0  0  0  0  0  0  0  0  0  0
   -7.6455   23.5911  -22.0332 C   0  0  0  0  0  0  0  0  0  0  0  0
   -7.0609   23.3616  -20.7669 N   0  0  0  0  0  0  0  0  0  0  0  0
   -5.6645   23.7357  -20.5326 C   0  0  0  0  0  0  0  0  0  0  0  0
   -5.3731   24.8992  -21.4408 C   0  0  0  0  0  0  0  0  0  0  0  0
   -7.8051   22.7681  -19.7013 C   0  0  0  0  0  0  0  0  0  0  0  0
   -7.1757   22.5877  -18.5947 O   0  0  0  0  0  0  0  0  0  0  0  0
   -9.1474   22.3919  -19.8272 N   0  0  0  0  0  0  0  0  0  0  0  0
   -9.5847   22.6053  -20.7833 H   0  0  0  0  0  0  0  0  0  0  0  0
   -9.9238   21.7861  -18.8340 C   0  0  0  0  0  0  0  0  0  0  0  0
  -11.2275   22.1251  -18.5952 C   0  0  0  0  0  0  0  0  0  0  0  0
  -11.9694   21.4719  -17.6016 C   0  0  0  0  0  0  0  0  0  0  0  0
  -13.2638   21.8464  -17.4021 F   0  0  0  0  0  0  0  0  0  0  0  0
  -11.3619   20.5003  -16.8864 C   0  0  0  0  0  0  0  0  0  0  0  0
  -10.0387   20.0993  -17.0687 C   0  0  0  0  0  0  0  0  0  0  0  0
   -9.3464   20.7657  -18.0548 C   0  0  0  0  0  0  0  0  0  0  0  0
   -9.4739   19.0297  -16.2196 C   0  0  0  0  0  0  0  0  0  0  0  0
   -7.9693   18.9419  -16.5050 C   0  0  0  0  0  0  0  0  0  0  0  0
   -9.6069   19.2657  -14.7502 C   0  0  0  0  0  0  0  0  0  0  0  0
  -10.0441   17.6656  -16.6188 C   0  0  0  0  0  0  0  0  0  0  0  0
 13 14  1  0  0  0
 14 15  2  0  0  0
 15 16  1  0  0  0
 16 17  1  0  0  0
 16 18  2  0  0  0
 18 19  1  0  0  0
 19 20  1  0  0  0
 20 21  2  0  0  0
 21 22  1  0  0  0
 22 23  1  0  0  0
 21  1  1  0  0  0
  1  2  1  0  0  0
  2 24  1  0  0  0
 24 25  1  0  0  0
 25 26  1  0  0  0
 26 27  1  0  0  0
 27 28  1  0  0  0
 28 29  1  0  0  0
 29 30  1  0  0  0
 28 31  1  0  0  0
 31 32  2  0  0  0
 31 33  1  0  0  0
 33 35  1  0  0  0
 35 36  2  0  0  0
 36 37  1  0  0  0
 37 38  1  0  0  0
 37 39  2  0  0  0
 39 40  1  0  0  0
 40 41  2  0  0  0
 40 42  1  0  0  0
 42 43  1  0  0  0
 42 44  1  0  0  0
 42 45  1  0  0  0
  2  3  2  0  0  0
  3  4  1  0  0  0
  4  5  1  0  0  0
  5  6  2  0  0  0
  6  7  1  0  0  0
  7  8  2  0  0  0
  8  9  1  0  0  0
  8 10  1  0  0  0
 23 14  1  0  0  0
 10  1  2  0  0  0
 23 19  2  0  0  0
 30 25  1  0  0  0
 41 35  1  0  0  0
 10  4  1  0  0  0
 33 34  1  0  0  0
  9 11  1  0  0  0
  9 12  1  0  0  0
M  END
> <minimizedAffinity>
-9.16450

> <CNNscore>
0.0623280890

> <CNNaffinity>
7.0346655846

> <CNN_VS>
0.4384572506

> <CNNaffinity_variance>
0.2109350413

$$$$
[H]c1nc(N([H])[H])c2c(-c3sc4c(C([H])([H])[H])c([H])c(C([H])([H])[H])c([H])c4c3[H])c(C([H])([H])N3C([H])([H])C([H])([H])N(C(=O)N([H])c4c([H])c(F)c([H])c(C(C([H])([H])[H])(C([H])([H])[H])C([H])([H])[H])c4[H])C([H])([H])C3([H])[H])c([H])n2n1


 45 50  0  0  0  0  0  0  0  0999 V2000
    2.0494   21.8051  -17.1797 C   0  0  0  0  0  0  0  0  0  0  0  0
    2.2353   21.2053  -18.4362 C   0  0  0  0  0  0  0  0  0  0  0  0
    3.2806   21.8189  -19.0286 C   0  0  0  0  0  0  0  0  0  0  0  0
    3.7622   22.7760  -18.2004 N   0  0  0  0  0  0  0  0  0  0  0  0
    4.7613   23.6185  -18.2992 N   0  0  0  0  0  0  0  0  0  0  0  0
    5.1063   24.4818  -17.3551 C   0  0  0  0  0  0  0  0  0  0  0  0
    4.3835   24.4892  -16.2231 N   0  0  0  0  0  0  0  0  0  0  0  0
    3.3512   23.6622  -16.0512 C   0  0  0  0  0  0  0  0  0  0  0  0
    2.6716   23.6294  -14.7958 N   0  0  0  0  0  0  0  0  0  0  0  0
    3.0006   22.7722  -17.0419 C   0  0  0  0  0  0  0  0  0  0  0  0
    2.1312   24.4617  -14.5103 H   0  0  0  0  0  0  0  0  0  0  0  0
    2.7075   22.8102  -14.1652 H   0  0  0  0  0  0  0  0  0  0  0  0
   -0.5632   18.2477  -12.9472 C   0  0  0  0  0  0  0  0  0  0  0  0
   -1.3025   19.3260  -13.6605 C   0  0  0  0  0  0  0  0  0  0  0  0
   -2.6307   19.6148  -13.4406 C   0  0  0  0  0  0  0  0  0  0  0  0
   -3.1994   20.6530  -14.1397 C   0  0  0  0  0  0  0  0  0  0  0  0
   -4.6597   21.0022  -13.9147 C   0  0  0  0  0  0  0  0  0  0  0  0
   -2.4531   21.3730  -15.0272 C   0  0  0  0  0  0  0  0  0  0  0  0
   -1.0971   21.1135  -15.2819 C   0  0  0  0  0  0  0  0  0  0  0  0
   -0.2871   21.7682  -16.1372 C   0  0  0  0  0  0  0  0  0  0  0  0
    1.0143   21.3596  -16.2432 C   0  0  0  0  0  0  0  0  0  0  0  0
    1.0624   20.0491  -15.1266 S   0  0  0  0  0  0  0  0  0  0  0  0
   -0.5481   20.0795  -14.5812 C   0  0  0  0  0  0  0  0  0  0  0  0
    1.4006   20.1104  -18.9503 C   0  0  0  0  0  0  0  0  0  0  0  0
    0.5188   20.4207  -20.0150 N   0  0  0  0  0  0  0  0  0  0  0  0
    0.9664   20.2997  -21.3467 C   0  0  0  0  0  0  0  0  0  0  0  0
    0.3198   21.2279  -22.3513 C   0  0  0  0  0  0  0  0  0  0  0  0
   -0.9952   21.6387  -22.0350 N   0  0  0  0  0  0  0  0  0  0  0  0
   -1.4939   21.4889  -20.6662 C   0  0  0  0  0  0  0  0  0  0  0  0
   -0.2972   21.5867  -19.7598 C   0  0  0  0  0  0  0  0  0  0  0  0
   -1.8570   22.2007  -23.0265 C   0  0  0  0  0  0  0  0  0  0  0  0
   -3.0389   22.5267  -22.6394 O   0  0  0  0  0  0  0  0  0  0  0  0
   -1.4633   22.3958  -24.3555 N   0  0  0  0  0  0  0  0  0  0  0  0
   -0.4514   22.1111  -24.5694 H   0  0  0  0  0  0  0  0  0  0  0  0
   -2.2634   22.9167  -25.3776 C   0  0  0  0  0  0  0  0  0  0  0  0
   -2.2486   22.4328  -26.6571 C   0  0  0  0  0  0  0  0  0  0  0  0
   -3.0867   22.9760  -27.6405 C   0  0  0  0  0  0  0  0  0  0  0  0
   -3.0341   22.4596  -28.9000 F   0  0  0  0  0  0  0  0  0  0  0  0
   -3.9075   23.9901  -27.2906 C   0  0  0  0  0  0  0  0  0  0  0  0
   -3.9795   24.5383  -26.0103 C   0  0  0  0  0  0  0  0  0  0  0  0
   -3.1406   23.9754  -25.0748 C   0  0  0  0  0  0  0  0  0  0  0  0
   -4.9094   25.6554  -25.7431 C   0  0  0  0  0  0  0  0  0  0  0  0
   -5.9328   25.1825  -24.7029 C   0  0  0  0  0  0  0  0  0  0  0  0
   -4.2669   26.8771  -25.1711 C   0  0  0  0  0  0  0  0  0  0  0  0
   -5.7261   25.9893  -26.9947 C   0  0  0  0  0  0  0  0  0  0  0  0
 13 14  1  0  0  0
 14 15  2  0  0  0
 15 16  1  0  0  0
 16 17  1  0  0  0
 16 18  2  0  0  0
 18 19  1  0  0  0
 19 20  1  0  0  0
 20 21  2  0  0  0
 21 22  1  0  0  0
 22 23  1  0  0  0
 21  1  1  0  0  0
  1  2  1  0  0  0
  2 24  1  0  0  0
 24 25  1  0  0  0
 25 26  1  0  0  0
 26 27  1  0  0  0
 27 28  1  0  0  0
 28 29  1  0  0  0
 29 30  1  0  0  0
 28 31  1  0  0  0
 31 32  2  0  0  0
 31 33  1  0  0  0
 33 35  1  0  0  0
 35 36  2  0  0  0
 36 37  1  0  0  0
 37 38  1  0  0  0
 37 39  2  0  0  0
 39 40  1  0  0  0
 40 41  2  0  0  0
 40 42  1  0  0  0
 42 43  1  0  0  0
 42 44  1  0  0  0
 42 45  1  0  0  0
  2  3  2  0  0  0
  3  4  1  0  0  0
  4  5  1  0  0  0
  5  6  2  0  0  0
  6  7  1  0  0  0
  7  8  2  0  0  0
  8  9  1  0  0  0
  8 10  1  0  0  0
 23 14  1  0  0  0
 10  1  2  0  0  0
 23 19  2  0  0  0
 30 25  1  0  0  0
 41 35  1  0  0  0
 10  4  1  0  0  0
 33 34  1  0  0  0
  9 11  1  0  0  0
  9 12  1  0  0  0
M  END
> <minimizedAffinity>
-8.43205

> <CNNscore>
0.0580219440

> <CNNaffinity>
6.3310799599

> <CNN_VS>
0.3673415780

> <CNNaffinity_variance>
0.1466939151

$$$$
[H]c1nc(N([H])C(=O)c2c([H])c([H])c(-c3c([H])c(C(=O)N([H])c4c([H])c([H])c([H])c([H])c4[H])c([H])c(C([H])([H])[H])c3[H])c(N([H])[H])c2C([H])([H])[H])c([H])c(N2C([H])([H])C([H])([H])OC([H])([H])C2([H])[H])c1[H]


 43 47  0  0  0  0  0  0  0  0999 V2000
    0.7701   20.7354  -19.7687 C   0  0  0  0  0  0  0  0  0  0  0  0
    0.7227   20.9919  -21.2377 C   0  0  0  0  0  0  0  0  0  0  0  0
   -0.5163   21.2354  -21.8485 C   0  0  0  0  0  0  0  0  0  0  0  0
   -1.6789   21.2490  -21.0348 N   0  0  0  0  0  0  0  0  0  0  0  0
   -0.6434   21.4440  -23.2028 C   0  0  0  0  0  0  0  0  0  0  0  0
    0.5478   21.3978  -23.9376 C   0  0  0  0  0  0  0  0  0  0  0  0
    1.7615   21.1600  -23.3445 C   0  0  0  0  0  0  0  0  0  0  0  0
    1.8838   20.9500  -21.9751 C   0  0  0  0  0  0  0  0  0  0  0  0
   -2.4572   20.5939  -21.2562 H   0  0  0  0  0  0  0  0  0  0  0  0
   -1.7921   21.8848  -20.2240 H   0  0  0  0  0  0  0  0  0  0  0  0
   -1.9009   21.6952  -23.8901 C   0  0  0  0  0  0  0  0  0  0  0  0
   -3.1269   21.4143  -23.2929 C   0  0  0  0  0  0  0  0  0  0  0  0
   -4.3276   21.6333  -23.9084 C   0  0  0  0  0  0  0  0  0  0  0  0
   -5.6412   21.3137  -23.2432 C   0  0  0  0  0  0  0  0  0  0  0  0
   -4.3361   22.1587  -25.1833 C   0  0  0  0  0  0  0  0  0  0  0  0
   -3.1311   22.4573  -25.8235 C   0  0  0  0  0  0  0  0  0  0  0  0
   -1.9459   22.2199  -25.1668 C   0  0  0  0  0  0  0  0  0  0  0  0
   -3.2260   23.0198  -27.1622 C   0  0  0  0  0  0  0  0  0  0  0  0
   -2.2320   22.8427  -27.9708 O   0  0  0  0  0  0  0  0  0  0  0  0
   -4.3393   23.7275  -27.5812 N   0  0  0  0  0  0  0  0  0  0  0  0
   -5.1308   23.8568  -26.8742 H   0  0  0  0  0  0  0  0  0  0  0  0
   -4.5889   24.3212  -28.8489 C   0  0  0  0  0  0  0  0  0  0  0  0
   -4.0394   25.4775  -29.2757 C   0  0  0  0  0  0  0  0  0  0  0  0
   -4.3276   26.0322  -30.5261 C   0  0  0  0  0  0  0  0  0  0  0  0
   -5.1986   25.4031  -31.3795 C   0  0  0  0  0  0  0  0  0  0  0  0
   -5.7656   24.2211  -30.9548 C   0  0  0  0  0  0  0  0  0  0  0  0
   -5.4783   23.6797  -29.7232 C   0  0  0  0  0  0  0  0  0  0  0  0
    3.1924   20.7340  -21.3670 C   0  0  0  0  0  0  0  0  0  0  0  0
    3.8314   21.8080  -21.0020 O   0  0  0  0  0  0  0  0  0  0  0  0
    3.8463   19.5413  -21.1221 N   0  0  0  0  0  0  0  0  0  0  0  0
    4.8011   19.5474  -20.6819 H   0  0  0  0  0  0  0  0  0  0  0  0
    3.2453   18.2764  -21.3585 C   0  0  0  0  0  0  0  0  0  0  0  0
    2.3351   17.7773  -20.4153 C   0  0  0  0  0  0  0  0  0  0  0  0
    1.7172   16.5989  -20.6431 C   0  0  0  0  0  0  0  0  0  0  0  0
    1.9862   15.8893  -21.8045 C   0  0  0  0  0  0  0  0  0  0  0  0
    2.8923   16.3858  -22.7432 C   0  0  0  0  0  0  0  0  0  0  0  0
    3.4651   17.5537  -22.4558 N   0  0  0  0  0  0  0  0  0  0  0  0
    0.7666   16.1019  -19.6776 N   0  0  0  0  0  0  0  0  0  0  0  0
    1.2603   15.4018  -18.5189 C   0  0  0  0  0  0  0  0  0  0  0  0
    0.2611   15.5858  -17.3854 C   0  0  0  0  0  0  0  0  0  0  0  0
   -0.9557   15.0657  -17.8828 O   0  0  0  0  0  0  0  0  0  0  0  0
   -1.4581   16.0512  -18.7031 C   0  0  0  0  0  0  0  0  0  0  0  0
   -0.6340   16.3182  -19.9288 C   0  0  0  0  0  0  0  0  0  0  0  0
  1  2  1  0  0  0
  2  3  2  0  0  0
  3  4  1  0  0  0
  3  5  1  0  0  0
  5  6  2  0  0  0
  6  7  1  0  0  0
  7  8  2  0  0  0
  8 28  1  0  0  0
 28 29  2  0  0  0
 28 30  1  0  0  0
 30 32  1  0  0  0
 32 33  2  0  0  0
 33 34  1  0  0  0
 34 35  2  0  0  0
 35 36  1  0  0  0
 36 37  2  0  0  0
 34 38  1  0  0  0
 38 39  1  0  0  0
 39 40  1  0  0  0
 40 41  1  0  0  0
 41 42  1  0  0  0
 42 43  1  0  0  0
  5 11  1  0  0  0
 11 12  2  0  0  0
 12 13  1  0  0  0
 13 14  1  0  0  0
 13 15  2  0  0  0
 15 16  1  0  0  0
 16 17  2  0  0  0
 16 18  1  0  0  0
 18 19  2  0  0  0
 18 20  1  0  0  0
 20 22  1  0  0  0
 22 23  2  0  0  0
 23 24  1  0  0  0
 24 25  2  0  0  0
 25 26  1  0  0  0
 26 27  2  0  0  0
  8  2  1  0  0  0
 37 32  1  0  0  0
 43 38  1  0  0  0
 17 11  1  0  0  0
 27 22  1  0  0  0
  4  9  1  0  0  0
  4 10  1  0  0  0
 30 31  1  0  0  0
 20 21  1  0  0  0
M  END
> <minimizedAffinity>
-10.10102

> <CNNscore>
0.3031228781

> <CNNaffinity>
6.7619261742

> <CNN_VS>
2.0496945381

> <CNNaffinity_variance>
0.1106246263

$$$$
[H]c1nc(N([H])C(=O)c2c([H])c([H])c(-c3c([H])c(C(=O)N([H])c4c([H])c([H])c([H])c([H])c4[H])c([H])c(C([H])([H])[H])c3[H])c(N([H])[H])c2C([H])([H])[H])c([H])c(N2C([H])([H])C([H])([H])OC([H])([H])C2([H])[H])c1[H]


 43 47  0  0  0  0  0  0  0  0999 V2000
    3.0280   21.1355  -23.6798 C   0  0  0  0  0  0  0  0  0  0  0  0
    1.7304   21.1871  -22.9451 C   0  0  0  0  0  0  0  0  0  0  0  0
    0.5472   21.4108  -23.6644 C   0  0  0  0  0  0  0  0  0  0  0  0
    0.6313   21.5585  -25.0733 N   0  0  0  0  0  0  0  0  0  0  0  0
   -0.6816   21.5074  -23.0524 C   0  0  0  0  0  0  0  0  0  0  0  0
   -0.6775   21.3676  -21.6591 C   0  0  0  0  0  0  0  0  0  0  0  0
    0.4770   21.1488  -20.9517 C   0  0  0  0  0  0  0  0  0  0  0  0
    1.7162   21.0520  -21.5757 C   0  0  0  0  0  0  0  0  0  0  0  0
    0.2682   22.4301  -25.5116 H   0  0  0  0  0  0  0  0  0  0  0  0
    1.0401   20.8346  -25.6926 H   0  0  0  0  0  0  0  0  0  0  0  0
   -1.9387   21.7434  -23.7459 C   0  0  0  0  0  0  0  0  0  0  0  0
   -3.1652   21.4805  -23.1416 C   0  0  0  0  0  0  0  0  0  0  0  0
   -4.3655   21.6861  -23.7624 C   0  0  0  0  0  0  0  0  0  0  0  0
   -5.6797   21.3865  -23.0890 C   0  0  0  0  0  0  0  0  0  0  0  0
   -4.3731   22.1784  -25.0505 C   0  0  0  0  0  0  0  0  0  0  0  0
   -3.1675   22.4579  -25.6982 C   0  0  0  0  0  0  0  0  0  0  0  0
   -1.9828   22.2350  -25.0358 C   0  0  0  0  0  0  0  0  0  0  0  0
   -3.2615   22.9859  -27.0510 C   0  0  0  0  0  0  0  0  0  0  0  0
   -2.2963   22.7318  -27.8739 O   0  0  0  0  0  0  0  0  0  0  0  0
   -4.3441   23.7406  -27.4683 N   0  0  0  0  0  0  0  0  0  0  0  0
   -5.1119   23.9329  -26.7496 H   0  0  0  0  0  0  0  0  0  0  0  0
   -4.5892   24.3101  -28.7479 C   0  0  0  0  0  0  0  0  0  0  0  0
   -4.0613   25.4731  -29.1835 C   0  0  0  0  0  0  0  0  0  0  0  0
   -4.3443   26.0031  -30.4457 C   0  0  0  0  0  0  0  0  0  0  0  0
   -5.1875   25.3411  -31.3024 C   0  0  0  0  0  0  0  0  0  0  0  0
   -5.7322   24.1519  -30.8688 C   0  0  0  0  0  0  0  0  0  0  0  0
   -5.4502   23.6350  -29.6254 C   0  0  0  0  0  0  0  0  0  0  0  0
    2.9233   20.7840  -20.8010 C   0  0  0  0  0  0  0  0  0  0  0  0
    3.5402   21.8310  -20.3337 O   0  0  0  0  0  0  0  0  0  0  0  0
    3.5006   19.5670  -20.4921 N   0  0  0  0  0  0  0  0  0  0  0  0
    4.3869   19.5350  -19.9273 H   0  0  0  0  0  0  0  0  0  0  0  0
    2.8979   18.3262  -20.8304 C   0  0  0  0  0  0  0  0  0  0  0  0
    1.8146   17.8732  -20.0631 C   0  0  0  0  0  0  0  0  0  0  0  0
    1.1975   16.7197  -20.3960 C   0  0  0  0  0  0  0  0  0  0  0  0
    1.6376   15.9899  -21.4907 C   0  0  0  0  0  0  0  0  0  0  0  0
    2.7159   16.4404  -22.2541 C   0  0  0  0  0  0  0  0  0  0  0  0
    3.2778   17.5859  -21.8707 N   0  0  0  0  0  0  0  0  0  0  0  0
    0.0706   16.2707  -19.6140 N   0  0  0  0  0  0  0  0  0  0  0  0
   -0.1592   14.8542  -19.4830 C   0  0  0  0  0  0  0  0  0  0  0  0
   -0.8777   14.6047  -18.1645 C   0  0  0  0  0  0  0  0  0  0  0  0
   -2.0673   15.3639  -18.2472 O   0  0  0  0  0  0  0  0  0  0  0  0
   -1.6848   16.6597  -17.9804 C   0  0  0  0  0  0  0  0  0  0  0  0
   -0.7796   17.2647  -19.0136 C   0  0  0  0  0  0  0  0  0  0  0  0
  1  2  1  0  0  0
  2  3  2  0  0  0
  3  4  1  0  0  0
  3  5  1  0  0  0
  5  6  2  0  0  0
  6  7  1  0  0  0
  7  8  2  0  0  0
  8 28  1  0  0  0
 28 29  2  0  0  0
 28 30  1  0  0  0
 30 32  1  0  0  0
 32 33  2  0  0  0
 33 34  1  0  0  0
 34 35  2  0  0  0
 35 36  1  0  0  0
 36 37  2  0  0  0
 34 38  1  0  0  0
 38 39  1  0  0  0
 39 40  1  0  0  0
 40 41  1  0  0  0
 41 42  1  0  0  0
 42 43  1  0  0  0
  5 11  1  0  0  0
 11 12  2  0  0  0
 12 13  1  0  0  0
 13 14  1  0  0  0
 13 15  2  0  0  0
 15 16  1  0  0  0
 16 17  2  0  0  0
 16 18  1  0  0  0
 18 19  2  0  0  0
 18 20  1  0  0  0
 20 22  1  0  0  0
 22 23  2  0  0  0
 23 24  1  0  0  0
 24 25  2  0  0  0
 25 26  1  0  0  0
 26 27  2  0  0  0
  8  2  1  0  0  0
 37 32  1  0  0  0
 43 38  1  0  0  0
 17 11  1  0  0  0
 27 22  1  0  0  0
  4  9  1  0  0  0
  4 10  1  0  0  0
 30 31  1  0  0  0
 20 21  1  0  0  0
M  END
> <minimizedAffinity>
-9.80631

> <CNNscore>
0.3012477458

> <CNNaffinity>
6.8147153854

> <CNN_VS>
2.0529177189

> <CNNaffinity_variance>
0.0581497028

$$$$
[H]c1nc(N([H])C(=O)c2c([H])c([H])c(-c3c([H])c(C(=O)N([H])c4c([H])c([H])c([H])c([H])c4[H])c([H])c(C([H])([H])[H])c3[H])c(N([H])[H])c2C([H])([H])[H])c([H])c(N2C([H])([H])C([H])([H])OC([H])([H])C2([H])[H])c1[H]


 43 47  0  0  0  0  0  0  0  0999 V2000
    3.1639   20.9099  -23.2977 C   0  0  0  0  0  0  0  0  0  0  0  0
    1.7901   21.1167  -22.7536 C   0  0  0  0  0  0  0  0  0  0  0  0
    0.7427   21.4120  -23.6387 C   0  0  0  0  0  0  0  0  0  0  0  0
    1.0310   21.4812  -25.0265 N   0  0  0  0  0  0  0  0  0  0  0  0
   -0.5423   21.6510  -23.2082 C   0  0  0  0  0  0  0  0  0  0  0  0
   -0.7407   21.5808  -21.8237 C   0  0  0  0  0  0  0  0  0  0  0  0
    0.2805   21.2925  -20.9546 C   0  0  0  0  0  0  0  0  0  0  0  0
    1.5774   21.0517  -21.3956 C   0  0  0  0  0  0  0  0  0  0  0  0
    0.8175   22.3596  -25.5428 H   0  0  0  0  0  0  0  0  0  0  0  0
    1.4472   20.6930  -25.5558 H   0  0  0  0  0  0  0  0  0  0  0  0
   -1.6647   21.9666  -24.0785 C   0  0  0  0  0  0  0  0  0  0  0  0
   -1.5028   22.1103  -25.4540 C   0  0  0  0  0  0  0  0  0  0  0  0
   -2.5320   22.4097  -26.3022 C   0  0  0  0  0  0  0  0  0  0  0  0
   -2.3292   22.5673  -27.7868 C   0  0  0  0  0  0  0  0  0  0  0  0
   -3.7971   22.5791  -25.7801 C   0  0  0  0  0  0  0  0  0  0  0  0
   -4.0092   22.4444  -24.4061 C   0  0  0  0  0  0  0  0  0  0  0  0
   -2.9441   22.1433  -23.5893 C   0  0  0  0  0  0  0  0  0  0  0  0
   -5.3743   22.6266  -23.9362 C   0  0  0  0  0  0  0  0  0  0  0  0
   -6.3141   22.7363  -24.8183 O   0  0  0  0  0  0  0  0  0  0  0  0
   -5.6826   22.6831  -22.5881 N   0  0  0  0  0  0  0  0  0  0  0  0
   -4.8712   22.5982  -21.8971 H   0  0  0  0  0  0  0  0  0  0  0  0
   -6.9554   22.8403  -21.9740 C   0  0  0  0  0  0  0  0  0  0  0  0
   -7.6544   23.9942  -21.9424 C   0  0  0  0  0  0  0  0  0  0  0  0
   -8.8969   24.1055  -21.3116 C   0  0  0  0  0  0  0  0  0  0  0  0
   -9.4588   23.0186  -20.6903 C   0  0  0  0  0  0  0  0  0  0  0  0
   -8.7546   21.8344  -20.7166 C   0  0  0  0  0  0  0  0  0  0  0  0
   -7.5321   21.7306  -21.3390 C   0  0  0  0  0  0  0  0  0  0  0  0
    2.6363   20.7129  -20.4507 C   0  0  0  0  0  0  0  0  0  0  0  0
    3.3437   21.7134  -20.0106 O   0  0  0  0  0  0  0  0  0  0  0  0
    2.9896   19.4720  -19.9556 N   0  0  0  0  0  0  0  0  0  0  0  0
    3.7919   19.3851  -19.2815 H   0  0  0  0  0  0  0  0  0  0  0  0
    2.2531   18.2933  -20.2481 C   0  0  0  0  0  0  0  0  0  0  0  0
    1.0505   18.0644  -19.5636 C   0  0  0  0  0  0  0  0  0  0  0  0
    0.3115   16.9742  -19.8598 C   0  0  0  0  0  0  0  0  0  0  0  0
    0.7450   16.0881  -20.8353 C   0  0  0  0  0  0  0  0  0  0  0  0
    1.9421   16.3156  -21.5162 C   0  0  0  0  0  0  0  0  0  0  0  0
    2.6207   17.4101  -21.1752 N   0  0  0  0  0  0  0  0  0  0  0  0
   -0.9350   16.7563  -19.1657 N   0  0  0  0  0  0  0  0  0  0  0  0
   -1.3040   17.6619  -18.1073 C   0  0  0  0  0  0  0  0  0  0  0  0
   -2.8228   17.6941  -18.0113 C   0  0  0  0  0  0  0  0  0  0  0  0
   -3.2019   16.3545  -17.7654 O   0  0  0  0  0  0  0  0  0  0  0  0
   -3.1303   15.7309  -18.9911 C   0  0  0  0  0  0  0  0  0  0  0  0
   -1.7436   15.6318  -19.5569 C   0  0  0  0  0  0  0  0  0  0  0  0
  1  2  1  0  0  0
  2  3  2  0  0  0
  3  4  1  0  0  0
  3  5  1  0  0  0
  5  6  2  0  0  0
  6  7  1  0  0  0
  7  8  2  0  0  0
  8 28  1  0  0  0
 28 29  2  0  0  0
 28 30  1  0  0  0
 30 32  1  0  0  0
 32 33  2  0  0  0
 33 34  1  0  0  0
 34 35  2  0  0  0
 35 36  1  0  0  0
 36 37  2  0  0  0
 34 38  1  0  0  0
 38 39  1  0  0  0
 39 40  1  0  0  0
 40 41  1  0  0  0
 41 42  1  0  0  0
 42 43  1  0  0  0
  5 11  1  0  0  0
 11 12  2  0  0  0
 12 13  1  0  0  0
 13 14  1  0  0  0
 13 15  2  0  0  0
 15 16  1  0  0  0
 16 17  2  0  0  0
 16 18  1  0  0  0
 18 19  2  0  0  0
 18 20  1  0  0  0
 20 22  1  0  0  0
 22 23  2  0  0  0
 23 24  1  0  0  0
 24 25  2  0  0  0
 25 26  1  0  0  0
 26 27  2  0  0  0
  8  2  1  0  0  0
 37 32  1  0  0  0
 43 38  1  0  0  0
 17 11  1  0  0  0
 27 22  1  0  0  0
  4  9  1  0  0  0
  4 10  1  0  0  0
 30 31  1  0  0  0
 20 21  1  0  0  0
M  END
> <minimizedAffinity>
-9.00412

> <CNNscore>
0.2395954281

> <CNNaffinity>
6.5948896408

> <CNN_VS>
1.5801054239

> <CNNaffinity_variance>
0.0679297894

$$$$
[H]c1nc(N([H])C(=O)c2c([H])c([H])c(-c3c([H])c(C(=O)N([H])c4c([H])c([H])c([H])c([H])c4[H])c([H])c(C([H])([H])[H])c3[H])c(N([H])[H])c2C([H])([H])[H])c([H])c(N2C([H])([H])C([H])([H])OC([H])([H])C2([H])[H])c1[H]


 43 47  0  0  0  0  0  0  0  0999 V2000
    3.8836   20.3821  -21.6108 C   0  0  0  0  0  0  0  0  0  0  0  0
    2.4317   20.7189  -21.5425 C   0  0  0  0  0  0  0  0  0  0  0  0
    1.7640   21.1018  -22.7151 C   0  0  0  0  0  0  0  0  0  0  0  0
    2.4969   21.1326  -23.9299 N   0  0  0  0  0  0  0  0  0  0  0  0
    0.4357   21.4617  -22.7242 C   0  0  0  0  0  0  0  0  0  0  0  0
   -0.2117   21.4216  -21.4832 C   0  0  0  0  0  0  0  0  0  0  0  0
    0.4373   21.0479  -20.3341 C   0  0  0  0  0  0  0  0  0  0  0  0
    1.7799   20.6851  -20.3310 C   0  0  0  0  0  0  0  0  0  0  0  0
    2.5444   22.0226  -24.4679 H   0  0  0  0  0  0  0  0  0  0  0  0
    2.9914   20.3050  -24.3110 H   0  0  0  0  0  0  0  0  0  0  0  0
   -0.3056   21.8719  -23.9070 C   0  0  0  0  0  0  0  0  0  0  0  0
    0.2945   21.9221  -25.1625 C   0  0  0  0  0  0  0  0  0  0  0  0
   -0.3683   22.3056  -26.2948 C   0  0  0  0  0  0  0  0  0  0  0  0
    0.3060   22.3587  -27.6410 C   0  0  0  0  0  0  0  0  0  0  0  0
   -1.6972   22.6615  -26.2000 C   0  0  0  0  0  0  0  0  0  0  0  0
   -2.3428   22.6265  -24.9618 C   0  0  0  0  0  0  0  0  0  0  0  0
   -1.6367   22.2351  -23.8480 C   0  0  0  0  0  0  0  0  0  0  0  0
   -3.7478   23.0051  -24.9482 C   0  0  0  0  0  0  0  0  0  0  0  0
   -4.4781   22.6782  -25.9646 O   0  0  0  0  0  0  0  0  0  0  0  0
   -4.3094   23.6952  -23.8879 N   0  0  0  0  0  0  0  0  0  0  0  0
   -3.6638   23.9524  -23.0754 H   0  0  0  0  0  0  0  0  0  0  0  0
   -5.6555   24.1208  -23.7185 C   0  0  0  0  0  0  0  0  0  0  0  0
   -6.2470   25.0980  -24.4371 C   0  0  0  0  0  0  0  0  0  0  0  0
   -7.5704   25.4943  -24.2237 C   0  0  0  0  0  0  0  0  0  0  0  0
   -8.3282   24.8871  -23.2542 C   0  0  0  0  0  0  0  0  0  0  0  0
   -7.7351   23.8872  -22.5143 C   0  0  0  0  0  0  0  0  0  0  0  0
   -6.4322   23.5012  -22.7286 C   0  0  0  0  0  0  0  0  0  0  0  0
    2.4350   20.2583  -19.0991 C   0  0  0  0  0  0  0  0  0  0  0  0
    2.9918   21.2031  -18.3972 O   0  0  0  0  0  0  0  0  0  0  0  0
    2.5427   18.9850  -18.5727 N   0  0  0  0  0  0  0  0  0  0  0  0
    3.0607   18.8323  -17.6706 H   0  0  0  0  0  0  0  0  0  0  0  0
    1.9002   17.8597  -19.1543 C   0  0  0  0  0  0  0  0  0  0  0  0
    0.5791   17.5721  -18.7813 C   0  0  0  0  0  0  0  0  0  0  0  0
   -0.0658   16.5351  -19.3567 C   0  0  0  0  0  0  0  0  0  0  0  0
    0.5800   15.7609  -20.3096 C   0  0  0  0  0  0  0  0  0  0  0  0
    1.8950   16.0468  -20.6806 C   0  0  0  0  0  0  0  0  0  0  0  0
    2.4712   17.0838  -20.0745 N   0  0  0  0  0  0  0  0  0  0  0  0
   -1.4320   16.2582  -18.9826 N   0  0  0  0  0  0  0  0  0  0  0  0
   -2.0301   17.0343  -17.9261 C   0  0  0  0  0  0  0  0  0  0  0  0
   -3.5335   17.0839  -18.1594 C   0  0  0  0  0  0  0  0  0  0  0  0
   -3.9465   15.7320  -18.1695 O   0  0  0  0  0  0  0  0  0  0  0  0
   -3.6044   15.2619  -19.4179 C   0  0  0  0  0  0  0  0  0  0  0  0
   -2.1270   15.2059  -19.6764 C   0  0  0  0  0  0  0  0  0  0  0  0
  1  2  1  0  0  0
  2  3  2  0  0  0
  3  4  1  0  0  0
  3  5  1  0  0  0
  5  6  2  0  0  0
  6  7  1  0  0  0
  7  8  2  0  0  0
  8 28  1  0  0  0
 28 29  2  0  0  0
 28 30  1  0  0  0
 30 32  1  0  0  0
 32 33  2  0  0  0
 33 34  1  0  0  0
 34 35  2  0  0  0
 35 36  1  0  0  0
 36 37  2  0  0  0
 34 38  1  0  0  0
 38 39  1  0  0  0
 39 40  1  0  0  0
 40 41  1  0  0  0
 41 42  1  0  0  0
 42 43  1  0  0  0
  5 11  1  0  0  0
 11 12  2  0  0  0
 12 13  1  0  0  0
 13 14  1  0  0  0
 13 15  2  0  0  0
 15 16  1  0  0  0
 16 17  2  0  0  0
 16 18  1  0  0  0
 18 19  2  0  0  0
 18 20  1  0  0  0
 20 22  1  0  0  0
 22 23  2  0  0  0
 23 24  1  0  0  0
 24 25  2  0  0  0
 25 26  1  0  0  0
 26 27  2  0  0  0
  8  2  1  0  0  0
 37 32  1  0  0  0
 43 38  1  0  0  0
 17 11  1  0  0  0
 27 22  1  0  0  0
  4  9  1  0  0  0
  4 10  1  0  0  0
 30 31  1  0  0  0
 20 21  1  0  0  0
M  END
> <minimizedAffinity>
-8.86404

> <CNNscore>
0.1987257600

> <CNNaffinity>
6.3623242378

> <CNN_VS>
1.2643576860

> <CNNaffinity_variance>
0.2303563356

$$$$
[H]c1nc(N([H])C(=O)c2c([H])c([H])c(-c3c([H])c(C(=O)N([H])c4c([H])c([H])c([H])c([H])c4[H])c([H])c(C([H])([H])[H])c3[H])c(N([H])[H])c2C([H])([H])[H])c([H])c(N2C([H])([H])C([H])([H])OC([H])([H])C2([H])[H])c1[H]


 43 47  0  0  0  0  0  0  0  0999 V2000
   -4.7908   21.0654  -18.6871 C   0  0  0  0  0  0  0  0  0  0  0  0
   -5.4988   22.3728  -18.8131 C   0  0  0  0  0  0  0  0  0  0  0  0
   -6.0786   22.7192  -20.0425 C   0  0  0  0  0  0  0  0  0  0  0  0
   -5.9856   21.7965  -21.1166 N   0  0  0  0  0  0  0  0  0  0  0  0
   -6.7157   23.9221  -20.2452 C   0  0  0  0  0  0  0  0  0  0  0  0
   -6.7496   24.7836  -19.1418 C   0  0  0  0  0  0  0  0  0  0  0  0
   -6.1840   24.4489  -17.9379 C   0  0  0  0  0  0  0  0  0  0  0  0
   -5.5414   23.2317  -17.7388 C   0  0  0  0  0  0  0  0  0  0  0  0
   -5.5387   22.1012  -22.0061 H   0  0  0  0  0  0  0  0  0  0  0  0
   -6.3442   20.8256  -21.0583 H   0  0  0  0  0  0  0  0  0  0  0  0
   -7.3292   24.3363  -21.4978 C   0  0  0  0  0  0  0  0  0  0  0  0
   -8.6465   24.7839  -21.5514 C   0  0  0  0  0  0  0  0  0  0  0  0
   -9.2574   25.1776  -22.7090 C   0  0  0  0  0  0  0  0  0  0  0  0
  -10.6874   25.6512  -22.7417 C   0  0  0  0  0  0  0  0  0  0  0  0
   -8.5424   25.1337  -23.8873 C   0  0  0  0  0  0  0  0  0  0  0  0
   -7.2171   24.6923  -23.8838 C   0  0  0  0  0  0  0  0  0  0  0  0
   -6.6424   24.3047  -22.6956 C   0  0  0  0  0  0  0  0  0  0  0  0
   -6.5282   24.6872  -25.1656 C   0  0  0  0  0  0  0  0  0  0  0  0
   -6.4883   25.7893  -25.8416 O   0  0  0  0  0  0  0  0  0  0  0  0
   -5.9246   23.5471  -25.6672 N   0  0  0  0  0  0  0  0  0  0  0  0
   -5.9931   22.6580  -25.0774 H   0  0  0  0  0  0  0  0  0  0  0  0
   -5.2070   23.3842  -26.8839 C   0  0  0  0  0  0  0  0  0  0  0  0
   -5.7694   23.3759  -28.1106 C   0  0  0  0  0  0  0  0  0  0  0  0
   -5.0245   23.1959  -29.2797 C   0  0  0  0  0  0  0  0  0  0  0  0
   -3.6653   23.0185  -29.2153 C   0  0  0  0  0  0  0  0  0  0  0  0
   -3.0796   23.0259  -27.9680 C   0  0  0  0  0  0  0  0  0  0  0  0
   -3.8176   23.2034  -26.8206 C   0  0  0  0  0  0  0  0  0  0  0  0
   -4.9793   22.8884  -16.4368 C   0  0  0  0  0  0  0  0  0  0  0  0
   -3.7685   23.3116  -16.2134 O   0  0  0  0  0  0  0  0  0  0  0  0
   -5.5598   22.1761  -15.4045 N   0  0  0  0  0  0  0  0  0  0  0  0
   -5.0187   21.9984  -14.5206 H   0  0  0  0  0  0  0  0  0  0  0  0
   -6.9103   21.7380  -15.4417 C   0  0  0  0  0  0  0  0  0  0  0  0
   -7.1711   20.3823  -15.6892 C   0  0  0  0  0  0  0  0  0  0  0  0
   -8.4451   19.9360  -15.6824 C   0  0  0  0  0  0  0  0  0  0  0  0
   -9.4864   20.8182  -15.4331 C   0  0  0  0  0  0  0  0  0  0  0  0
   -9.2270   22.1676  -15.1872 C   0  0  0  0  0  0  0  0  0  0  0  0
   -7.9480   22.5400  -15.2079 N   0  0  0  0  0  0  0  0  0  0  0  0
   -8.7040   18.5358  -15.9176 N   0  0  0  0  0  0  0  0  0  0  0  0
   -8.8638   18.0811  -17.2756 C   0  0  0  0  0  0  0  0  0  0  0  0
   -8.4420   16.6202  -17.3452 C   0  0  0  0  0  0  0  0  0  0  0  0
   -9.2819   15.9531  -16.4243 O   0  0  0  0  0  0  0  0  0  0  0  0
   -8.7399   16.2193  -15.1867 C   0  0  0  0  0  0  0  0  0  0  0  0
   -8.8047   17.6622  -14.7783 C   0  0  0  0  0  0  0  0  0  0  0  0
  1  2  1  0  0  0
  2  3  2  0  0  0
  3  4  1  0  0  0
  3  5  1  0  0  0
  5  6  2  0  0  0
  6  7  1  0  0  0
  7  8  2  0  0  0
  8 28  1  0  0  0
 28 29  2  0  0  0
 28 30  1  0  0  0
 30 32  1  0  0  0
 32 33  2  0  0  0
 33 34  1  0  0  0
 34 35  2  0  0  0
 35 36  1  0  0  0
 36 37  2  0  0  0
 34 38  1  0  0  0
 38 39  1  0  0  0
 39 40  1  0  0  0
 40 41  1  0  0  0
 41 42  1  0  0  0
 42 43  1  0  0  0
  5 11  1  0  0  0
 11 12  2  0  0  0
 12 13  1  0  0  0
 13 14  1  0  0  0
 13 15  2  0  0  0
 15 16  1  0  0  0
 16 17  2  0  0  0
 16 18  1  0  0  0
 18 19  2  0  0  0
 18 20  1  0  0  0
 20 22  1  0  0  0
 22 23  2  0  0  0
 23 24  1  0  0  0
 24 25  2  0  0  0
 25 26  1  0  0  0
 26 27  2  0  0  0
  8  2  1  0  0  0
 37 32  1  0  0  0
 43 38  1  0  0  0
 17 11  1  0  0  0
 27 22  1  0  0  0
  4  9  1  0  0  0
  4 10  1  0  0  0
 30 31  1  0  0  0
 20 21  1  0  0  0
M  END
> <minimizedAffinity>
-7.73969

> <CNNscore>
0.1606214345

> <CNNaffinity>
6.1278600693

> <CNN_VS>
0.9842656851

> <CNNaffinity_variance>
0.4878055453

$$$$
[H]c1nc(N([H])C(=O)c2c([H])c([H])c(-c3c([H])c(C(=O)N([H])c4c([H])c([H])c([H])c([H])c4[H])c([H])c(C([H])([H])[H])c3[H])c(N([H])[H])c2C([H])([H])[H])c([H])c(N2C([H])([H])C([H])([H])OC([H])([H])C2([H])[H])c1[H]


 43 47  0  0  0  0  0  0  0  0999 V2000
    1.1185   20.9084  -19.9075 C   0  0  0  0  0  0  0  0  0  0  0  0
    1.5378   21.0355  -21.3337 C   0  0  0  0  0  0  0  0  0  0  0  0
    0.5955   21.4455  -22.2883 C   0  0  0  0  0  0  0  0  0  0  0  0
   -0.7212   21.7451  -21.8518 N   0  0  0  0  0  0  0  0  0  0  0  0
    0.8981   21.5506  -23.6267 C   0  0  0  0  0  0  0  0  0  0  0  0
    2.2129   21.2210  -23.9784 C   0  0  0  0  0  0  0  0  0  0  0  0
    3.1376   20.8196  -23.0484 C   0  0  0  0  0  0  0  0  0  0  0  0
    2.8259   20.7153  -21.6970 C   0  0  0  0  0  0  0  0  0  0  0  0
   -1.5213   21.2263  -22.2693 H   0  0  0  0  0  0  0  0  0  0  0  0
   -0.9269   22.4616  -21.1313 H   0  0  0  0  0  0  0  0  0  0  0  0
   -0.0385   21.9647  -24.6601 C   0  0  0  0  0  0  0  0  0  0  0  0
    0.3819   22.2322  -25.9603 C   0  0  0  0  0  0  0  0  0  0  0  0
   -0.4675   22.6265  -26.9560 C   0  0  0  0  0  0  0  0  0  0  0  0
    0.0138   22.9173  -28.3538 C   0  0  0  0  0  0  0  0  0  0  0  0
   -1.8088   22.7687  -26.6694 C   0  0  0  0  0  0  0  0  0  0  0  0
   -2.2782   22.5111  -25.3792 C   0  0  0  0  0  0  0  0  0  0  0  0
   -1.3877   22.1174  -24.4076 C   0  0  0  0  0  0  0  0  0  0  0  0
   -3.7079   22.6726  -25.1614 C   0  0  0  0  0  0  0  0  0  0  0  0
   -4.4276   21.6075  -25.0166 O   0  0  0  0  0  0  0  0  0  0  0  0
   -4.3032   23.9209  -25.1060 N   0  0  0  0  0  0  0  0  0  0  0  0
   -3.6693   24.7711  -25.2415 H   0  0  0  0  0  0  0  0  0  0  0  0
   -5.6707   24.2438  -24.8877 C   0  0  0  0  0  0  0  0  0  0  0  0
   -6.5959   24.3614  -25.8630 C   0  0  0  0  0  0  0  0  0  0  0  0
   -7.9275   24.6973  -25.6017 C   0  0  0  0  0  0  0  0  0  0  0  0
   -8.3458   24.9227  -24.3144 C   0  0  0  0  0  0  0  0  0  0  0  0
   -7.4100   24.8048  -23.3099 C   0  0  0  0  0  0  0  0  0  0  0  0
   -6.1008   24.4740  -23.5728 C   0  0  0  0  0  0  0  0  0  0  0  0
    3.8398   20.3192  -20.7254 C   0  0  0  0  0  0  0  0  0  0  0  0
    4.5242   21.2906  -20.1932 O   0  0  0  0  0  0  0  0  0  0  0  0
    4.1715   19.0503  -20.2896 N   0  0  0  0  0  0  0  0  0  0  0  0
    4.9414   18.9222  -19.5850 H   0  0  0  0  0  0  0  0  0  0  0  0
    3.4514   17.8922  -20.6865 C   0  0  0  0  0  0  0  0  0  0  0  0
    2.3535   17.4853  -19.9144 C   0  0  0  0  0  0  0  0  0  0  0  0
    1.6270   16.4148  -20.2999 C   0  0  0  0  0  0  0  0  0  0  0  0
    1.9702   15.7241  -21.4531 C   0  0  0  0  0  0  0  0  0  0  0  0
    3.0631   16.1288  -22.2214 C   0  0  0  0  0  0  0  0  0  0  0  0
    3.7352   17.1927  -21.7842 N   0  0  0  0  0  0  0  0  0  0  0  0
    0.4863   16.0146  -19.5113 N   0  0  0  0  0  0  0  0  0  0  0  0
   -0.7642   16.7037  -19.7057 C   0  0  0  0  0  0  0  0  0  0  0  0
   -1.8971   15.7508  -19.3516 C   0  0  0  0  0  0  0  0  0  0  0  0
   -1.6586   15.3829  -18.0076 O   0  0  0  0  0  0  0  0  0  0  0  0
   -0.6619   14.4345  -18.0669 C   0  0  0  0  0  0  0  0  0  0  0  0
    0.6594   14.9527  -18.5554 C   0  0  0  0  0  0  0  0  0  0  0  0
  1  2  1  0  0  0
  2  3  2  0  0  0
  3  4  1  0  0  0
  3  5  1  0  0  0
  5  6  2  0  0  0
  6  7  1  0  0  0
  7  8  2  0  0  0
  8 28  1  0  0  0
 28 29  2  0  0  0
 28 30  1  0  0  0
 30 32  1  0  0  0
 32 33  2  0  0  0
 33 34  1  0  0  0
 34 35  2  0  0  0
 35 36  1  0  0  0
 36 37  2  0  0  0
 34 38  1  0  0  0
 38 39  1  0  0  0
 39 40  1  0  0  0
 40 41  1  0  0  0
 41 42  1  0  0  0
 42 43  1  0  0  0
  5 11  1  0  0  0
 11 12  2  0  0  0
 12 13  1  0  0  0
 13 14  1  0  0  0
 13 15  2  0  0  0
 15 16  1  0  0  0
 16 17  2  0  0  0
 16 18  1  0  0  0
 18 19  2  0  0  0
 18 20  1  0  0  0
 20 22  1  0  0  0
 22 23  2  0  0  0
 23 24  1  0  0  0
 24 25  2  0  0  0
 25 26  1  0  0  0
 26 27  2  0  0  0
  8  2  1  0  0  0
 37 32  1  0  0  0
 43 38  1  0  0  0
 17 11  1  0  0  0
 27 22  1  0  0  0
  4  9  1  0  0  0
  4 10  1  0  0  0
 30 31  1  0  0  0
 20 21  1  0  0  0
M  END
> <minimizedAffinity>
-9.31705

> <CNNscore>
0.1563427001

> <CNNaffinity>
6.3308038712

> <CNN_VS>
0.9897749424

> <CNNaffinity_variance>
0.1782481521

$$$$
[H]c1nc(N([H])C(=O)c2c([H])c([H])c(-c3c([H])c(C(=O)N([H])c4c([H])c([H])c([H])c([H])c4[H])c([H])c(C([H])([H])[H])c3[H])c(N([H])[H])c2C([H])([H])[H])c([H])c(N2C([H])([H])C([H])([H])OC([H])([H])C2([H])[H])c1[H]


 43 47  0  0  0  0  0  0  0  0999 V2000
   -1.2987   18.9340  -17.2426 C   0  0  0  0  0  0  0  0  0  0  0  0
   -1.1336   20.2410  -17.9432 C   0  0  0  0  0  0  0  0  0  0  0  0
   -0.8079   20.2477  -19.3075 C   0  0  0  0  0  0  0  0  0  0  0  0
   -0.6690   19.0028  -19.9745 N   0  0  0  0  0  0  0  0  0  0  0  0
   -0.6040   21.4121  -20.0120 C   0  0  0  0  0  0  0  0  0  0  0  0
   -0.7428   22.5967  -19.2782 C   0  0  0  0  0  0  0  0  0  0  0  0
   -1.0610   22.5948  -17.9440 C   0  0  0  0  0  0  0  0  0  0  0  0
   -1.2660   21.4147  -17.2372 C   0  0  0  0  0  0  0  0  0  0  0  0
    0.2307   18.7829  -20.4498 H   0  0  0  0  0  0  0  0  0  0  0  0
   -1.4263   18.2958  -20.0120 H   0  0  0  0  0  0  0  0  0  0  0  0
   -0.2596   21.4792  -21.4240 C   0  0  0  0  0  0  0  0  0  0  0  0
    1.0219   21.1770  -21.8770 C   0  0  0  0  0  0  0  0  0  0  0  0
    1.3833   21.2322  -23.1941 C   0  0  0  0  0  0  0  0  0  0  0  0
    2.7794   20.9073  -23.6581 C   0  0  0  0  0  0  0  0  0  0  0  0
    0.4395   21.6039  -24.1283 C   0  0  0  0  0  0  0  0  0  0  0  0
   -0.8600   21.9160  -23.7220 C   0  0  0  0  0  0  0  0  0  0  0  0
   -1.1796   21.8479  -22.3858 C   0  0  0  0  0  0  0  0  0  0  0  0
   -1.7992   22.2870  -24.7698 C   0  0  0  0  0  0  0  0  0  0  0  0
   -1.5360   21.9226  -25.9827 O   0  0  0  0  0  0  0  0  0  0  0  0
   -2.9490   23.0086  -24.4996 N   0  0  0  0  0  0  0  0  0  0  0  0
   -3.1183   23.2961  -23.4839 H   0  0  0  0  0  0  0  0  0  0  0  0
   -3.9641   23.4321  -25.4009 C   0  0  0  0  0  0  0  0  0  0  0  0
   -3.7669   24.2732  -26.4376 C   0  0  0  0  0  0  0  0  0  0  0  0
   -4.8003   24.6751  -27.2888 C   0  0  0  0  0  0  0  0  0  0  0  0
   -6.0783   24.2153  -27.0928 C   0  0  0  0  0  0  0  0  0  0  0  0
   -6.2918   23.3551  -26.0377 C   0  0  0  0  0  0  0  0  0  0  0  0
   -5.2709   22.9629  -25.2030 C   0  0  0  0  0  0  0  0  0  0  0  0
   -1.6378   21.4444  -15.8266 C   0  0  0  0  0  0  0  0  0  0  0  0
   -2.8974   21.6601  -15.5775 O   0  0  0  0  0  0  0  0  0  0  0  0
   -0.8337   21.2712  -14.7161 N   0  0  0  0  0  0  0  0  0  0  0  0
   -1.2498   21.3320  -13.7524 H   0  0  0  0  0  0  0  0  0  0  0  0
    0.5392   20.9203  -14.8126 C   0  0  0  0  0  0  0  0  0  0  0  0
    1.4107   21.7915  -15.4824 C   0  0  0  0  0  0  0  0  0  0  0  0
    2.7274   21.5001  -15.5451 C   0  0  0  0  0  0  0  0  0  0  0  0
    3.2095   20.3434  -14.9501 C   0  0  0  0  0  0  0  0  0  0  0  0
    2.3422   19.4760  -14.2837 C   0  0  0  0  0  0  0  0  0  0  0  0
    1.0566   19.8245  -14.2592 N   0  0  0  0  0  0  0  0  0  0  0  0
    3.6209   22.4118  -16.2184 N   0  0  0  0  0  0  0  0  0  0  0  0
    4.5464   21.8828  -17.1879 C   0  0  0  0  0  0  0  0  0  0  0  0
    4.8529   22.9741  -18.2038 C   0  0  0  0  0  0  0  0  0  0  0  0
    5.3813   24.0427  -17.4440 O   0  0  0  0  0  0  0  0  0  0  0  0
    4.2863   24.6540  -16.8751 C   0  0  0  0  0  0  0  0  0  0  0  0
    3.5530   23.8080  -15.8754 C   0  0  0  0  0  0  0  0  0  0  0  0
  1  2  1  0  0  0
  2  3  2  0  0  0
  3  4  1  0  0  0
  3  5  1  0  0  0
  5  6  2  0  0  0
  6  7  1  0  0  0
  7  8  2  0  0  0
  8 28  1  0  0  0
 28 29  2  0  0  0
 28 30  1  0  0  0
 30 32  1  0  0  0
 32 33  2  0  0  0
 33 34  1  0  0  0
 34 35  2  0  0  0
 35 36  1  0  0  0
 36 37  2  0  0  0
 34 38  1  0  0  0
 38 39  1  0  0  0
 39 40  1  0  0  0
 40 41  1  0  0  0
 41 42  1  0  0  0
 42 43  1  0  0  0
  5 11  1  0  0  0
 11 12  2  0  0  0
 12 13  1  0  0  0
 13 14  1  0  0  0
 13 15  2  0  0  0
 15 16  1  0  0  0
 16 17  2  0  0  0
 16 18  1  0  0  0
 18 19  2  0  0  0
 18 20  1  0  0  0
 20 22  1  0  0  0
 22 23  2  0  0  0
 23 24  1  0  0  0
 24 25  2  0  0  0
 25 26  1  0  0  0
 26 27  2  0  0  0
  8  2  1  0  0  0
 37 32  1  0  0  0
 43 38  1  0  0  0
 17 11  1  0  0  0
 27 22  1  0  0  0
  4  9  1  0  0  0
  4 10  1  0  0  0
 30 31  1  0  0  0
 20 21  1  0  0  0
M  END
> <minimizedAffinity>
-7.72083

> <CNNscore>
0.1306396425

> <CNNaffinity>
6.1704897881

> <CNN_VS>
0.8061105609

> <CNNaffinity_variance>
0.1581025124

$$$$
[H]c1nc(N([H])C(=O)c2c([H])c([H])c(-c3c([H])c(C(=O)N([H])c4c([H])c([H])c([H])c([H])c4[H])c([H])c(C([H])([H])[H])c3[H])c(N([H])[H])c2C([H])([H])[H])c([H])c(N2C([H])([H])C([H])([H])OC([H])([H])C2([H])[H])c1[H]


 43 47  0  0  0  0  0  0  0  0999 V2000
    3.6550   20.7083  -21.3217 C   0  0  0  0  0  0  0  0  0  0  0  0
    2.1945   21.0076  -21.3806 C   0  0  0  0  0  0  0  0  0  0  0  0
    1.6086   21.3069  -22.6194 C   0  0  0  0  0  0  0  0  0  0  0  0
    2.4304   21.2916  -23.7762 N   0  0  0  0  0  0  0  0  0  0  0  0
    0.2766   21.6285  -22.7476 C   0  0  0  0  0  0  0  0  0  0  0  0
   -0.4617   21.6384  -21.5577 C   0  0  0  0  0  0  0  0  0  0  0  0
    0.1071   21.3464  -20.3443 C   0  0  0  0  0  0  0  0  0  0  0  0
    1.4539   21.0220  -20.2209 C   0  0  0  0  0  0  0  0  0  0  0  0
    2.4974   22.1518  -24.3588 H   0  0  0  0  0  0  0  0  0  0  0  0
    2.9719   20.4585  -24.0720 H   0  0  0  0  0  0  0  0  0  0  0  0
   -0.3826   21.9524  -24.0035 C   0  0  0  0  0  0  0  0  0  0  0  0
    0.3075   21.9422  -25.2129 C   0  0  0  0  0  0  0  0  0  0  0  0
   -0.2767   22.2441  -26.4112 C   0  0  0  0  0  0  0  0  0  0  0  0
    0.4941   22.2330  -27.7058 C   0  0  0  0  0  0  0  0  0  0  0  0
   -1.6149   22.5758  -26.4346 C   0  0  0  0  0  0  0  0  0  0  0  0
   -2.3494   22.5993  -25.2466 C   0  0  0  0  0  0  0  0  0  0  0  0
   -1.7205   22.2893  -24.0631 C   0  0  0  0  0  0  0  0  0  0  0  0
   -3.7580   22.9472  -25.3578 C   0  0  0  0  0  0  0  0  0  0  0  0
   -4.3988   22.5684  -26.4156 O   0  0  0  0  0  0  0  0  0  0  0  0
   -4.4150   23.6621  -24.3714 N   0  0  0  0  0  0  0  0  0  0  0  0
   -3.8411   23.9621  -23.5207 H   0  0  0  0  0  0  0  0  0  0  0  0
   -5.7782   24.0638  -24.3244 C   0  0  0  0  0  0  0  0  0  0  0  0
   -6.4975   24.4624  -25.3944 C   0  0  0  0  0  0  0  0  0  0  0  0
   -7.8327   24.8647  -25.2972 C   0  0  0  0  0  0  0  0  0  0  0  0
   -8.4695   24.8663  -24.0817 C   0  0  0  0  0  0  0  0  0  0  0  0
   -7.7453   24.4605  -22.9818 C   0  0  0  0  0  0  0  0  0  0  0  0
   -6.4314   24.0657  -23.0833 C   0  0  0  0  0  0  0  0  0  0  0  0
    2.0238   20.6818  -18.9215 C   0  0  0  0  0  0  0  0  0  0  0  0
    2.2814   21.6873  -18.1355 O   0  0  0  0  0  0  0  0  0  0  0  0
    2.3253   19.4343  -18.4089 N   0  0  0  0  0  0  0  0  0  0  0  0
    2.7468   19.3493  -17.4494 H   0  0  0  0  0  0  0  0  0  0  0  0
    2.0068   18.2296  -19.0903 C   0  0  0  0  0  0  0  0  0  0  0  0
    3.0359   17.5310  -19.7383 C   0  0  0  0  0  0  0  0  0  0  0  0
    2.7636   16.3598  -20.3520 C   0  0  0  0  0  0  0  0  0  0  0  0
    1.4711   15.8560  -20.3399 C   0  0  0  0  0  0  0  0  0  0  0  0
    0.4466   16.5514  -19.6953 C   0  0  0  0  0  0  0  0  0  0  0  0
    0.7849   17.6992  -19.1096 N   0  0  0  0  0  0  0  0  0  0  0  0
    3.8320   15.6367  -20.9991 N   0  0  0  0  0  0  0  0  0  0  0  0
    3.8195   15.5243  -22.4356 C   0  0  0  0  0  0  0  0  0  0  0  0
    5.2558   15.3772  -22.9177 C   0  0  0  0  0  0  0  0  0  0  0  0
    5.7436   14.2216  -22.2657 O   0  0  0  0  0  0  0  0  0  0  0  0
    6.0437   14.6318  -20.9858 C   0  0  0  0  0  0  0  0  0  0  0  0
    4.8529   15.0485  -20.1725 C   0  0  0  0  0  0  0  0  0  0  0  0
  1  2  1  0  0  0
  2  3  2  0  0  0
  3  4  1  0  0  0
  3  5  1  0  0  0
  5  6  2  0  0  0
  6  7  1  0  0  0
  7  8  2  0  0  0
  8 28  1  0  0  0
 28 29  2  0  0  0
 28 30  1  0  0  0
 30 32  1  0  0  0
 32 33  2  0  0  0
 33 34  1  0  0  0
 34 35  2  0  0  0
 35 36  1  0  0  0
 36 37  2  0  0  0
 34 38  1  0  0  0
 38 39  1  0  0  0
 39 40  1  0  0  0
 40 41  1  0  0  0
 41 42  1  0  0  0
 42 43  1  0  0  0
  5 11  1  0  0  0
 11 12  2  0  0  0
 12 13  1  0  0  0
 13 14  1  0  0  0
 13 15  2  0  0  0
 15 16  1  0  0  0
 16 17  2  0  0  0
 16 18  1  0  0  0
 18 19  2  0  0  0
 18 20  1  0  0  0
 20 22  1  0  0  0
 22 23  2  0  0  0
 23 24  1  0  0  0
 24 25  2  0  0  0
 25 26  1  0  0  0
 26 27  2  0  0  0
  8  2  1  0  0  0
 37 32  1  0  0  0
 43 38  1  0  0  0
 17 11  1  0  0  0
 27 22  1  0  0  0
  4  9  1  0  0  0
  4 10  1  0  0  0
 30 31  1  0  0  0
 20 21  1  0  0  0
M  END
> <minimizedAffinity>
-8.79369

> <CNNscore>
0.1276249141

> <CNNaffinity>
6.2943453789

> <CNN_VS>
0.8033152819

> <CNNaffinity_variance>
0.1608738303

$$$$
[H]c1nc(N([H])C(=O)c2c([H])c([H])c(-c3c([H])c(C(=O)N([H])c4c([H])c([H])c([H])c([H])c4[H])c([H])c(C([H])([H])[H])c3[H])c(N([H])[H])c2C([H])([H])[H])c([H])c(N2C([H])([H])C([H])([H])OC([H])([H])C2([H])[H])c1[H]


 43 47  0  0  0  0  0  0  0  0999 V2000
    1.9931   21.1426  -22.5553 C   0  0  0  0  0  0  0  0  0  0  0  0
    0.6179   21.3281  -22.0070 C   0  0  0  0  0  0  0  0  0  0  0  0
   -0.4569   21.4768  -22.8958 C   0  0  0  0  0  0  0  0  0  0  0  0
   -0.1931   21.4229  -24.2892 N   0  0  0  0  0  0  0  0  0  0  0  0
   -1.7469   21.6879  -22.4655 C   0  0  0  0  0  0  0  0  0  0  0  0
   -1.9210   21.7453  -21.0771 C   0  0  0  0  0  0  0  0  0  0  0  0
   -0.8729   21.6005  -20.2044 C   0  0  0  0  0  0  0  0  0  0  0  0
    0.4289   21.3873  -20.6452 C   0  0  0  0  0  0  0  0  0  0  0  0
   -0.4627   22.2328  -24.8852 H   0  0  0  0  0  0  0  0  0  0  0  0
    0.2586   20.6095  -24.7463 H   0  0  0  0  0  0  0  0  0  0  0  0
   -2.8976   21.8542  -23.3401 C   0  0  0  0  0  0  0  0  0  0  0  0
   -4.1862   21.5380  -22.9177 C   0  0  0  0  0  0  0  0  0  0  0  0
   -5.2901   21.6775  -23.7115 C   0  0  0  0  0  0  0  0  0  0  0  0
   -6.6736   21.3210  -23.2330 C   0  0  0  0  0  0  0  0  0  0  0  0
   -5.1308   22.1546  -24.9955 C   0  0  0  0  0  0  0  0  0  0  0  0
   -3.8574   22.4859  -25.4642 C   0  0  0  0  0  0  0  0  0  0  0  0
   -2.7741   22.3289  -24.6311 C   0  0  0  0  0  0  0  0  0  0  0  0
   -3.7755   22.9937  -26.8255 C   0  0  0  0  0  0  0  0  0  0  0  0
   -2.7340   22.6885  -27.5294 O   0  0  0  0  0  0  0  0  0  0  0  0
   -4.7723   23.7822  -27.3734 N   0  0  0  0  0  0  0  0  0  0  0  0
   -5.6086   24.0164  -26.7497 H   0  0  0  0  0  0  0  0  0  0  0  0
   -4.8472   24.3387  -28.6798 C   0  0  0  0  0  0  0  0  0  0  0  0
   -4.2117   25.4626  -29.0722 C   0  0  0  0  0  0  0  0  0  0  0  0
   -4.3282   25.9818  -30.3648 C   0  0  0  0  0  0  0  0  0  0  0  0
   -5.1107   25.3496  -31.2980 C   0  0  0  0  0  0  0  0  0  0  0  0
   -5.7642   24.2003  -30.9091 C   0  0  0  0  0  0  0  0  0  0  0  0
   -5.6459   23.6938  -29.6355 C   0  0  0  0  0  0  0  0  0  0  0  0
    1.5186   21.2020  -19.6928 C   0  0  0  0  0  0  0  0  0  0  0  0
    1.8293   22.2448  -18.9779 O   0  0  0  0  0  0  0  0  0  0  0  0
    2.2659   20.0665  -19.4433 N   0  0  0  0  0  0  0  0  0  0  0  0
    3.0340   20.0912  -18.7258 H   0  0  0  0  0  0  0  0  0  0  0  0
    1.9859   18.8162  -20.0561 C   0  0  0  0  0  0  0  0  0  0  0  0
    3.0495   18.0789  -20.5968 C   0  0  0  0  0  0  0  0  0  0  0  0
    2.8119   16.8670  -21.1421 C   0  0  0  0  0  0  0  0  0  0  0  0
    1.5209   16.3597  -21.1661 C   0  0  0  0  0  0  0  0  0  0  0  0
    0.4622   17.0935  -20.6283 C   0  0  0  0  0  0  0  0  0  0  0  0
    0.7672   18.2804  -20.1058 N   0  0  0  0  0  0  0  0  0  0  0  0
    3.9146   16.1055  -21.6779 N   0  0  0  0  0  0  0  0  0  0  0  0
    4.3640   16.3889  -23.0174 C   0  0  0  0  0  0  0  0  0  0  0  0
    5.8401   16.0301  -23.1142 C   0  0  0  0  0  0  0  0  0  0  0  0
    5.9060   14.6593  -22.7752 O   0  0  0  0  0  0  0  0  0  0  0  0
    5.8209   14.6252  -21.4012 C   0  0  0  0  0  0  0  0  0  0  0  0
    4.5034   15.0864  -20.8495 C   0  0  0  0  0  0  0  0  0  0  0  0
  1  2  1  0  0  0
  2  3  2  0  0  0
  3  4  1  0  0  0
  3  5  1  0  0  0
  5  6  2  0  0  0
  6  7  1  0  0  0
  7  8  2  0  0  0
  8 28  1  0  0  0
 28 29  2  0  0  0
 28 30  1  0  0  0
 30 32  1  0  0  0
 32 33  2  0  0  0
 33 34  1  0  0  0
 34 35  2  0  0  0
 35 36  1  0  0  0
 36 37  2  0  0  0
 34 38  1  0  0  0
 38 39  1  0  0  0
 39 40  1  0  0  0
 40 41  1  0  0  0
 41 42  1  0  0  0
 42 43  1  0  0  0
  5 11  1  0  0  0
 11 12  2  0  0  0
 12 13  1  0  0  0
 13 14  1  0  0  0
 13 15  2  0  0  0
 15 16  1  0  0  0
 16 17  2  0  0  0
 16 18  1  0  0  0
 18 19  2  0  0  0
 18 20  1  0  0  0
 20 22  1  0  0  0
 22 23  2  0  0  0
 23 24  1  0  0  0
 24 25  2  0  0  0
 25 26  1  0  0  0
 26 27  2  0  0  0
  8  2  1  0  0  0
 37 32  1  0  0  0
 43 38  1  0  0  0
 17 11  1  0  0  0
 27 22  1  0  0  0
  4  9  1  0  0  0
  4 10  1  0  0  0
 30 31  1  0  0  0
 20 21  1  0  0  0
M  END
> <minimizedAffinity>
-9.07045

> <CNNscore>
0.1235196963

> <CNNaffinity>
6.4978370667

> <CNN_VS>
0.8026108742

> <CNNaffinity_variance>
0.1087663174

$$$$
[H]c1c([H])c(F)c([H])c(C([H])([H])N(C2=C(Cl)C(Cl)=C2Cl)c2c([H])c([H])c3sc(C([H])([H])[H])nc3c2[H])c1[H]


 26 29  0  0  0  0  0  0  0  0999 V2000
   -3.1799   23.4108  -25.8786 N   0  0  0  0  0  0  0  0  0  0  0  0
    3.1629   20.7864  -23.2354 C   0  0  0  0  0  0  0  0  0  0  0  0
    1.7030   21.1708  -23.2869 C   0  0  0  0  0  0  0  0  0  0  0  0
    1.0199   21.6801  -24.2890 N   0  0  0  0  0  0  0  0  0  0  0  0
   -0.2487   21.9698  -24.1410 C   0  0  0  0  0  0  0  0  0  0  0  0
   -1.0682   22.5345  -25.1368 C   0  0  0  0  0  0  0  0  0  0  0  0
   -2.3891   22.8099  -24.8383 C   0  0  0  0  0  0  0  0  0  0  0  0
   -2.9841   22.5750  -23.6346 C   0  0  0  0  0  0  0  0  0  0  0  0
   -2.1634   22.0125  -22.6493 C   0  0  0  0  0  0  0  0  0  0  0  0
   -0.8194   21.7266  -22.9312 C   0  0  0  0  0  0  0  0  0  0  0  0
    0.5079   21.0829  -22.0458 S   0  0  0  0  0  0  0  0  0  0  0  0
   -4.5157   23.8374  -25.5299 C   0  0  0  0  0  0  0  0  0  0  0  0
   -5.5924   23.2678  -25.0885 C   0  0  0  0  0  0  0  0  0  0  0  0
   -6.1200   21.6464  -24.6363 Cl  0  0  0  0  0  0  0  0  0  0  0  0
   -6.3107   24.5380  -25.0836 C   0  0  0  0  0  0  0  0  0  0  0  0
   -7.9255   25.0718  -24.6693 Cl  0  0  0  0  0  0  0  0  0  0  0  0
   -5.2104   25.1111  -25.5346 C   0  0  0  0  0  0  0  0  0  0  0  0
   -4.7898   26.7718  -25.9639 Cl  0  0  0  0  0  0  0  0  0  0  0  0
   -2.6896   23.5950  -27.1891 C   0  0  0  0  0  0  0  0  0  0  0  0
   -3.7081   23.7791  -28.2548 C   0  0  0  0  0  0  0  0  0  0  0  0
   -4.6188   22.8117  -28.6295 C   0  0  0  0  0  0  0  0  0  0  0  0
   -5.5441   23.0066  -29.6309 C   0  0  0  0  0  0  0  0  0  0  0  0
   -5.5692   24.2170  -30.2929 C   0  0  0  0  0  0  0  0  0  0  0  0
   -4.6759   25.2177  -29.9527 C   0  0  0  0  0  0  0  0  0  0  0  0
   -4.7462   26.3914  -30.6412 F   0  0  0  0  0  0  0  0  0  0  0  0
   -3.7699   24.9935  -28.9550 C   0  0  0  0  0  0  0  0  0  0  0  0
  2  3  1  0  0  0
  3  4  2  0  0  0
  4  5  1  0  0  0
  5  6  2  0  0  0
  6  7  1  0  0  0
  7  8  2  0  0  0
  8  9  1  0  0  0
  9 10  2  0  0  0
 10 11  1  0  0  0
  7  1  1  0  0  0
  1 19  1  0  0  0
 19 20  1  0  0  0
 20 21  2  0  0  0
 21 22  1  0  0  0
 22 23  2  0  0  0
 23 24  1  0  0  0
 24 25  1  0  0  0
 24 26  2  0  0  0
  1 12  1  0  0  0
 12 13  2  0  0  0
 13 14  1  0  0  0
 13 15  1  0  0  0
 15 16  1  0  0  0
 15 17  2  0  0  0
 17 18  1  0  0  0
 11  3  1  0  0  0
 26 20  1  0  0  0
 17 12  1  0  0  0
 10  5  1  0  0  0
M  END
> <minimizedAffinity>
-8.73354

> <CNNscore>
0.6433897614

> <CNNaffinity>
7.2804284096

> <CNN_VS>
4.6841530800

> <CNNaffinity_variance>
0.2367057800

$$$$
[H]c1c([H])c(F)c([H])c(C([H])([H])N(C2=C(Cl)C(Cl)=C2Cl)c2c([H])c([H])c3sc(C([H])([H])[H])nc3c2[H])c1[H]


 26 29  0  0  0  0  0  0  0  0999 V2000
   -3.1096   23.2952  -25.8859 N   0  0  0  0  0  0  0  0  0  0  0  0
    3.2227   20.7676  -23.1256 C   0  0  0  0  0  0  0  0  0  0  0  0
    1.7604   21.1390  -23.2005 C   0  0  0  0  0  0  0  0  0  0  0  0
    1.0851   21.6260  -24.2188 N   0  0  0  0  0  0  0  0  0  0  0  0
   -0.1874   21.9076  -24.0904 C   0  0  0  0  0  0  0  0  0  0  0  0
   -0.9997   22.4488  -25.1050 C   0  0  0  0  0  0  0  0  0  0  0  0
   -2.3262   22.7182  -24.8265 C   0  0  0  0  0  0  0  0  0  0  0  0
   -2.9334   22.4984  -23.6261 C   0  0  0  0  0  0  0  0  0  0  0  0
   -2.1199   21.9590  -22.6221 C   0  0  0  0  0  0  0  0  0  0  0  0
   -0.7704   21.6797  -22.8835 C   0  0  0  0  0  0  0  0  0  0  0  0
    0.5516   21.0617  -21.9722 S   0  0  0  0  0  0  0  0  0  0  0  0
   -4.4116   23.8152  -25.5365 C   0  0  0  0  0  0  0  0  0  0  0  0
   -4.9816   24.9787  -25.5311 C   0  0  0  0  0  0  0  0  0  0  0  0
   -4.5564   26.6426  -25.9345 Cl  0  0  0  0  0  0  0  0  0  0  0  0
   -6.2283   24.4103  -25.0287 C   0  0  0  0  0  0  0  0  0  0  0  0
   -7.8100   25.0236  -24.5973 Cl  0  0  0  0  0  0  0  0  0  0  0  0
   -5.6404   23.2285  -25.0357 C   0  0  0  0  0  0  0  0  0  0  0  0
   -6.1708   21.6014  -24.5991 Cl  0  0  0  0  0  0  0  0  0  0  0  0
   -2.6428   23.3700  -27.2156 C   0  0  0  0  0  0  0  0  0  0  0  0
   -3.6633   23.6512  -28.2581 C   0  0  0  0  0  0  0  0  0  0  0  0
   -4.6640   22.7710  -28.6179 C   0  0  0  0  0  0  0  0  0  0  0  0
   -5.5892   23.0542  -29.5980 C   0  0  0  0  0  0  0  0  0  0  0  0
   -5.5206   24.2666  -30.2533 C   0  0  0  0  0  0  0  0  0  0  0  0
   -4.5350   25.1817  -29.9274 C   0  0  0  0  0  0  0  0  0  0  0  0
   -4.5152   26.3618  -30.6084 F   0  0  0  0  0  0  0  0  0  0  0  0
   -3.6316   24.8711  -28.9507 C   0  0  0  0  0  0  0  0  0  0  0  0
  2  3  1  0  0  0
  3  4  2  0  0  0
  4  5  1  0  0  0
  5  6  2  0  0  0
  6  7  1  0  0  0
  7  8  2  0  0  0
  8  9  1  0  0  0
  9 10  2  0  0  0
 10 11  1  0  0  0
  7  1  1  0  0  0
  1 19  1  0  0  0
 19 20  1  0  0  0
 20 21  2  0  0  0
 21 22  1  0  0  0
 22 23  2  0  0  0
 23 24  1  0  0  0
 24 25  1  0  0  0
 24 26  2  0  0  0
  1 12  1  0  0  0
 12 13  2  0  0  0
 13 14  1  0  0  0
 13 15  1  0  0  0
 15 16  1  0  0  0
 15 17  2  0  0  0
 17 18  1  0  0  0
 11  3  1  0  0  0
 26 20  1  0  0  0
 17 12  1  0  0  0
 10  5  1  0  0  0
M  END
> <minimizedAffinity>
-8.80706

> <CNNscore>
0.6422812939

> <CNNaffinity>
7.2619161606

> <CNN_VS>
4.6641926765

> <CNNaffinity_variance>
0.2427809238

$$$$
[H]c1c([H])c(F)c([H])c(C([H])([H])N(C2=C(Cl)C(Cl)=C2Cl)c2c([H])c([H])c3sc(C([H])([H])[H])nc3c2[H])c1[H]


 26 29  0  0  0  0  0  0  0  0999 V2000
   -4.4580   23.0674  -25.5470 N   0  0  0  0  0  0  0  0  0  0  0  0
   -6.2595   27.3137  -31.2767 C   0  0  0  0  0  0  0  0  0  0  0  0
   -5.4757   26.3394  -30.4291 C   0  0  0  0  0  0  0  0  0  0  0  0
   -5.7775   25.8471  -29.2473 N   0  0  0  0  0  0  0  0  0  0  0  0
   -4.9573   25.0191  -28.6502 C   0  0  0  0  0  0  0  0  0  0  0  0
   -5.1700   24.4489  -27.3806 C   0  0  0  0  0  0  0  0  0  0  0  0
   -4.2090   23.6044  -26.8579 C   0  0  0  0  0  0  0  0  0  0  0  0
   -3.0448   23.2645  -27.4801 C   0  0  0  0  0  0  0  0  0  0  0  0
   -2.8404   23.8344  -28.7427 C   0  0  0  0  0  0  0  0  0  0  0  0
   -3.8026   24.6955  -29.2908 C   0  0  0  0  0  0  0  0  0  0  0  0
   -3.9462   25.6060  -30.7435 S   0  0  0  0  0  0  0  0  0  0  0  0
   -5.1640   23.9114  -24.6106 C   0  0  0  0  0  0  0  0  0  0  0  0
   -5.1920   25.1762  -24.3310 C   0  0  0  0  0  0  0  0  0  0  0  0
   -4.4108   26.6549  -24.8926 Cl  0  0  0  0  0  0  0  0  0  0  0  0
   -6.1883   24.9643  -23.2860 C   0  0  0  0  0  0  0  0  0  0  0  0
   -7.0496   25.9713  -22.1423 Cl  0  0  0  0  0  0  0  0  0  0  0  0
   -6.1533   23.6769  -23.5755 C   0  0  0  0  0  0  0  0  0  0  0  0
   -6.9912   22.2607  -22.9340 Cl  0  0  0  0  0  0  0  0  0  0  0  0
   -4.0481   21.7700  -25.1721 C   0  0  0  0  0  0  0  0  0  0  0  0
   -2.8418   21.6829  -24.3093 C   0  0  0  0  0  0  0  0  0  0  0  0
   -2.8814   21.5222  -22.9388 C   0  0  0  0  0  0  0  0  0  0  0  0
   -1.7455   21.4575  -22.1626 C   0  0  0  0  0  0  0  0  0  0  0  0
   -0.5116   21.5563  -22.7721 C   0  0  0  0  0  0  0  0  0  0  0  0
   -0.4211   21.7182  -24.1434 C   0  0  0  0  0  0  0  0  0  0  0  0
    0.8236   21.8113  -24.6901 F   0  0  0  0  0  0  0  0  0  0  0  0
   -1.5663   21.7791  -24.8859 C   0  0  0  0  0  0  0  0  0  0  0  0
  2  3  1  0  0  0
  3  4  2  0  0  0
  4  5  1  0  0  0
  5  6  2  0  0  0
  6  7  1  0  0  0
  7  8  2  0  0  0
  8  9  1  0  0  0
  9 10  2  0  0  0
 10 11  1  0  0  0
  7  1  1  0  0  0
  1 19  1  0  0  0
 19 20  1  0  0  0
 20 21  2  0  0  0
 21 22  1  0  0  0
 22 23  2  0  0  0
 23 24  1  0  0  0
 24 25  1  0  0  0
 24 26  2  0  0  0
  1 12  1  0  0  0
 12 13  2  0  0  0
 13 14  1  0  0  0
 13 15  1  0  0  0
 15 16  1  0  0  0
 15 17  2  0  0  0
 17 18  1  0  0  0
 11  3  1  0  0  0
 26 20  1  0  0  0
 17 12  1  0  0  0
 10  5  1  0  0  0
M  END
> <minimizedAffinity>
-8.10600

> <CNNscore>
0.3971815407

> <CNNaffinity>
6.9240775108

> <CNN_VS>
2.7501158714

> <CNNaffinity_variance>
0.1678201854

$$$$
[H]c1c([H])c(F)c([H])c(C([H])([H])N(C2=C(Cl)C(Cl)=C2Cl)c2c([H])c([H])c3sc(C([H])([H])[H])nc3c2[H])c1[H]


 26 29  0  0  0  0  0  0  0  0999 V2000
   -4.5573   23.1105  -26.2503 N   0  0  0  0  0  0  0  0  0  0  0  0
   -5.9383   27.9926  -31.5761 C   0  0  0  0  0  0  0  0  0  0  0  0
   -5.7367   26.6578  -30.8982 C   0  0  0  0  0  0  0  0  0  0  0  0
   -5.4932   26.4059  -29.6303 N   0  0  0  0  0  0  0  0  0  0  0  0
   -5.3272   25.1719  -29.2245 C   0  0  0  0  0  0  0  0  0  0  0  0
   -5.0441   24.7903  -27.8992 C   0  0  0  0  0  0  0  0  0  0  0  0
   -4.8712   23.4496  -27.6124 C   0  0  0  0  0  0  0  0  0  0  0  0
   -4.9552   22.4381  -28.5223 C   0  0  0  0  0  0  0  0  0  0  0  0
   -5.2381   22.8248  -29.8381 C   0  0  0  0  0  0  0  0  0  0  0  0
   -5.4155   24.1807  -30.1509 C   0  0  0  0  0  0  0  0  0  0  0  0
   -5.7381   25.0751  -31.5847 S   0  0  0  0  0  0  0  0  0  0  0  0
   -5.1736   23.9054  -25.2129 C   0  0  0  0  0  0  0  0  0  0  0  0
   -6.3403   24.4303  -25.0077 C   0  0  0  0  0  0  0  0  0  0  0  0
   -7.8964   24.5170  -25.8342 Cl  0  0  0  0  0  0  0  0  0  0  0  0
   -5.9086   24.9897  -23.7309 C   0  0  0  0  0  0  0  0  0  0  0  0
   -6.6381   25.9556  -22.4664 Cl  0  0  0  0  0  0  0  0  0  0  0  0
   -4.7222   24.4532  -23.9476 C   0  0  0  0  0  0  0  0  0  0  0  0
   -3.2093   24.4335  -23.0365 Cl  0  0  0  0  0  0  0  0  0  0  0  0
   -3.6944   22.0447  -25.9170 C   0  0  0  0  0  0  0  0  0  0  0  0
   -2.2398   22.2969  -26.0832 C   0  0  0  0  0  0  0  0  0  0  0  0
   -1.3209   22.2299  -25.0552 C   0  0  0  0  0  0  0  0  0  0  0  0
    0.0209   22.4816  -25.2369 C   0  0  0  0  0  0  0  0  0  0  0  0
    0.4749   22.8155  -26.4964 C   0  0  0  0  0  0  0  0  0  0  0  0
   -0.4084   22.8954  -27.5586 C   0  0  0  0  0  0  0  0  0  0  0  0
    0.0963   23.2306  -28.7791 F   0  0  0  0  0  0  0  0  0  0  0  0
   -1.7336   22.6402  -27.3461 C   0  0  0  0  0  0  0  0  0  0  0  0
  2  3  1  0  0  0
  3  4  2  0  0  0
  4  5  1  0  0  0
  5  6  2  0  0  0
  6  7  1  0  0  0
  7  8  2  0  0  0
  8  9  1  0  0  0
  9 10  2  0  0  0
 10 11  1  0  0  0
  7  1  1  0  0  0
  1 19  1  0  0  0
 19 20  1  0  0  0
 20 21  2  0  0  0
 21 22  1  0  0  0
 22 23  2  0  0  0
 23 24  1  0  0  0
 24 25  1  0  0  0
 24 26  2  0  0  0
  1 12  1  0  0  0
 12 13  2  0  0  0
 13 14  1  0  0  0
 13 15  1  0  0  0
 15 16  1  0  0  0
 15 17  2  0  0  0
 17 18  1  0  0  0
 11  3  1  0  0  0
 26 20  1  0  0  0
 17 12  1  0  0  0
 10  5  1  0  0  0
M  END
> <minimizedAffinity>
-8.40112

> <CNNscore>
0.3593621850

> <CNNaffinity>
6.9836363792

> <CNN_VS>
2.5096547604

> <CNNaffinity_variance>
0.0682774335

$$$$
[H]c1c([H])c(F)c([H])c(C([H])([H])N(C2=C(Cl)C(Cl)=C2Cl)c2c([H])c([H])c3sc(C([H])([H])[H])nc3c2[H])c1[H]


 26 29  0  0  0  0  0  0  0  0999 V2000
   -4.2183   22.9171  -25.6129 N   0  0  0  0  0  0  0  0  0  0  0  0
   -6.2338   27.2715  -31.1881 C   0  0  0  0  0  0  0  0  0  0  0  0
   -5.4114   26.2925  -30.3838 C   0  0  0  0  0  0  0  0  0  0  0  0
   -5.6768   25.7633  -29.2091 N   0  0  0  0  0  0  0  0  0  0  0  0
   -4.8265   24.9377  -28.6519 C   0  0  0  0  0  0  0  0  0  0  0  0
   -4.9992   24.3303  -27.3936 C   0  0  0  0  0  0  0  0  0  0  0  0
   -4.0096   23.4933  -26.9142 C   0  0  0  0  0  0  0  0  0  0  0  0
   -2.8526   23.1945  -27.5701 C   0  0  0  0  0  0  0  0  0  0  0  0
   -2.6880   23.8013  -28.8213 C   0  0  0  0  0  0  0  0  0  0  0  0
   -3.6797   24.6556  -29.3256 C   0  0  0  0  0  0  0  0  0  0  0  0
   -3.8743   25.6003  -30.7502 S   0  0  0  0  0  0  0  0  0  0  0  0
   -5.0131   23.6757  -24.6745 C   0  0  0  0  0  0  0  0  0  0  0  0
   -5.9290   23.4097  -23.7976 C   0  0  0  0  0  0  0  0  0  0  0  0
   -6.7820   21.9899  -23.1905 Cl  0  0  0  0  0  0  0  0  0  0  0  0
   -6.0429   24.8173  -23.4301 C   0  0  0  0  0  0  0  0  0  0  0  0
   -7.0001   25.7525  -22.3017 Cl  0  0  0  0  0  0  0  0  0  0  0  0
   -5.1103   25.0808  -24.3264 C   0  0  0  0  0  0  0  0  0  0  0  0
   -4.3212   26.5671  -24.8627 Cl  0  0  0  0  0  0  0  0  0  0  0  0
   -3.6873   21.6612  -25.2491 C   0  0  0  0  0  0  0  0  0  0  0  0
   -2.4825   21.6810  -24.3802 C   0  0  0  0  0  0  0  0  0  0  0  0
   -1.2031   21.9250  -24.8376 C   0  0  0  0  0  0  0  0  0  0  0  0
   -0.1025   21.9242  -24.0097 C   0  0  0  0  0  0  0  0  0  0  0  0
   -0.2766   21.6700  -22.6647 C   0  0  0  0  0  0  0  0  0  0  0  0
   -1.5402   21.4197  -22.1592 C   0  0  0  0  0  0  0  0  0  0  0  0
   -1.6516   21.1738  -20.8236 F   0  0  0  0  0  0  0  0  0  0  0  0
   -2.6121   21.4271  -23.0063 C   0  0  0  0  0  0  0  0  0  0  0  0
  2  3  1  0  0  0
  3  4  2  0  0  0
  4  5  1  0  0  0
  5  6  2  0  0  0
  6  7  1  0  0  0
  7  8  2  0  0  0
  8  9  1  0  0  0
  9 10  2  0  0  0
 10 11  1  0  0  0
  7  1  1  0  0  0
  1 19  1  0  0  0
 19 20  1  0  0  0
 20 21  2  0  0  0
 21 22  1  0  0  0
 22 23  2  0  0  0
 23 24  1  0  0  0
 24 25  1  0  0  0
 24 26  2  0  0  0
  1 12  1  0  0  0
 12 13  2  0  0  0
 13 14  1  0  0  0
 13 15  1  0  0  0
 15 16  1  0  0  0
 15 17  2  0  0  0
 17 18  1  0  0  0
 11  3  1  0  0  0
 26 20  1  0  0  0
 17 12  1  0  0  0
 10  5  1  0  0  0
M  END
> <minimizedAffinity>
-7.86250

> <CNNscore>
0.3492910862

> <CNNaffinity>
6.8251371384

> <CNN_VS>
2.3839595318

> <CNNaffinity_variance>
0.1733413041

$$$$
[H]c1c([H])c(F)c([H])c(C([H])([H])N(C2=C(Cl)C(Cl)=C2Cl)c2c([H])c([H])c3sc(C([H])([H])[H])nc3c2[H])c1[H]


 26 29  0  0  0  0  0  0  0  0999 V2000
   -4.1523   22.9629  -27.0567 N   0  0  0  0  0  0  0  0  0  0  0  0
    0.3047   21.0082  -21.5412 C   0  0  0  0  0  0  0  0  0  0  0  0
   -0.1314   21.4663  -22.9130 C   0  0  0  0  0  0  0  0  0  0  0  0
   -1.3469   21.7114  -23.3522 N   0  0  0  0  0  0  0  0  0  0  0  0
   -1.5353   22.0869  -24.5925 C   0  0  0  0  0  0  0  0  0  0  0  0
   -2.7901   22.3559  -25.1716 C   0  0  0  0  0  0  0  0  0  0  0  0
   -2.8467   22.7243  -26.5023 C   0  0  0  0  0  0  0  0  0  0  0  0
   -1.7670   22.8558  -27.3239 C   0  0  0  0  0  0  0  0  0  0  0  0
   -0.5223   22.5878  -26.7410 C   0  0  0  0  0  0  0  0  0  0  0  0
   -0.4428   22.2107  -25.3923 C   0  0  0  0  0  0  0  0  0  0  0  0
    0.8259   21.7773  -24.3141 S   0  0  0  0  0  0  0  0  0  0  0  0
   -5.1335   23.5800  -26.1940 C   0  0  0  0  0  0  0  0  0  0  0  0
   -5.6223   24.7695  -26.0370 C   0  0  0  0  0  0  0  0  0  0  0  0
   -5.4182   26.3695  -26.7515 Cl  0  0  0  0  0  0  0  0  0  0  0  0
   -6.4942   24.3128  -24.9597 C   0  0  0  0  0  0  0  0  0  0  0  0
   -7.6831   25.0446  -23.9037 Cl  0  0  0  0  0  0  0  0  0  0  0  0
   -5.9905   23.1039  -25.1245 C   0  0  0  0  0  0  0  0  0  0  0  0
   -6.2716   21.5490  -24.3355 Cl  0  0  0  0  0  0  0  0  0  0  0  0
   -4.4809   22.6259  -28.3872 C   0  0  0  0  0  0  0  0  0  0  0  0
   -4.5830   23.7547  -29.3476 C   0  0  0  0  0  0  0  0  0  0  0  0
   -3.7937   24.8861  -29.2979 C   0  0  0  0  0  0  0  0  0  0  0  0
   -3.9199   25.9233  -30.1952 C   0  0  0  0  0  0  0  0  0  0  0  0
   -4.8729   25.8364  -31.1893 C   0  0  0  0  0  0  0  0  0  0  0  0
   -5.6880   24.7217  -31.2797 C   0  0  0  0  0  0  0  0  0  0  0  0
   -6.6120   24.6913  -32.2807 F   0  0  0  0  0  0  0  0  0  0  0  0
   -5.5384   23.7096  -30.3743 C   0  0  0  0  0  0  0  0  0  0  0  0
  2  3  1  0  0  0
  3  4  2  0  0  0
  4  5  1  0  0  0
  5  6  2  0  0  0
  6  7  1  0  0  0
  7  8  2  0  0  0
  8  9  1  0  0  0
  9 10  2  0  0  0
 10 11  1  0  0  0
  7  1  1  0  0  0
  1 19  1  0  0  0
 19 20  1  0  0  0
 20 21  2  0  0  0
 21 22  1  0  0  0
 22 23  2  0  0  0
 23 24  1  0  0  0
 24 25  1  0  0  0
 24 26  2  0  0  0
  1 12  1  0  0  0
 12 13  2  0  0  0
 13 14  1  0  0  0
 13 15  1  0  0  0
 15 16  1  0  0  0
 15 17  2  0  0  0
 17 18  1  0  0  0
 11  3  1  0  0  0
 26 20  1  0  0  0
 17 12  1  0  0  0
 10  5  1  0  0  0
M  END
> <minimizedAffinity>
-9.64701

> <CNNscore>
0.3412259817

> <CNNaffinity>
7.0609436035

> <CNN_VS>
2.4093773365

> <CNNaffinity_variance>
0.0886160582

$$$$
[H]c1c([H])c(F)c([H])c(C([H])([H])N(C2=C(Cl)C(Cl)=C2Cl)c2c([H])c([H])c3sc(C([H])([H])[H])nc3c2[H])c1[H]


 26 29  0  0  0  0  0  0  0  0999 V2000
   -4.2876   23.2549  -25.3128 N   0  0  0  0  0  0  0  0  0  0  0  0
   -6.3525   23.9127  -32.3420 C   0  0  0  0  0  0  0  0  0  0  0  0
   -5.8677   24.3083  -30.9671 C   0  0  0  0  0  0  0  0  0  0  0  0
   -5.6129   23.5397  -29.9305 N   0  0  0  0  0  0  0  0  0  0  0  0
   -5.2136   24.0689  -28.8011 C   0  0  0  0  0  0  0  0  0  0  0  0
   -4.9321   23.3452  -27.6267 C   0  0  0  0  0  0  0  0  0  0  0  0
   -4.5383   24.0342  -26.4954 C   0  0  0  0  0  0  0  0  0  0  0  0
   -4.3925   25.3871  -26.4151 C   0  0  0  0  0  0  0  0  0  0  0  0
   -4.6731   26.1004  -27.5870 C   0  0  0  0  0  0  0  0  0  0  0  0
   -5.0758   25.4204  -28.7458 C   0  0  0  0  0  0  0  0  0  0  0  0
   -5.5312   25.8798  -30.3400 S   0  0  0  0  0  0  0  0  0  0  0  0
   -4.7381   23.8018  -24.0536 C   0  0  0  0  0  0  0  0  0  0  0  0
   -4.2024   24.0593  -22.9023 C   0  0  0  0  0  0  0  0  0  0  0  0
   -2.6189   23.9160  -22.1381 Cl  0  0  0  0  0  0  0  0  0  0  0  0
   -5.4688   24.5626  -22.3804 C   0  0  0  0  0  0  0  0  0  0  0  0
   -6.0326   25.2236  -20.8608 Cl  0  0  0  0  0  0  0  0  0  0  0  0
   -6.0079   24.2964  -23.5554 C   0  0  0  0  0  0  0  0  0  0  0  0
   -7.6340   24.4806  -24.2196 Cl  0  0  0  0  0  0  0  0  0  0  0  0
   -3.6397   22.0019  -25.3574 C   0  0  0  0  0  0  0  0  0  0  0  0
   -2.1652   22.0277  -25.5370 C   0  0  0  0  0  0  0  0  0  0  0  0
   -1.2583   21.8253  -24.5162 C   0  0  0  0  0  0  0  0  0  0  0  0
    0.1046   21.8678  -24.7103 C   0  0  0  0  0  0  0  0  0  0  0  0
    0.5930   22.1227  -25.9754 C   0  0  0  0  0  0  0  0  0  0  0  0
   -0.2772   22.3321  -27.0308 C   0  0  0  0  0  0  0  0  0  0  0  0
    0.2619   22.5808  -28.2573 F   0  0  0  0  0  0  0  0  0  0  0  0
   -1.6239   22.2838  -26.8059 C   0  0  0  0  0  0  0  0  0  0  0  0
  2  3  1  0  0  0
  3  4  2  0  0  0
  4  5  1  0  0  0
  5  6  2  0  0  0
  6  7  1  0  0  0
  7  8  2  0  0  0
  8  9  1  0  0  0
  9 10  2  0  0  0
 10 11  1  0  0  0
  7  1  1  0  0  0
  1 19  1  0  0  0
 19 20  1  0  0  0
 20 21  2  0  0  0
 21 22  1  0  0  0
 22 23  2  0  0  0
 23 24  1  0  0  0
 24 25  1  0  0  0
 24 26  2  0  0  0
  1 12  1  0  0  0
 12 13  2  0  0  0
 13 14  1  0  0  0
 13 15  1  0  0  0
 15 16  1  0  0  0
 15 17  2  0  0  0
 17 18  1  0  0  0
 11  3  1  0  0  0
 26 20  1  0  0  0
 17 12  1  0  0  0
 10  5  1  0  0  0
M  END
> <minimizedAffinity>
-9.43250

> <CNNscore>
0.3225502670

> <CNNaffinity>
6.8323035240

> <CNN_VS>
2.2037613392

> <CNNaffinity_variance>
0.1320347190

$$$$
[H]c1c([H])c(F)c([H])c(C([H])([H])N(C2=C(Cl)C(Cl)=C2Cl)c2c([H])c([H])c3sc(C([H])([H])[H])nc3c2[H])c1[H]


 26 29  0  0  0  0  0  0  0  0999 V2000
   -4.5194   23.1538  -26.2080 N   0  0  0  0  0  0  0  0  0  0  0  0
   -5.9386   27.9786  -31.5757 C   0  0  0  0  0  0  0  0  0  0  0  0
   -5.7379   26.6509  -30.8837 C   0  0  0  0  0  0  0  0  0  0  0  0
   -5.4779   26.4133  -29.6163 N   0  0  0  0  0  0  0  0  0  0  0  0
   -5.3160   25.1833  -29.1971 C   0  0  0  0  0  0  0  0  0  0  0  0
   -5.0166   24.8163  -27.8712 C   0  0  0  0  0  0  0  0  0  0  0  0
   -4.8505   23.4779  -27.5696 C   0  0  0  0  0  0  0  0  0  0  0  0
   -4.9561   22.4556  -28.4650 C   0  0  0  0  0  0  0  0  0  0  0  0
   -5.2551   22.8278  -29.7814 C   0  0  0  0  0  0  0  0  0  0  0  0
   -5.4260   24.1810  -30.1091 C   0  0  0  0  0  0  0  0  0  0  0  0
   -5.7624   25.0596  -31.5495 S   0  0  0  0  0  0  0  0  0  0  0  0
   -5.1283   23.9554  -25.1714 C   0  0  0  0  0  0  0  0  0  0  0  0
   -4.7513   24.4617  -24.0400 C   0  0  0  0  0  0  0  0  0  0  0  0
   -3.2912   24.5047  -23.0508 Cl  0  0  0  0  0  0  0  0  0  0  0  0
   -6.0674   25.0523  -23.8197 C   0  0  0  0  0  0  0  0  0  0  0  0
   -6.8222   26.0204  -22.5718 Cl  0  0  0  0  0  0  0  0  0  0  0  0
   -6.4447   24.5321  -24.9727 C   0  0  0  0  0  0  0  0  0  0  0  0
   -7.9600   24.5504  -25.8799 Cl  0  0  0  0  0  0  0  0  0  0  0  0
   -3.6470   22.0958  -25.8742 C   0  0  0  0  0  0  0  0  0  0  0  0
   -2.1997   22.3355  -26.1081 C   0  0  0  0  0  0  0  0  0  0  0  0
   -1.6674   22.7337  -27.3180 C   0  0  0  0  0  0  0  0  0  0  0  0
   -0.3185   22.9359  -27.5087 C   0  0  0  0  0  0  0  0  0  0  0  0
    0.5448   22.7346  -26.4513 C   0  0  0  0  0  0  0  0  0  0  0  0
    0.0583   22.3351  -25.2190 C   0  0  0  0  0  0  0  0  0  0  0  0
    0.9574   22.1504  -24.2119 F   0  0  0  0  0  0  0  0  0  0  0  0
   -1.2851   22.1425  -25.0616 C   0  0  0  0  0  0  0  0  0  0  0  0
  2  3  1  0  0  0
  3  4  2  0  0  0
  4  5  1  0  0  0
  5  6  2  0  0  0
  6  7  1  0  0  0
  7  8  2  0  0  0
  8  9  1  0  0  0
  9 10  2  0  0  0
 10 11  1  0  0  0
  7  1  1  0  0  0
  1 19  1  0  0  0
 19 20  1  0  0  0
 20 21  2  0  0  0
 21 22  1  0  0  0
 22 23  2  0  0  0
 23 24  1  0  0  0
 24 25  1  0  0  0
 24 26  2  0  0  0
  1 12  1  0  0  0
 12 13  2  0  0  0
 13 14  1  0  0  0
 13 15  1  0  0  0
 15 16  1  0  0  0
 15 17  2  0  0  0
 17 18  1  0  0  0
 11  3  1  0  0  0
 26 20  1  0  0  0
 17 12  1  0  0  0
 10  5  1  0  0  0
M  END
> <minimizedAffinity>
-8.34186

> <CNNscore>
0.2786543667

> <CNNaffinity>
6.8962082863

> <CNN_VS>
1.9216585159

> <CNNaffinity_variance>
0.0798972994

$$$$
[H]c1c([H])c(F)c([H])c(C([H])([H])N(C2=C(Cl)C(Cl)=C2Cl)c2c([H])c([H])c3sc(C([H])([H])[H])nc3c2[H])c1[H]


 26 29  0  0  0  0  0  0  0  0999 V2000
   -4.3257   24.3909  -23.3957 N   0  0  0  0  0  0  0  0  0  0  0  0
   -5.4688   23.2488  -30.5717 C   0  0  0  0  0  0  0  0  0  0  0  0
   -5.2561   23.9919  -29.2738 C   0  0  0  0  0  0  0  0  0  0  0  0
   -5.0210   23.5052  -28.0746 N   0  0  0  0  0  0  0  0  0  0  0  0
   -4.8801   24.3121  -27.0528 C   0  0  0  0  0  0  0  0  0  0  0  0
   -4.6460   23.9006  -25.7269 C   0  0  0  0  0  0  0  0  0  0  0  0
   -4.5382   24.8604  -24.7386 C   0  0  0  0  0  0  0  0  0  0  0  0
   -4.6388   26.2048  -24.9398 C   0  0  0  0  0  0  0  0  0  0  0  0
   -4.8707   26.6069  -26.2609 C   0  0  0  0  0  0  0  0  0  0  0  0
   -4.9849   25.6487  -27.2789 C   0  0  0  0  0  0  0  0  0  0  0  0
   -5.2847   25.6903  -28.9726 S   0  0  0  0  0  0  0  0  0  0  0  0
   -5.4377   23.7429  -22.7389 C   0  0  0  0  0  0  0  0  0  0  0  0
   -6.2142   24.0094  -21.7366 C   0  0  0  0  0  0  0  0  0  0  0  0
   -6.4189   25.2992  -20.5507 Cl  0  0  0  0  0  0  0  0  0  0  0  0
   -6.9488   22.7622  -21.9222 C   0  0  0  0  0  0  0  0  0  0  0  0
   -8.2922   21.9612  -21.1362 Cl  0  0  0  0  0  0  0  0  0  0  0  0
   -6.1529   22.4969  -22.9413 C   0  0  0  0  0  0  0  0  0  0  0  0
   -6.0347   21.1486  -24.0759 Cl  0  0  0  0  0  0  0  0  0  0  0  0
   -3.0892   24.5371  -22.7314 C   0  0  0  0  0  0  0  0  0  0  0  0
   -2.2315   23.3262  -22.6599 C   0  0  0  0  0  0  0  0  0  0  0  0
   -2.0406   22.5803  -21.5141 C   0  0  0  0  0  0  0  0  0  0  0  0
   -1.2285   21.4687  -21.4748 C   0  0  0  0  0  0  0  0  0  0  0  0
   -0.5742   21.0765  -22.6246 C   0  0  0  0  0  0  0  0  0  0  0  0
   -0.7342   21.7925  -23.7978 C   0  0  0  0  0  0  0  0  0  0  0  0
   -0.0625   21.3596  -24.9015 F   0  0  0  0  0  0  0  0  0  0  0  0
   -1.5465   22.8910  -23.8045 C   0  0  0  0  0  0  0  0  0  0  0  0
  2  3  1  0  0  0
  3  4  2  0  0  0
  4  5  1  0  0  0
  5  6  2  0  0  0
  6  7  1  0  0  0
  7  8  2  0  0  0
  8  9  1  0  0  0
  9 10  2  0  0  0
 10 11  1  0  0  0
  7  1  1  0  0  0
  1 19  1  0  0  0
 19 20  1  0  0  0
 20 21  2  0  0  0
 21 22  1  0  0  0
 22 23  2  0  0  0
 23 24  1  0  0  0
 24 25  1  0  0  0
 24 26  2  0  0  0
  1 12  1  0  0  0
 12 13  2  0  0  0
 13 14  1  0  0  0
 13 15  1  0  0  0
 15 16  1  0  0  0
 15 17  2  0  0  0
 17 18  1  0  0  0
 11  3  1  0  0  0
 26 20  1  0  0  0
 17 12  1  0  0  0
 10  5  1  0  0  0
M  END
> <minimizedAffinity>
-8.02946

> <CNNscore>
0.2540582418

> <CNNaffinity>
6.4586935043

> <CNN_VS>
1.6408842802

> <CNNaffinity_variance>
0.0858428404

$$$$
