[H]c1nc(N([H])[H])c(-c2nn(-c3c(Cl)c(OC([H])([H])[H])c([H])c(OC([H])([H])[H])c3Cl)c(=O)c([H])c2[H])nc1-c1c([H])nn(C2([H])C([H])([H])C([H])([H])N(C([H])([H])C([H])(F)F)C([H])([H])C2([H])[H])c1[H]


 43 47  0  0  0  0  0  0  0  0999 V2000
   -2.1151   22.7859  -26.3042 C   0  0  0  0  0  0  0  0  0  0  0  0
   -1.5587   22.4008  -25.1426 N   0  0  0  0  0  0  0  0  0  0  0  0
   -0.2521   22.0745  -25.0188 C   0  0  0  0  0  0  0  0  0  0  0  0
    0.5049   22.1587  -26.1783 C   0  0  0  0  0  0  0  0  0  0  0  0
   -0.0402   22.5424  -27.3456 N   0  0  0  0  0  0  0  0  0  0  0  0
   -1.3370   22.8602  -27.4411 C   0  0  0  0  0  0  0  0  0  0  0  0
   -1.9116   23.2715  -28.6985 N   0  0  0  0  0  0  0  0  0  0  0  0
   -2.3517   22.5199  -29.2560 H   0  0  0  0  0  0  0  0  0  0  0  0
   -1.8651   24.2670  -28.9878 H   0  0  0  0  0  0  0  0  0  0  0  0
   -5.5995   23.5674  -25.3554 N   0  0  0  0  0  0  0  0  0  0  0  0
   -4.3138   23.2597  -25.3082 N   0  0  0  0  0  0  0  0  0  0  0  0
   -3.5300   23.1289  -26.3890 C   0  0  0  0  0  0  0  0  0  0  0  0
   -4.1415   23.3375  -27.6196 C   0  0  0  0  0  0  0  0  0  0  0  0
   -5.4802   23.6584  -27.6751 C   0  0  0  0  0  0  0  0  0  0  0  0
   -6.2326   23.7778  -26.5253 C   0  0  0  0  0  0  0  0  0  0  0  0
   -7.4730   24.0757  -26.5948 O   0  0  0  0  0  0  0  0  0  0  0  0
   -7.4406   22.6870  -22.3057 C   0  0  0  0  0  0  0  0  0  0  0  0
   -7.7530   23.9286  -21.7942 C   0  0  0  0  0  0  0  0  0  0  0  0
   -7.3536   25.0755  -22.4610 C   0  0  0  0  0  0  0  0  0  0  0  0
   -6.6465   24.9427  -23.6309 C   0  0  0  0  0  0  0  0  0  0  0  0
   -6.1246   26.3688  -24.4997 Cl  0  0  0  0  0  0  0  0  0  0  0  0
   -6.3345   23.6782  -24.1413 C   0  0  0  0  0  0  0  0  0  0  0  0
   -6.7212   22.5326  -23.4963 C   0  0  0  0  0  0  0  0  0  0  0  0
   -6.3661   20.9149  -24.0828 Cl  0  0  0  0  0  0  0  0  0  0  0  0
   -8.4197   21.6229  -20.3644 C   0  0  0  0  0  0  0  0  0  0  0  0
   -7.8403   21.5425  -21.6389 O   0  0  0  0  0  0  0  0  0  0  0  0
   -7.6644   26.3366  -21.9531 O   0  0  0  0  0  0  0  0  0  0  0  0
   -8.3259   26.4715  -20.6980 C   0  0  0  0  0  0  0  0  0  0  0  0
    0.3244   21.6595  -23.7520 C   0  0  0  0  0  0  0  0  0  0  0  0
   -0.3234   21.4490  -22.5665 C   0  0  0  0  0  0  0  0  0  0  0  0
    0.6269   21.0743  -21.6598 N   0  0  0  0  0  0  0  0  0  0  0  0
    1.8193   21.0427  -22.2196 N   0  0  0  0  0  0  0  0  0  0  0  0
    1.6557   21.4040  -23.5249 C   0  0  0  0  0  0  0  0  0  0  0  0
    3.0927   20.7046  -21.6351 C   0  0  0  0  0  0  0  0  0  0  0  0
    3.7168   19.6132  -22.4926 C   0  0  0  0  0  0  0  0  0  0  0  0
    4.8117   18.8590  -21.7846 C   0  0  0  0  0  0  0  0  0  0  0  0
    4.3870   18.3880  -20.5315 N   0  0  0  0  0  0  0  0  0  0  0  0
    2.9994   18.6787  -20.2980 C   0  0  0  0  0  0  0  0  0  0  0  0
    2.8415   20.1985  -20.2250 C   0  0  0  0  0  0  0  0  0  0  0  0
    4.6996   17.0408  -20.2105 C   0  0  0  0  0  0  0  0  0  0  0  0
    5.7145   16.8679  -19.1156 C   0  0  0  0  0  0  0  0  0  0  0  0
    5.2914   17.4219  -17.9182 F   0  0  0  0  0  0  0  0  0  0  0  0
    6.9687   17.3026  -19.4704 F   0  0  0  0  0  0  0  0  0  0  0  0
 25 26  1  0  0  0
 26 17  1  0  0  0
 17 18  2  0  0  0
 18 19  1  0  0  0
 19 27  1  0  0  0
 27 28  1  0  0  0
 19 20  2  0  0  0
 20 21  1  0  0  0
 20 22  1  0  0  0
 22 23  2  0  0  0
 23 24  1  0  0  0
 22 10  1  0  0  0
 10 11  1  0  0  0
 11 12  2  0  0  0
 12 13  1  0  0  0
 13 14  2  0  0  0
 14 15  1  0  0  0
 15 16  2  0  0  0
 12  1  1  0  0  0
  1  2  2  0  0  0
  2  3  1  0  0  0
  3  4  2  0  0  0
  4  5  1  0  0  0
  5  6  2  0  0  0
  6  7  1  0  0  0
  3 29  1  0  0  0
 29 30  1  0  0  0
 30 31  2  0  0  0
 31 32  1  0  0  0
 32 33  1  0  0  0
 32 34  1  0  0  0
 34 35  1  0  0  0
 35 36  1  0  0  0
 36 37  1  0  0  0
 37 40  1  0  0  0
 40 41  1  0  0  0
 41 42  1  0  0  0
 41 43  1  0  0  0
 37 38  1  0  0  0
 38 39  1  0  0  0
 23 17  1  0  0  0
 15 10  1  0  0  0
  6  1  1  0  0  0
 33 29  2  0  0  0
 39 34  1  0  0  0
  7  8  1  0  0  0
  7  9  1  0  0  0
M  END
> <minimizedAffinity>
-8.94077

> <CNNscore>
0.8005654812

> <CNNaffinity>
8.0906467438

> <CNN_VS>
6.4770922661

> <CNNaffinity_variance>
0.0689996183

$$$$
[H]c1nc(N([H])[H])c(-c2nn(-c3c(Cl)c(OC([H])([H])[H])c([H])c(OC([H])([H])[H])c3Cl)c(=O)c([H])c2[H])nc1-c1c([H])nn(C2([H])C([H])([H])C([H])([H])N(C([H])([H])C([H])(F)F)C([H])([H])C2([H])[H])c1[H]


 43 47  0  0  0  0  0  0  0  0999 V2000
   -2.1160   22.7638  -26.4047 C   0  0  0  0  0  0  0  0  0  0  0  0
   -1.5297   22.3958  -25.2523 N   0  0  0  0  0  0  0  0  0  0  0  0
   -0.2178   22.0822  -25.1553 C   0  0  0  0  0  0  0  0  0  0  0  0
    0.5117   22.1608  -26.3328 C   0  0  0  0  0  0  0  0  0  0  0  0
   -0.0636   22.5274  -27.4911 N   0  0  0  0  0  0  0  0  0  0  0  0
   -1.3650   22.8329  -27.5600 C   0  0  0  0  0  0  0  0  0  0  0  0
   -1.9720   23.2259  -28.8080 N   0  0  0  0  0  0  0  0  0  0  0  0
   -2.4181   22.4646  -29.3474 H   0  0  0  0  0  0  0  0  0  0  0  0
   -1.9411   24.2186  -29.1085 H   0  0  0  0  0  0  0  0  0  0  0  0
   -5.5845   23.5255  -25.3839 N   0  0  0  0  0  0  0  0  0  0  0  0
   -4.2954   23.2295  -25.3631 N   0  0  0  0  0  0  0  0  0  0  0  0
   -3.5356   23.0936  -26.4604 C   0  0  0  0  0  0  0  0  0  0  0  0
   -4.1772   23.2832  -27.6787 C   0  0  0  0  0  0  0  0  0  0  0  0
   -5.5196   23.5919  -27.7066 C   0  0  0  0  0  0  0  0  0  0  0  0
   -6.2463   23.7175  -26.5411 C   0  0  0  0  0  0  0  0  0  0  0  0
   -7.4906   24.0038  -26.5850 O   0  0  0  0  0  0  0  0  0  0  0  0
   -7.3587   22.6627  -22.2898 C   0  0  0  0  0  0  0  0  0  0  0  0
   -7.6580   23.9071  -21.7776 C   0  0  0  0  0  0  0  0  0  0  0  0
   -7.2719   25.0502  -22.4588 C   0  0  0  0  0  0  0  0  0  0  0  0
   -6.5911   24.9107  -23.6434 C   0  0  0  0  0  0  0  0  0  0  0  0
   -6.0868   26.3318  -24.5305 Cl  0  0  0  0  0  0  0  0  0  0  0  0
   -6.2922   23.6432  -24.1544 C   0  0  0  0  0  0  0  0  0  0  0  0
   -6.6660   22.5014  -23.4953 C   0  0  0  0  0  0  0  0  0  0  0  0
   -6.3262   20.8804  -24.0815 Cl  0  0  0  0  0  0  0  0  0  0  0  0
   -8.5223   21.6127  -20.4451 C   0  0  0  0  0  0  0  0  0  0  0  0
   -7.7449   21.5220  -21.6087 O   0  0  0  0  0  0  0  0  0  0  0  0
   -7.5698   26.3142  -21.9504 O   0  0  0  0  0  0  0  0  0  0  0  0
   -8.1805   26.4572  -20.6707 C   0  0  0  0  0  0  0  0  0  0  0  0
    0.3914   21.6856  -23.8979 C   0  0  0  0  0  0  0  0  0  0  0  0
    1.6791   21.2792  -23.6831 C   0  0  0  0  0  0  0  0  0  0  0  0
    1.7892   21.0090  -22.3488 N   0  0  0  0  0  0  0  0  0  0  0  0
    0.6447   21.2258  -21.7328 N   0  0  0  0  0  0  0  0  0  0  0  0
   -0.2425   21.6488  -22.6790 C   0  0  0  0  0  0  0  0  0  0  0  0
    0.3154   21.0693  -20.3383 C   0  0  0  0  0  0  0  0  0  0  0  0
    0.0298   22.4539  -19.7753 C   0  0  0  0  0  0  0  0  0  0  0  0
    0.1057   22.5078  -18.2718 C   0  0  0  0  0  0  0  0  0  0  0  0
    1.3114   21.9669  -17.7962 N   0  0  0  0  0  0  0  0  0  0  0  0
    2.1829   21.5853  -18.8730 C   0  0  0  0  0  0  0  0  0  0  0  0
    1.5122   20.4452  -19.6414 C   0  0  0  0  0  0  0  0  0  0  0  0
    2.0026   22.7095  -16.8030 C   0  0  0  0  0  0  0  0  0  0  0  0
    3.0942   23.6024  -17.3224 C   0  0  0  0  0  0  0  0  0  0  0  0
    4.0133   23.9308  -16.3389 F   0  0  0  0  0  0  0  0  0  0  0  0
    2.6165   24.7138  -17.9738 F   0  0  0  0  0  0  0  0  0  0  0  0
 25 26  1  0  0  0
 26 17  1  0  0  0
 17 18  2  0  0  0
 18 19  1  0  0  0
 19 27  1  0  0  0
 27 28  1  0  0  0
 19 20  2  0  0  0
 20 21  1  0  0  0
 20 22  1  0  0  0
 22 23  2  0  0  0
 23 24  1  0  0  0
 22 10  1  0  0  0
 10 11  1  0  0  0
 11 12  2  0  0  0
 12 13  1  0  0  0
 13 14  2  0  0  0
 14 15  1  0  0  0
 15 16  2  0  0  0
 12  1  1  0  0  0
  1  2  2  0  0  0
  2  3  1  0  0  0
  3  4  2  0  0  0
  4  5  1  0  0  0
  5  6  2  0  0  0
  6  7  1  0  0  0
  3 29  1  0  0  0
 29 30  1  0  0  0
 30 31  2  0  0  0
 31 32  1  0  0  0
 32 33  1  0  0  0
 32 34  1  0  0  0
 34 35  1  0  0  0
 35 36  1  0  0  0
 36 37  1  0  0  0
 37 40  1  0  0  0
 40 41  1  0  0  0
 41 42  1  0  0  0
 41 43  1  0  0  0
 37 38  1  0  0  0
 38 39  1  0  0  0
 23 17  1  0  0  0
 15 10  1  0  0  0
  6  1  1  0  0  0
 33 29  2  0  0  0
 39 34  1  0  0  0
  7  8  1  0  0  0
  7  9  1  0  0  0
M  END
> <minimizedAffinity>
-9.62167

> <CNNscore>
0.6750077605

> <CNNaffinity>
7.9872236252

> <CNN_VS>
5.3914380074

> <CNNaffinity_variance>
0.1313512176

$$$$
[H]c1nc(N([H])[H])c(-c2nn(-c3c(Cl)c(OC([H])([H])[H])c([H])c(OC([H])([H])[H])c3Cl)c(=O)c([H])c2[H])nc1-c1c([H])nn(C2([H])C([H])([H])C([H])([H])N(C([H])([H])C([H])(F)F)C([H])([H])C2([H])[H])c1[H]


 43 47  0  0  0  0  0  0  0  0999 V2000
   -2.2075   22.8403  -26.4725 C   0  0  0  0  0  0  0  0  0  0  0  0
   -1.5898   22.4556  -25.3421 N   0  0  0  0  0  0  0  0  0  0  0  0
   -0.2745   22.1465  -25.2846 C   0  0  0  0  0  0  0  0  0  0  0  0
    0.4237   22.2486  -26.4790 C   0  0  0  0  0  0  0  0  0  0  0  0
   -0.1830   22.6321  -27.6156 N   0  0  0  0  0  0  0  0  0  0  0  0
   -1.4870   22.9326  -27.6455 C   0  0  0  0  0  0  0  0  0  0  0  0
   -2.1280   23.3440  -28.8704 N   0  0  0  0  0  0  0  0  0  0  0  0
   -2.5847   22.5899  -29.4110 H   0  0  0  0  0  0  0  0  0  0  0  0
   -2.1091   24.3418  -29.1545 H   0  0  0  0  0  0  0  0  0  0  0  0
   -5.6456   23.5939  -25.3482 N   0  0  0  0  0  0  0  0  0  0  0  0
   -4.3553   23.3030  -25.3660 N   0  0  0  0  0  0  0  0  0  0  0  0
   -3.6294   23.1643  -26.4856 C   0  0  0  0  0  0  0  0  0  0  0  0
   -4.3093   23.3453  -27.6843 C   0  0  0  0  0  0  0  0  0  0  0  0
   -5.6531   23.6487  -27.6720 C   0  0  0  0  0  0  0  0  0  0  0  0
   -6.3438   23.7774  -26.4852 C   0  0  0  0  0  0  0  0  0  0  0  0
   -7.5900   24.0587  -26.4918 O   0  0  0  0  0  0  0  0  0  0  0  0
   -7.2324   25.0413  -22.3728 C   0  0  0  0  0  0  0  0  0  0  0  0
   -7.6143   23.9137  -21.6777 C   0  0  0  0  0  0  0  0  0  0  0  0
   -7.3465   22.6558  -22.1929 C   0  0  0  0  0  0  0  0  0  0  0  0
   -6.6984   22.5646  -23.4004 C   0  0  0  0  0  0  0  0  0  0  0  0
   -6.3445   20.9928  -24.0824 Cl  0  0  0  0  0  0  0  0  0  0  0  0
   -6.3153   23.7151  -24.0979 C   0  0  0  0  0  0  0  0  0  0  0  0
   -6.5711   24.9677  -23.6042 C   0  0  0  0  0  0  0  0  0  0  0  0
   -6.1152   26.4524  -24.4256 Cl  0  0  0  0  0  0  0  0  0  0  0  0
   -8.5063   26.4757  -20.8966 C   0  0  0  0  0  0  0  0  0  0  0  0
   -7.5003   26.2969  -21.8571 O   0  0  0  0  0  0  0  0  0  0  0  0
   -7.7277   21.5081  -21.4982 O   0  0  0  0  0  0  0  0  0  0  0  0
   -8.5867   21.5969  -20.3645 C   0  0  0  0  0  0  0  0  0  0  0  0
    0.3689   21.7315  -24.0504 C   0  0  0  0  0  0  0  0  0  0  0  0
    1.6560   21.3029  -23.8804 C   0  0  0  0  0  0  0  0  0  0  0  0
    1.8052   21.0217  -22.5522 N   0  0  0  0  0  0  0  0  0  0  0  0
    0.6852   21.2527  -21.8976 N   0  0  0  0  0  0  0  0  0  0  0  0
   -0.2254   21.6964  -22.8115 C   0  0  0  0  0  0  0  0  0  0  0  0
    0.3991   21.0919  -20.4942 C   0  0  0  0  0  0  0  0  0  0  0  0
    0.0274   22.4600  -19.9411 C   0  0  0  0  0  0  0  0  0  0  0  0
    0.1327   22.5394  -18.4406 C   0  0  0  0  0  0  0  0  0  0  0  0
    1.3844   22.0926  -17.9867 N   0  0  0  0  0  0  0  0  0  0  0  0
    2.2569   21.7598  -19.0788 C   0  0  0  0  0  0  0  0  0  0  0  0
    1.6529   20.5644  -19.8178 C   0  0  0  0  0  0  0  0  0  0  0  0
    2.0424   22.8961  -17.0186 C   0  0  0  0  0  0  0  0  0  0  0  0
    2.9927   23.9163  -17.5798 C   0  0  0  0  0  0  0  0  0  0  0  0
    3.8511   24.4177  -16.6147 F   0  0  0  0  0  0  0  0  0  0  0  0
    2.3589   24.9167  -18.2763 F   0  0  0  0  0  0  0  0  0  0  0  0
 25 26  1  0  0  0
 26 17  1  0  0  0
 17 18  2  0  0  0
 18 19  1  0  0  0
 19 27  1  0  0  0
 27 28  1  0  0  0
 19 20  2  0  0  0
 20 21  1  0  0  0
 20 22  1  0  0  0
 22 23  2  0  0  0
 23 24  1  0  0  0
 22 10  1  0  0  0
 10 11  1  0  0  0
 11 12  2  0  0  0
 12 13  1  0  0  0
 13 14  2  0  0  0
 14 15  1  0  0  0
 15 16  2  0  0  0
 12  1  1  0  0  0
  1  2  2  0  0  0
  2  3  1  0  0  0
  3  4  2  0  0  0
  4  5  1  0  0  0
  5  6  2  0  0  0
  6  7  1  0  0  0
  3 29  1  0  0  0
 29 30  1  0  0  0
 30 31  2  0  0  0
 31 32  1  0  0  0
 32 33  1  0  0  0
 32 34  1  0  0  0
 34 35  1  0  0  0
 35 36  1  0  0  0
 36 37  1  0  0  0
 37 40  1  0  0  0
 40 41  1  0  0  0
 41 42  1  0  0  0
 41 43  1  0  0  0
 37 38  1  0  0  0
 38 39  1  0  0  0
 23 17  1  0  0  0
 15 10  1  0  0  0
  6  1  1  0  0  0
 33 29  2  0  0  0
 39 34  1  0  0  0
  7  8  1  0  0  0
  7  9  1  0  0  0
M  END
> <minimizedAffinity>
-9.75069

> <CNNscore>
0.6397773027

> <CNNaffinity>
7.9779205322

> <CNN_VS>
5.1040925980

> <CNNaffinity_variance>
0.1773295701

$$$$
[H]c1nc(N([H])[H])c(-c2nn(-c3c(Cl)c(OC([H])([H])[H])c([H])c(OC([H])([H])[H])c3Cl)c(=O)c([H])c2[H])nc1-c1c([H])nn(C2([H])C([H])([H])C([H])([H])N(C([H])([H])C([H])(F)F)C([H])([H])C2([H])[H])c1[H]


 43 47  0  0  0  0  0  0  0  0999 V2000
   -2.1007   22.7906  -26.3246 C   0  0  0  0  0  0  0  0  0  0  0  0
   -1.5232   22.4129  -25.1708 N   0  0  0  0  0  0  0  0  0  0  0  0
   -0.2121   22.0982  -25.0665 C   0  0  0  0  0  0  0  0  0  0  0  0
    0.5263   22.1866  -26.2376 C   0  0  0  0  0  0  0  0  0  0  0  0
   -0.0400   22.5630  -27.3972 N   0  0  0  0  0  0  0  0  0  0  0  0
   -1.3408   22.8693  -27.4734 C   0  0  0  0  0  0  0  0  0  0  0  0
   -1.9382   23.2729  -28.7227 N   0  0  0  0  0  0  0  0  0  0  0  0
   -2.3802   22.5163  -29.2718 H   0  0  0  0  0  0  0  0  0  0  0  0
   -1.9049   24.2681  -29.0146 H   0  0  0  0  0  0  0  0  0  0  0  0
   -5.5753   23.5506  -25.3237 N   0  0  0  0  0  0  0  0  0  0  0  0
   -4.2865   23.2540  -25.2955 N   0  0  0  0  0  0  0  0  0  0  0  0
   -3.5197   23.1211  -26.3883 C   0  0  0  0  0  0  0  0  0  0  0  0
   -4.1535   23.3147  -27.6101 C   0  0  0  0  0  0  0  0  0  0  0  0
   -5.4955   23.6240  -27.6456 C   0  0  0  0  0  0  0  0  0  0  0  0
   -6.2296   23.7463  -26.4844 C   0  0  0  0  0  0  0  0  0  0  0  0
   -7.4735   24.0333  -26.5354 O   0  0  0  0  0  0  0  0  0  0  0  0
   -7.3846   22.6793  -22.2523 C   0  0  0  0  0  0  0  0  0  0  0  0
   -7.6711   23.9222  -21.7292 C   0  0  0  0  0  0  0  0  0  0  0  0
   -7.2646   25.0670  -22.3953 C   0  0  0  0  0  0  0  0  0  0  0  0
   -6.5767   24.9309  -23.5761 C   0  0  0  0  0  0  0  0  0  0  0  0
   -6.0466   26.3543  -24.4443 Cl  0  0  0  0  0  0  0  0  0  0  0  0
   -6.2908   23.6649  -24.0983 C   0  0  0  0  0  0  0  0  0  0  0  0
   -6.6849   22.5213  -23.4542 C   0  0  0  0  0  0  0  0  0  0  0  0
   -6.3622   20.9022  -24.0550 Cl  0  0  0  0  0  0  0  0  0  0  0  0
   -8.6182   21.6235  -20.4570 C   0  0  0  0  0  0  0  0  0  0  0  0
   -7.7913   21.5368  -21.5862 O   0  0  0  0  0  0  0  0  0  0  0  0
   -7.5495   26.3296  -21.8758 O   0  0  0  0  0  0  0  0  0  0  0  0
   -8.4851   26.4832  -20.8118 C   0  0  0  0  0  0  0  0  0  0  0  0
    0.3874   21.6910  -23.8078 C   0  0  0  0  0  0  0  0  0  0  0  0
    1.6720   21.2778  -23.5875 C   0  0  0  0  0  0  0  0  0  0  0  0
    1.7725   20.9985  -22.2543 N   0  0  0  0  0  0  0  0  0  0  0  0
    0.6249   21.2161  -21.6442 N   0  0  0  0  0  0  0  0  0  0  0  0
   -0.2544   21.6488  -22.5932 C   0  0  0  0  0  0  0  0  0  0  0  0
    0.2861   21.0518  -20.2529 C   0  0  0  0  0  0  0  0  0  0  0  0
   -1.1527   20.5610  -20.1852 C   0  0  0  0  0  0  0  0  0  0  0  0
   -1.7829   20.7627  -18.8319 C   0  0  0  0  0  0  0  0  0  0  0  0
   -1.6403   22.0877  -18.3886 N   0  0  0  0  0  0  0  0  0  0  0  0
   -1.0071   22.9134  -19.3794 C   0  0  0  0  0  0  0  0  0  0  0  0
    0.4222   22.4042  -19.5746 C   0  0  0  0  0  0  0  0  0  0  0  0
   -2.7942   22.7132  -17.8474 C   0  0  0  0  0  0  0  0  0  0  0  0
   -4.0718   22.4405  -18.5904 C   0  0  0  0  0  0  0  0  0  0  0  0
   -4.0503   22.9591  -19.8752 F   0  0  0  0  0  0  0  0  0  0  0  0
   -5.1920   22.8291  -17.8961 F   0  0  0  0  0  0  0  0  0  0  0  0
 25 26  1  0  0  0
 26 17  1  0  0  0
 17 18  2  0  0  0
 18 19  1  0  0  0
 19 27  1  0  0  0
 27 28  1  0  0  0
 19 20  2  0  0  0
 20 21  1  0  0  0
 20 22  1  0  0  0
 22 23  2  0  0  0
 23 24  1  0  0  0
 22 10  1  0  0  0
 10 11  1  0  0  0
 11 12  2  0  0  0
 12 13  1  0  0  0
 13 14  2  0  0  0
 14 15  1  0  0  0
 15 16  2  0  0  0
 12  1  1  0  0  0
  1  2  2  0  0  0
  2  3  1  0  0  0
  3  4  2  0  0  0
  4  5  1  0  0  0
  5  6  2  0  0  0
  6  7  1  0  0  0
  3 29  1  0  0  0
 29 30  1  0  0  0
 30 31  2  0  0  0
 31 32  1  0  0  0
 32 33  1  0  0  0
 32 34  1  0  0  0
 34 35  1  0  0  0
 35 36  1  0  0  0
 36 37  1  0  0  0
 37 40  1  0  0  0
 40 41  1  0  0  0
 41 42  1  0  0  0
 41 43  1  0  0  0
 37 38  1  0  0  0
 38 39  1  0  0  0
 23 17  1  0  0  0
 15 10  1  0  0  0
  6  1  1  0  0  0
 33 29  2  0  0  0
 39 34  1  0  0  0
  7  8  1  0  0  0
  7  9  1  0  0  0
M  END
> <minimizedAffinity>
-9.18514

> <CNNscore>
0.3954300284

> <CNNaffinity>
7.8057203293

> <CNN_VS>
3.0866162777

> <CNNaffinity_variance>
0.3278324306

$$$$
[H]c1nc(N([H])[H])c(-c2nn(-c3c(Cl)c(OC([H])([H])[H])c([H])c(OC([H])([H])[H])c3Cl)c(=O)c([H])c2[H])nc1-c1c([H])nn(C2([H])C([H])([H])C([H])([H])N(C([H])([H])C([H])(F)F)C([H])([H])C2([H])[H])c1[H]


 43 47  0  0  0  0  0  0  0  0999 V2000
   -2.1468   22.8231  -26.3347 C   0  0  0  0  0  0  0  0  0  0  0  0
   -1.5601   22.4566  -25.1820 N   0  0  0  0  0  0  0  0  0  0  0  0
   -0.2475   22.1461  -25.0844 C   0  0  0  0  0  0  0  0  0  0  0  0
    0.4823   22.2265  -26.2615 C   0  0  0  0  0  0  0  0  0  0  0  0
   -0.0933   22.5917  -27.4201 N   0  0  0  0  0  0  0  0  0  0  0  0
   -1.3954   22.8941  -27.4896 C   0  0  0  0  0  0  0  0  0  0  0  0
   -2.0028   23.2857  -28.7379 N   0  0  0  0  0  0  0  0  0  0  0  0
   -2.4468   22.5233  -29.2775 H   0  0  0  0  0  0  0  0  0  0  0  0
   -1.9742   24.2785  -29.0383 H   0  0  0  0  0  0  0  0  0  0  0  0
   -5.6138   23.5929  -25.3149 N   0  0  0  0  0  0  0  0  0  0  0  0
   -4.3241   23.2996  -25.2936 N   0  0  0  0  0  0  0  0  0  0  0  0
   -3.5671   23.1495  -26.3910 C   0  0  0  0  0  0  0  0  0  0  0  0
   -4.2125   23.3207  -27.6100 C   0  0  0  0  0  0  0  0  0  0  0  0
   -5.5556   23.6265  -27.6384 C   0  0  0  0  0  0  0  0  0  0  0  0
   -6.2792   23.7673  -26.4728 C   0  0  0  0  0  0  0  0  0  0  0  0
   -7.5242   24.0507  -26.5172 O   0  0  0  0  0  0  0  0  0  0  0  0
   -7.2989   25.0702  -22.4091 C   0  0  0  0  0  0  0  0  0  0  0  0
   -7.6841   23.9498  -21.7043 C   0  0  0  0  0  0  0  0  0  0  0  0
   -7.3859   22.6869  -22.1896 C   0  0  0  0  0  0  0  0  0  0  0  0
   -6.7045   22.5835  -23.3776 C   0  0  0  0  0  0  0  0  0  0  0  0
   -6.3115   21.0051  -24.0218 Cl  0  0  0  0  0  0  0  0  0  0  0  0
   -6.3183   23.7269  -24.0852 C   0  0  0  0  0  0  0  0  0  0  0  0
   -6.6039   24.9842  -23.6209 C   0  0  0  0  0  0  0  0  0  0  0  0
   -6.1461   26.4604  -24.4564 Cl  0  0  0  0  0  0  0  0  0  0  0  0
   -8.4869   26.4920  -20.8512 C   0  0  0  0  0  0  0  0  0  0  0  0
   -7.5972   26.3308  -21.9232 O   0  0  0  0  0  0  0  0  0  0  0  0
   -7.7702   21.5464  -21.4848 O   0  0  0  0  0  0  0  0  0  0  0  0
   -8.6702   21.6416  -20.3840 C   0  0  0  0  0  0  0  0  0  0  0  0
    0.3621   21.7510  -23.8268 C   0  0  0  0  0  0  0  0  0  0  0  0
    1.6446   21.3271  -23.6149 C   0  0  0  0  0  0  0  0  0  0  0  0
    1.7574   21.0664  -22.2789 N   0  0  0  0  0  0  0  0  0  0  0  0
    0.6194   21.3055  -21.6591 N   0  0  0  0  0  0  0  0  0  0  0  0
   -0.2661   21.7337  -22.6044 C   0  0  0  0  0  0  0  0  0  0  0  0
    0.2949   21.1655  -20.2618 C   0  0  0  0  0  0  0  0  0  0  0  0
   -0.9513   20.2975  -20.1641 C   0  0  0  0  0  0  0  0  0  0  0  0
   -1.6563   20.4227  -18.8388 C   0  0  0  0  0  0  0  0  0  0  0  0
   -1.9035   21.7657  -18.5106 N   0  0  0  0  0  0  0  0  0  0  0  0
   -1.4940   22.6532  -19.5638 C   0  0  0  0  0  0  0  0  0  0  0  0
    0.0261   22.5518  -19.7020 C   0  0  0  0  0  0  0  0  0  0  0  0
   -3.2031   22.0835  -18.0355 C   0  0  0  0  0  0  0  0  0  0  0  0
   -4.1828   22.5004  -19.0962 C   0  0  0  0  0  0  0  0  0  0  0  0
   -5.2266   23.2500  -18.5781 F   0  0  0  0  0  0  0  0  0  0  0  0
   -4.6314   21.4488  -19.8581 F   0  0  0  0  0  0  0  0  0  0  0  0
 25 26  1  0  0  0
 26 17  1  0  0  0
 17 18  2  0  0  0
 18 19  1  0  0  0
 19 27  1  0  0  0
 27 28  1  0  0  0
 19 20  2  0  0  0
 20 21  1  0  0  0
 20 22  1  0  0  0
 22 23  2  0  0  0
 23 24  1  0  0  0
 22 10  1  0  0  0
 10 11  1  0  0  0
 11 12  2  0  0  0
 12 13  1  0  0  0
 13 14  2  0  0  0
 14 15  1  0  0  0
 15 16  2  0  0  0
 12  1  1  0  0  0
  1  2  2  0  0  0
  2  3  1  0  0  0
  3  4  2  0  0  0
  4  5  1  0  0  0
  5  6  2  0  0  0
  6  7  1  0  0  0
  3 29  1  0  0  0
 29 30  1  0  0  0
 30 31  2  0  0  0
 31 32  1  0  0  0
 32 33  1  0  0  0
 32 34  1  0  0  0
 34 35  1  0  0  0
 35 36  1  0  0  0
 36 37  1  0  0  0
 37 40  1  0  0  0
 40 41  1  0  0  0
 41 42  1  0  0  0
 41 43  1  0  0  0
 37 38  1  0  0  0
 38 39  1  0  0  0
 23 17  1  0  0  0
 15 10  1  0  0  0
  6  1  1  0  0  0
 33 29  2  0  0  0
 39 34  1  0  0  0
  7  8  1  0  0  0
  7  9  1  0  0  0
M  END
> <minimizedAffinity>
-9.17034

> <CNNscore>
0.3909907639

> <CNNaffinity>
7.7924680710

> <CNN_VS>
3.0467829704

> <CNNaffinity_variance>
0.3771709502

$$$$
[H]c1nc(N([H])[H])c(-c2nn(-c3c(Cl)c(OC([H])([H])[H])c([H])c(OC([H])([H])[H])c3Cl)c(=O)c([H])c2[H])nc1-c1c([H])nn(C2([H])C([H])([H])C([H])([H])N(C([H])([H])C([H])(F)F)C([H])([H])C2([H])[H])c1[H]


 43 47  0  0  0  0  0  0  0  0999 V2000
   -0.2009   21.7955  -23.8215 C   0  0  0  0  0  0  0  0  0  0  0  0
   -1.3395   22.2170  -24.3986 N   0  0  0  0  0  0  0  0  0  0  0  0
   -1.4378   22.5141  -25.7143 C   0  0  0  0  0  0  0  0  0  0  0  0
   -0.2770   22.3586  -26.4579 C   0  0  0  0  0  0  0  0  0  0  0  0
    0.8675   21.9378  -25.8921 N   0  0  0  0  0  0  0  0  0  0  0  0
    0.9380   21.6502  -24.5867 C   0  0  0  0  0  0  0  0  0  0  0  0
    2.1710   21.1987  -23.9898 N   0  0  0  0  0  0  0  0  0  0  0  0
    2.7578   21.9361  -23.5640 H   0  0  0  0  0  0  0  0  0  0  0  0
    2.4158   20.1905  -24.0078 H   0  0  0  0  0  0  0  0  0  0  0  0
    1.0811   21.2250  -20.4035 N   0  0  0  0  0  0  0  0  0  0  0  0
    0.9990   21.5031  -21.6941 N   0  0  0  0  0  0  0  0  0  0  0  0
   -0.1432   21.4863  -22.3975 C   0  0  0  0  0  0  0  0  0  0  0  0
   -1.2933   21.1514  -21.6925 C   0  0  0  0  0  0  0  0  0  0  0  0
   -1.2140   20.8610  -20.3481 C   0  0  0  0  0  0  0  0  0  0  0  0
   -0.0070   20.8957  -19.6815 C   0  0  0  0  0  0  0  0  0  0  0  0
    0.0487   20.6231  -18.4346 O   0  0  0  0  0  0  0  0  0  0  0  0
    3.9308   22.3860  -18.4040 C   0  0  0  0  0  0  0  0  0  0  0  0
    4.8113   21.3322  -18.5260 C   0  0  0  0  0  0  0  0  0  0  0  0
    4.4654   20.2210  -19.2776 C   0  0  0  0  0  0  0  0  0  0  0  0
    3.2362   20.1986  -19.8899 C   0  0  0  0  0  0  0  0  0  0  0  0
    2.7647   18.8114  -20.8461 Cl  0  0  0  0  0  0  0  0  0  0  0  0
    2.3499   21.2731  -19.7597 C   0  0  0  0  0  0  0  0  0  0  0  0
    2.6744   22.3807  -19.0209 C   0  0  0  0  0  0  0  0  0  0  0  0
    1.6113   23.7649  -18.8188 Cl  0  0  0  0  0  0  0  0  0  0  0  0
    4.1273   23.4905  -16.2591 C   0  0  0  0  0  0  0  0  0  0  0  0
    4.2776   23.4952  -17.6533 O   0  0  0  0  0  0  0  0  0  0  0  0
    5.3484   19.1494  -19.4083 O   0  0  0  0  0  0  0  0  0  0  0  0
    6.5454   19.0962  -18.6368 C   0  0  0  0  0  0  0  0  0  0  0  0
   -2.6800   22.9697  -26.3133 C   0  0  0  0  0  0  0  0  0  0  0  0
   -3.1724   22.6666  -27.5522 C   0  0  0  0  0  0  0  0  0  0  0  0
   -4.3629   23.3248  -27.6745 N   0  0  0  0  0  0  0  0  0  0  0  0
   -4.6294   24.0138  -26.5834 N   0  0  0  0  0  0  0  0  0  0  0  0
   -3.5936   23.8076  -25.7198 C   0  0  0  0  0  0  0  0  0  0  0  0
   -5.7680   24.8457  -26.2853 C   0  0  0  0  0  0  0  0  0  0  0  0
   -5.3305   25.8688  -25.2471 C   0  0  0  0  0  0  0  0  0  0  0  0
   -6.4867   26.5066  -24.5221 C   0  0  0  0  0  0  0  0  0  0  0  0
   -7.3623   25.5419  -23.9976 N   0  0  0  0  0  0  0  0  0  0  0  0
   -6.8769   24.2080  -24.2202 C   0  0  0  0  0  0  0  0  0  0  0  0
   -6.8660   23.9555  -25.7290 C   0  0  0  0  0  0  0  0  0  0  0  0
   -7.7925   25.7242  -22.6569 C   0  0  0  0  0  0  0  0  0  0  0  0
   -9.1850   25.2396  -22.3653 C   0  0  0  0  0  0  0  0  0  0  0  0
   -9.1874   24.0128  -21.7213 F   0  0  0  0  0  0  0  0  0  0  0  0
   -9.9991   25.2427  -23.4721 F   0  0  0  0  0  0  0  0  0  0  0  0
 25 26  1  0  0  0
 26 17  1  0  0  0
 17 18  2  0  0  0
 18 19  1  0  0  0
 19 27  1  0  0  0
 27 28  1  0  0  0
 19 20  2  0  0  0
 20 21  1  0  0  0
 20 22  1  0  0  0
 22 23  2  0  0  0
 23 24  1  0  0  0
 22 10  1  0  0  0
 10 11  1  0  0  0
 11 12  2  0  0  0
 12 13  1  0  0  0
 13 14  2  0  0  0
 14 15  1  0  0  0
 15 16  2  0  0  0
 12  1  1  0  0  0
  1  2  2  0  0  0
  2  3  1  0  0  0
  3  4  2  0  0  0
  4  5  1  0  0  0
  5  6  2  0  0  0
  6  7  1  0  0  0
  3 29  1  0  0  0
 29 30  1  0  0  0
 30 31  2  0  0  0
 31 32  1  0  0  0
 32 33  1  0  0  0
 32 34  1  0  0  0
 34 35  1  0  0  0
 35 36  1  0  0  0
 36 37  1  0  0  0
 37 40  1  0  0  0
 40 41  1  0  0  0
 41 42  1  0  0  0
 41 43  1  0  0  0
 37 38  1  0  0  0
 38 39  1  0  0  0
 23 17  1  0  0  0
 15 10  1  0  0  0
  6  1  1  0  0  0
 33 29  2  0  0  0
 39 34  1  0  0  0
  7  8  1  0  0  0
  7  9  1  0  0  0
M  END
> <minimizedAffinity>
-8.10779

> <CNNscore>
0.2877580225

> <CNNaffinity>
7.5594987869

> <CNN_VS>
2.1753063202

> <CNNaffinity_variance>
0.0297437347

$$$$
[H]c1nc(N([H])[H])c(-c2nn(-c3c(Cl)c(OC([H])([H])[H])c([H])c(OC([H])([H])[H])c3Cl)c(=O)c([H])c2[H])nc1-c1c([H])nn(C2([H])C([H])([H])C([H])([H])N(C([H])([H])C([H])(F)F)C([H])([H])C2([H])[H])c1[H]


 43 47  0  0  0  0  0  0  0  0999 V2000
   -0.2144   21.8919  -23.9530 C   0  0  0  0  0  0  0  0  0  0  0  0
   -1.3430   22.3154  -24.5481 N   0  0  0  0  0  0  0  0  0  0  0  0
   -1.4259   22.5901  -25.8697 C   0  0  0  0  0  0  0  0  0  0  0  0
   -0.2601   22.4088  -26.5995 C   0  0  0  0  0  0  0  0  0  0  0  0
    0.8744   21.9858  -26.0156 N   0  0  0  0  0  0  0  0  0  0  0  0
    0.9297   21.7208  -24.7047 C   0  0  0  0  0  0  0  0  0  0  0  0
    2.1521   21.2666  -24.0884 N   0  0  0  0  0  0  0  0  0  0  0  0
    2.7431   22.0050  -23.6702 H   0  0  0  0  0  0  0  0  0  0  0  0
    2.3860   20.2556  -24.0862 H   0  0  0  0  0  0  0  0  0  0  0  0
    0.8111   20.5345  -20.6731 N   0  0  0  0  0  0  0  0  0  0  0  0
    0.7512   20.8115  -21.9651 N   0  0  0  0  0  0  0  0  0  0  0  0
   -0.1733   21.6075  -22.5232 C   0  0  0  0  0  0  0  0  0  0  0  0
   -1.1115   22.1586  -21.6584 C   0  0  0  0  0  0  0  0  0  0  0  0
   -1.0540   21.8739  -20.3116 C   0  0  0  0  0  0  0  0  0  0  0  0
   -0.0770   21.0461  -19.7994 C   0  0  0  0  0  0  0  0  0  0  0  0
   -0.0385   20.7921  -18.5479 O   0  0  0  0  0  0  0  0  0  0  0  0
    2.6483   17.5120  -19.6956 C   0  0  0  0  0  0  0  0  0  0  0  0
    3.8453   18.0367  -19.2570 C   0  0  0  0  0  0  0  0  0  0  0  0
    4.0544   19.4061  -19.2814 C   0  0  0  0  0  0  0  0  0  0  0  0
    3.0486   20.2161  -19.7490 C   0  0  0  0  0  0  0  0  0  0  0  0
    3.2773   21.9500  -19.7955 Cl  0  0  0  0  0  0  0  0  0  0  0  0
    1.8376   19.6735  -20.1919 C   0  0  0  0  0  0  0  0  0  0  0  0
    1.6123   18.3218  -20.1751 C   0  0  0  0  0  0  0  0  0  0  0  0
    0.1157   17.5751  -20.7129 Cl  0  0  0  0  0  0  0  0  0  0  0  0
    2.1105   15.4930  -18.4734 C   0  0  0  0  0  0  0  0  0  0  0  0
    2.4408   16.1443  -19.6705 O   0  0  0  0  0  0  0  0  0  0  0  0
    5.2611   19.9481  -18.8397 O   0  0  0  0  0  0  0  0  0  0  0  0
    6.4741   19.2084  -18.9523 C   0  0  0  0  0  0  0  0  0  0  0  0
   -2.6575   23.0484  -26.4883 C   0  0  0  0  0  0  0  0  0  0  0  0
   -3.0998   22.7989  -27.7577 C   0  0  0  0  0  0  0  0  0  0  0  0
   -4.3009   23.4360  -27.8884 N   0  0  0  0  0  0  0  0  0  0  0  0
   -4.6210   24.0616  -26.7737 N   0  0  0  0  0  0  0  0  0  0  0  0
   -3.6107   23.8340  -25.8856 C   0  0  0  0  0  0  0  0  0  0  0  0
   -5.7888   24.8515  -26.4741 C   0  0  0  0  0  0  0  0  0  0  0  0
   -5.4573   25.7244  -25.2724 C   0  0  0  0  0  0  0  0  0  0  0  0
   -6.6806   26.2648  -24.5791 C   0  0  0  0  0  0  0  0  0  0  0  0
   -7.5935   25.2428  -24.2719 N   0  0  0  0  0  0  0  0  0  0  0  0
   -7.0793   23.9483  -24.6249 C   0  0  0  0  0  0  0  0  0  0  0  0
   -6.9266   23.9000  -26.1462 C   0  0  0  0  0  0  0  0  0  0  0  0
   -8.1475   25.2460  -22.9648 C   0  0  0  0  0  0  0  0  0  0  0  0
   -7.2238   25.7347  -21.8847 C   0  0  0  0  0  0  0  0  0  0  0  0
   -6.6501   24.6914  -21.1759 F   0  0  0  0  0  0  0  0  0  0  0  0
   -7.8075   26.6618  -21.0556 F   0  0  0  0  0  0  0  0  0  0  0  0
 25 26  1  0  0  0
 26 17  1  0  0  0
 17 18  2  0  0  0
 18 19  1  0  0  0
 19 27  1  0  0  0
 27 28  1  0  0  0
 19 20  2  0  0  0
 20 21  1  0  0  0
 20 22  1  0  0  0
 22 23  2  0  0  0
 23 24  1  0  0  0
 22 10  1  0  0  0
 10 11  1  0  0  0
 11 12  2  0  0  0
 12 13  1  0  0  0
 13 14  2  0  0  0
 14 15  1  0  0  0
 15 16  2  0  0  0
 12  1  1  0  0  0
  1  2  2  0  0  0
  2  3  1  0  0  0
  3  4  2  0  0  0
  4  5  1  0  0  0
  5  6  2  0  0  0
  6  7  1  0  0  0
  3 29  1  0  0  0
 29 30  1  0  0  0
 30 31  2  0  0  0
 31 32  1  0  0  0
 32 33  1  0  0  0
 32 34  1  0  0  0
 34 35  1  0  0  0
 35 36  1  0  0  0
 36 37  1  0  0  0
 37 40  1  0  0  0
 40 41  1  0  0  0
 41 42  1  0  0  0
 41 43  1  0  0  0
 37 38  1  0  0  0
 38 39  1  0  0  0
 23 17  1  0  0  0
 15 10  1  0  0  0
  6  1  1  0  0  0
 33 29  2  0  0  0
 39 34  1  0  0  0
  7  8  1  0  0  0
  7  9  1  0  0  0
M  END
> <minimizedAffinity>
-7.86310

> <CNNscore>
0.2863365710

> <CNNaffinity>
7.5286016464

> <CNN_VS>
2.1557140350

> <CNNaffinity_variance>
0.1075475067

$$$$
[H]c1nc(N([H])[H])c(-c2nn(-c3c(Cl)c(OC([H])([H])[H])c([H])c(OC([H])([H])[H])c3Cl)c(=O)c([H])c2[H])nc1-c1c([H])nn(C2([H])C([H])([H])C([H])([H])N(C([H])([H])C([H])(F)F)C([H])([H])C2([H])[H])c1[H]


 43 47  0  0  0  0  0  0  0  0999 V2000
   -0.2070   21.8963  -23.9457 C   0  0  0  0  0  0  0  0  0  0  0  0
   -1.3339   22.3221  -24.5425 N   0  0  0  0  0  0  0  0  0  0  0  0
   -1.4190   22.5799  -25.8673 C   0  0  0  0  0  0  0  0  0  0  0  0
   -0.2576   22.3782  -26.5987 C   0  0  0  0  0  0  0  0  0  0  0  0
    0.8752   21.9528  -26.0132 N   0  0  0  0  0  0  0  0  0  0  0  0
    0.9328   21.7047  -24.6990 C   0  0  0  0  0  0  0  0  0  0  0  0
    2.1533   21.2476  -24.0809 N   0  0  0  0  0  0  0  0  0  0  0  0
    2.7524   21.9862  -23.6748 H   0  0  0  0  0  0  0  0  0  0  0  0
    2.3780   20.2347  -24.0661 H   0  0  0  0  0  0  0  0  0  0  0  0
    0.8199   20.5759  -20.6511 N   0  0  0  0  0  0  0  0  0  0  0  0
    0.7579   20.8362  -21.9465 N   0  0  0  0  0  0  0  0  0  0  0  0
   -0.1633   21.6306  -22.5124 C   0  0  0  0  0  0  0  0  0  0  0  0
   -1.0953   22.1992  -21.6521 C   0  0  0  0  0  0  0  0  0  0  0  0
   -1.0355   21.9319  -20.3019 C   0  0  0  0  0  0  0  0  0  0  0  0
   -0.0621   21.1048  -19.7816 C   0  0  0  0  0  0  0  0  0  0  0  0
   -0.0214   20.8672  -18.5270 O   0  0  0  0  0  0  0  0  0  0  0  0
    3.9960   19.3847  -19.2512 C   0  0  0  0  0  0  0  0  0  0  0  0
    3.7983   18.0207  -19.2191 C   0  0  0  0  0  0  0  0  0  0  0  0
    2.6027   17.4811  -19.6649 C   0  0  0  0  0  0  0  0  0  0  0  0
    1.6319   18.3321  -20.1335 C   0  0  0  0  0  0  0  0  0  0  0  0
    0.1090   17.6867  -20.7036 Cl  0  0  0  0  0  0  0  0  0  0  0  0
    1.8425   19.7149  -20.1616 C   0  0  0  0  0  0  0  0  0  0  0  0
    3.0184   20.2670  -19.7253 C   0  0  0  0  0  0  0  0  0  0  0  0
    3.3495   21.9924  -19.7359 Cl  0  0  0  0  0  0  0  0  0  0  0  0
    6.4154   19.3518  -19.1810 C   0  0  0  0  0  0  0  0  0  0  0  0
    5.1905   19.9223  -18.8058 O   0  0  0  0  0  0  0  0  0  0  0  0
    2.3920   16.1027  -19.6377 O   0  0  0  0  0  0  0  0  0  0  0  0
    2.0239   15.4479  -18.4266 C   0  0  0  0  0  0  0  0  0  0  0  0
   -2.6486   23.0411  -26.4877 C   0  0  0  0  0  0  0  0  0  0  0  0
   -3.0899   22.7925  -27.7576 C   0  0  0  0  0  0  0  0  0  0  0  0
   -4.2892   23.4325  -27.8901 N   0  0  0  0  0  0  0  0  0  0  0  0
   -4.6093   24.0591  -26.7759 N   0  0  0  0  0  0  0  0  0  0  0  0
   -3.6007   23.8292  -25.8864 C   0  0  0  0  0  0  0  0  0  0  0  0
   -5.7755   24.8519  -26.4781 C   0  0  0  0  0  0  0  0  0  0  0  0
   -5.4396   25.7327  -25.2834 C   0  0  0  0  0  0  0  0  0  0  0  0
   -6.6602   26.2789  -24.5900 C   0  0  0  0  0  0  0  0  0  0  0  0
   -7.5730   25.2597  -24.2730 N   0  0  0  0  0  0  0  0  0  0  0  0
   -7.0608   23.9625  -24.6186 C   0  0  0  0  0  0  0  0  0  0  0  0
   -6.9130   23.9036  -26.1401 C   0  0  0  0  0  0  0  0  0  0  0  0
   -8.1229   25.2723  -22.9641 C   0  0  0  0  0  0  0  0  0  0  0  0
   -7.2079   25.8018  -21.8959 C   0  0  0  0  0  0  0  0  0  0  0  0
   -6.1848   24.9162  -21.5977 F   0  0  0  0  0  0  0  0  0  0  0  0
   -7.8775   26.2146  -20.7694 F   0  0  0  0  0  0  0  0  0  0  0  0
 25 26  1  0  0  0
 26 17  1  0  0  0
 17 18  2  0  0  0
 18 19  1  0  0  0
 19 27  1  0  0  0
 27 28  1  0  0  0
 19 20  2  0  0  0
 20 21  1  0  0  0
 20 22  1  0  0  0
 22 23  2  0  0  0
 23 24  1  0  0  0
 22 10  1  0  0  0
 10 11  1  0  0  0
 11 12  2  0  0  0
 12 13  1  0  0  0
 13 14  2  0  0  0
 14 15  1  0  0  0
 15 16  2  0  0  0
 12  1  1  0  0  0
  1  2  2  0  0  0
  2  3  1  0  0  0
  3  4  2  0  0  0
  4  5  1  0  0  0
  5  6  2  0  0  0
  6  7  1  0  0  0
  3 29  1  0  0  0
 29 30  1  0  0  0
 30 31  2  0  0  0
 31 32  1  0  0  0
 32 33  1  0  0  0
 32 34  1  0  0  0
 34 35  1  0  0  0
 35 36  1  0  0  0
 36 37  1  0  0  0
 37 40  1  0  0  0
 40 41  1  0  0  0
 41 42  1  0  0  0
 41 43  1  0  0  0
 37 38  1  0  0  0
 38 39  1  0  0  0
 23 17  1  0  0  0
 15 10  1  0  0  0
  6  1  1  0  0  0
 33 29  2  0  0  0
 39 34  1  0  0  0
  7  8  1  0  0  0
  7  9  1  0  0  0
M  END
> <minimizedAffinity>
-7.83990

> <CNNscore>
0.2749088109

> <CNNaffinity>
7.5034456253

> <CNN_VS>
2.0627632141

> <CNNaffinity_variance>
0.1100783721

$$$$
[H]c1nc(N([H])[H])c(-c2nn(-c3c(Cl)c(OC([H])([H])[H])c([H])c(OC([H])([H])[H])c3Cl)c(=O)c([H])c2[H])nc1-c1c([H])nn(C2([H])C([H])([H])C([H])([H])N(C([H])([H])C([H])(F)F)C([H])([H])C2([H])[H])c1[H]


 43 47  0  0  0  0  0  0  0  0999 V2000
   -0.2620   21.8212  -23.9450 C   0  0  0  0  0  0  0  0  0  0  0  0
   -1.3749   22.2636  -24.5557 N   0  0  0  0  0  0  0  0  0  0  0  0
   -1.4215   22.5872  -25.8680 C   0  0  0  0  0  0  0  0  0  0  0  0
   -0.2350   22.4363  -26.5708 C   0  0  0  0  0  0  0  0  0  0  0  0
    0.8842   21.9949  -25.9711 N   0  0  0  0  0  0  0  0  0  0  0  0
    0.9036   21.6812  -24.6700 C   0  0  0  0  0  0  0  0  0  0  0  0
    2.1098   21.2076  -24.0366 N   0  0  0  0  0  0  0  0  0  0  0  0
    2.6860   21.9315  -23.5747 H   0  0  0  0  0  0  0  0  0  0  0  0
    2.3473   20.1979  -24.0654 H   0  0  0  0  0  0  0  0  0  0  0  0
    0.8985   20.9757  -20.5405 N   0  0  0  0  0  0  0  0  0  0  0  0
    0.8670   21.2847  -21.8263 N   0  0  0  0  0  0  0  0  0  0  0  0
   -0.2600   21.4838  -22.5262 C   0  0  0  0  0  0  0  0  0  0  0  0
   -1.4513   21.3487  -21.8229 C   0  0  0  0  0  0  0  0  0  0  0  0
   -1.4247   21.0271  -20.4835 C   0  0  0  0  0  0  0  0  0  0  0  0
   -0.2308   20.8346  -19.8204 C   0  0  0  0  0  0  0  0  0  0  0  0
   -0.2243   20.5365  -18.5781 O   0  0  0  0  0  0  0  0  0  0  0  0
    4.0517   19.4562  -19.4386 C   0  0  0  0  0  0  0  0  0  0  0  0
    4.5859   20.4519  -18.6488 C   0  0  0  0  0  0  0  0  0  0  0  0
    3.9002   21.6430  -18.4734 C   0  0  0  0  0  0  0  0  0  0  0  0
    2.6889   21.8022  -19.1007 C   0  0  0  0  0  0  0  0  0  0  0  0
    1.7951   23.2932  -18.9031 Cl  0  0  0  0  0  0  0  0  0  0  0  0
    2.1556   20.7856  -19.9002 C   0  0  0  0  0  0  0  0  0  0  0  0
    2.8188   19.6007  -20.0852 C   0  0  0  0  0  0  0  0  0  0  0  0
    2.2057   18.2828  -21.0721 Cl  0  0  0  0  0  0  0  0  0  0  0  0
    5.4637   17.6993  -18.5560 C   0  0  0  0  0  0  0  0  0  0  0  0
    4.7375   18.2672  -19.6127 O   0  0  0  0  0  0  0  0  0  0  0  0
    4.4308   22.6569  -17.6763 O   0  0  0  0  0  0  0  0  0  0  0  0
    5.5522   23.4170  -18.1185 C   0  0  0  0  0  0  0  0  0  0  0  0
   -2.6369   23.0650  -26.5037 C   0  0  0  0  0  0  0  0  0  0  0  0
   -3.0507   22.8473  -27.7885 C   0  0  0  0  0  0  0  0  0  0  0  0
   -4.2462   23.4922  -27.9316 N   0  0  0  0  0  0  0  0  0  0  0  0
   -4.5897   24.0926  -26.8100 N   0  0  0  0  0  0  0  0  0  0  0  0
   -3.6010   23.8400  -25.9046 C   0  0  0  0  0  0  0  0  0  0  0  0
   -5.7613   24.8800  -26.5188 C   0  0  0  0  0  0  0  0  0  0  0  0
   -5.4346   25.7658  -25.3252 C   0  0  0  0  0  0  0  0  0  0  0  0
   -6.6608   26.3072  -24.6379 C   0  0  0  0  0  0  0  0  0  0  0  0
   -7.5693   25.2840  -24.3216 N   0  0  0  0  0  0  0  0  0  0  0  0
   -7.0490   23.9886  -24.6619 C   0  0  0  0  0  0  0  0  0  0  0  0
   -6.8950   23.9265  -26.1826 C   0  0  0  0  0  0  0  0  0  0  0  0
   -8.1243   25.2972  -23.0149 C   0  0  0  0  0  0  0  0  0  0  0  0
   -7.1306   25.4949  -21.9048 C   0  0  0  0  0  0  0  0  0  0  0  0
   -6.8713   24.3188  -21.2197 F   0  0  0  0  0  0  0  0  0  0  0  0
   -7.4679   26.5221  -21.0569 F   0  0  0  0  0  0  0  0  0  0  0  0
 25 26  1  0  0  0
 26 17  1  0  0  0
 17 18  2  0  0  0
 18 19  1  0  0  0
 19 27  1  0  0  0
 27 28  1  0  0  0
 19 20  2  0  0  0
 20 21  1  0  0  0
 20 22  1  0  0  0
 22 23  2  0  0  0
 23 24  1  0  0  0
 22 10  1  0  0  0
 10 11  1  0  0  0
 11 12  2  0  0  0
 12 13  1  0  0  0
 13 14  2  0  0  0
 14 15  1  0  0  0
 15 16  2  0  0  0
 12  1  1  0  0  0
  1  2  2  0  0  0
  2  3  1  0  0  0
  3  4  2  0  0  0
  4  5  1  0  0  0
  5  6  2  0  0  0
  6  7  1  0  0  0
  3 29  1  0  0  0
 29 30  1  0  0  0
 30 31  2  0  0  0
 31 32  1  0  0  0
 32 33  1  0  0  0
 32 34  1  0  0  0
 34 35  1  0  0  0
 35 36  1  0  0  0
 36 37  1  0  0  0
 37 40  1  0  0  0
 40 41  1  0  0  0
 41 42  1  0  0  0
 41 43  1  0  0  0
 37 38  1  0  0  0
 38 39  1  0  0  0
 23 17  1  0  0  0
 15 10  1  0  0  0
  6  1  1  0  0  0
 33 29  2  0  0  0
 39 34  1  0  0  0
  7  8  1  0  0  0
  7  9  1  0  0  0
M  END
> <minimizedAffinity>
-7.95660

> <CNNscore>
0.2487142086

> <CNNaffinity>
7.6073470116

> <CNN_VS>
1.8920552731

> <CNNaffinity_variance>
0.0365282595

$$$$
[H]c1c(OC([H])([H])[H])c([H])c(-c2c([H])c3c([H])nc(N([H])C([H])([H])[H])nc3n(C([H])(c3nc4c([H])c(Cl)c([H])c([H])c4n3[H])C([H])([H])[H])c2=O)c(Cl)c1OC([H])([H])[H]


 38 42  0  0  0  0  0  0  0  0999 V2000
   -5.2077   24.2588  -29.2716 C   0  0  0  0  0  0  0  0  0  0  0  0
   -4.4452   23.2180  -29.6435 N   0  0  0  0  0  0  0  0  0  0  0  0
   -3.6014   22.6403  -28.7782 C   0  0  0  0  0  0  0  0  0  0  0  0
   -3.5615   23.1749  -27.4878 C   0  0  0  0  0  0  0  0  0  0  0  0
   -2.6942   22.5929  -26.5541 C   0  0  0  0  0  0  0  0  0  0  0  0
   -2.6556   23.1127  -25.2846 C   0  0  0  0  0  0  0  0  0  0  0  0
   -3.4744   24.1949  -24.9688 C   0  0  0  0  0  0  0  0  0  0  0  0
   -3.3848   24.6137  -23.7976 O   0  0  0  0  0  0  0  0  0  0  0  0
   -4.3067   24.7627  -25.8443 N   0  0  0  0  0  0  0  0  0  0  0  0
   -4.3440   24.2411  -27.1119 C   0  0  0  0  0  0  0  0  0  0  0  0
   -5.1666   24.7677  -28.0363 N   0  0  0  0  0  0  0  0  0  0  0  0
   -1.7824   22.4972  -24.3034 C   0  0  0  0  0  0  0  0  0  0  0  0
   -2.3059   22.0857  -23.0826 C   0  0  0  0  0  0  0  0  0  0  0  0
   -1.5475   21.4790  -22.1064 C   0  0  0  0  0  0  0  0  0  0  0  0
   -0.2034   21.2520  -22.3130 C   0  0  0  0  0  0  0  0  0  0  0  0
    0.3385   21.6501  -23.5137 C   0  0  0  0  0  0  0  0  0  0  0  0
   -0.4395   22.2632  -24.4925 C   0  0  0  0  0  0  0  0  0  0  0  0
    0.2760   22.7761  -26.0106 Cl  0  0  0  0  0  0  0  0  0  0  0  0
   -2.1112   21.0840  -20.9024 O   0  0  0  0  0  0  0  0  0  0  0  0
   -3.0946   21.8088  -20.2251 C   0  0  0  0  0  0  0  0  0  0  0  0
    1.6888   21.4217  -23.7189 O   0  0  0  0  0  0  0  0  0  0  0  0
    2.5322   20.8164  -22.7891 C   0  0  0  0  0  0  0  0  0  0  0  0
   -5.5802   25.6486  -31.3173 C   0  0  0  0  0  0  0  0  0  0  0  0
   -6.0794   24.8145  -30.2580 N   0  0  0  0  0  0  0  0  0  0  0  0
   -7.0935   24.6238  -30.2270 H   0  0  0  0  0  0  0  0  0  0  0  0
   -5.1760   25.8757  -25.6093 C   0  0  0  0  0  0  0  0  0  0  0  0
   -4.3623   27.1636  -25.3618 C   0  0  0  0  0  0  0  0  0  0  0  0
   -6.1502   25.7276  -24.5238 C   0  0  0  0  0  0  0  0  0  0  0  0
   -7.4455   25.3998  -24.6318 N   0  0  0  0  0  0  0  0  0  0  0  0
   -8.0437   25.3865  -23.4122 C   0  0  0  0  0  0  0  0  0  0  0  0
   -9.3265   25.1197  -22.9757 C   0  0  0  0  0  0  0  0  0  0  0  0
   -9.6522   25.1841  -21.6454 C   0  0  0  0  0  0  0  0  0  0  0  0
  -11.2969   24.8413  -21.0835 Cl  0  0  0  0  0  0  0  0  0  0  0  0
   -8.6795   25.5203  -20.7332 C   0  0  0  0  0  0  0  0  0  0  0  0
   -7.3894   25.7876  -21.1783 C   0  0  0  0  0  0  0  0  0  0  0  0
   -7.0570   25.7252  -22.5103 C   0  0  0  0  0  0  0  0  0  0  0  0
   -5.9253   25.9256  -23.2014 N   0  0  0  0  0  0  0  0  0  0  0  0
   -5.0047   26.1940  -22.7896 H   0  0  0  0  0  0  0  0  0  0  0  0
 23 24  1  0  0  0
 24  1  1  0  0  0
  1  2  2  0  0  0
  2  3  1  0  0  0
  3  4  2  0  0  0
  4  5  1  0  0  0
  5  6  2  0  0  0
  6 12  1  0  0  0
 12 13  2  0  0  0
 13 14  1  0  0  0
 14 19  1  0  0  0
 19 20  1  0  0  0
 14 15  2  0  0  0
 15 16  1  0  0  0
 16 21  1  0  0  0
 21 22  1  0  0  0
 16 17  2  0  0  0
 17 18  1  0  0  0
  6  7  1  0  0  0
  7  8  2  0  0  0
  7  9  1  0  0  0
  9 26  1  0  0  0
 26 27  1  0  0  0
 26 28  1  0  0  0
 28 29  2  0  0  0
 29 30  1  0  0  0
 30 31  2  0  0  0
 31 32  1  0  0  0
 32 33  1  0  0  0
 32 34  2  0  0  0
 34 35  1  0  0  0
 35 36  2  0  0  0
 36 37  1  0  0  0
  9 10  1  0  0  0
 10 11  2  0  0  0
 11  1  1  0  0  0
 10  4  1  0  0  0
 17 12  1  0  0  0
 37 28  1  0  0  0
 36 30  1  0  0  0
 24 25  1  0  0  0
 37 38  1  0  0  0
M  END
> <minimizedAffinity>
-9.71893

> <CNNscore>
0.3912574053

> <CNNaffinity>
7.5515947342

> <CNN_VS>
2.9546172619

> <CNNaffinity_variance>
0.3903395236

$$$$
[H]c1c(OC([H])([H])[H])c([H])c(-c2c([H])c3c([H])nc(N([H])C([H])([H])[H])nc3n(C([H])(c3nc4c([H])c(Cl)c([H])c([H])c4n3[H])C([H])([H])[H])c2=O)c(Cl)c1OC([H])([H])[H]


 38 42  0  0  0  0  0  0  0  0999 V2000
   -5.2618   24.3605  -29.0853 C   0  0  0  0  0  0  0  0  0  0  0  0
   -4.5402   23.3005  -29.4834 N   0  0  0  0  0  0  0  0  0  0  0  0
   -3.7006   22.6847  -28.6405 C   0  0  0  0  0  0  0  0  0  0  0  0
   -3.6208   23.2013  -27.3446 C   0  0  0  0  0  0  0  0  0  0  0  0
   -2.7567   22.5797  -26.4338 C   0  0  0  0  0  0  0  0  0  0  0  0
   -2.6790   23.0817  -25.1590 C   0  0  0  0  0  0  0  0  0  0  0  0
   -3.4564   24.1857  -24.8154 C   0  0  0  0  0  0  0  0  0  0  0  0
   -3.3327   24.5864  -23.6409 O   0  0  0  0  0  0  0  0  0  0  0  0
   -4.2850   24.7913  -25.6688 N   0  0  0  0  0  0  0  0  0  0  0  0
   -4.3615   24.2873  -26.9418 C   0  0  0  0  0  0  0  0  0  0  0  0
   -5.1825   24.8520  -27.8448 N   0  0  0  0  0  0  0  0  0  0  0  0
   -1.8092   22.4258  -24.2012 C   0  0  0  0  0  0  0  0  0  0  0  0
   -0.4386   22.3890  -24.4332 C   0  0  0  0  0  0  0  0  0  0  0  0
    0.4546   21.8012  -23.5655 C   0  0  0  0  0  0  0  0  0  0  0  0
    0.0064   21.2121  -22.4023 C   0  0  0  0  0  0  0  0  0  0  0  0
   -1.3461   21.2355  -22.1498 C   0  0  0  0  0  0  0  0  0  0  0  0
   -2.2388   21.8328  -23.0361 C   0  0  0  0  0  0  0  0  0  0  0  0
   -3.9614   21.8379  -22.7007 Cl  0  0  0  0  0  0  0  0  0  0  0  0
    1.8146   21.7877  -23.8366 O   0  0  0  0  0  0  0  0  0  0  0  0
    2.7401   20.9974  -23.1511 C   0  0  0  0  0  0  0  0  0  0  0  0
   -1.7941   20.6426  -20.9813 O   0  0  0  0  0  0  0  0  0  0  0  0
   -1.8254   21.2778  -19.7412 C   0  0  0  0  0  0  0  0  0  0  0  0
   -5.6173   25.6554  -31.1954 C   0  0  0  0  0  0  0  0  0  0  0  0
   -6.1321   24.9566  -30.0491 N   0  0  0  0  0  0  0  0  0  0  0  0
   -7.1565   24.8945  -29.9380 H   0  0  0  0  0  0  0  0  0  0  0  0
   -5.1134   25.9287  -25.4047 C   0  0  0  0  0  0  0  0  0  0  0  0
   -4.2538   27.1683  -25.0783 C   0  0  0  0  0  0  0  0  0  0  0  0
   -6.1216   25.7739  -24.3517 C   0  0  0  0  0  0  0  0  0  0  0  0
   -7.4156   25.4592  -24.5039 N   0  0  0  0  0  0  0  0  0  0  0  0
   -8.0510   25.4339  -23.3034 C   0  0  0  0  0  0  0  0  0  0  0  0
   -9.3488   25.1724  -22.9102 C   0  0  0  0  0  0  0  0  0  0  0  0
   -9.7146   25.2207  -21.5895 C   0  0  0  0  0  0  0  0  0  0  0  0
  -11.3785   24.8847  -21.0832 Cl  0  0  0  0  0  0  0  0  0  0  0  0
   -8.7674   25.5352  -20.6434 C   0  0  0  0  0  0  0  0  0  0  0  0
   -7.4621   25.7973  -21.0450 C   0  0  0  0  0  0  0  0  0  0  0  0
   -7.0896   25.7509  -22.3670 C   0  0  0  0  0  0  0  0  0  0  0  0
   -5.9356   25.9510  -23.0204 N   0  0  0  0  0  0  0  0  0  0  0  0
   -5.0258   26.2053  -22.5768 H   0  0  0  0  0  0  0  0  0  0  0  0
 23 24  1  0  0  0
 24  1  1  0  0  0
  1  2  2  0  0  0
  2  3  1  0  0  0
  3  4  2  0  0  0
  4  5  1  0  0  0
  5  6  2  0  0  0
  6 12  1  0  0  0
 12 13  2  0  0  0
 13 14  1  0  0  0
 14 19  1  0  0  0
 19 20  1  0  0  0
 14 15  2  0  0  0
 15 16  1  0  0  0
 16 21  1  0  0  0
 21 22  1  0  0  0
 16 17  2  0  0  0
 17 18  1  0  0  0
  6  7  1  0  0  0
  7  8  2  0  0  0
  7  9  1  0  0  0
  9 26  1  0  0  0
 26 27  1  0  0  0
 26 28  1  0  0  0
 28 29  2  0  0  0
 29 30  1  0  0  0
 30 31  2  0  0  0
 31 32  1  0  0  0
 32 33  1  0  0  0
 32 34  2  0  0  0
 34 35  1  0  0  0
 35 36  2  0  0  0
 36 37  1  0  0  0
  9 10  1  0  0  0
 10 11  2  0  0  0
 11  1  1  0  0  0
 10  4  1  0  0  0
 17 12  1  0  0  0
 37 28  1  0  0  0
 36 30  1  0  0  0
 24 25  1  0  0  0
 37 38  1  0  0  0
M  END
> <minimizedAffinity>
-9.32629

> <CNNscore>
0.3000376821

> <CNNaffinity>
7.4788956642

> <CNN_VS>
2.2439506054

> <CNNaffinity_variance>
0.3200303912

$$$$
[H]c1c(OC([H])([H])[H])c([H])c(-c2c([H])c3c([H])nc(N([H])C([H])([H])[H])nc3n(C([H])(c3nc4c([H])c(Cl)c([H])c([H])c4n3[H])C([H])([H])[H])c2=O)c(Cl)c1OC([H])([H])[H]


 38 42  0  0  0  0  0  0  0  0999 V2000
    1.4570   21.2886  -23.6066 C   0  0  0  0  0  0  0  0  0  0  0  0
    0.8964   21.6022  -24.7856 N   0  0  0  0  0  0  0  0  0  0  0  0
   -0.3883   21.9748  -24.8584 C   0  0  0  0  0  0  0  0  0  0  0  0
   -1.0991   22.0173  -23.6561 C   0  0  0  0  0  0  0  0  0  0  0  0
   -2.4441   22.4074  -23.6928 C   0  0  0  0  0  0  0  0  0  0  0  0
   -3.1439   22.4544  -22.5133 C   0  0  0  0  0  0  0  0  0  0  0  0
   -2.4980   22.1143  -21.3266 C   0  0  0  0  0  0  0  0  0  0  0  0
   -3.1969   22.1794  -20.2958 O   0  0  0  0  0  0  0  0  0  0  0  0
   -1.2179   21.7401  -21.2714 N   0  0  0  0  0  0  0  0  0  0  0  0
   -0.5206   21.6948  -22.4512 C   0  0  0  0  0  0  0  0  0  0  0  0
    0.7738   21.3301  -22.4585 N   0  0  0  0  0  0  0  0  0  0  0  0
   -4.5285   22.8861  -22.5387 C   0  0  0  0  0  0  0  0  0  0  0  0
   -5.5316   21.9926  -22.1790 C   0  0  0  0  0  0  0  0  0  0  0  0
   -6.8666   22.3296  -22.1611 C   0  0  0  0  0  0  0  0  0  0  0  0
   -7.2655   23.6026  -22.5091 C   0  0  0  0  0  0  0  0  0  0  0  0
   -6.2914   24.5056  -22.8688 C   0  0  0  0  0  0  0  0  0  0  0  0
   -4.9446   24.1517  -22.8834 C   0  0  0  0  0  0  0  0  0  0  0  0
   -3.7205   25.3155  -23.3599 Cl  0  0  0  0  0  0  0  0  0  0  0  0
   -7.8344   21.4061  -21.7952 O   0  0  0  0  0  0  0  0  0  0  0  0
   -8.5704   21.4737  -20.6100 C   0  0  0  0  0  0  0  0  0  0  0  0
   -6.6943   25.7834  -23.2187 O   0  0  0  0  0  0  0  0  0  0  0  0
   -6.7647   26.2526  -24.5290 C   0  0  0  0  0  0  0  0  0  0  0  0
    3.5126   20.5029  -22.4182 C   0  0  0  0  0  0  0  0  0  0  0  0
    2.8323   20.9015  -23.6204 N   0  0  0  0  0  0  0  0  0  0  0  0
    3.3667   20.9007  -24.5038 H   0  0  0  0  0  0  0  0  0  0  0  0
   -0.4783   21.3699  -20.1029 C   0  0  0  0  0  0  0  0  0  0  0  0
    0.5572   22.4563  -19.7429 C   0  0  0  0  0  0  0  0  0  0  0  0
    0.2057   20.0738  -20.1444 C   0  0  0  0  0  0  0  0  0  0  0  0
    1.3921   19.7621  -19.6040 N   0  0  0  0  0  0  0  0  0  0  0  0
    1.7202   18.4711  -19.8710 C   0  0  0  0  0  0  0  0  0  0  0  0
    2.8008   17.6710  -19.5557 C   0  0  0  0  0  0  0  0  0  0  0  0
    2.8639   16.3659  -19.9714 C   0  0  0  0  0  0  0  0  0  0  0  0
    4.2487   15.3378  -19.5672 Cl  0  0  0  0  0  0  0  0  0  0  0  0
    1.8289   15.8491  -20.7151 C   0  0  0  0  0  0  0  0  0  0  0  0
    0.7432   16.6592  -21.0294 C   0  0  0  0  0  0  0  0  0  0  0  0
    0.6744   17.9681  -20.6161 C   0  0  0  0  0  0  0  0  0  0  0  0
   -0.2262   18.9500  -20.7681 N   0  0  0  0  0  0  0  0  0  0  0  0
   -1.1277   18.8686  -21.2875 H   0  0  0  0  0  0  0  0  0  0  0  0
 23 24  1  0  0  0
 24  1  1  0  0  0
  1  2  2  0  0  0
  2  3  1  0  0  0
  3  4  2  0  0  0
  4  5  1  0  0  0
  5  6  2  0  0  0
  6 12  1  0  0  0
 12 13  2  0  0  0
 13 14  1  0  0  0
 14 19  1  0  0  0
 19 20  1  0  0  0
 14 15  2  0  0  0
 15 16  1  0  0  0
 16 21  1  0  0  0
 21 22  1  0  0  0
 16 17  2  0  0  0
 17 18  1  0  0  0
  6  7  1  0  0  0
  7  8  2  0  0  0
  7  9  1  0  0  0
  9 26  1  0  0  0
 26 27  1  0  0  0
 26 28  1  0  0  0
 28 29  2  0  0  0
 29 30  1  0  0  0
 30 31  2  0  0  0
 31 32  1  0  0  0
 32 33  1  0  0  0
 32 34  2  0  0  0
 34 35  1  0  0  0
 35 36  2  0  0  0
 36 37  1  0  0  0
  9 10  1  0  0  0
 10 11  2  0  0  0
 11  1  1  0  0  0
 10  4  1  0  0  0
 17 12  1  0  0  0
 37 28  1  0  0  0
 36 30  1  0  0  0
 24 25  1  0  0  0
 37 38  1  0  0  0
M  END
> <minimizedAffinity>
-7.74586

> <CNNscore>
0.1847984791

> <CNNaffinity>
6.6549253464

> <CNN_VS>
1.2298201323

> <CNNaffinity_variance>
0.0822308734

$$$$
[H]c1c(OC([H])([H])[H])c([H])c(-c2c([H])c3c([H])nc(N([H])C([H])([H])[H])nc3n(C([H])(c3nc4c([H])c(Cl)c([H])c([H])c4n3[H])C([H])([H])[H])c2=O)c(Cl)c1OC([H])([H])[H]


 38 42  0  0  0  0  0  0  0  0999 V2000
    1.5930   21.2484  -23.6146 C   0  0  0  0  0  0  0  0  0  0  0  0
    1.1269   21.5292  -24.8421 N   0  0  0  0  0  0  0  0  0  0  0  0
   -0.0956   22.0505  -25.0106 C   0  0  0  0  0  0  0  0  0  0  0  0
   -0.8449   22.2811  -23.8539 C   0  0  0  0  0  0  0  0  0  0  0  0
   -2.1263   22.8303  -23.9909 C   0  0  0  0  0  0  0  0  0  0  0  0
   -2.8633   23.0621  -22.8567 C   0  0  0  0  0  0  0  0  0  0  0  0
   -2.3164   22.7452  -21.6151 C   0  0  0  0  0  0  0  0  0  0  0  0
   -3.0439   22.9824  -20.6303 O   0  0  0  0  0  0  0  0  0  0  0  0
   -1.0980   22.2215  -21.4643 N   0  0  0  0  0  0  0  0  0  0  0  0
   -0.3633   21.9915  -22.5990 C   0  0  0  0  0  0  0  0  0  0  0  0
    0.8732   21.4702  -22.5104 N   0  0  0  0  0  0  0  0  0  0  0  0
   -4.1793   23.6581  -22.9878 C   0  0  0  0  0  0  0  0  0  0  0  0
   -4.3096   24.9063  -23.5869 C   0  0  0  0  0  0  0  0  0  0  0  0
   -5.5237   25.5314  -23.7636 C   0  0  0  0  0  0  0  0  0  0  0  0
   -6.6859   24.9223  -23.3402 C   0  0  0  0  0  0  0  0  0  0  0  0
   -6.5833   23.6862  -22.7442 C   0  0  0  0  0  0  0  0  0  0  0  0
   -5.3490   23.0651  -22.5709 C   0  0  0  0  0  0  0  0  0  0  0  0
   -5.2405   21.4949  -21.7948 Cl  0  0  0  0  0  0  0  0  0  0  0  0
   -5.6077   26.7773  -24.3670 O   0  0  0  0  0  0  0  0  0  0  0  0
   -4.7269   27.2292  -25.3524 C   0  0  0  0  0  0  0  0  0  0  0  0
   -7.7517   23.0765  -22.3191 O   0  0  0  0  0  0  0  0  0  0  0  0
   -8.4691   23.4588  -21.1871 C   0  0  0  0  0  0  0  0  0  0  0  0
    3.3545   20.0061  -22.3462 C   0  0  0  0  0  0  0  0  0  0  0  0
    2.9071   20.6943  -23.5265 N   0  0  0  0  0  0  0  0  0  0  0  0
    3.5646   20.7789  -24.3179 H   0  0  0  0  0  0  0  0  0  0  0  0
   -0.4613   21.8617  -20.2335 C   0  0  0  0  0  0  0  0  0  0  0  0
    0.6735   22.8512  -19.8941 C   0  0  0  0  0  0  0  0  0  0  0  0
    0.0712   20.4986  -20.1460 C   0  0  0  0  0  0  0  0  0  0  0  0
    1.1477   20.0878  -19.4611 N   0  0  0  0  0  0  0  0  0  0  0  0
    1.3542   18.7568  -19.6384 C   0  0  0  0  0  0  0  0  0  0  0  0
    2.2955   17.8613  -19.1702 C   0  0  0  0  0  0  0  0  0  0  0  0
    2.2549   16.5374  -19.5251 C   0  0  0  0  0  0  0  0  0  0  0  0
    3.4609   15.3870  -18.9249 Cl  0  0  0  0  0  0  0  0  0  0  0  0
    1.2560   16.0988  -20.3623 C   0  0  0  0  0  0  0  0  0  0  0  0
    0.3106   17.0049  -20.8304 C   0  0  0  0  0  0  0  0  0  0  0  0
    0.3463   18.3329  -20.4787 C   0  0  0  0  0  0  0  0  0  0  0  0
   -0.4146   19.3979  -20.7712 N   0  0  0  0  0  0  0  0  0  0  0  0
   -1.2569   19.3884  -21.3873 H   0  0  0  0  0  0  0  0  0  0  0  0
 23 24  1  0  0  0
 24  1  1  0  0  0
  1  2  2  0  0  0
  2  3  1  0  0  0
  3  4  2  0  0  0
  4  5  1  0  0  0
  5  6  2  0  0  0
  6 12  1  0  0  0
 12 13  2  0  0  0
 13 14  1  0  0  0
 14 19  1  0  0  0
 19 20  1  0  0  0
 14 15  2  0  0  0
 15 16  1  0  0  0
 16 21  1  0  0  0
 21 22  1  0  0  0
 16 17  2  0  0  0
 17 18  1  0  0  0
  6  7  1  0  0  0
  7  8  2  0  0  0
  7  9  1  0  0  0
  9 26  1  0  0  0
 26 27  1  0  0  0
 26 28  1  0  0  0
 28 29  2  0  0  0
 29 30  1  0  0  0
 30 31  2  0  0  0
 31 32  1  0  0  0
 32 33  1  0  0  0
 32 34  2  0  0  0
 34 35  1  0  0  0
 35 36  2  0  0  0
 36 37  1  0  0  0
  9 10  1  0  0  0
 10 11  2  0  0  0
 11  1  1  0  0  0
 10  4  1  0  0  0
 17 12  1  0  0  0
 37 28  1  0  0  0
 36 30  1  0  0  0
 24 25  1  0  0  0
 37 38  1  0  0  0
M  END
> <minimizedAffinity>
-7.11108

> <CNNscore>
0.1475853920

> <CNNaffinity>
6.8149251938

> <CNN_VS>
1.0057834387

> <CNNaffinity_variance>
0.0717333406

$$$$
[H]c1c(OC([H])([H])[H])c([H])c(-c2c([H])c3c([H])nc(N([H])C([H])([H])[H])nc3n(C([H])(c3nc4c([H])c(Cl)c([H])c([H])c4n3[H])C([H])([H])[H])c2=O)c(Cl)c1OC([H])([H])[H]


 38 42  0  0  0  0  0  0  0  0999 V2000
    3.3456   20.2161  -22.5375 C   0  0  0  0  0  0  0  0  0  0  0  0
    3.0877   20.9091  -23.6582 N   0  0  0  0  0  0  0  0  0  0  0  0
    1.8811   21.4518  -23.8685 C   0  0  0  0  0  0  0  0  0  0  0  0
    0.9226   21.2579  -22.8703 C   0  0  0  0  0  0  0  0  0  0  0  0
   -0.3494   21.8155  -23.0534 C   0  0  0  0  0  0  0  0  0  0  0  0
   -1.2918   21.6307  -22.0731 C   0  0  0  0  0  0  0  0  0  0  0  0
   -0.9546   20.8992  -20.9363 C   0  0  0  0  0  0  0  0  0  0  0  0
   -1.8613   20.7721  -20.0896 O   0  0  0  0  0  0  0  0  0  0  0  0
    0.2514   20.3604  -20.7439 N   0  0  0  0  0  0  0  0  0  0  0  0
    1.1915   20.5471  -21.7245 C   0  0  0  0  0  0  0  0  0  0  0  0
    2.4261   20.0325  -21.5849 N   0  0  0  0  0  0  0  0  0  0  0  0
   -2.6021   22.2299  -22.2412 C   0  0  0  0  0  0  0  0  0  0  0  0
   -3.1959   22.8904  -21.1712 C   0  0  0  0  0  0  0  0  0  0  0  0
   -4.4283   23.4989  -21.2546 C   0  0  0  0  0  0  0  0  0  0  0  0
   -5.1361   23.4733  -22.4376 C   0  0  0  0  0  0  0  0  0  0  0  0
   -4.5695   22.8257  -23.5115 C   0  0  0  0  0  0  0  0  0  0  0  0
   -3.3225   22.2137  -23.4136 C   0  0  0  0  0  0  0  0  0  0  0  0
   -2.6257   21.3806  -24.7921 Cl  0  0  0  0  0  0  0  0  0  0  0  0
   -4.9834   24.1474  -20.1616 O   0  0  0  0  0  0  0  0  0  0  0  0
   -6.2115   24.8123  -20.1884 C   0  0  0  0  0  0  0  0  0  0  0  0
   -5.2823   22.8005  -24.6984 O   0  0  0  0  0  0  0  0  0  0  0  0
   -6.5267   23.4014  -24.8791 C   0  0  0  0  0  0  0  0  0  0  0  0
    5.1216   19.1456  -21.1393 C   0  0  0  0  0  0  0  0  0  0  0  0
    4.6588   19.6713  -22.3949 N   0  0  0  0  0  0  0  0  0  0  0  0
    5.3044   19.6448  -23.2000 H   0  0  0  0  0  0  0  0  0  0  0  0
    0.6817   19.5929  -19.6146 C   0  0  0  0  0  0  0  0  0  0  0  0
   -0.2011   18.3397  -19.4355 C   0  0  0  0  0  0  0  0  0  0  0  0
    0.7502   20.2985  -18.3313 C   0  0  0  0  0  0  0  0  0  0  0  0
    1.7349   21.0948  -17.8919 N   0  0  0  0  0  0  0  0  0  0  0  0
    1.4654   21.5507  -16.6408 C   0  0  0  0  0  0  0  0  0  0  0  0
    2.1304   22.3782  -15.7575 C   0  0  0  0  0  0  0  0  0  0  0  0
    1.6033   22.6735  -14.5265 C   0  0  0  0  0  0  0  0  0  0  0  0
    2.4543   23.7354  -13.3924 Cl  0  0  0  0  0  0  0  0  0  0  0  0
    0.3897   22.1335  -14.1706 C   0  0  0  0  0  0  0  0  0  0  0  0
   -0.2756   21.3011  -15.0642 C   0  0  0  0  0  0  0  0  0  0  0  0
    0.2477   21.0011  -16.2990 C   0  0  0  0  0  0  0  0  0  0  0  0
   -0.1646   20.2513  -17.3316 N   0  0  0  0  0  0  0  0  0  0  0  0
   -1.0559   19.7096  -17.3677 H   0  0  0  0  0  0  0  0  0  0  0  0
 23 24  1  0  0  0
 24  1  1  0  0  0
  1  2  2  0  0  0
  2  3  1  0  0  0
  3  4  2  0  0  0
  4  5  1  0  0  0
  5  6  2  0  0  0
  6 12  1  0  0  0
 12 13  2  0  0  0
 13 14  1  0  0  0
 14 19  1  0  0  0
 19 20  1  0  0  0
 14 15  2  0  0  0
 15 16  1  0  0  0
 16 21  1  0  0  0
 21 22  1  0  0  0
 16 17  2  0  0  0
 17 18  1  0  0  0
  6  7  1  0  0  0
  7  8  2  0  0  0
  7  9  1  0  0  0
  9 26  1  0  0  0
 26 27  1  0  0  0
 26 28  1  0  0  0
 28 29  2  0  0  0
 29 30  1  0  0  0
 30 31  2  0  0  0
 31 32  1  0  0  0
 32 33  1  0  0  0
 32 34  2  0  0  0
 34 35  1  0  0  0
 35 36  2  0  0  0
 36 37  1  0  0  0
  9 10  1  0  0  0
 10 11  2  0  0  0
 11  1  1  0  0  0
 10  4  1  0  0  0
 17 12  1  0  0  0
 37 28  1  0  0  0
 36 30  1  0  0  0
 24 25  1  0  0  0
 37 38  1  0  0  0
M  END
> <minimizedAffinity>
-6.73901

> <CNNscore>
0.1009642631

> <CNNaffinity>
6.2902841568

> <CNN_VS>
0.6350939274

> <CNNaffinity_variance>
0.0801798850

$$$$
[H]c1c(OC([H])([H])[H])c([H])c(-c2c([H])c3c([H])nc(N([H])C([H])([H])[H])nc3n(C([H])(c3nc4c([H])c(Cl)c([H])c([H])c4n3[H])C([H])([H])[H])c2=O)c(Cl)c1OC([H])([H])[H]


 38 42  0  0  0  0  0  0  0  0999 V2000
    0.9802   19.4104  -18.6210 C   0  0  0  0  0  0  0  0  0  0  0  0
    1.1134   18.5020  -19.6008 N   0  0  0  0  0  0  0  0  0  0  0  0
    0.7099   18.7732  -20.8491 C   0  0  0  0  0  0  0  0  0  0  0  0
    0.1516   20.0353  -21.0684 C   0  0  0  0  0  0  0  0  0  0  0  0
   -0.2772   20.3562  -22.3629 C   0  0  0  0  0  0  0  0  0  0  0  0
   -0.8220   21.5964  -22.5828 C   0  0  0  0  0  0  0  0  0  0  0  0
   -0.9303   22.4889  -21.5184 C   0  0  0  0  0  0  0  0  0  0  0  0
   -1.4356   23.5954  -21.7933 O   0  0  0  0  0  0  0  0  0  0  0  0
   -0.5278   22.2015  -20.2787 N   0  0  0  0  0  0  0  0  0  0  0  0
    0.0170   20.9620  -20.0617 C   0  0  0  0  0  0  0  0  0  0  0  0
    0.4454   20.6166  -18.8346 N   0  0  0  0  0  0  0  0  0  0  0  0
   -1.2411   21.9476  -23.9264 C   0  0  0  0  0  0  0  0  0  0  0  0
   -0.2882   22.3354  -24.8621 C   0  0  0  0  0  0  0  0  0  0  0  0
   -0.6026   22.6678  -26.1608 C   0  0  0  0  0  0  0  0  0  0  0  0
   -1.9121   22.6256  -26.5901 C   0  0  0  0  0  0  0  0  0  0  0  0
   -2.8740   22.2446  -25.6828 C   0  0  0  0  0  0  0  0  0  0  0  0
   -2.5426   21.9115  -24.3718 C   0  0  0  0  0  0  0  0  0  0  0  0
   -3.7878   21.4426  -23.2275 Cl  0  0  0  0  0  0  0  0  0  0  0  0
    0.3805   23.0491  -27.0616 O   0  0  0  0  0  0  0  0  0  0  0  0
    0.1898   23.1178  -28.4436 C   0  0  0  0  0  0  0  0  0  0  0  0
   -4.1886   22.2035  -26.1159 O   0  0  0  0  0  0  0  0  0  0  0  0
   -4.9474   23.3300  -26.4281 C   0  0  0  0  0  0  0  0  0  0  0  0
    0.7319   19.4402  -16.1325 C   0  0  0  0  0  0  0  0  0  0  0  0
    1.4367   19.0378  -17.3193 N   0  0  0  0  0  0  0  0  0  0  0  0
    2.2892   18.4664  -17.2076 H   0  0  0  0  0  0  0  0  0  0  0  0
   -0.6053   23.0513  -19.1291 C   0  0  0  0  0  0  0  0  0  0  0  0
    0.7473   23.0934  -18.3870 C   0  0  0  0  0  0  0  0  0  0  0  0
   -1.6578   22.7425  -18.1565 C   0  0  0  0  0  0  0  0  0  0  0  0
   -2.9051   23.2323  -18.1241 N   0  0  0  0  0  0  0  0  0  0  0  0
   -3.5897   22.7405  -17.0587 C   0  0  0  0  0  0  0  0  0  0  0  0
   -4.8721   22.9174  -16.5777 C   0  0  0  0  0  0  0  0  0  0  0  0
   -5.3022   22.2722  -15.4468 C   0  0  0  0  0  0  0  0  0  0  0  0
   -6.9470   22.4973  -14.8289 Cl  0  0  0  0  0  0  0  0  0  0  0  0
   -4.4366   21.4341  -14.7837 C   0  0  0  0  0  0  0  0  0  0  0  0
   -3.1466   21.2595  -15.2728 C   0  0  0  0  0  0  0  0  0  0  0  0
   -2.7096   21.9037  -16.4053 C   0  0  0  0  0  0  0  0  0  0  0  0
   -1.5530   21.9197  -17.0839 N   0  0  0  0  0  0  0  0  0  0  0  0
   -0.6956   21.3814  -16.8303 H   0  0  0  0  0  0  0  0  0  0  0  0
 23 24  1  0  0  0
 24  1  1  0  0  0
  1  2  2  0  0  0
  2  3  1  0  0  0
  3  4  2  0  0  0
  4  5  1  0  0  0
  5  6  2  0  0  0
  6 12  1  0  0  0
 12 13  2  0  0  0
 13 14  1  0  0  0
 14 19  1  0  0  0
 19 20  1  0  0  0
 14 15  2  0  0  0
 15 16  1  0  0  0
 16 21  1  0  0  0
 21 22  1  0  0  0
 16 17  2  0  0  0
 17 18  1  0  0  0
  6  7  1  0  0  0
  7  8  2  0  0  0
  7  9  1  0  0  0
  9 26  1  0  0  0
 26 27  1  0  0  0
 26 28  1  0  0  0
 28 29  2  0  0  0
 29 30  1  0  0  0
 30 31  2  0  0  0
 31 32  1  0  0  0
 32 33  1  0  0  0
 32 34  2  0  0  0
 34 35  1  0  0  0
 35 36  2  0  0  0
 36 37  1  0  0  0
  9 10  1  0  0  0
 10 11  2  0  0  0
 11  1  1  0  0  0
 10  4  1  0  0  0
 17 12  1  0  0  0
 37 28  1  0  0  0
 36 30  1  0  0  0
 24 25  1  0  0  0
 37 38  1  0  0  0
M  END
> <minimizedAffinity>
-7.12033

> <CNNscore>
0.1009527147

> <CNNaffinity>
6.2917084694

> <CNN_VS>
0.6351650357

> <CNNaffinity_variance>
0.0892093256

$$$$
[H]c1c(OC([H])([H])[H])c([H])c(-c2c([H])c3c([H])nc(N([H])C([H])([H])[H])nc3n(C([H])(c3nc4c([H])c(Cl)c([H])c([H])c4n3[H])C([H])([H])[H])c2=O)c(Cl)c1OC([H])([H])[H]


 38 42  0  0  0  0  0  0  0  0999 V2000
   -4.6903   24.6533  -22.1607 C   0  0  0  0  0  0  0  0  0  0  0  0
   -3.6895   24.7996  -23.0438 N   0  0  0  0  0  0  0  0  0  0  0  0
   -2.5187   24.1734  -22.8658 C   0  0  0  0  0  0  0  0  0  0  0  0
   -2.4015   23.3726  -21.7267 C   0  0  0  0  0  0  0  0  0  0  0  0
   -1.1929   22.6982  -21.5102 C   0  0  0  0  0  0  0  0  0  0  0  0
   -1.0758   21.9075  -20.3948 C   0  0  0  0  0  0  0  0  0  0  0  0
   -2.1554   21.8029  -19.5203 C   0  0  0  0  0  0  0  0  0  0  0  0
   -1.9757   21.0680  -18.5289 O   0  0  0  0  0  0  0  0  0  0  0  0
   -3.3144   22.4375  -19.7093 N   0  0  0  0  0  0  0  0  0  0  0  0
   -3.4291   23.2264  -20.8251 C   0  0  0  0  0  0  0  0  0  0  0  0
   -4.5743   23.8866  -21.0720 N   0  0  0  0  0  0  0  0  0  0  0  0
    0.1617   21.1821  -20.1787 C   0  0  0  0  0  0  0  0  0  0  0  0
    0.3165   19.9130  -20.7257 C   0  0  0  0  0  0  0  0  0  0  0  0
    1.4652   19.1676  -20.5805 C   0  0  0  0  0  0  0  0  0  0  0  0
    2.5325   19.6698  -19.8668 C   0  0  0  0  0  0  0  0  0  0  0  0
    2.4040   20.9242  -19.3156 C   0  0  0  0  0  0  0  0  0  0  0  0
    1.2364   21.6674  -19.4694 C   0  0  0  0  0  0  0  0  0  0  0  0
    1.0891   23.2591  -18.7452 Cl  0  0  0  0  0  0  0  0  0  0  0  0
    1.5767   17.9051  -21.1436 O   0  0  0  0  0  0  0  0  0  0  0  0
    0.7269   16.8379  -20.8437 C   0  0  0  0  0  0  0  0  0  0  0  0
    3.4770   21.4264  -18.5987 O   0  0  0  0  0  0  0  0  0  0  0  0
    4.5306   22.1434  -19.1625 C   0  0  0  0  0  0  0  0  0  0  0  0
   -7.1879   24.7812  -22.1316 C   0  0  0  0  0  0  0  0  0  0  0  0
   -5.9045   25.3576  -22.4279 N   0  0  0  0  0  0  0  0  0  0  0  0
   -5.8806   26.3029  -22.8421 H   0  0  0  0  0  0  0  0  0  0  0  0
   -4.4691   22.3922  -18.8642 C   0  0  0  0  0  0  0  0  0  0  0  0
   -4.1352   22.9177  -17.4520 C   0  0  0  0  0  0  0  0  0  0  0  0
   -5.1313   21.0912  -18.7297 C   0  0  0  0  0  0  0  0  0  0  0  0
   -6.4225   20.8600  -18.4539 N   0  0  0  0  0  0  0  0  0  0  0  0
   -6.6689   19.5261  -18.3783 C   0  0  0  0  0  0  0  0  0  0  0  0
   -7.7984   18.7718  -18.1284 C   0  0  0  0  0  0  0  0  0  0  0  0
   -7.7493   17.4016  -18.1151 C   0  0  0  0  0  0  0  0  0  0  0  0
   -9.1972   16.4324  -17.7957 Cl  0  0  0  0  0  0  0  0  0  0  0  0
   -6.5506   16.7721  -18.3565 C   0  0  0  0  0  0  0  0  0  0  0  0
   -5.4165   17.5366  -18.6078 C   0  0  0  0  0  0  0  0  0  0  0  0
   -5.4594   18.9101  -18.6219 C   0  0  0  0  0  0  0  0  0  0  0  0
   -4.5480   19.8715  -18.8314 N   0  0  0  0  0  0  0  0  0  0  0  0
   -3.5384   19.7121  -19.0420 H   0  0  0  0  0  0  0  0  0  0  0  0
 23 24  1  0  0  0
 24  1  1  0  0  0
  1  2  2  0  0  0
  2  3  1  0  0  0
  3  4  2  0  0  0
  4  5  1  0  0  0
  5  6  2  0  0  0
  6 12  1  0  0  0
 12 13  2  0  0  0
 13 14  1  0  0  0
 14 19  1  0  0  0
 19 20  1  0  0  0
 14 15  2  0  0  0
 15 16  1  0  0  0
 16 21  1  0  0  0
 21 22  1  0  0  0
 16 17  2  0  0  0
 17 18  1  0  0  0
  6  7  1  0  0  0
  7  8  2  0  0  0
  7  9  1  0  0  0
  9 26  1  0  0  0
 26 27  1  0  0  0
 26 28  1  0  0  0
 28 29  2  0  0  0
 29 30  1  0  0  0
 30 31  2  0  0  0
 31 32  1  0  0  0
 32 33  1  0  0  0
 32 34  2  0  0  0
 34 35  1  0  0  0
 35 36  2  0  0  0
 36 37  1  0  0  0
  9 10  1  0  0  0
 10 11  2  0  0  0
 11  1  1  0  0  0
 10  4  1  0  0  0
 17 12  1  0  0  0
 37 28  1  0  0  0
 36 30  1  0  0  0
 24 25  1  0  0  0
 37 38  1  0  0  0
M  END
> <minimizedAffinity>
-6.31841

> <CNNscore>
0.0953994691

> <CNNaffinity>
6.1882729530

> <CNN_VS>
0.5903579593

> <CNNaffinity_variance>
0.1373109370

$$$$
[H]c1c(OC([H])([H])[H])c([H])c(-c2c([H])c3c([H])nc(N([H])C([H])([H])[H])nc3n(C([H])(c3nc4c([H])c(Cl)c([H])c([H])c4n3[H])C([H])([H])[H])c2=O)c(Cl)c1OC([H])([H])[H]


 38 42  0  0  0  0  0  0  0  0999 V2000
   -5.9230   22.7617  -15.5999 C   0  0  0  0  0  0  0  0  0  0  0  0
   -4.9890   22.6844  -14.6384 N   0  0  0  0  0  0  0  0  0  0  0  0
   -3.7152   22.3983  -14.9388 C   0  0  0  0  0  0  0  0  0  0  0  0
   -3.4201   22.1885  -16.2885 C   0  0  0  0  0  0  0  0  0  0  0  0
   -2.0970   21.8921  -16.6409 C   0  0  0  0  0  0  0  0  0  0  0  0
   -1.8029   21.6897  -17.9659 C   0  0  0  0  0  0  0  0  0  0  0  0
   -2.8230   21.7847  -18.9102 C   0  0  0  0  0  0  0  0  0  0  0  0
   -2.4812   21.5877  -20.0932 O   0  0  0  0  0  0  0  0  0  0  0  0
   -4.0889   22.0659  -18.5940 N   0  0  0  0  0  0  0  0  0  0  0  0
   -4.3802   22.2685  -17.2694 C   0  0  0  0  0  0  0  0  0  0  0  0
   -5.6369   22.5601  -16.8900 N   0  0  0  0  0  0  0  0  0  0  0  0
   -0.4299   21.4118  -18.3427 C   0  0  0  0  0  0  0  0  0  0  0  0
    0.4928   22.4513  -18.3854 C   0  0  0  0  0  0  0  0  0  0  0  0
    1.8167   22.2673  -18.7167 C   0  0  0  0  0  0  0  0  0  0  0  0
    2.2859   21.0084  -19.0262 C   0  0  0  0  0  0  0  0  0  0  0  0
    1.3920   19.9627  -18.9909 C   0  0  0  0  0  0  0  0  0  0  0  0
    0.0555   20.1625  -18.6547 C   0  0  0  0  0  0  0  0  0  0  0  0
   -1.0702   18.8163  -18.6305 Cl  0  0  0  0  0  0  0  0  0  0  0  0
    2.7032   23.3333  -18.7466 O   0  0  0  0  0  0  0  0  0  0  0  0
    3.1074   24.0453  -17.6149 C   0  0  0  0  0  0  0  0  0  0  0  0
    1.8653   18.6992  -19.3027 O   0  0  0  0  0  0  0  0  0  0  0  0
    2.0052   18.2122  -20.6010 C   0  0  0  0  0  0  0  0  0  0  0  0
   -7.7011   22.8425  -13.8429 C   0  0  0  0  0  0  0  0  0  0  0  0
   -7.2565   23.0715  -15.1909 N   0  0  0  0  0  0  0  0  0  0  0  0
   -7.9307   23.4701  -15.8635 H   0  0  0  0  0  0  0  0  0  0  0  0
   -5.1970   22.1774  -19.4935 C   0  0  0  0  0  0  0  0  0  0  0  0
   -5.7943   20.7880  -19.8017 C   0  0  0  0  0  0  0  0  0  0  0  0
   -4.9428   22.8643  -20.7635 C   0  0  0  0  0  0  0  0  0  0  0  0
   -4.9211   24.1864  -20.9835 N   0  0  0  0  0  0  0  0  0  0  0  0
   -4.6812   24.4541  -22.2936 C   0  0  0  0  0  0  0  0  0  0  0  0
   -4.5602   25.6171  -23.0285 C   0  0  0  0  0  0  0  0  0  0  0  0
   -4.3081   25.5831  -24.3759 C   0  0  0  0  0  0  0  0  0  0  0  0
   -4.1516   27.0738  -25.3201 Cl  0  0  0  0  0  0  0  0  0  0  0  0
   -4.1736   24.3659  -25.0017 C   0  0  0  0  0  0  0  0  0  0  0  0
   -4.2962   23.1981  -24.2566 C   0  0  0  0  0  0  0  0  0  0  0  0
   -4.5492   23.2257  -22.9061 C   0  0  0  0  0  0  0  0  0  0  0  0
   -4.7099   22.2829  -21.9660 N   0  0  0  0  0  0  0  0  0  0  0  0
   -4.6636   21.2530  -22.1283 H   0  0  0  0  0  0  0  0  0  0  0  0
 23 24  1  0  0  0
 24  1  1  0  0  0
  1  2  2  0  0  0
  2  3  1  0  0  0
  3  4  2  0  0  0
  4  5  1  0  0  0
  5  6  2  0  0  0
  6 12  1  0  0  0
 12 13  2  0  0  0
 13 14  1  0  0  0
 14 19  1  0  0  0
 19 20  1  0  0  0
 14 15  2  0  0  0
 15 16  1  0  0  0
 16 21  1  0  0  0
 21 22  1  0  0  0
 16 17  2  0  0  0
 17 18  1  0  0  0
  6  7  1  0  0  0
  7  8  2  0  0  0
  7  9  1  0  0  0
  9 26  1  0  0  0
 26 27  1  0  0  0
 26 28  1  0  0  0
 28 29  2  0  0  0
 29 30  1  0  0  0
 30 31  2  0  0  0
 31 32  1  0  0  0
 32 33  1  0  0  0
 32 34  2  0  0  0
 34 35  1  0  0  0
 35 36  2  0  0  0
 36 37  1  0  0  0
  9 10  1  0  0  0
 10 11  2  0  0  0
 11  1  1  0  0  0
 10  4  1  0  0  0
 17 12  1  0  0  0
 37 28  1  0  0  0
 36 30  1  0  0  0
 24 25  1  0  0  0
 37 38  1  0  0  0
M  END
> <minimizedAffinity>
-5.87819

> <CNNscore>
0.0775268227

> <CNNaffinity>
6.2210536003

> <CNN_VS>
0.4822985232

> <CNNaffinity_variance>
0.1028790846

$$$$
[H]c1c(OC([H])([H])[H])c([H])c(-c2c([H])c3c([H])nc(N([H])C([H])([H])[H])nc3n(C([H])(c3nc4c([H])c(Cl)c([H])c([H])c4n3[H])C([H])([H])[H])c2=O)c(Cl)c1OC([H])([H])[H]


 38 42  0  0  0  0  0  0  0  0999 V2000
    1.9799   20.9612  -16.4404 C   0  0  0  0  0  0  0  0  0  0  0  0
    1.9518   22.2559  -16.7951 N   0  0  0  0  0  0  0  0  0  0  0  0
    1.5035   22.6287  -18.0012 C   0  0  0  0  0  0  0  0  0  0  0  0
    1.0743   21.6088  -18.8545 C   0  0  0  0  0  0  0  0  0  0  0  0
    0.5943   21.9614  -20.1224 C   0  0  0  0  0  0  0  0  0  0  0  0
    0.1679   20.9626  -20.9614 C   0  0  0  0  0  0  0  0  0  0  0  0
    0.2267   19.6400  -20.5274 C   0  0  0  0  0  0  0  0  0  0  0  0
   -0.1765   18.7874  -21.3433 O   0  0  0  0  0  0  0  0  0  0  0  0
    0.6808   19.2844  -19.3236 N   0  0  0  0  0  0  0  0  0  0  0  0
    1.1056   20.2843  -18.4869 C   0  0  0  0  0  0  0  0  0  0  0  0
    1.5688   19.9883  -17.2596 N   0  0  0  0  0  0  0  0  0  0  0  0
   -0.3585   21.3215  -22.2646 C   0  0  0  0  0  0  0  0  0  0  0  0
   -1.7188   21.5710  -22.4092 C   0  0  0  0  0  0  0  0  0  0  0  0
   -2.2929   21.9328  -23.6074 C   0  0  0  0  0  0  0  0  0  0  0  0
   -1.5147   22.0641  -24.7379 C   0  0  0  0  0  0  0  0  0  0  0  0
   -0.1650   21.8226  -24.6206 C   0  0  0  0  0  0  0  0  0  0  0  0
    0.4029   21.4568  -23.4029 C   0  0  0  0  0  0  0  0  0  0  0  0
    2.1245   21.1392  -23.2799 Cl  0  0  0  0  0  0  0  0  0  0  0  0
   -3.6553   22.1726  -23.7064 O   0  0  0  0  0  0  0  0  0  0  0  0
   -4.2073   23.3996  -24.0817 C   0  0  0  0  0  0  0  0  0  0  0  0
    0.6146   21.9544  -25.7574 O   0  0  0  0  0  0  0  0  0  0  0  0
    0.1195   22.3054  -27.0120 C   0  0  0  0  0  0  0  0  0  0  0  0
    3.4004   21.5186  -14.4588 C   0  0  0  0  0  0  0  0  0  0  0  0
    2.4735   20.6526  -15.1355 N   0  0  0  0  0  0  0  0  0  0  0  0
    2.1689   19.7936  -14.6508 H   0  0  0  0  0  0  0  0  0  0  0  0
    0.7816   17.9562  -18.7989 C   0  0  0  0  0  0  0  0  0  0  0  0
    1.8404   17.1410  -19.5712 C   0  0  0  0  0  0  0  0  0  0  0  0
   -0.4585   17.1759  -18.7498 C   0  0  0  0  0  0  0  0  0  0  0  0
   -1.2946   17.0411  -17.7108 N   0  0  0  0  0  0  0  0  0  0  0  0
   -2.3269   16.2159  -18.0253 C   0  0  0  0  0  0  0  0  0  0  0  0
   -3.4323   15.7567  -17.3365 C   0  0  0  0  0  0  0  0  0  0  0  0
   -4.3340   14.9076  -17.9248 C   0  0  0  0  0  0  0  0  0  0  0  0
   -5.7529   14.3183  -17.0431 Cl  0  0  0  0  0  0  0  0  0  0  0  0
   -4.1291   14.5095  -19.2251 C   0  0  0  0  0  0  0  0  0  0  0  0
   -3.0145   14.9752  -19.9140 C   0  0  0  0  0  0  0  0  0  0  0  0
   -2.1071   15.8260  -19.3297 C   0  0  0  0  0  0  0  0  0  0  0  0
   -0.9771   16.4163  -19.7459 N   0  0  0  0  0  0  0  0  0  0  0  0
   -0.5540   16.3115  -20.6942 H   0  0  0  0  0  0  0  0  0  0  0  0
 23 24  1  0  0  0
 24  1  1  0  0  0
  1  2  2  0  0  0
  2  3  1  0  0  0
  3  4  2  0  0  0
  4  5  1  0  0  0
  5  6  2  0  0  0
  6 12  1  0  0  0
 12 13  2  0  0  0
 13 14  1  0  0  0
 14 19  1  0  0  0
 19 20  1  0  0  0
 14 15  2  0  0  0
 15 16  1  0  0  0
 16 21  1  0  0  0
 21 22  1  0  0  0
 16 17  2  0  0  0
 17 18  1  0  0  0
  6  7  1  0  0  0
  7  8  2  0  0  0
  7  9  1  0  0  0
  9 26  1  0  0  0
 26 27  1  0  0  0
 26 28  1  0  0  0
 28 29  2  0  0  0
 29 30  1  0  0  0
 30 31  2  0  0  0
 31 32  1  0  0  0
 32 33  1  0  0  0
 32 34  2  0  0  0
 34 35  1  0  0  0
 35 36  2  0  0  0
 36 37  1  0  0  0
  9 10  1  0  0  0
 10 11  2  0  0  0
 11  1  1  0  0  0
 10  4  1  0  0  0
 17 12  1  0  0  0
 37 28  1  0  0  0
 36 30  1  0  0  0
 24 25  1  0  0  0
 37 38  1  0  0  0
M  END
> <minimizedAffinity>
-5.93731

> <CNNscore>
0.0755986869

> <CNNaffinity>
6.0390548706

> <CNN_VS>
0.4565446079

> <CNNaffinity_variance>
0.0763840899

$$$$
[H]C([H])=C([H])C(=O)N([H])[C@@]1([H])C([H])([H])N(C([H])([H])C([H])([H])n2c(=O)c(-c3c([H])c(OC([H])([H])[H])c([H])c(OC([H])([H])[H])c3Cl)c([H])c3c([H])nc(N([H])C([H])([H])[H])nc32)C([H])([H])C1([H])[H]


 38 41  0  0  0  0  0  0  0  0999 V2000
   -1.9346   22.7900  -27.7336 C   0  0  0  0  0  0  0  0  0  0  0  0
   -0.5874   22.7839  -27.7181 N   0  0  0  0  0  0  0  0  0  0  0  0
    0.1608   22.5083  -26.6380 C   0  0  0  0  0  0  0  0  0  0  0  0
   -0.5446   22.2147  -25.4777 C   0  0  0  0  0  0  0  0  0  0  0  0
    0.1989   21.9201  -24.3399 C   0  0  0  0  0  0  0  0  0  0  0  0
   -0.5096   21.6274  -23.2010 C   0  0  0  0  0  0  0  0  0  0  0  0
   -1.9086   21.6391  -23.2364 C   0  0  0  0  0  0  0  0  0  0  0  0
   -2.5627   21.3746  -22.2023 O   0  0  0  0  0  0  0  0  0  0  0  0
   -2.5951   21.9284  -24.3545 N   0  0  0  0  0  0  0  0  0  0  0  0
   -1.9213   22.2238  -25.5048 C   0  0  0  0  0  0  0  0  0  0  0  0
   -2.6251   22.5067  -26.6142 N   0  0  0  0  0  0  0  0  0  0  0  0
    0.1602   21.3161  -21.9642 C   0  0  0  0  0  0  0  0  0  0  0  0
   -0.5320   21.3371  -20.7495 C   0  0  0  0  0  0  0  0  0  0  0  0
    0.0898   21.0534  -19.5527 C   0  0  0  0  0  0  0  0  0  0  0  0
    1.4371   20.7347  -19.5237 C   0  0  0  0  0  0  0  0  0  0  0  0
    2.1465   20.7081  -20.7307 C   0  0  0  0  0  0  0  0  0  0  0  0
    1.5060   20.9963  -21.9222 C   0  0  0  0  0  0  0  0  0  0  0  0
    2.4562   20.9328  -23.3915 Cl  0  0  0  0  0  0  0  0  0  0  0  0
   -0.6588   21.0965  -18.4089 O   0  0  0  0  0  0  0  0  0  0  0  0
   -1.9872   21.5359  -18.3148 C   0  0  0  0  0  0  0  0  0  0  0  0
    3.4948   20.3966  -20.7766 O   0  0  0  0  0  0  0  0  0  0  0  0
    4.4083   21.3859  -20.2927 C   0  0  0  0  0  0  0  0  0  0  0  0
   -3.9025   22.5312  -29.2554 C   0  0  0  0  0  0  0  0  0  0  0  0
   -2.6117   23.1003  -28.9622 N   0  0  0  0  0  0  0  0  0  0  0  0
   -2.1698   23.7388  -29.6463 H   0  0  0  0  0  0  0  0  0  0  0  0
   -4.0163   21.9124  -24.3547 C   0  0  0  0  0  0  0  0  0  0  0  0
   -4.6445   23.0528  -23.5642 C   0  0  0  0  0  0  0  0  0  0  0  0
   -4.8654   24.1487  -24.3649 N   0  0  0  0  0  0  0  0  0  0  0  0
   -4.7532   25.4707  -23.9110 C   0  0  0  0  0  0  0  0  0  0  0  0
   -4.9263   26.3797  -25.1062 C   0  0  0  0  0  0  0  0  0  0  0  0
   -5.4722   25.5048  -26.1809 C   0  0  0  0  0  0  0  0  0  0  0  0
   -5.5223   24.1019  -25.6009 C   0  0  0  0  0  0  0  0  0  0  0  0
   -4.6621   25.5751  -27.3848 N   0  0  0  0  0  0  0  0  0  0  0  0
   -5.2028   25.7973  -28.6720 C   0  0  0  0  0  0  0  0  0  0  0  0
   -6.4661   25.9402  -28.7577 O   0  0  0  0  0  0  0  0  0  0  0  0
   -3.6196   25.4577  -27.3322 H   0  0  0  0  0  0  0  0  0  0  0  0
   -4.4159   25.8731  -29.8873 C   0  0  0  0  0  0  0  0  0  0  0  0
   -5.0797   25.9512  -31.0507 C   0  0  0  0  0  0  0  0  0  0  0  0
 23 24  1  0  0  0
 24  1  1  0  0  0
  1  2  2  0  0  0
  2  3  1  0  0  0
  3  4  2  0  0  0
  4  5  1  0  0  0
  5  6  2  0  0  0
  6 12  1  0  0  0
 12 13  2  0  0  0
 13 14  1  0  0  0
 14 19  1  0  0  0
 19 20  1  0  0  0
 14 15  2  0  0  0
 15 16  1  0  0  0
 16 21  1  0  0  0
 21 22  1  0  0  0
 16 17  2  0  0  0
 17 18  1  0  0  0
  6  7  1  0  0  0
  7  8  2  0  0  0
  7  9  1  0  0  0
  9 26  1  0  0  0
 26 27  1  0  0  0
 27 28  1  0  0  0
 28 29  1  0  0  0
 29 30  1  0  0  0
 30 31  1  0  0  0
 31 32  1  0  0  0
 31 33  1  0  0  0
 33 34  1  0  0  0
 34 35  2  0  0  0
 34 37  1  0  0  0
 37 38  2  0  0  0
  9 10  1  0  0  0
 10 11  2  0  0  0
 11  1  1  0  0  0
 10  4  1  0  0  0
 17 12  1  0  0  0
 32 28  1  0  0  0
 24 25  1  0  0  0
 33 36  1  0  0  0
M  END
> <minimizedAffinity>
-8.40517

> <CNNscore>
0.7465142012

> <CNNaffinity>
7.8676462173

> <CNN_VS>
5.8733096123

> <CNNaffinity_variance>
0.0602932647

$$$$
[H]C([H])=C([H])C(=O)N([H])[C@@]1([H])C([H])([H])N(C([H])([H])C([H])([H])n2c(=O)c(-c3c([H])c(OC([H])([H])[H])c([H])c(OC([H])([H])[H])c3Cl)c([H])c3c([H])nc(N([H])C([H])([H])[H])nc32)C([H])([H])C1([H])[H]


 38 41  0  0  0  0  0  0  0  0999 V2000
   -1.9272   22.8111  -27.3587 C   0  0  0  0  0  0  0  0  0  0  0  0
   -0.5939   22.6952  -27.2031 N   0  0  0  0  0  0  0  0  0  0  0  0
    0.0103   22.3179  -26.0652 C   0  0  0  0  0  0  0  0  0  0  0  0
   -0.8363   22.0373  -25.0000 C   0  0  0  0  0  0  0  0  0  0  0  0
   -0.2445   21.6392  -23.8062 C   0  0  0  0  0  0  0  0  0  0  0  0
   -1.0918   21.3607  -22.7625 C   0  0  0  0  0  0  0  0  0  0  0  0
   -2.4738   21.4872  -22.9431 C   0  0  0  0  0  0  0  0  0  0  0  0
   -3.2538   21.2364  -21.9965 O   0  0  0  0  0  0  0  0  0  0  0  0
   -3.0118   21.8746  -24.1116 N   0  0  0  0  0  0  0  0  0  0  0  0
   -2.1974   22.1591  -25.1701 C   0  0  0  0  0  0  0  0  0  0  0  0
   -2.7539   22.5412  -26.3322 N   0  0  0  0  0  0  0  0  0  0  0  0
   -0.5849   20.9481  -21.4788 C   0  0  0  0  0  0  0  0  0  0  0  0
   -0.1171   19.6459  -21.2780 C   0  0  0  0  0  0  0  0  0  0  0  0
    0.3624   19.2252  -20.0564 C   0  0  0  0  0  0  0  0  0  0  0  0
    0.3938   20.0965  -18.9805 C   0  0  0  0  0  0  0  0  0  0  0  0
   -0.0701   21.4051  -19.1630 C   0  0  0  0  0  0  0  0  0  0  0  0
   -0.5484   21.8094  -20.3961 C   0  0  0  0  0  0  0  0  0  0  0  0
   -1.1018   23.4634  -20.5505 Cl  0  0  0  0  0  0  0  0  0  0  0  0
    0.8009   17.9346  -19.9433 O   0  0  0  0  0  0  0  0  0  0  0  0
    1.5417   17.2335  -20.9055 C   0  0  0  0  0  0  0  0  0  0  0  0
   -0.0670   22.3296  -18.1324 O   0  0  0  0  0  0  0  0  0  0  0  0
    1.1993   22.6473  -17.5468 C   0  0  0  0  0  0  0  0  0  0  0  0
   -3.6315   22.6180  -29.1791 C   0  0  0  0  0  0  0  0  0  0  0  0
   -2.4424   23.2230  -28.6351 N   0  0  0  0  0  0  0  0  0  0  0  0
   -1.9559   23.9617  -29.1723 H   0  0  0  0  0  0  0  0  0  0  0  0
   -4.4217   21.9739  -24.2608 C   0  0  0  0  0  0  0  0  0  0  0  0
   -5.0370   23.1546  -23.5209 C   0  0  0  0  0  0  0  0  0  0  0  0
   -5.2647   24.2097  -24.3730 N   0  0  0  0  0  0  0  0  0  0  0  0
   -5.3087   25.5462  -23.9508 C   0  0  0  0  0  0  0  0  0  0  0  0
   -5.4334   26.4105  -25.1846 C   0  0  0  0  0  0  0  0  0  0  0  0
   -5.7929   25.4687  -26.2811 C   0  0  0  0  0  0  0  0  0  0  0  0
   -5.7860   24.0798  -25.6663 C   0  0  0  0  0  0  0  0  0  0  0  0
   -4.8728   25.5810  -27.3998 N   0  0  0  0  0  0  0  0  0  0  0  0
   -5.2936   25.7994  -28.7317 C   0  0  0  0  0  0  0  0  0  0  0  0
   -6.5468   25.8996  -28.9387 O   0  0  0  0  0  0  0  0  0  0  0  0
   -3.8368   25.4991  -27.2469 H   0  0  0  0  0  0  0  0  0  0  0  0
   -4.3957   25.9166  -29.8638 C   0  0  0  0  0  0  0  0  0  0  0  0
   -4.9283   25.8061  -31.0903 C   0  0  0  0  0  0  0  0  0  0  0  0
 23 24  1  0  0  0
 24  1  1  0  0  0
  1  2  2  0  0  0
  2  3  1  0  0  0
  3  4  2  0  0  0
  4  5  1  0  0  0
  5  6  2  0  0  0
  6 12  1  0  0  0
 12 13  2  0  0  0
 13 14  1  0  0  0
 14 19  1  0  0  0
 19 20  1  0  0  0
 14 15  2  0  0  0
 15 16  1  0  0  0
 16 21  1  0  0  0
 21 22  1  0  0  0
 16 17  2  0  0  0
 17 18  1  0  0  0
  6  7  1  0  0  0
  7  8  2  0  0  0
  7  9  1  0  0  0
  9 26  1  0  0  0
 26 27  1  0  0  0
 27 28  1  0  0  0
 28 29  1  0  0  0
 29 30  1  0  0  0
 30 31  1  0  0  0
 31 32  1  0  0  0
 31 33  1  0  0  0
 33 34  1  0  0  0
 34 35  2  0  0  0
 34 37  1  0  0  0
 37 38  2  0  0  0
  9 10  1  0  0  0
 10 11  2  0  0  0
 11  1  1  0  0  0
 10  4  1  0  0  0
 17 12  1  0  0  0
 32 28  1  0  0  0
 24 25  1  0  0  0
 33 36  1  0  0  0
M  END
> <minimizedAffinity>
-7.95860

> <CNNscore>
0.5732967854

> <CNNaffinity>
7.6993269920

> <CNN_VS>
4.4139995575

> <CNNaffinity_variance>
0.2035559118

$$$$
[H]C([H])=C([H])C(=O)N([H])[C@@]1([H])C([H])([H])N(C([H])([H])C([H])([H])n2c(=O)c(-c3c([H])c(OC([H])([H])[H])c([H])c(OC([H])([H])[H])c3Cl)c([H])c3c([H])nc(N([H])C([H])([H])[H])nc32)C([H])([H])C1([H])[H]


 38 41  0  0  0  0  0  0  0  0999 V2000
    1.3744   21.4927  -24.1120 C   0  0  0  0  0  0  0  0  0  0  0  0
    1.2706   21.7872  -25.4226 N   0  0  0  0  0  0  0  0  0  0  0  0
    0.1449   22.2062  -26.0223 C   0  0  0  0  0  0  0  0  0  0  0  0
   -0.9653   22.3304  -25.1965 C   0  0  0  0  0  0  0  0  0  0  0  0
   -2.1482   22.7663  -25.7838 C   0  0  0  0  0  0  0  0  0  0  0  0
   -3.2368   22.8891  -24.9565 C   0  0  0  0  0  0  0  0  0  0  0  0
   -3.1097   22.5782  -23.5979 C   0  0  0  0  0  0  0  0  0  0  0  0
   -4.0975   22.6862  -22.8364 O   0  0  0  0  0  0  0  0  0  0  0  0
   -1.9503   22.1594  -23.0636 N   0  0  0  0  0  0  0  0  0  0  0  0
   -0.8479   22.0266  -23.8584 C   0  0  0  0  0  0  0  0  0  0  0  0
    0.3040   21.6104  -23.3055 N   0  0  0  0  0  0  0  0  0  0  0  0
   -4.5135   23.3246  -25.4621 C   0  0  0  0  0  0  0  0  0  0  0  0
   -5.5366   23.7082  -24.5896 C   0  0  0  0  0  0  0  0  0  0  0  0
   -6.7695   24.1180  -25.0494 C   0  0  0  0  0  0  0  0  0  0  0  0
   -7.0290   24.1613  -26.4089 C   0  0  0  0  0  0  0  0  0  0  0  0
   -6.0160   23.7813  -27.2979 C   0  0  0  0  0  0  0  0  0  0  0  0
   -4.7850   23.3721  -26.8182 C   0  0  0  0  0  0  0  0  0  0  0  0
   -3.5649   22.9220  -27.9906 Cl  0  0  0  0  0  0  0  0  0  0  0  0
   -7.7163   24.4762  -24.1297 O   0  0  0  0  0  0  0  0  0  0  0  0
   -7.6210   24.2955  -22.7424 C   0  0  0  0  0  0  0  0  0  0  0  0
   -6.2050   23.8011  -28.6694 O   0  0  0  0  0  0  0  0  0  0  0  0
   -5.9028   25.0227  -29.3505 C   0  0  0  0  0  0  0  0  0  0  0  0
    2.7215   20.2963  -22.3771 C   0  0  0  0  0  0  0  0  0  0  0  0
    2.6434   21.0566  -23.5985 N   0  0  0  0  0  0  0  0  0  0  0  0
    3.5128   21.2900  -24.1091 H   0  0  0  0  0  0  0  0  0  0  0  0
   -1.8567   21.8705  -21.6752 C   0  0  0  0  0  0  0  0  0  0  0  0
   -1.4552   23.0677  -20.8234 C   0  0  0  0  0  0  0  0  0  0  0  0
   -0.4083   22.7540  -19.9888 N   0  0  0  0  0  0  0  0  0  0  0  0
    0.1994   21.4907  -19.9555 C   0  0  0  0  0  0  0  0  0  0  0  0
    1.3899   21.5815  -19.0285 C   0  0  0  0  0  0  0  0  0  0  0  0
    1.2104   22.8647  -18.2941 C   0  0  0  0  0  0  0  0  0  0  0  0
   -0.0331   23.5153  -18.8749 C   0  0  0  0  0  0  0  0  0  0  0  0
    2.3837   23.7130  -18.4139 N   0  0  0  0  0  0  0  0  0  0  0  0
    3.2283   24.0278  -17.3247 C   0  0  0  0  0  0  0  0  0  0  0  0
    2.9268   23.5321  -16.1903 O   0  0  0  0  0  0  0  0  0  0  0  0
    2.6455   24.1311  -19.3413 H   0  0  0  0  0  0  0  0  0  0  0  0
    4.4046   24.8698  -17.4191 C   0  0  0  0  0  0  0  0  0  0  0  0
    5.4835   24.5081  -16.7081 C   0  0  0  0  0  0  0  0  0  0  0  0
 23 24  1  0  0  0
 24  1  1  0  0  0
  1  2  2  0  0  0
  2  3  1  0  0  0
  3  4  2  0  0  0
  4  5  1  0  0  0
  5  6  2  0  0  0
  6 12  1  0  0  0
 12 13  2  0  0  0
 13 14  1  0  0  0
 14 19  1  0  0  0
 19 20  1  0  0  0
 14 15  2  0  0  0
 15 16  1  0  0  0
 16 21  1  0  0  0
 21 22  1  0  0  0
 16 17  2  0  0  0
 17 18  1  0  0  0
  6  7  1  0  0  0
  7  8  2  0  0  0
  7  9  1  0  0  0
  9 26  1  0  0  0
 26 27  1  0  0  0
 27 28  1  0  0  0
 28 29  1  0  0  0
 29 30  1  0  0  0
 30 31  1  0  0  0
 31 32  1  0  0  0
 31 33  1  0  0  0
 33 34  1  0  0  0
 34 35  2  0  0  0
 34 37  1  0  0  0
 37 38  2  0  0  0
  9 10  1  0  0  0
 10 11  2  0  0  0
 11  1  1  0  0  0
 10  4  1  0  0  0
 17 12  1  0  0  0
 32 28  1  0  0  0
 24 25  1  0  0  0
 33 36  1  0  0  0
M  END
> <minimizedAffinity>
-8.25180

> <CNNscore>
0.5295009017

> <CNNaffinity>
7.2098832130

> <CNN_VS>
3.8176395893

> <CNNaffinity_variance>
0.4307078421

$$$$
[H]C([H])=C([H])C(=O)N([H])[C@@]1([H])C([H])([H])N(C([H])([H])C([H])([H])n2c(=O)c(-c3c([H])c(OC([H])([H])[H])c([H])c(OC([H])([H])[H])c3Cl)c([H])c3c([H])nc(N([H])C([H])([H])[H])nc32)C([H])([H])C1([H])[H]


 38 41  0  0  0  0  0  0  0  0999 V2000
   -1.4403   22.3222  -26.3332 C   0  0  0  0  0  0  0  0  0  0  0  0
   -0.1074   22.1261  -26.3192 N   0  0  0  0  0  0  0  0  0  0  0  0
    0.6071   21.8273  -25.2226 C   0  0  0  0  0  0  0  0  0  0  0  0
   -0.1187   21.7229  -24.0427 C   0  0  0  0  0  0  0  0  0  0  0  0
    0.5892   21.4103  -22.8871 C   0  0  0  0  0  0  0  0  0  0  0  0
   -0.1399   21.3058  -21.7286 C   0  0  0  0  0  0  0  0  0  0  0  0
   -1.5234   21.5133  -21.7628 C   0  0  0  0  0  0  0  0  0  0  0  0
   -2.1960   21.4212  -20.7109 O   0  0  0  0  0  0  0  0  0  0  0  0
   -2.1755   21.8141  -22.8983 N   0  0  0  0  0  0  0  0  0  0  0  0
   -1.4806   21.9254  -24.0684 C   0  0  0  0  0  0  0  0  0  0  0  0
   -2.1505   22.2229  -25.1948 N   0  0  0  0  0  0  0  0  0  0  0  0
    0.4940   20.9944  -20.4730 C   0  0  0  0  0  0  0  0  0  0  0  0
    0.9592   22.0113  -19.6336 C   0  0  0  0  0  0  0  0  0  0  0  0
    1.5781   21.7377  -18.4331 C   0  0  0  0  0  0  0  0  0  0  0  0
    1.7566   20.4275  -18.0217 C   0  0  0  0  0  0  0  0  0  0  0  0
    1.2964   19.3957  -18.8492 C   0  0  0  0  0  0  0  0  0  0  0  0
    0.6781   19.6894  -20.0509 C   0  0  0  0  0  0  0  0  0  0  0  0
    0.1201   18.3470  -21.0269 Cl  0  0  0  0  0  0  0  0  0  0  0  0
    2.0049   22.7901  -17.6709 O   0  0  0  0  0  0  0  0  0  0  0  0
    2.4955   24.0097  -18.1589 C   0  0  0  0  0  0  0  0  0  0  0  0
    1.4400   18.0635  -18.5007 O   0  0  0  0  0  0  0  0  0  0  0  0
    1.2781   17.7311  -17.1185 C   0  0  0  0  0  0  0  0  0  0  0  0
   -1.3260   23.1753  -28.6816 C   0  0  0  0  0  0  0  0  0  0  0  0
   -2.0815   22.6342  -27.5805 N   0  0  0  0  0  0  0  0  0  0  0  0
   -3.0972   22.4700  -27.6922 H   0  0  0  0  0  0  0  0  0  0  0  0
   -3.5846   22.0000  -22.8953 C   0  0  0  0  0  0  0  0  0  0  0  0
   -4.0191   23.4026  -22.4905 C   0  0  0  0  0  0  0  0  0  0  0  0
   -4.4057   24.1379  -23.5864 N   0  0  0  0  0  0  0  0  0  0  0  0
   -4.0464   25.4793  -23.7809 C   0  0  0  0  0  0  0  0  0  0  0  0
   -4.5330   25.8876  -25.1524 C   0  0  0  0  0  0  0  0  0  0  0  0
   -5.4703   24.8070  -25.5672 C   0  0  0  0  0  0  0  0  0  0  0  0
   -5.4357   23.7677  -24.4601 C   0  0  0  0  0  0  0  0  0  0  0  0
   -5.1008   24.2507  -26.8574 N   0  0  0  0  0  0  0  0  0  0  0  0
   -5.5880   24.7512  -28.0866 C   0  0  0  0  0  0  0  0  0  0  0  0
   -6.3902   25.7400  -28.0371 O   0  0  0  0  0  0  0  0  0  0  0  0
   -4.4421   23.4345  -26.9160 H   0  0  0  0  0  0  0  0  0  0  0  0
   -5.2333   24.2148  -29.3858 C   0  0  0  0  0  0  0  0  0  0  0  0
   -5.1960   22.8798  -29.5153 C   0  0  0  0  0  0  0  0  0  0  0  0
 23 24  1  0  0  0
 24  1  1  0  0  0
  1  2  2  0  0  0
  2  3  1  0  0  0
  3  4  2  0  0  0
  4  5  1  0  0  0
  5  6  2  0  0  0
  6 12  1  0  0  0
 12 13  2  0  0  0
 13 14  1  0  0  0
 14 19  1  0  0  0
 19 20  1  0  0  0
 14 15  2  0  0  0
 15 16  1  0  0  0
 16 21  1  0  0  0
 21 22  1  0  0  0
 16 17  2  0  0  0
 17 18  1  0  0  0
  6  7  1  0  0  0
  7  8  2  0  0  0
  7  9  1  0  0  0
  9 26  1  0  0  0
 26 27  1  0  0  0
 27 28  1  0  0  0
 28 29  1  0  0  0
 29 30  1  0  0  0
 30 31  1  0  0  0
 31 32  1  0  0  0
 31 33  1  0  0  0
 33 34  1  0  0  0
 34 35  2  0  0  0
 34 37  1  0  0  0
 37 38  2  0  0  0
  9 10  1  0  0  0
 10 11  2  0  0  0
 11  1  1  0  0  0
 10  4  1  0  0  0
 17 12  1  0  0  0
 32 28  1  0  0  0
 24 25  1  0  0  0
 33 36  1  0  0  0
M  END
> <minimizedAffinity>
-7.33891

> <CNNscore>
0.4892902672

> <CNNaffinity>
7.4384155273

> <CNN_VS>
3.6395442486

> <CNNaffinity_variance>
0.2000277340

$$$$
[H]C([H])=C([H])C(=O)N([H])[C@@]1([H])C([H])([H])N(C([H])([H])C([H])([H])n2c(=O)c(-c3c([H])c(OC([H])([H])[H])c([H])c(OC([H])([H])[H])c3Cl)c([H])c3c([H])nc(N([H])C([H])([H])[H])nc32)C([H])([H])C1([H])[H]


 38 41  0  0  0  0  0  0  0  0999 V2000
    1.3016   21.5095  -24.1061 C   0  0  0  0  0  0  0  0  0  0  0  0
    1.1682   21.5099  -25.4468 N   0  0  0  0  0  0  0  0  0  0  0  0
    0.0922   21.9695  -26.1051 C   0  0  0  0  0  0  0  0  0  0  0  0
   -0.9304   22.4701  -25.3091 C   0  0  0  0  0  0  0  0  0  0  0  0
   -2.0592   22.9588  -25.9581 C   0  0  0  0  0  0  0  0  0  0  0  0
   -3.0608   23.4546  -25.1608 C   0  0  0  0  0  0  0  0  0  0  0  0
   -2.9042   23.4454  -23.7702 C   0  0  0  0  0  0  0  0  0  0  0  0
   -3.8129   23.8945  -23.0354 O   0  0  0  0  0  0  0  0  0  0  0  0
   -1.7989   22.9652  -23.1762 N   0  0  0  0  0  0  0  0  0  0  0  0
   -0.7835   22.4648  -23.9398 C   0  0  0  0  0  0  0  0  0  0  0  0
    0.3160   21.9926  -23.3282 N   0  0  0  0  0  0  0  0  0  0  0  0
   -4.2771   23.9778  -25.7284 C   0  0  0  0  0  0  0  0  0  0  0  0
   -5.1478   24.7581  -24.9616 C   0  0  0  0  0  0  0  0  0  0  0  0
   -6.3220   25.2605  -25.4794 C   0  0  0  0  0  0  0  0  0  0  0  0
   -6.6735   25.0011  -26.7936 C   0  0  0  0  0  0  0  0  0  0  0  0
   -5.8132   24.2219  -27.5770 C   0  0  0  0  0  0  0  0  0  0  0  0
   -4.6392   23.7256  -27.0400 C   0  0  0  0  0  0  0  0  0  0  0  0
   -3.6095   22.7681  -28.0835 Cl  0  0  0  0  0  0  0  0  0  0  0  0
   -7.1187   26.0144  -24.6625 O   0  0  0  0  0  0  0  0  0  0  0  0
   -7.5475   25.6549  -23.3767 C   0  0  0  0  0  0  0  0  0  0  0  0
   -6.1003   23.9240  -28.8982 O   0  0  0  0  0  0  0  0  0  0  0  0
   -5.7553   24.9087  -29.8773 C   0  0  0  0  0  0  0  0  0  0  0  0
    2.6044   20.7400  -22.1145 C   0  0  0  0  0  0  0  0  0  0  0  0
    2.5107   20.9888  -23.5305 N   0  0  0  0  0  0  0  0  0  0  0  0
    3.3253   20.7898  -24.1371 H   0  0  0  0  0  0  0  0  0  0  0  0
   -1.6699   22.9897  -21.7610 C   0  0  0  0  0  0  0  0  0  0  0  0
   -2.1837   21.7307  -21.0746 C   0  0  0  0  0  0  0  0  0  0  0  0
   -3.1229   22.0357  -20.1176 N   0  0  0  0  0  0  0  0  0  0  0  0
   -2.8079   22.2462  -18.7675 C   0  0  0  0  0  0  0  0  0  0  0  0
   -4.0706   22.6966  -18.0693 C   0  0  0  0  0  0  0  0  0  0  0  0
   -5.1695   22.4011  -19.0302 C   0  0  0  0  0  0  0  0  0  0  0  0
   -4.5028   21.8645  -20.2849 C   0  0  0  0  0  0  0  0  0  0  0  0
   -5.9742   23.5813  -19.2951 N   0  0  0  0  0  0  0  0  0  0  0  0
   -7.3665   23.5333  -19.5357 C   0  0  0  0  0  0  0  0  0  0  0  0
   -7.9232   22.3873  -19.5145 O   0  0  0  0  0  0  0  0  0  0  0  0
   -5.5309   24.5334  -19.3178 H   0  0  0  0  0  0  0  0  0  0  0  0
   -8.1909   24.6960  -19.8006 C   0  0  0  0  0  0  0  0  0  0  0  0
   -9.3999   24.4869  -20.3437 C   0  0  0  0  0  0  0  0  0  0  0  0
 23 24  1  0  0  0
 24  1  1  0  0  0
  1  2  2  0  0  0
  2  3  1  0  0  0
  3  4  2  0  0  0
  4  5  1  0  0  0
  5  6  2  0  0  0
  6 12  1  0  0  0
 12 13  2  0  0  0
 13 14  1  0  0  0
 14 19  1  0  0  0
 19 20  1  0  0  0
 14 15  2  0  0  0
 15 16  1  0  0  0
 16 21  1  0  0  0
 21 22  1  0  0  0
 16 17  2  0  0  0
 17 18  1  0  0  0
  6  7  1  0  0  0
  7  8  2  0  0  0
  7  9  1  0  0  0
  9 26  1  0  0  0
 26 27  1  0  0  0
 27 28  1  0  0  0
 28 29  1  0  0  0
 29 30  1  0  0  0
 30 31  1  0  0  0
 31 32  1  0  0  0
 31 33  1  0  0  0
 33 34  1  0  0  0
 34 35  2  0  0  0
 34 37  1  0  0  0
 37 38  2  0  0  0
  9 10  1  0  0  0
 10 11  2  0  0  0
 11  1  1  0  0  0
 10  4  1  0  0  0
 17 12  1  0  0  0
 32 28  1  0  0  0
 24 25  1  0  0  0
 33 36  1  0  0  0
M  END
> <minimizedAffinity>
-7.39272

> <CNNscore>
0.3207503855

> <CNNaffinity>
7.1693878174

> <CNN_VS>
2.2995839119

> <CNNaffinity_variance>
0.2318501174

$$$$
[H]C([H])=C([H])C(=O)N([H])[C@@]1([H])C([H])([H])N(C([H])([H])C([H])([H])n2c(=O)c(-c3c([H])c(OC([H])([H])[H])c([H])c(OC([H])([H])[H])c3Cl)c([H])c3c([H])nc(N([H])C([H])([H])[H])nc32)C([H])([H])C1([H])[H]


 38 41  0  0  0  0  0  0  0  0999 V2000
   -0.5775   22.4035  -25.7683 C   0  0  0  0  0  0  0  0  0  0  0  0
    0.4402   21.5901  -25.4245 N   0  0  0  0  0  0  0  0  0  0  0  0
    0.7887   21.2982  -24.1613 C   0  0  0  0  0  0  0  0  0  0  0  0
    0.0197   21.8983  -23.1721 C   0  0  0  0  0  0  0  0  0  0  0  0
    0.3502   21.6147  -21.8513 C   0  0  0  0  0  0  0  0  0  0  0  0
   -0.4197   22.2103  -20.8832 C   0  0  0  0  0  0  0  0  0  0  0  0
   -1.4722   23.0523  -21.2597 C   0  0  0  0  0  0  0  0  0  0  0  0
   -2.1788   23.6005  -20.3835 O   0  0  0  0  0  0  0  0  0  0  0  0
   -1.7637   23.3043  -22.5468 N   0  0  0  0  0  0  0  0  0  0  0  0
   -1.0179   22.7278  -23.5347 C   0  0  0  0  0  0  0  0  0  0  0  0
   -1.3270   22.9884  -24.8164 N   0  0  0  0  0  0  0  0  0  0  0  0
   -0.1596   21.9921  -19.4832 C   0  0  0  0  0  0  0  0  0  0  0  0
    0.9433   22.5825  -18.8589 C   0  0  0  0  0  0  0  0  0  0  0  0
    1.2185   22.3799  -17.5237 C   0  0  0  0  0  0  0  0  0  0  0  0
    0.3953   21.5740  -16.7552 C   0  0  0  0  0  0  0  0  0  0  0  0
   -0.7146   20.9747  -17.3635 C   0  0  0  0  0  0  0  0  0  0  0  0
   -0.9747   21.1889  -18.7048 C   0  0  0  0  0  0  0  0  0  0  0  0
   -2.3864   20.4144  -19.3926 Cl  0  0  0  0  0  0  0  0  0  0  0  0
    2.3178   22.9936  -16.9896 O   0  0  0  0  0  0  0  0  0  0  0  0
    3.5925   22.4239  -16.8599 C   0  0  0  0  0  0  0  0  0  0  0  0
   -1.5807   20.1583  -16.6560 O   0  0  0  0  0  0  0  0  0  0  0  0
   -2.4807   20.7978  -15.7460 C   0  0  0  0  0  0  0  0  0  0  0  0
   -2.1963   22.7653  -27.6402 C   0  0  0  0  0  0  0  0  0  0  0  0
   -0.8441   22.6281  -27.1621 N   0  0  0  0  0  0  0  0  0  0  0  0
   -0.0584   22.6920  -27.8326 H   0  0  0  0  0  0  0  0  0  0  0  0
   -2.8524   24.1514  -22.8891 C   0  0  0  0  0  0  0  0  0  0  0  0
   -4.0852   23.4017  -23.3774 C   0  0  0  0  0  0  0  0  0  0  0  0
   -4.7313   24.1022  -24.3689 N   0  0  0  0  0  0  0  0  0  0  0  0
   -5.2578   25.3889  -24.1863 C   0  0  0  0  0  0  0  0  0  0  0  0
   -5.7532   25.8739  -25.5294 C   0  0  0  0  0  0  0  0  0  0  0  0
   -5.7783   24.6606  -26.3929 C   0  0  0  0  0  0  0  0  0  0  0  0
   -5.2210   23.5277  -25.5485 C   0  0  0  0  0  0  0  0  0  0  0  0
   -5.0185   24.8631  -27.6145 N   0  0  0  0  0  0  0  0  0  0  0  0
   -5.5542   25.4798  -28.7683 C   0  0  0  0  0  0  0  0  0  0  0  0
   -6.7659   25.8699  -28.7122 O   0  0  0  0  0  0  0  0  0  0  0  0
   -4.0191   24.5459  -27.6782 H   0  0  0  0  0  0  0  0  0  0  0  0
   -4.8165   25.6945  -29.9977 C   0  0  0  0  0  0  0  0  0  0  0  0
   -3.4774   25.6397  -29.9337 C   0  0  0  0  0  0  0  0  0  0  0  0
 23 24  1  0  0  0
 24  1  1  0  0  0
  1  2  2  0  0  0
  2  3  1  0  0  0
  3  4  2  0  0  0
  4  5  1  0  0  0
  5  6  2  0  0  0
  6 12  1  0  0  0
 12 13  2  0  0  0
 13 14  1  0  0  0
 14 19  1  0  0  0
 19 20  1  0  0  0
 14 15  2  0  0  0
 15 16  1  0  0  0
 16 21  1  0  0  0
 21 22  1  0  0  0
 16 17  2  0  0  0
 17 18  1  0  0  0
  6  7  1  0  0  0
  7  8  2  0  0  0
  7  9  1  0  0  0
  9 26  1  0  0  0
 26 27  1  0  0  0
 27 28  1  0  0  0
 28 29  1  0  0  0
 29 30  1  0  0  0
 30 31  1  0  0  0
 31 32  1  0  0  0
 31 33  1  0  0  0
 33 34  1  0  0  0
 34 35  2  0  0  0
 34 37  1  0  0  0
 37 38  2  0  0  0
  9 10  1  0  0  0
 10 11  2  0  0  0
 11  1  1  0  0  0
 10  4  1  0  0  0
 17 12  1  0  0  0
 32 28  1  0  0  0
 24 25  1  0  0  0
 33 36  1  0  0  0
M  END
> <minimizedAffinity>
-6.98911

> <CNNscore>
0.2999963760

> <CNNaffinity>
7.2797446251

> <CNN_VS>
2.1838970184

> <CNNaffinity_variance>
0.3731527627

$$$$
[H]C([H])=C([H])C(=O)N([H])[C@@]1([H])C([H])([H])N(C([H])([H])C([H])([H])n2c(=O)c(-c3c([H])c(OC([H])([H])[H])c([H])c(OC([H])([H])[H])c3Cl)c([H])c3c([H])nc(N([H])C([H])([H])[H])nc32)C([H])([H])C1([H])[H]


 38 41  0  0  0  0  0  0  0  0999 V2000
   -2.0905   22.9046  -27.5571 C   0  0  0  0  0  0  0  0  0  0  0  0
   -0.7557   22.8098  -27.4003 N   0  0  0  0  0  0  0  0  0  0  0  0
   -0.1468   22.4359  -26.2638 C   0  0  0  0  0  0  0  0  0  0  0  0
   -0.9900   22.1352  -25.2014 C   0  0  0  0  0  0  0  0  0  0  0  0
   -0.3931   21.7400  -24.0091 C   0  0  0  0  0  0  0  0  0  0  0  0
   -1.2371   21.4414  -22.9682 C   0  0  0  0  0  0  0  0  0  0  0  0
   -2.6208   21.5461  -23.1499 C   0  0  0  0  0  0  0  0  0  0  0  0
   -3.3977   21.2770  -22.2059 O   0  0  0  0  0  0  0  0  0  0  0  0
   -3.1636   21.9314  -24.3169 N   0  0  0  0  0  0  0  0  0  0  0  0
   -2.3527   22.2355  -25.3727 C   0  0  0  0  0  0  0  0  0  0  0  0
   -2.9139   22.6151  -26.5333 N   0  0  0  0  0  0  0  0  0  0  0  0
   -0.7250   21.0298  -21.6862 C   0  0  0  0  0  0  0  0  0  0  0  0
   -0.1640   19.7609  -21.5126 C   0  0  0  0  0  0  0  0  0  0  0  0
    0.3225   19.3410  -20.2934 C   0  0  0  0  0  0  0  0  0  0  0  0
    0.2673   20.1796  -19.1928 C   0  0  0  0  0  0  0  0  0  0  0  0
   -0.2907   21.4546  -19.3480 C   0  0  0  0  0  0  0  0  0  0  0  0
   -0.7745   21.8586  -20.5790 C   0  0  0  0  0  0  0  0  0  0  0  0
   -1.4483   23.4703  -20.6981 Cl  0  0  0  0  0  0  0  0  0  0  0  0
    0.8550   18.0842  -20.2078 O   0  0  0  0  0  0  0  0  0  0  0  0
    0.1894   16.8892  -20.5165 C   0  0  0  0  0  0  0  0  0  0  0  0
   -0.3771   22.3455  -18.2916 O   0  0  0  0  0  0  0  0  0  0  0  0
   -1.3642   22.0754  -17.2916 C   0  0  0  0  0  0  0  0  0  0  0  0
   -3.8051   24.1168  -28.9159 C   0  0  0  0  0  0  0  0  0  0  0  0
   -2.6108   23.3153  -28.8317 N   0  0  0  0  0  0  0  0  0  0  0  0
   -2.1248   23.0335  -29.7009 H   0  0  0  0  0  0  0  0  0  0  0  0
   -4.5748   22.0083  -24.4675 C   0  0  0  0  0  0  0  0  0  0  0  0
   -5.1208   23.4298  -24.4310 C   0  0  0  0  0  0  0  0  0  0  0  0
   -5.6263   23.7351  -23.1891 N   0  0  0  0  0  0  0  0  0  0  0  0
   -4.9994   24.6164  -22.2966 C   0  0  0  0  0  0  0  0  0  0  0  0
   -5.9233   24.8030  -21.1150 C   0  0  0  0  0  0  0  0  0  0  0  0
   -6.9392   23.7215  -21.2446 C   0  0  0  0  0  0  0  0  0  0  0  0
   -6.6204   22.9932  -22.5388 C   0  0  0  0  0  0  0  0  0  0  0  0
   -8.2894   24.2577  -21.2318 N   0  0  0  0  0  0  0  0  0  0  0  0
   -9.1245   24.2301  -20.0915 C   0  0  0  0  0  0  0  0  0  0  0  0
   -8.6493   23.7040  -19.0327 O   0  0  0  0  0  0  0  0  0  0  0  0
   -8.6971   24.6932  -22.0965 H   0  0  0  0  0  0  0  0  0  0  0  0
  -10.4736   24.7595  -20.0532 C   0  0  0  0  0  0  0  0  0  0  0  0
  -11.4468   24.0141  -20.5988 C   0  0  0  0  0  0  0  0  0  0  0  0
 23 24  1  0  0  0
 24  1  1  0  0  0
  1  2  2  0  0  0
  2  3  1  0  0  0
  3  4  2  0  0  0
  4  5  1  0  0  0
  5  6  2  0  0  0
  6 12  1  0  0  0
 12 13  2  0  0  0
 13 14  1  0  0  0
 14 19  1  0  0  0
 19 20  1  0  0  0
 14 15  2  0  0  0
 15 16  1  0  0  0
 16 21  1  0  0  0
 21 22  1  0  0  0
 16 17  2  0  0  0
 17 18  1  0  0  0
  6  7  1  0  0  0
  7  8  2  0  0  0
  7  9  1  0  0  0
  9 26  1  0  0  0
 26 27  1  0  0  0
 27 28  1  0  0  0
 28 29  1  0  0  0
 29 30  1  0  0  0
 30 31  1  0  0  0
 31 32  1  0  0  0
 31 33  1  0  0  0
 33 34  1  0  0  0
 34 35  2  0  0  0
 34 37  1  0  0  0
 37 38  2  0  0  0
  9 10  1  0  0  0
 10 11  2  0  0  0
 11  1  1  0  0  0
 10  4  1  0  0  0
 17 12  1  0  0  0
 32 28  1  0  0  0
 24 25  1  0  0  0
 33 36  1  0  0  0
M  END
> <minimizedAffinity>
-7.26987

> <CNNscore>
0.2669112682

> <CNNaffinity>
6.9025893211

> <CNN_VS>
1.8423788548

> <CNNaffinity_variance>
0.1468151808

$$$$
[H]C([H])=C([H])C(=O)N([H])[C@@]1([H])C([H])([H])N(C([H])([H])C([H])([H])n2c(=O)c(-c3c([H])c(OC([H])([H])[H])c([H])c(OC([H])([H])[H])c3Cl)c([H])c3c([H])nc(N([H])C([H])([H])[H])nc32)C([H])([H])C1([H])[H]


 38 41  0  0  0  0  0  0  0  0999 V2000
   -1.1266   22.4543  -26.4789 C   0  0  0  0  0  0  0  0  0  0  0  0
    0.1412   22.0028  -26.4155 N   0  0  0  0  0  0  0  0  0  0  0  0
    0.7708   21.6569  -25.2813 C   0  0  0  0  0  0  0  0  0  0  0  0
    0.0257   21.7896  -24.1163 C   0  0  0  0  0  0  0  0  0  0  0  0
    0.6454   21.4360  -22.9225 C   0  0  0  0  0  0  0  0  0  0  0  0
   -0.1025   21.5674  -21.7788 C   0  0  0  0  0  0  0  0  0  0  0  0
   -1.4175   22.0385  -21.8646 C   0  0  0  0  0  0  0  0  0  0  0  0
   -2.1065   22.1626  -20.8267 O   0  0  0  0  0  0  0  0  0  0  0  0
   -1.9851   22.3711  -23.0361 N   0  0  0  0  0  0  0  0  0  0  0  0
   -1.2691   22.2520  -24.1927 C   0  0  0  0  0  0  0  0  0  0  0  0
   -1.8548   22.5856  -25.3553 N   0  0  0  0  0  0  0  0  0  0  0  0
    0.4437   21.2376  -20.4873 C   0  0  0  0  0  0  0  0  0  0  0  0
    0.8764   22.2408  -19.6148 C   0  0  0  0  0  0  0  0  0  0  0  0
    1.4121   21.9492  -18.3790 C   0  0  0  0  0  0  0  0  0  0  0  0
    1.5362   20.6339  -17.9641 C   0  0  0  0  0  0  0  0  0  0  0  0
    1.1075   19.6155  -18.8245 C   0  0  0  0  0  0  0  0  0  0  0  0
    0.5730   19.9272  -20.0614 C   0  0  0  0  0  0  0  0  0  0  0  0
    0.0494   18.6010  -21.0778 Cl  0  0  0  0  0  0  0  0  0  0  0  0
    1.8120   22.9891  -17.5858 O   0  0  0  0  0  0  0  0  0  0  0  0
    3.1396   23.3571  -17.3243 C   0  0  0  0  0  0  0  0  0  0  0  0
    1.2003   18.2791  -18.4747 O   0  0  0  0  0  0  0  0  0  0  0  0
    2.0926   17.9462  -17.4069 C   0  0  0  0  0  0  0  0  0  0  0  0
   -2.9993   23.3560  -27.8703 C   0  0  0  0  0  0  0  0  0  0  0  0
   -1.6801   22.7870  -27.7624 N   0  0  0  0  0  0  0  0  0  0  0  0
   -1.1276   22.6166  -28.6208 H   0  0  0  0  0  0  0  0  0  0  0  0
   -3.3298   22.8289  -23.0839 C   0  0  0  0  0  0  0  0  0  0  0  0
   -4.3627   21.7217  -22.9190 C   0  0  0  0  0  0  0  0  0  0  0  0
   -5.4249   22.1441  -22.1545 N   0  0  0  0  0  0  0  0  0  0  0  0
   -6.7424   21.7089  -22.3573 C   0  0  0  0  0  0  0  0  0  0  0  0
   -7.5873   22.2762  -21.2397 C   0  0  0  0  0  0  0  0  0  0  0  0
   -6.7349   23.3175  -20.6015 C   0  0  0  0  0  0  0  0  0  0  0  0
   -5.3955   23.2654  -21.3159 C   0  0  0  0  0  0  0  0  0  0  0  0
   -6.6061   23.0945  -19.1717 N   0  0  0  0  0  0  0  0  0  0  0  0
   -6.3615   24.1323  -18.2434 C   0  0  0  0  0  0  0  0  0  0  0  0
   -6.2519   25.3147  -18.7054 O   0  0  0  0  0  0  0  0  0  0  0  0
   -6.6920   22.1259  -18.7744 H   0  0  0  0  0  0  0  0  0  0  0  0
   -6.2307   23.9356  -16.8130 C   0  0  0  0  0  0  0  0  0  0  0  0
   -5.1845   24.5120  -16.2020 C   0  0  0  0  0  0  0  0  0  0  0  0
 23 24  1  0  0  0
 24  1  1  0  0  0
  1  2  2  0  0  0
  2  3  1  0  0  0
  3  4  2  0  0  0
  4  5  1  0  0  0
  5  6  2  0  0  0
  6 12  1  0  0  0
 12 13  2  0  0  0
 13 14  1  0  0  0
 14 19  1  0  0  0
 19 20  1  0  0  0
 14 15  2  0  0  0
 15 16  1  0  0  0
 16 21  1  0  0  0
 21 22  1  0  0  0
 16 17  2  0  0  0
 17 18  1  0  0  0
  6  7  1  0  0  0
  7  8  2  0  0  0
  7  9  1  0  0  0
  9 26  1  0  0  0
 26 27  1  0  0  0
 27 28  1  0  0  0
 28 29  1  0  0  0
 29 30  1  0  0  0
 30 31  1  0  0  0
 31 32  1  0  0  0
 31 33  1  0  0  0
 33 34  1  0  0  0
 34 35  2  0  0  0
 34 37  1  0  0  0
 37 38  2  0  0  0
  9 10  1  0  0  0
 10 11  2  0  0  0
 11  1  1  0  0  0
 10  4  1  0  0  0
 17 12  1  0  0  0
 32 28  1  0  0  0
 24 25  1  0  0  0
 33 36  1  0  0  0
M  END
> <minimizedAffinity>
-6.47998

> <CNNscore>
0.2630461156

> <CNNaffinity>
6.7172660828

> <CNN_VS>
1.7669507265

> <CNNaffinity_variance>
0.1393316984

$$$$
[H]C([H])=C([H])C(=O)N([H])[C@@]1([H])C([H])([H])N(C([H])([H])C([H])([H])n2c(=O)c(-c3c([H])c(OC([H])([H])[H])c([H])c(OC([H])([H])[H])c3Cl)c([H])c3c([H])nc(N([H])C([H])([H])[H])nc32)C([H])([H])C1([H])[H]


 38 41  0  0  0  0  0  0  0  0999 V2000
   -5.1415   24.7251  -28.9642 C   0  0  0  0  0  0  0  0  0  0  0  0
   -4.4361   23.6503  -29.3672 N   0  0  0  0  0  0  0  0  0  0  0  0
   -3.6159   22.9379  -28.5783 C   0  0  0  0  0  0  0  0  0  0  0  0
   -3.5182   23.3748  -27.2632 C   0  0  0  0  0  0  0  0  0  0  0  0
   -2.6802   22.6573  -26.4163 C   0  0  0  0  0  0  0  0  0  0  0  0
   -2.5954   23.0963  -25.1183 C   0  0  0  0  0  0  0  0  0  0  0  0
   -3.3354   24.2148  -24.7184 C   0  0  0  0  0  0  0  0  0  0  0  0
   -3.2633   24.6227  -23.5370 O   0  0  0  0  0  0  0  0  0  0  0  0
   -4.1361   24.8847  -25.5641 N   0  0  0  0  0  0  0  0  0  0  0  0
   -4.2436   24.4744  -26.8621 C   0  0  0  0  0  0  0  0  0  0  0  0
   -5.0525   25.1544  -27.6923 N   0  0  0  0  0  0  0  0  0  0  0  0
   -1.7507   22.4319  -24.1590 C   0  0  0  0  0  0  0  0  0  0  0  0
   -2.2483   22.0503  -22.9093 C   0  0  0  0  0  0  0  0  0  0  0  0
   -1.4566   21.4232  -21.9715 C   0  0  0  0  0  0  0  0  0  0  0  0
   -0.1275   21.1508  -22.2489 C   0  0  0  0  0  0  0  0  0  0  0  0
    0.3881   21.5253  -23.4959 C   0  0  0  0  0  0  0  0  0  0  0  0
   -0.4212   22.1543  -24.4244 C   0  0  0  0  0  0  0  0  0  0  0  0
    0.2914   22.5832  -25.9652 Cl  0  0  0  0  0  0  0  0  0  0  0  0
   -2.0203   21.0832  -20.7727 O   0  0  0  0  0  0  0  0  0  0  0  0
   -1.3217   20.7263  -19.6104 C   0  0  0  0  0  0  0  0  0  0  0  0
    1.7068   21.2832  -23.8414 O   0  0  0  0  0  0  0  0  0  0  0  0
    2.6109   20.9677  -22.7782 C   0  0  0  0  0  0  0  0  0  0  0  0
   -5.4180   26.2024  -30.9634 C   0  0  0  0  0  0  0  0  0  0  0  0
   -5.9861   25.3951  -29.9140 N   0  0  0  0  0  0  0  0  0  0  0  0
   -7.0143   25.2991  -29.8458 H   0  0  0  0  0  0  0  0  0  0  0  0
   -4.8856   26.0057  -25.1152 C   0  0  0  0  0  0  0  0  0  0  0  0
   -6.3870   25.7567  -25.0529 C   0  0  0  0  0  0  0  0  0  0  0  0
   -6.7248   25.0402  -23.9288 N   0  0  0  0  0  0  0  0  0  0  0  0
   -6.9198   23.6516  -23.9291 C   0  0  0  0  0  0  0  0  0  0  0  0
   -7.1313   23.2203  -22.4959 C   0  0  0  0  0  0  0  0  0  0  0  0
   -7.3765   24.4830  -21.7449 C   0  0  0  0  0  0  0  0  0  0  0  0
   -7.2197   25.6112  -22.7496 C   0  0  0  0  0  0  0  0  0  0  0  0
   -6.4671   24.6162  -20.6198 N   0  0  0  0  0  0  0  0  0  0  0  0
   -6.8563   24.4019  -19.2777 C   0  0  0  0  0  0  0  0  0  0  0  0
   -8.0702   24.0765  -19.0670 O   0  0  0  0  0  0  0  0  0  0  0  0
   -5.4637   24.8854  -20.7757 H   0  0  0  0  0  0  0  0  0  0  0  0
   -5.9679   24.5269  -18.1389 C   0  0  0  0  0  0  0  0  0  0  0  0
   -6.2243   23.7619  -17.0669 C   0  0  0  0  0  0  0  0  0  0  0  0
 23 24  1  0  0  0
 24  1  1  0  0  0
  1  2  2  0  0  0
  2  3  1  0  0  0
  3  4  2  0  0  0
  4  5  1  0  0  0
  5  6  2  0  0  0
  6 12  1  0  0  0
 12 13  2  0  0  0
 13 14  1  0  0  0
 14 19  1  0  0  0
 19 20  1  0  0  0
 14 15  2  0  0  0
 15 16  1  0  0  0
 16 21  1  0  0  0
 21 22  1  0  0  0
 16 17  2  0  0  0
 17 18  1  0  0  0
  6  7  1  0  0  0
  7  8  2  0  0  0
  7  9  1  0  0  0
  9 26  1  0  0  0
 26 27  1  0  0  0
 27 28  1  0  0  0
 28 29  1  0  0  0
 29 30  1  0  0  0
 30 31  1  0  0  0
 31 32  1  0  0  0
 31 33  1  0  0  0
 33 34  1  0  0  0
 34 35  2  0  0  0
 34 37  1  0  0  0
 37 38  2  0  0  0
  9 10  1  0  0  0
 10 11  2  0  0  0
 11  1  1  0  0  0
 10  4  1  0  0  0
 17 12  1  0  0  0
 32 28  1  0  0  0
 24 25  1  0  0  0
 33 36  1  0  0  0
M  END
> <minimizedAffinity>
-8.22181

> <CNNscore>
0.2506572008

> <CNNaffinity>
7.0894556046

> <CNN_VS>
1.7770230770

> <CNNaffinity_variance>
0.2076938152

$$$$
[H]c1nc(N([H])[H])c(-c2nn(-c3c([H])c(F)c([H])c(OC([H])([H])[H])c3[H])c(=O)c([H])c2[H])nc1-c1c([H])nn(C2([H])C([H])([H])C([H])([H])N(C([H])([H])C(F)(F)F)C([H])([H])C2([H])[H])c1[H]


 41 45  0  0  0  0  0  0  0  0999 V2000
    0.2115   21.4986  -22.9515 C   0  0  0  0  0  0  0  0  0  0  0  0
   -1.0852   21.8762  -23.0172 N   0  0  0  0  0  0  0  0  0  0  0  0
   -1.6478   22.3452  -24.1239 C   0  0  0  0  0  0  0  0  0  0  0  0
   -0.8920   22.4603  -25.2704 C   0  0  0  0  0  0  0  0  0  0  0  0
    0.4020   22.0993  -25.2611 N   0  0  0  0  0  0  0  0  0  0  0  0
    0.9386   21.6267  -24.1160 C   0  0  0  0  0  0  0  0  0  0  0  0
    2.3037   21.2431  -24.0972 N   0  0  0  0  0  0  0  0  0  0  0  0
    2.6353   20.2718  -24.2587 H   0  0  0  0  0  0  0  0  0  0  0  0
    3.0117   21.9810  -23.9103 H   0  0  0  0  0  0  0  0  0  0  0  0
    2.3617   21.1472  -20.0076 N   0  0  0  0  0  0  0  0  0  0  0  0
    1.8202   21.6256  -21.1297 N   0  0  0  0  0  0  0  0  0  0  0  0
    0.8081   20.9904  -21.7358 C   0  0  0  0  0  0  0  0  0  0  0  0
    0.3398   19.8285  -21.1698 C   0  0  0  0  0  0  0  0  0  0  0  0
    0.8817   19.3088  -20.0071 C   0  0  0  0  0  0  0  0  0  0  0  0
    1.9239   20.0156  -19.4345 C   0  0  0  0  0  0  0  0  0  0  0  0
    2.4193   19.5410  -18.3716 O   0  0  0  0  0  0  0  0  0  0  0  0
    4.2409   23.3785  -17.7427 C   0  0  0  0  0  0  0  0  0  0  0  0
    5.5188   23.2217  -18.2112 C   0  0  0  0  0  0  0  0  0  0  0  0
    5.7965   22.3842  -19.2776 C   0  0  0  0  0  0  0  0  0  0  0  0
    7.0416   22.1998  -19.7718 F   0  0  0  0  0  0  0  0  0  0  0  0
    4.7276   21.7177  -19.8434 C   0  0  0  0  0  0  0  0  0  0  0  0
    3.4321   21.8528  -19.3971 C   0  0  0  0  0  0  0  0  0  0  0  0
    3.1871   22.7023  -18.3234 C   0  0  0  0  0  0  0  0  0  0  0  0
    3.5418   23.7704  -15.4101 C   0  0  0  0  0  0  0  0  0  0  0  0
    3.9487   24.2150  -16.6742 O   0  0  0  0  0  0  0  0  0  0  0  0
   -3.0644   22.7433  -24.1429 C   0  0  0  0  0  0  0  0  0  0  0  0
   -4.0571   22.1952  -24.9417 C   0  0  0  0  0  0  0  0  0  0  0  0
   -5.1920   22.8365  -24.6495 N   0  0  0  0  0  0  0  0  0  0  0  0
   -5.0122   23.7565  -23.7247 N   0  0  0  0  0  0  0  0  0  0  0  0
   -3.7069   23.7117  -23.4021 C   0  0  0  0  0  0  0  0  0  0  0  0
   -6.0413   24.6269  -23.1834 C   0  0  0  0  0  0  0  0  0  0  0  0
   -7.4146   24.2407  -23.6796 C   0  0  0  0  0  0  0  0  0  0  0  0
   -8.3864   25.2723  -23.1499 C   0  0  0  0  0  0  0  0  0  0  0  0
   -8.4157   25.3079  -21.6904 N   0  0  0  0  0  0  0  0  0  0  0  0
   -7.0970   25.5951  -21.2223 C   0  0  0  0  0  0  0  0  0  0  0  0
   -6.0601   24.5597  -21.6586 C   0  0  0  0  0  0  0  0  0  0  0  0
   -9.0229   24.1226  -21.1908 C   0  0  0  0  0  0  0  0  0  0  0  0
  -10.2312   24.3350  -20.3282 C   0  0  0  0  0  0  0  0  0  0  0  0
  -11.3137   23.8040  -21.0164 F   0  0  0  0  0  0  0  0  0  0  0  0
  -10.0574   23.5502  -19.1734 F   0  0  0  0  0  0  0  0  0  0  0  0
  -10.4198   25.6058  -19.8889 F   0  0  0  0  0  0  0  0  0  0  0  0
 24 25  1  0  0  0
 25 17  1  0  0  0
 17 18  2  0  0  0
 18 19  1  0  0  0
 19 20  1  0  0  0
 19 21  2  0  0  0
 21 22  1  0  0  0
 22 23  2  0  0  0
 22 10  1  0  0  0
 10 11  1  0  0  0
 11 12  2  0  0  0
 12 13  1  0  0  0
 13 14  2  0  0  0
 14 15  1  0  0  0
 15 16  2  0  0  0
 12  1  1  0  0  0
  1  2  2  0  0  0
  2  3  1  0  0  0
  3  4  2  0  0  0
  4  5  1  0  0  0
  5  6  2  0  0  0
  6  7  1  0  0  0
  3 26  1  0  0  0
 26 27  1  0  0  0
 27 28  2  0  0  0
 28 29  1  0  0  0
 29 30  1  0  0  0
 29 31  1  0  0  0
 31 32  1  0  0  0
 32 33  1  0  0  0
 33 34  1  0  0  0
 34 37  1  0  0  0
 37 38  1  0  0  0
 38 39  1  0  0  0
 38 40  1  0  0  0
 38 41  1  0  0  0
 34 35  1  0  0  0
 35 36  1  0  0  0
 23 17  1  0  0  0
 15 10  1  0  0  0
  6  1  1  0  0  0
 30 26  2  0  0  0
 36 31  1  0  0  0
  7  8  1  0  0  0
  7  9  1  0  0  0
M  END
> <minimizedAffinity>
-7.96341

> <CNNscore>
0.1903322488

> <CNNaffinity>
6.7391304970

> <CNN_VS>
1.2826738358

> <CNNaffinity_variance>
0.0420680568

$$$$
[H]c1nc(N([H])[H])c(-c2nn(-c3c([H])c(F)c([H])c(OC([H])([H])[H])c3[H])c(=O)c([H])c2[H])nc1-c1c([H])nn(C2([H])C([H])([H])C([H])([H])N(C([H])([H])C(F)(F)F)C([H])([H])C2([H])[H])c1[H]


 41 45  0  0  0  0  0  0  0  0999 V2000
   -1.3365   21.9356  -23.3052 C   0  0  0  0  0  0  0  0  0  0  0  0
   -0.5358   21.0382  -22.6871 N   0  0  0  0  0  0  0  0  0  0  0  0
   -0.6442   20.7373  -21.3992 C   0  0  0  0  0  0  0  0  0  0  0  0
   -1.6117   21.3575  -20.6387 C   0  0  0  0  0  0  0  0  0  0  0  0
   -2.4346   22.2576  -21.2023 N   0  0  0  0  0  0  0  0  0  0  0  0
   -2.2934   22.5373  -22.5154 C   0  0  0  0  0  0  0  0  0  0  0  0
   -3.1577   23.4860  -23.1186 N   0  0  0  0  0  0  0  0  0  0  0  0
   -4.0384   23.2375  -23.6105 H   0  0  0  0  0  0  0  0  0  0  0  0
   -2.8904   24.4891  -23.0629 H   0  0  0  0  0  0  0  0  0  0  0  0
   -2.1022   22.9938  -26.7267 N   0  0  0  0  0  0  0  0  0  0  0  0
   -2.2380   22.7044  -25.4311 N   0  0  0  0  0  0  0  0  0  0  0  0
   -1.2031   22.2519  -24.7103 C   0  0  0  0  0  0  0  0  0  0  0  0
    0.0071   22.0928  -25.3423 C   0  0  0  0  0  0  0  0  0  0  0  0
    0.1776   22.3847  -26.6845 C   0  0  0  0  0  0  0  0  0  0  0  0
   -0.9325   22.8475  -27.3679 C   0  0  0  0  0  0  0  0  0  0  0  0
   -0.7770   23.1146  -28.5946 O   0  0  0  0  0  0  0  0  0  0  0  0
   -4.9137   25.1250  -27.8191 C   0  0  0  0  0  0  0  0  0  0  0  0
   -5.4071   24.3995  -28.8714 C   0  0  0  0  0  0  0  0  0  0  0  0
   -4.8335   23.1977  -29.2485 C   0  0  0  0  0  0  0  0  0  0  0  0
   -5.2875   22.4499  -30.2797 F   0  0  0  0  0  0  0  0  0  0  0  0
   -3.7450   22.7677  -28.5155 C   0  0  0  0  0  0  0  0  0  0  0  0
   -3.2246   23.4721  -27.4531 C   0  0  0  0  0  0  0  0  0  0  0  0
   -3.8243   24.6763  -27.1000 C   0  0  0  0  0  0  0  0  0  0  0  0
   -5.4874   26.8143  -26.1160 C   0  0  0  0  0  0  0  0  0  0  0  0
   -5.4793   26.3317  -27.4306 O   0  0  0  0  0  0  0  0  0  0  0  0
    0.2531   19.7528  -20.7736 C   0  0  0  0  0  0  0  0  0  0  0  0
   -0.0791   18.8786  -19.7493 C   0  0  0  0  0  0  0  0  0  0  0  0
    1.0147   18.1614  -19.4778 N   0  0  0  0  0  0  0  0  0  0  0  0
    2.0288   18.5024  -20.2455 N   0  0  0  0  0  0  0  0  0  0  0  0
    1.5760   19.4816  -21.0493 C   0  0  0  0  0  0  0  0  0  0  0  0
    3.3570   17.9159  -20.2058 C   0  0  0  0  0  0  0  0  0  0  0  0
    3.3128   16.4225  -20.4273 C   0  0  0  0  0  0  0  0  0  0  0  0
    4.7236   15.9042  -20.2538 C   0  0  0  0  0  0  0  0  0  0  0  0
    5.6508   16.4871  -21.2196 N   0  0  0  0  0  0  0  0  0  0  0  0
    5.6301   17.9066  -21.0605 C   0  0  0  0  0  0  0  0  0  0  0  0
    4.2487   18.5217  -21.2863 C   0  0  0  0  0  0  0  0  0  0  0  0
    5.3673   15.9898  -22.5216 C   0  0  0  0  0  0  0  0  0  0  0  0
    6.5617   15.5485  -23.3141 C   0  0  0  0  0  0  0  0  0  0  0  0
    7.5460   15.2036  -22.3978 F   0  0  0  0  0  0  0  0  0  0  0  0
    6.1980   14.3669  -23.9859 F   0  0  0  0  0  0  0  0  0  0  0  0
    6.9754   16.4113  -24.2773 F   0  0  0  0  0  0  0  0  0  0  0  0
 24 25  1  0  0  0
 25 17  1  0  0  0
 17 18  2  0  0  0
 18 19  1  0  0  0
 19 20  1  0  0  0
 19 21  2  0  0  0
 21 22  1  0  0  0
 22 23  2  0  0  0
 22 10  1  0  0  0
 10 11  1  0  0  0
 11 12  2  0  0  0
 12 13  1  0  0  0
 13 14  2  0  0  0
 14 15  1  0  0  0
 15 16  2  0  0  0
 12  1  1  0  0  0
  1  2  2  0  0  0
  2  3  1  0  0  0
  3  4  2  0  0  0
  4  5  1  0  0  0
  5  6  2  0  0  0
  6  7  1  0  0  0
  3 26  1  0  0  0
 26 27  1  0  0  0
 27 28  2  0  0  0
 28 29  1  0  0  0
 29 30  1  0  0  0
 29 31  1  0  0  0
 31 32  1  0  0  0
 32 33  1  0  0  0
 33 34  1  0  0  0
 34 37  1  0  0  0
 37 38  1  0  0  0
 38 39  1  0  0  0
 38 40  1  0  0  0
 38 41  1  0  0  0
 34 35  1  0  0  0
 35 36  1  0  0  0
 23 17  1  0  0  0
 15 10  1  0  0  0
  6  1  1  0  0  0
 30 26  2  0  0  0
 36 31  1  0  0  0
  7  8  1  0  0  0
  7  9  1  0  0  0
M  END
> <minimizedAffinity>
-8.37155

> <CNNscore>
0.1679324955

> <CNNaffinity>
7.0278291702

> <CNN_VS>
1.1802009344

> <CNNaffinity_variance>
0.0818830281

$$$$
[H]c1nc(N([H])[H])c(-c2nn(-c3c([H])c(F)c([H])c(OC([H])([H])[H])c3[H])c(=O)c([H])c2[H])nc1-c1c([H])nn(C2([H])C([H])([H])C([H])([H])N(C([H])([H])C(F)(F)F)C([H])([H])C2([H])[H])c1[H]


 41 45  0  0  0  0  0  0  0  0999 V2000
   -0.6755   21.8497  -23.8668 C   0  0  0  0  0  0  0  0  0  0  0  0
    0.5038   21.4539  -23.3365 N   0  0  0  0  0  0  0  0  0  0  0  0
    0.6400   21.0825  -22.0698 C   0  0  0  0  0  0  0  0  0  0  0  0
   -0.4598   21.0935  -21.2397 C   0  0  0  0  0  0  0  0  0  0  0  0
   -1.6562   21.4780  -21.7147 N   0  0  0  0  0  0  0  0  0  0  0  0
   -1.7550   21.8489  -23.0089 C   0  0  0  0  0  0  0  0  0  0  0  0
   -3.0141   22.2560  -23.5189 N   0  0  0  0  0  0  0  0  0  0  0  0
   -3.6783   21.6184  -24.0001 H   0  0  0  0  0  0  0  0  0  0  0  0
   -3.2847   23.2529  -23.4019 H   0  0  0  0  0  0  0  0  0  0  0  0
   -2.0601   23.1121  -27.0135 N   0  0  0  0  0  0  0  0  0  0  0  0
   -1.9533   22.7431  -25.7355 N   0  0  0  0  0  0  0  0  0  0  0  0
   -0.8050   22.2522  -25.2500 C   0  0  0  0  0  0  0  0  0  0  0  0
    0.2647   22.1380  -26.1057 C   0  0  0  0  0  0  0  0  0  0  0  0
    0.1833   22.5126  -27.4357 C   0  0  0  0  0  0  0  0  0  0  0  0
   -1.0319   23.0111  -27.8698 C   0  0  0  0  0  0  0  0  0  0  0  0
   -1.1067   23.3538  -29.0853 O   0  0  0  0  0  0  0  0  0  0  0  0
   -4.9993   25.3061  -27.4465 C   0  0  0  0  0  0  0  0  0  0  0  0
   -5.6982   24.6307  -28.4122 C   0  0  0  0  0  0  0  0  0  0  0  0
   -5.2262   23.4432  -28.9440 C   0  0  0  0  0  0  0  0  0  0  0  0
   -5.8827   22.7445  -29.8977 F   0  0  0  0  0  0  0  0  0  0  0  0
   -4.0224   22.9749  -28.4560 C   0  0  0  0  0  0  0  0  0  0  0  0
   -3.2953   23.6287  -27.4865 C   0  0  0  0  0  0  0  0  0  0  0  0
   -3.7976   24.8197  -26.9730 C   0  0  0  0  0  0  0  0  0  0  0  0
   -5.0450   27.0208  -25.6742 C   0  0  0  0  0  0  0  0  0  0  0  0
   -5.4612   26.4977  -26.9048 O   0  0  0  0  0  0  0  0  0  0  0  0
    1.9469   20.6602  -21.5410 C   0  0  0  0  0  0  0  0  0  0  0  0
    2.9709   20.0704  -22.2672 C   0  0  0  0  0  0  0  0  0  0  0  0
    3.9757   19.8478  -21.4154 N   0  0  0  0  0  0  0  0  0  0  0  0
    3.6828   20.2469  -20.1952 N   0  0  0  0  0  0  0  0  0  0  0  0
    2.4364   20.7497  -20.2558 C   0  0  0  0  0  0  0  0  0  0  0  0
    4.5562   20.1495  -19.0388 C   0  0  0  0  0  0  0  0  0  0  0  0
    5.9357   20.6877  -19.3362 C   0  0  0  0  0  0  0  0  0  0  0  0
    6.7866   20.4349  -18.1110 C   0  0  0  0  0  0  0  0  0  0  0  0
    6.2701   21.1165  -16.9274 N   0  0  0  0  0  0  0  0  0  0  0  0
    4.9354   20.6633  -16.6957 C   0  0  0  0  0  0  0  0  0  0  0  0
    3.9893   20.9420  -17.8640 C   0  0  0  0  0  0  0  0  0  0  0  0
    6.4495   22.5210  -17.0625 C   0  0  0  0  0  0  0  0  0  0  0  0
    6.3601   23.3050  -15.7871 C   0  0  0  0  0  0  0  0  0  0  0  0
    7.1151   22.6223  -14.8429 F   0  0  0  0  0  0  0  0  0  0  0  0
    7.0047   24.5352  -16.0125 F   0  0  0  0  0  0  0  0  0  0  0  0
    5.1030   23.6136  -15.3775 F   0  0  0  0  0  0  0  0  0  0  0  0
 24 25  1  0  0  0
 25 17  1  0  0  0
 17 18  2  0  0  0
 18 19  1  0  0  0
 19 20  1  0  0  0
 19 21  2  0  0  0
 21 22  1  0  0  0
 22 23  2  0  0  0
 22 10  1  0  0  0
 10 11  1  0  0  0
 11 12  2  0  0  0
 12 13  1  0  0  0
 13 14  2  0  0  0
 14 15  1  0  0  0
 15 16  2  0  0  0
 12  1  1  0  0  0
  1  2  2  0  0  0
  2  3  1  0  0  0
  3  4  2  0  0  0
  4  5  1  0  0  0
  5  6  2  0  0  0
  6  7  1  0  0  0
  3 26  1  0  0  0
 26 27  1  0  0  0
 27 28  2  0  0  0
 28 29  1  0  0  0
 29 30  1  0  0  0
 29 31  1  0  0  0
 31 32  1  0  0  0
 32 33  1  0  0  0
 33 34  1  0  0  0
 34 37  1  0  0  0
 37 38  1  0  0  0
 38 39  1  0  0  0
 38 40  1  0  0  0
 38 41  1  0  0  0
 34 35  1  0  0  0
 35 36  1  0  0  0
 23 17  1  0  0  0
 15 10  1  0  0  0
  6  1  1  0  0  0
 30 26  2  0  0  0
 36 31  1  0  0  0
  7  8  1  0  0  0
  7  9  1  0  0  0
M  END
> <minimizedAffinity>
-8.73583

> <CNNscore>
0.1444689184

> <CNNaffinity>
6.7198190689

> <CNN_VS>
0.9708049893

> <CNNaffinity_variance>
0.0723223165

$$$$
[H]c1nc(N([H])[H])c(-c2nn(-c3c([H])c(F)c([H])c(OC([H])([H])[H])c3[H])c(=O)c([H])c2[H])nc1-c1c([H])nn(C2([H])C([H])([H])C([H])([H])N(C([H])([H])C(F)(F)F)C([H])([H])C2([H])[H])c1[H]


 41 45  0  0  0  0  0  0  0  0999 V2000
   -1.3290   21.9864  -23.1626 C   0  0  0  0  0  0  0  0  0  0  0  0
   -0.2314   21.8400  -22.3866 N   0  0  0  0  0  0  0  0  0  0  0  0
   -0.2926   21.5648  -21.0899 C   0  0  0  0  0  0  0  0  0  0  0  0
   -1.5230   21.4174  -20.4871 C   0  0  0  0  0  0  0  0  0  0  0  0
   -2.6464   21.5523  -21.2114 N   0  0  0  0  0  0  0  0  0  0  0  0
   -2.5434   21.8324  -22.5279 C   0  0  0  0  0  0  0  0  0  0  0  0
   -3.7241   21.9764  -23.3002 N   0  0  0  0  0  0  0  0  0  0  0  0
   -4.1602   21.2046  -23.8418 H   0  0  0  0  0  0  0  0  0  0  0  0
   -4.1770   22.9119  -23.3228 H   0  0  0  0  0  0  0  0  0  0  0  0
   -2.1955   23.0546  -26.5569 N   0  0  0  0  0  0  0  0  0  0  0  0
   -2.2876   22.7798  -25.2542 N   0  0  0  0  0  0  0  0  0  0  0  0
   -1.2430   22.2874  -24.5748 C   0  0  0  0  0  0  0  0  0  0  0  0
   -0.0692   22.0716  -25.2568 C   0  0  0  0  0  0  0  0  0  0  0  0
    0.0555   22.3471  -26.6075 C   0  0  0  0  0  0  0  0  0  0  0  0
   -1.0621   22.8534  -27.2464 C   0  0  0  0  0  0  0  0  0  0  0  0
   -0.9485   23.1055  -28.4809 O   0  0  0  0  0  0  0  0  0  0  0  0
   -4.9985   25.2662  -27.5015 C   0  0  0  0  0  0  0  0  0  0  0  0
   -5.5261   24.5892  -28.5695 C   0  0  0  0  0  0  0  0  0  0  0  0
   -4.9792   23.3950  -29.0056 C   0  0  0  0  0  0  0  0  0  0  0  0
   -5.4673   22.6944  -30.0542 F   0  0  0  0  0  0  0  0  0  0  0  0
   -3.8812   22.9215  -28.3149 C   0  0  0  0  0  0  0  0  0  0  0  0
   -3.3266   23.5767  -27.2384 C   0  0  0  0  0  0  0  0  0  0  0  0
   -3.9002   24.7746  -26.8255 C   0  0  0  0  0  0  0  0  0  0  0  0
   -5.1705   27.0998  -25.8608 C   0  0  0  0  0  0  0  0  0  0  0  0
   -5.5371   26.4647  -27.0539 O   0  0  0  0  0  0  0  0  0  0  0  0
    0.9329   21.4156  -20.2889 C   0  0  0  0  0  0  0  0  0  0  0  0
    1.9651   20.5217  -20.5324 C   0  0  0  0  0  0  0  0  0  0  0  0
    2.8794   20.7112  -19.5769 N   0  0  0  0  0  0  0  0  0  0  0  0
    2.5203   21.6571  -18.7341 N   0  0  0  0  0  0  0  0  0  0  0  0
    1.3235   22.1011  -19.1588 C   0  0  0  0  0  0  0  0  0  0  0  0
    3.2889   22.1066  -17.5866 C   0  0  0  0  0  0  0  0  0  0  0  0
    3.0308   23.5628  -17.2796 C   0  0  0  0  0  0  0  0  0  0  0  0
    3.9586   23.9514  -16.1495 C   0  0  0  0  0  0  0  0  0  0  0  0
    3.7130   23.1734  -14.9384 N   0  0  0  0  0  0  0  0  0  0  0  0
    3.8805   21.7900  -15.2526 C   0  0  0  0  0  0  0  0  0  0  0  0
    2.9298   21.2968  -16.3437 C   0  0  0  0  0  0  0  0  0  0  0  0
    2.4651   23.5486  -14.3685 C   0  0  0  0  0  0  0  0  0  0  0  0
    2.4507   23.6623  -12.8731 C   0  0  0  0  0  0  0  0  0  0  0  0
    1.8577   24.8802  -12.5691 F   0  0  0  0  0  0  0  0  0  0  0  0
    1.5908   22.6584  -12.3909 F   0  0  0  0  0  0  0  0  0  0  0  0
    3.6442   23.4555  -12.2597 F   0  0  0  0  0  0  0  0  0  0  0  0
 24 25  1  0  0  0
 25 17  1  0  0  0
 17 18  2  0  0  0
 18 19  1  0  0  0
 19 20  1  0  0  0
 19 21  2  0  0  0
 21 22  1  0  0  0
 22 23  2  0  0  0
 22 10  1  0  0  0
 10 11  1  0  0  0
 11 12  2  0  0  0
 12 13  1  0  0  0
 13 14  2  0  0  0
 14 15  1  0  0  0
 15 16  2  0  0  0
 12  1  1  0  0  0
  1  2  2  0  0  0
  2  3  1  0  0  0
  3  4  2  0  0  0
  4  5  1  0  0  0
  5  6  2  0  0  0
  6  7  1  0  0  0
  3 26  1  0  0  0
 26 27  1  0  0  0
 27 28  2  0  0  0
 28 29  1  0  0  0
 29 30  1  0  0  0
 29 31  1  0  0  0
 31 32  1  0  0  0
 32 33  1  0  0  0
 33 34  1  0  0  0
 34 37  1  0  0  0
 37 38  1  0  0  0
 38 39  1  0  0  0
 38 40  1  0  0  0
 38 41  1  0  0  0
 34 35  1  0  0  0
 35 36  1  0  0  0
 23 17  1  0  0  0
 15 10  1  0  0  0
  6  1  1  0  0  0
 30 26  2  0  0  0
 36 31  1  0  0  0
  7  8  1  0  0  0
  7  9  1  0  0  0
M  END
> <minimizedAffinity>
-9.08441

> <CNNscore>
0.1357110143

> <CNNaffinity>
6.7970590591

> <CNN_VS>
0.9224357605

> <CNNaffinity_variance>
0.1226051301

$$$$
[H]c1nc(N([H])[H])c(-c2nn(-c3c([H])c(F)c([H])c(OC([H])([H])[H])c3[H])c(=O)c([H])c2[H])nc1-c1c([H])nn(C2([H])C([H])([H])C([H])([H])N(C([H])([H])C(F)(F)F)C([H])([H])C2([H])[H])c1[H]


 41 45  0  0  0  0  0  0  0  0999 V2000
   -9.8243   22.7273  -18.8721 C   0  0  0  0  0  0  0  0  0  0  0  0
   -9.0573   23.1727  -19.8928 N   0  0  0  0  0  0  0  0  0  0  0  0
   -9.5405   23.8782  -20.9075 C   0  0  0  0  0  0  0  0  0  0  0  0
  -10.8842   24.1818  -20.9412 C   0  0  0  0  0  0  0  0  0  0  0  0
  -11.6923   23.7641  -19.9525 N   0  0  0  0  0  0  0  0  0  0  0  0
  -11.1637   23.0485  -18.9371 C   0  0  0  0  0  0  0  0  0  0  0  0
  -12.0093   22.6037  -17.8892 N   0  0  0  0  0  0  0  0  0  0  0  0
  -12.1551   23.1237  -17.0016 H   0  0  0  0  0  0  0  0  0  0  0  0
  -12.5114   21.7031  -18.0211 H   0  0  0  0  0  0  0  0  0  0  0  0
   -8.3487   21.8249  -15.6439 N   0  0  0  0  0  0  0  0  0  0  0  0
   -8.8478   22.5454  -16.6503 N   0  0  0  0  0  0  0  0  0  0  0  0
   -9.2803   21.9584  -17.7744 C   0  0  0  0  0  0  0  0  0  0  0  0
   -9.1965   20.5893  -17.8648 C   0  0  0  0  0  0  0  0  0  0  0  0
   -8.6836   19.8165  -16.8374 C   0  0  0  0  0  0  0  0  0  0  0  0
   -8.2555   20.4878  -15.7061 C   0  0  0  0  0  0  0  0  0  0  0  0
   -7.7869   19.7818  -14.7667 O   0  0  0  0  0  0  0  0  0  0  0  0
   -8.3410   23.3947  -12.3008 C   0  0  0  0  0  0  0  0  0  0  0  0
   -7.0296   23.7743  -12.1859 C   0  0  0  0  0  0  0  0  0  0  0  0
   -6.1176   23.5271  -13.1973 C   0  0  0  0  0  0  0  0  0  0  0  0
   -4.8153   23.8840  -13.1259 F   0  0  0  0  0  0  0  0  0  0  0  0
   -6.5921   22.8820  -14.3223 C   0  0  0  0  0  0  0  0  0  0  0  0
   -7.9029   22.4873  -14.4697 C   0  0  0  0  0  0  0  0  0  0  0  0
   -8.7938   22.7509  -13.4346 C   0  0  0  0  0  0  0  0  0  0  0  0
   -9.3330   24.8210  -10.5502 C   0  0  0  0  0  0  0  0  0  0  0  0
   -9.2657   23.6365  -11.2943 O   0  0  0  0  0  0  0  0  0  0  0  0
   -8.6626   24.3395  -21.9949 C   0  0  0  0  0  0  0  0  0  0  0  0
   -8.8251   25.4969  -22.7417 C   0  0  0  0  0  0  0  0  0  0  0  0
   -7.8177   25.5410  -23.6179 N   0  0  0  0  0  0  0  0  0  0  0  0
   -7.0159   24.5034  -23.4972 N   0  0  0  0  0  0  0  0  0  0  0  0
   -7.5227   23.7537  -22.5017 C   0  0  0  0  0  0  0  0  0  0  0  0
   -5.8292   24.2515  -24.2959 C   0  0  0  0  0  0  0  0  0  0  0  0
   -5.9157   22.9286  -25.0195 C   0  0  0  0  0  0  0  0  0  0  0  0
   -4.5927   22.7176  -25.7226 C   0  0  0  0  0  0  0  0  0  0  0  0
   -4.3134   23.7630  -26.7030 N   0  0  0  0  0  0  0  0  0  0  0  0
   -4.3111   25.0219  -26.0278 C   0  0  0  0  0  0  0  0  0  0  0  0
   -5.6397   25.3451  -25.3436 C   0  0  0  0  0  0  0  0  0  0  0  0
   -5.1992   23.6369  -27.8086 C   0  0  0  0  0  0  0  0  0  0  0  0
   -4.5578   23.2289  -29.1015 C   0  0  0  0  0  0  0  0  0  0  0  0
   -5.5141   22.5222  -29.8182 F   0  0  0  0  0  0  0  0  0  0  0  0
   -4.2966   24.4082  -29.8232 F   0  0  0  0  0  0  0  0  0  0  0  0
   -3.3646   22.5916  -28.9866 F   0  0  0  0  0  0  0  0  0  0  0  0
 24 25  1  0  0  0
 25 17  1  0  0  0
 17 18  2  0  0  0
 18 19  1  0  0  0
 19 20  1  0  0  0
 19 21  2  0  0  0
 21 22  1  0  0  0
 22 23  2  0  0  0
 22 10  1  0  0  0
 10 11  1  0  0  0
 11 12  2  0  0  0
 12 13  1  0  0  0
 13 14  2  0  0  0
 14 15  1  0  0  0
 15 16  2  0  0  0
 12  1  1  0  0  0
  1  2  2  0  0  0
  2  3  1  0  0  0
  3  4  2  0  0  0
  4  5  1  0  0  0
  5  6  2  0  0  0
  6  7  1  0  0  0
  3 26  1  0  0  0
 26 27  1  0  0  0
 27 28  2  0  0  0
 28 29  1  0  0  0
 29 30  1  0  0  0
 29 31  1  0  0  0
 31 32  1  0  0  0
 32 33  1  0  0  0
 33 34  1  0  0  0
 34 37  1  0  0  0
 37 38  1  0  0  0
 38 39  1  0  0  0
 38 40  1  0  0  0
 38 41  1  0  0  0
 34 35  1  0  0  0
 35 36  1  0  0  0
 23 17  1  0  0  0
 15 10  1  0  0  0
  6  1  1  0  0  0
 30 26  2  0  0  0
 36 31  1  0  0  0
  7  8  1  0  0  0
  7  9  1  0  0  0
M  END
> <minimizedAffinity>
-7.44755

> <CNNscore>
0.1251064092

> <CNNaffinity>
6.3404421806

> <CNN_VS>
0.7932299376

> <CNNaffinity_variance>
0.2937638760

$$$$
[H]c1nc(N([H])[H])c(-c2nn(-c3c([H])c(F)c([H])c(OC([H])([H])[H])c3[H])c(=O)c([H])c2[H])nc1-c1c([H])nn(C2([H])C([H])([H])C([H])([H])N(C([H])([H])C(F)(F)F)C([H])([H])C2([H])[H])c1[H]


 41 45  0  0  0  0  0  0  0  0999 V2000
   -0.8105   22.0851  -23.2768 C   0  0  0  0  0  0  0  0  0  0  0  0
   -0.1796   20.9929  -22.7893 N   0  0  0  0  0  0  0  0  0  0  0  0
   -0.1342   20.6999  -21.4958 C   0  0  0  0  0  0  0  0  0  0  0  0
   -0.7528   21.5350  -20.5909 C   0  0  0  0  0  0  0  0  0  0  0  0
   -1.3943   22.6343  -21.0210 N   0  0  0  0  0  0  0  0  0  0  0  0
   -1.4187   22.8988  -22.3445 C   0  0  0  0  0  0  0  0  0  0  0  0
   -2.0938   24.0569  -22.8073 N   0  0  0  0  0  0  0  0  0  0  0  0
   -3.0814   24.0623  -23.1296 H   0  0  0  0  0  0  0  0  0  0  0  0
   -1.5650   24.9518  -22.8234 H   0  0  0  0  0  0  0  0  0  0  0  0
   -2.0069   23.0327  -26.6060 N   0  0  0  0  0  0  0  0  0  0  0  0
   -1.9844   22.7536  -25.3012 N   0  0  0  0  0  0  0  0  0  0  0  0
   -0.8489   22.3891  -24.6904 C   0  0  0  0  0  0  0  0  0  0  0  0
    0.2970   22.3098  -25.4454 C   0  0  0  0  0  0  0  0  0  0  0  0
    0.3039   22.5933  -26.8002 C   0  0  0  0  0  0  0  0  0  0  0  0
   -0.9031   22.9631  -27.3659 C   0  0  0  0  0  0  0  0  0  0  0  0
   -0.8972   23.2225  -28.6041 O   0  0  0  0  0  0  0  0  0  0  0  0
   -5.1594   24.8295  -27.2942 C   0  0  0  0  0  0  0  0  0  0  0  0
   -5.6132   24.1607  -28.4004 C   0  0  0  0  0  0  0  0  0  0  0  0
   -4.9009   23.1074  -28.9470 C   0  0  0  0  0  0  0  0  0  0  0  0
   -5.3113   22.4202  -30.0369 F   0  0  0  0  0  0  0  0  0  0  0  0
   -3.7160   22.7654  -28.3257 C   0  0  0  0  0  0  0  0  0  0  0  0
   -3.2317   23.4165  -27.2134 C   0  0  0  0  0  0  0  0  0  0  0  0
   -3.9719   24.4708  -26.6889 C   0  0  0  0  0  0  0  0  0  0  0  0
   -6.0549   26.0723  -25.3611 C   0  0  0  0  0  0  0  0  0  0  0  0
   -5.8638   25.8874  -26.7361 O   0  0  0  0  0  0  0  0  0  0  0  0
    0.5665   19.4980  -21.0160 C   0  0  0  0  0  0  0  0  0  0  0  0
    1.9369   19.2852  -21.0425 C   0  0  0  0  0  0  0  0  0  0  0  0
    2.1547   18.0770  -20.5156 N   0  0  0  0  0  0  0  0  0  0  0  0
    1.0335   17.4911  -20.1502 N   0  0  0  0  0  0  0  0  0  0  0  0
    0.0459   18.3534  -20.4517 C   0  0  0  0  0  0  0  0  0  0  0  0
    0.9227   16.1758  -19.5440 C   0  0  0  0  0  0  0  0  0  0  0  0
    1.3483   16.1931  -18.0949 C   0  0  0  0  0  0  0  0  0  0  0  0
    1.3022   14.7643  -17.5996 C   0  0  0  0  0  0  0  0  0  0  0  0
   -0.0391   14.1928  -17.6804 N   0  0  0  0  0  0  0  0  0  0  0  0
   -0.4702   14.2510  -19.0411 C   0  0  0  0  0  0  0  0  0  0  0  0
   -0.5171   15.6728  -19.6016 C   0  0  0  0  0  0  0  0  0  0  0  0
   -0.8858   14.8109  -16.7190 C   0  0  0  0  0  0  0  0  0  0  0  0
   -2.1531   14.0710  -16.4099 C   0  0  0  0  0  0  0  0  0  0  0  0
   -1.8423   12.7180  -16.4279 F   0  0  0  0  0  0  0  0  0  0  0  0
   -2.5057   14.3908  -15.0858 F   0  0  0  0  0  0  0  0  0  0  0  0
   -3.2261   14.4059  -17.1714 F   0  0  0  0  0  0  0  0  0  0  0  0
 24 25  1  0  0  0
 25 17  1  0  0  0
 17 18  2  0  0  0
 18 19  1  0  0  0
 19 20  1  0  0  0
 19 21  2  0  0  0
 21 22  1  0  0  0
 22 23  2  0  0  0
 22 10  1  0  0  0
 10 11  1  0  0  0
 11 12  2  0  0  0
 12 13  1  0  0  0
 13 14  2  0  0  0
 14 15  1  0  0  0
 15 16  2  0  0  0
 12  1  1  0  0  0
  1  2  2  0  0  0
  2  3  1  0  0  0
  3  4  2  0  0  0
  4  5  1  0  0  0
  5  6  2  0  0  0
  6  7  1  0  0  0
  3 26  1  0  0  0
 26 27  1  0  0  0
 27 28  2  0  0  0
 28 29  1  0  0  0
 29 30  1  0  0  0
 29 31  1  0  0  0
 31 32  1  0  0  0
 32 33  1  0  0  0
 33 34  1  0  0  0
 34 37  1  0  0  0
 37 38  1  0  0  0
 38 39  1  0  0  0
 38 40  1  0  0  0
 38 41  1  0  0  0
 34 35  1  0  0  0
 35 36  1  0  0  0
 23 17  1  0  0  0
 15 10  1  0  0  0
  6  1  1  0  0  0
 30 26  2  0  0  0
 36 31  1  0  0  0
  7  8  1  0  0  0
  7  9  1  0  0  0
M  END
> <minimizedAffinity>
-8.04280

> <CNNscore>
0.1238723397

> <CNNaffinity>
6.6185584068

> <CNN_VS>
0.8198562860

> <CNNaffinity_variance>
0.0250488911

$$$$
[H]c1nc(N([H])[H])c(-c2nn(-c3c([H])c(F)c([H])c(OC([H])([H])[H])c3[H])c(=O)c([H])c2[H])nc1-c1c([H])nn(C2([H])C([H])([H])C([H])([H])N(C([H])([H])C(F)(F)F)C([H])([H])C2([H])[H])c1[H]


 41 45  0  0  0  0  0  0  0  0999 V2000
   -2.1058   22.0961  -22.6026 C   0  0  0  0  0  0  0  0  0  0  0  0
   -1.1297   22.1712  -21.6698 N   0  0  0  0  0  0  0  0  0  0  0  0
   -1.3478   21.9736  -20.3758 C   0  0  0  0  0  0  0  0  0  0  0  0
   -2.6216   21.6768  -19.9421 C   0  0  0  0  0  0  0  0  0  0  0  0
   -3.6292   21.5898  -20.8265 N   0  0  0  0  0  0  0  0  0  0  0  0
   -3.3680   21.7973  -22.1346 C   0  0  0  0  0  0  0  0  0  0  0  0
   -4.4255   21.7073  -23.0751 N   0  0  0  0  0  0  0  0  0  0  0  0
   -4.6588   20.8442  -23.6043 H   0  0  0  0  0  0  0  0  0  0  0  0
   -4.9991   22.5581  -23.2420 H   0  0  0  0  0  0  0  0  0  0  0  0
   -2.5194   23.0655  -26.1100 N   0  0  0  0  0  0  0  0  0  0  0  0
   -2.7680   22.8672  -24.8139 N   0  0  0  0  0  0  0  0  0  0  0  0
   -1.8497   22.3155  -24.0091 C   0  0  0  0  0  0  0  0  0  0  0  0
   -0.6400   21.9577  -24.5550 C   0  0  0  0  0  0  0  0  0  0  0  0
   -0.3542   22.1513  -25.8954 C   0  0  0  0  0  0  0  0  0  0  0  0
   -1.3475   22.7256  -26.6682 C   0  0  0  0  0  0  0  0  0  0  0  0
   -1.0866   22.9029  -27.8933 O   0  0  0  0  0  0  0  0  0  0  0  0
   -4.9919   25.4718  -27.4278 C   0  0  0  0  0  0  0  0  0  0  0  0
   -5.4662   24.7970  -28.5218 C   0  0  0  0  0  0  0  0  0  0  0  0
   -4.9901   23.5406  -28.8543 C   0  0  0  0  0  0  0  0  0  0  0  0
   -5.4295   22.8397  -29.9240 F   0  0  0  0  0  0  0  0  0  0  0  0
   -4.0184   23.0033  -28.0333 C   0  0  0  0  0  0  0  0  0  0  0  0
   -3.5203   23.6545  -26.9271 C   0  0  0  0  0  0  0  0  0  0  0  0
   -4.0201   24.9158  -26.6207 C   0  0  0  0  0  0  0  0  0  0  0  0
   -5.3890   27.2776  -25.7954 C   0  0  0  0  0  0  0  0  0  0  0  0
   -5.4606   26.7321  -27.0833 O   0  0  0  0  0  0  0  0  0  0  0  0
   -0.2500   22.0673  -19.4001 C   0  0  0  0  0  0  0  0  0  0  0  0
   -0.3836   22.2944  -18.0384 C   0  0  0  0  0  0  0  0  0  0  0  0
    0.8483   22.3055  -17.5216 N   0  0  0  0  0  0  0  0  0  0  0  0
    1.7687   22.1035  -18.4415 N   0  0  0  0  0  0  0  0  0  0  0  0
    1.1084   21.9550  -19.6041 C   0  0  0  0  0  0  0  0  0  0  0  0
    3.2018   22.0555  -18.2106 C   0  0  0  0  0  0  0  0  0  0  0  0
    3.5895   20.8677  -17.3620 C   0  0  0  0  0  0  0  0  0  0  0  0
    5.0740   20.9784  -17.0916 C   0  0  0  0  0  0  0  0  0  0  0  0
    5.8646   20.9470  -18.3189 N   0  0  0  0  0  0  0  0  0  0  0  0
    5.4395   22.0254  -19.1538 C   0  0  0  0  0  0  0  0  0  0  0  0
    3.9598   21.9527  -19.5314 C   0  0  0  0  0  0  0  0  0  0  0  0
    5.8178   19.6452  -18.8899 C   0  0  0  0  0  0  0  0  0  0  0  0
    6.6190   19.4658  -20.1450 C   0  0  0  0  0  0  0  0  0  0  0  0
    7.1317   18.1760  -20.1126 F   0  0  0  0  0  0  0  0  0  0  0  0
    5.7159   19.5186  -21.2226 F   0  0  0  0  0  0  0  0  0  0  0  0
    7.5458   20.4274  -20.3893 F   0  0  0  0  0  0  0  0  0  0  0  0
 24 25  1  0  0  0
 25 17  1  0  0  0
 17 18  2  0  0  0
 18 19  1  0  0  0
 19 20  1  0  0  0
 19 21  2  0  0  0
 21 22  1  0  0  0
 22 23  2  0  0  0
 22 10  1  0  0  0
 10 11  1  0  0  0
 11 12  2  0  0  0
 12 13  1  0  0  0
 13 14  2  0  0  0
 14 15  1  0  0  0
 15 16  2  0  0  0
 12  1  1  0  0  0
  1  2  2  0  0  0
  2  3  1  0  0  0
  3  4  2  0  0  0
  4  5  1  0  0  0
  5  6  2  0  0  0
  6  7  1  0  0  0
  3 26  1  0  0  0
 26 27  1  0  0  0
 27 28  2  0  0  0
 28 29  1  0  0  0
 29 30  1  0  0  0
 29 31  1  0  0  0
 31 32  1  0  0  0
 32 33  1  0  0  0
 33 34  1  0  0  0
 34 37  1  0  0  0
 37 38  1  0  0  0
 38 39  1  0  0  0
 38 40  1  0  0  0
 38 41  1  0  0  0
 34 35  1  0  0  0
 35 36  1  0  0  0
 23 17  1  0  0  0
 15 10  1  0  0  0
  6  1  1  0  0  0
 30 26  2  0  0  0
 36 31  1  0  0  0
  7  8  1  0  0  0
  7  9  1  0  0  0
M  END
> <minimizedAffinity>
-8.13185

> <CNNscore>
0.1061333939

> <CNNaffinity>
6.9489808083

> <CNN_VS>
0.7375189066

> <CNNaffinity_variance>
0.2049945593

$$$$
[H]c1nc(N([H])[H])c(-c2nn(-c3c([H])c(F)c([H])c(OC([H])([H])[H])c3[H])c(=O)c([H])c2[H])nc1-c1c([H])nn(C2([H])C([H])([H])C([H])([H])N(C([H])([H])C(F)(F)F)C([H])([H])C2([H])[H])c1[H]


 41 45  0  0  0  0  0  0  0  0999 V2000
   -1.7625   22.0525  -22.6686 C   0  0  0  0  0  0  0  0  0  0  0  0
   -0.7098   22.0331  -21.8201 N   0  0  0  0  0  0  0  0  0  0  0  0
   -0.8334   21.8119  -20.5175 C   0  0  0  0  0  0  0  0  0  0  0  0
   -2.0847   21.5892  -19.9850 C   0  0  0  0  0  0  0  0  0  0  0  0
   -3.1656   21.5974  -20.7829 N   0  0  0  0  0  0  0  0  0  0  0  0
   -2.9995   21.8261  -22.1029 C   0  0  0  0  0  0  0  0  0  0  0  0
   -4.1348   21.8364  -22.9526 N   0  0  0  0  0  0  0  0  0  0  0  0
   -4.4710   21.0074  -23.4810 H   0  0  0  0  0  0  0  0  0  0  0  0
   -4.6592   22.7287  -23.0497 H   0  0  0  0  0  0  0  0  0  0  0  0
   -2.4389   23.0561  -26.1252 N   0  0  0  0  0  0  0  0  0  0  0  0
   -2.5932   22.8350  -24.8182 N   0  0  0  0  0  0  0  0  0  0  0  0
   -1.6087   22.2964  -24.0860 C   0  0  0  0  0  0  0  0  0  0  0  0
   -0.4309   21.9762  -24.7182 C   0  0  0  0  0  0  0  0  0  0  0  0
   -0.2424   22.1942  -26.0720 C   0  0  0  0  0  0  0  0  0  0  0  0
   -1.3000   22.7530  -26.7668 C   0  0  0  0  0  0  0  0  0  0  0  0
   -1.1280   22.9526  -28.0042 O   0  0  0  0  0  0  0  0  0  0  0  0
   -5.0243   25.4350  -27.2638 C   0  0  0  0  0  0  0  0  0  0  0  0
   -5.5853   24.7433  -28.3050 C   0  0  0  0  0  0  0  0  0  0  0  0
   -5.1327   23.4842  -28.6591 C   0  0  0  0  0  0  0  0  0  0  0  0
   -5.6567   22.7669  -29.6787 F   0  0  0  0  0  0  0  0  0  0  0  0
   -4.0932   22.9619  -27.9152 C   0  0  0  0  0  0  0  0  0  0  0  0
   -3.5074   23.6301  -26.8635 C   0  0  0  0  0  0  0  0  0  0  0  0
   -3.9858   24.8937  -26.5334 C   0  0  0  0  0  0  0  0  0  0  0  0
   -5.1512   27.3288  -25.6887 C   0  0  0  0  0  0  0  0  0  0  0  0
   -5.4685   26.6983  -26.8983 O   0  0  0  0  0  0  0  0  0  0  0  0
    0.3451   21.8014  -19.6361 C   0  0  0  0  0  0  0  0  0  0  0  0
    1.3551   20.8508  -19.6325 C   0  0  0  0  0  0  0  0  0  0  0  0
    2.2275   21.2114  -18.6873 N   0  0  0  0  0  0  0  0  0  0  0  0
    1.8619   22.3205  -18.0787 N   0  0  0  0  0  0  0  0  0  0  0  0
    0.7042   22.6966  -18.6516 C   0  0  0  0  0  0  0  0  0  0  0  0
    2.5888   22.9790  -17.0075 C   0  0  0  0  0  0  0  0  0  0  0  0
    2.1381   22.4952  -15.6495 C   0  0  0  0  0  0  0  0  0  0  0  0
    2.8723   23.3207  -14.6159 C   0  0  0  0  0  0  0  0  0  0  0  0
    4.3209   23.1606  -14.7059 N   0  0  0  0  0  0  0  0  0  0  0  0
    4.7337   23.5441  -16.0186 C   0  0  0  0  0  0  0  0  0  0  0  0
    4.0867   22.7105  -17.1251 C   0  0  0  0  0  0  0  0  0  0  0  0
    4.6895   21.8544  -14.2804 C   0  0  0  0  0  0  0  0  0  0  0  0
    6.1184   21.6982  -13.8526 C   0  0  0  0  0  0  0  0  0  0  0  0
    6.4702   22.8685  -13.1938 F   0  0  0  0  0  0  0  0  0  0  0  0
    6.1529   20.6661  -12.8969 F   0  0  0  0  0  0  0  0  0  0  0  0
    6.9843   21.3280  -14.8307 F   0  0  0  0  0  0  0  0  0  0  0  0
 24 25  1  0  0  0
 25 17  1  0  0  0
 17 18  2  0  0  0
 18 19  1  0  0  0
 19 20  1  0  0  0
 19 21  2  0  0  0
 21 22  1  0  0  0
 22 23  2  0  0  0
 22 10  1  0  0  0
 10 11  1  0  0  0
 11 12  2  0  0  0
 12 13  1  0  0  0
 13 14  2  0  0  0
 14 15  1  0  0  0
 15 16  2  0  0  0
 12  1  1  0  0  0
  1  2  2  0  0  0
  2  3  1  0  0  0
  3  4  2  0  0  0
  4  5  1  0  0  0
  5  6  2  0  0  0
  6  7  1  0  0  0
  3 26  1  0  0  0
 26 27  1  0  0  0
 27 28  2  0  0  0
 28 29  1  0  0  0
 29 30  1  0  0  0
 29 31  1  0  0  0
 31 32  1  0  0  0
 32 33  1  0  0  0
 33 34  1  0  0  0
 34 37  1  0  0  0
 37 38  1  0  0  0
 38 39  1  0  0  0
 38 40  1  0  0  0
 38 41  1  0  0  0
 34 35  1  0  0  0
 35 36  1  0  0  0
 23 17  1  0  0  0
 15 10  1  0  0  0
  6  1  1  0  0  0
 30 26  2  0  0  0
 36 31  1  0  0  0
  7  8  1  0  0  0
  7  9  1  0  0  0
M  END
> <minimizedAffinity>
-8.54573

> <CNNscore>
0.0759341419

> <CNNaffinity>
6.6326003075

> <CNN_VS>
0.5036408305

> <CNNaffinity_variance>
0.1588470787

$$$$
[H]c1nc(N([H])[H])c(-c2nn(-c3c([H])c(F)c([H])c(OC([H])([H])[H])c3[H])c(=O)c([H])c2[H])nc1-c1c([H])nn(C2([H])C([H])([H])C([H])([H])N(C([H])([H])C(F)(F)F)C([H])([H])C2([H])[H])c1[H]


 41 45  0  0  0  0  0  0  0  0999 V2000
    0.7109   21.2922  -22.5036 C   0  0  0  0  0  0  0  0  0  0  0  0
   -0.4814   21.8446  -22.8224 N   0  0  0  0  0  0  0  0  0  0  0  0
   -0.7673   22.3003  -24.0355 C   0  0  0  0  0  0  0  0  0  0  0  0
    0.1819   22.2156  -25.0309 C   0  0  0  0  0  0  0  0  0  0  0  0
    1.3838   21.6756  -24.7689 N   0  0  0  0  0  0  0  0  0  0  0  0
    1.6373   21.2230  -23.5226 C   0  0  0  0  0  0  0  0  0  0  0  0
    2.9033   20.6513  -23.2372 N   0  0  0  0  0  0  0  0  0  0  0  0
    3.1036   19.6330  -23.2850 H   0  0  0  0  0  0  0  0  0  0  0  0
    3.6742   21.2931  -22.9643 H   0  0  0  0  0  0  0  0  0  0  0  0
    2.0830   21.0033  -19.1202 N   0  0  0  0  0  0  0  0  0  0  0  0
    1.8199   21.4657  -20.3441 N   0  0  0  0  0  0  0  0  0  0  0  0
    1.0053   20.8015  -21.1752 C   0  0  0  0  0  0  0  0  0  0  0  0
    0.4452   19.6267  -20.7329 C   0  0  0  0  0  0  0  0  0  0  0  0
    0.6999   19.1230  -19.4691 C   0  0  0  0  0  0  0  0  0  0  0  0
    1.5498   19.8597  -18.6637 C   0  0  0  0  0  0  0  0  0  0  0  0
    1.7826   19.3997  -17.5084 O   0  0  0  0  0  0  0  0  0  0  0  0
    5.1472   22.4773  -17.6788 C   0  0  0  0  0  0  0  0  0  0  0  0
    4.6350   23.1758  -16.6172 C   0  0  0  0  0  0  0  0  0  0  0  0
    3.2776   23.1814  -16.3472 C   0  0  0  0  0  0  0  0  0  0  0  0
    2.7297   23.8563  -15.3113 F   0  0  0  0  0  0  0  0  0  0  0  0
    2.4687   22.4520  -17.1961 C   0  0  0  0  0  0  0  0  0  0  0  0
    2.9509   21.7396  -18.2711 C   0  0  0  0  0  0  0  0  0  0  0  0
    4.3201   21.7548  -18.5148 C   0  0  0  0  0  0  0  0  0  0  0  0
    7.0488   22.5950  -19.2450 C   0  0  0  0  0  0  0  0  0  0  0  0
    6.5063   22.4633  -17.9607 O   0  0  0  0  0  0  0  0  0  0  0  0
   -2.0812   22.8936  -24.3312 C   0  0  0  0  0  0  0  0  0  0  0  0
   -2.9402   23.4775  -23.4120 C   0  0  0  0  0  0  0  0  0  0  0  0
   -4.0163   23.8879  -24.0890 N   0  0  0  0  0  0  0  0  0  0  0  0
   -3.9215   23.6157  -25.3739 N   0  0  0  0  0  0  0  0  0  0  0  0
   -2.7352   23.0031  -25.5394 C   0  0  0  0  0  0  0  0  0  0  0  0
   -4.9179   23.9301  -26.3828 C   0  0  0  0  0  0  0  0  0  0  0  0
   -4.9502   25.4082  -26.6917 C   0  0  0  0  0  0  0  0  0  0  0  0
   -6.0893   25.6363  -27.6610 C   0  0  0  0  0  0  0  0  0  0  0  0
   -5.9065   24.9067  -28.9125 N   0  0  0  0  0  0  0  0  0  0  0  0
   -5.7966   23.5153  -28.6085 C   0  0  0  0  0  0  0  0  0  0  0  0
   -4.6240   23.1877  -27.6836 C   0  0  0  0  0  0  0  0  0  0  0  0
   -4.8373   25.4810  -29.6542 C   0  0  0  0  0  0  0  0  0  0  0  0
   -5.1395   25.7738  -31.0938 C   0  0  0  0  0  0  0  0  0  0  0  0
   -5.9370   24.7354  -31.5555 F   0  0  0  0  0  0  0  0  0  0  0  0
   -5.9293   26.9379  -31.1216 F   0  0  0  0  0  0  0  0  0  0  0  0
   -4.0612   26.0375  -31.8755 F   0  0  0  0  0  0  0  0  0  0  0  0
 24 25  1  0  0  0
 25 17  1  0  0  0
 17 18  2  0  0  0
 18 19  1  0  0  0
 19 20  1  0  0  0
 19 21  2  0  0  0
 21 22  1  0  0  0
 22 23  2  0  0  0
 22 10  1  0  0  0
 10 11  1  0  0  0
 11 12  2  0  0  0
 12 13  1  0  0  0
 13 14  2  0  0  0
 14 15  1  0  0  0
 15 16  2  0  0  0
 12  1  1  0  0  0
  1  2  2  0  0  0
  2  3  1  0  0  0
  3  4  2  0  0  0
  4  5  1  0  0  0
  5  6  2  0  0  0
  6  7  1  0  0  0
  3 26  1  0  0  0
 26 27  1  0  0  0
 27 28  2  0  0  0
 28 29  1  0  0  0
 29 30  1  0  0  0
 29 31  1  0  0  0
 31 32  1  0  0  0
 32 33  1  0  0  0
 33 34  1  0  0  0
 34 37  1  0  0  0
 37 38  1  0  0  0
 38 39  1  0  0  0
 38 40  1  0  0  0
 38 41  1  0  0  0
 34 35  1  0  0  0
 35 36  1  0  0  0
 23 17  1  0  0  0
 15 10  1  0  0  0
  6  1  1  0  0  0
 30 26  2  0  0  0
 36 31  1  0  0  0
  7  8  1  0  0  0
  7  9  1  0  0  0
M  END
> <minimizedAffinity>
-8.89064

> <CNNscore>
0.0726482272

> <CNNaffinity>
6.8418703079

> <CNN_VS>
0.4970497489

> <CNNaffinity_variance>
0.1844492853

$$$$
[H]OC([H])([H])c1c([H])c(-c2c([H])nn(C([H])([H])C([H])([H])N3C([H])([H])C([H])([H])N(C([H])([H])[H])C([H])([H])C3([H])[H])c2[H])c([H])c([H])c1N([H])C(=O)c1c([H])c([H])c(F)c(Cl)c1[H]


 35 38  0  0  0  0  0  0  0  0999 V2000
    0.1365   21.6511  -24.0224 C   0  0  0  0  0  0  0  0  0  0  0  0
   -1.2106   21.7710  -23.7911 C   0  0  0  0  0  0  0  0  0  0  0  0
   -2.1427   22.0545  -24.7975 C   0  0  0  0  0  0  0  0  0  0  0  0
   -1.7303   22.2290  -26.0958 C   0  0  0  0  0  0  0  0  0  0  0  0
   -0.3451   22.1006  -26.3003 C   0  0  0  0  0  0  0  0  0  0  0  0
    0.5558   21.8240  -25.3118 C   0  0  0  0  0  0  0  0  0  0  0  0
    2.0156   21.0062  -20.9569 N   0  0  0  0  0  0  0  0  0  0  0  0
    0.8864   21.3236  -21.5871 C   0  0  0  0  0  0  0  0  0  0  0  0
    1.0878   21.3505  -22.9693 C   0  0  0  0  0  0  0  0  0  0  0  0
    2.4170   21.0263  -23.1223 C   0  0  0  0  0  0  0  0  0  0  0  0
    2.9328   20.8286  -21.8950 N   0  0  0  0  0  0  0  0  0  0  0  0
    2.2112   20.8851  -19.5072 C   0  0  0  0  0  0  0  0  0  0  0  0
    1.8780   22.2155  -18.8626 C   0  0  0  0  0  0  0  0  0  0  0  0
    6.2729   23.9905  -16.6518 C   0  0  0  0  0  0  0  0  0  0  0  0
    4.8624   23.6673  -16.5091 N   0  0  0  0  0  0  0  0  0  0  0  0
    4.6015   22.3338  -16.9903 C   0  0  0  0  0  0  0  0  0  0  0  0
    4.2496   22.3293  -18.4842 C   0  0  0  0  0  0  0  0  0  0  0  0
    3.0183   23.0252  -18.6166 N   0  0  0  0  0  0  0  0  0  0  0  0
    2.8311   24.1754  -17.8077 C   0  0  0  0  0  0  0  0  0  0  0  0
    4.1027   24.6868  -17.1765 C   0  0  0  0  0  0  0  0  0  0  0  0
   -2.5469   22.5128  -27.2040 N   0  0  0  0  0  0  0  0  0  0  0  0
   -3.3968   23.6159  -27.3149 C   0  0  0  0  0  0  0  0  0  0  0  0
   -3.5788   24.5290  -26.4770 O   0  0  0  0  0  0  0  0  0  0  0  0
   -2.5077   21.8491  -28.0060 H   0  0  0  0  0  0  0  0  0  0  0  0
   -4.1916   23.7496  -28.5637 C   0  0  0  0  0  0  0  0  0  0  0  0
   -4.7322   22.6727  -29.2243 C   0  0  0  0  0  0  0  0  0  0  0  0
   -5.4657   22.8435  -30.4000 C   0  0  0  0  0  0  0  0  0  0  0  0
   -5.6411   24.1097  -30.8905 C   0  0  0  0  0  0  0  0  0  0  0  0
   -6.3388   24.3438  -32.0179 F   0  0  0  0  0  0  0  0  0  0  0  0
   -5.1043   25.2251  -30.2420 C   0  0  0  0  0  0  0  0  0  0  0  0
   -5.3160   26.8321  -30.8442 Cl  0  0  0  0  0  0  0  0  0  0  0  0
   -4.3787   25.0186  -29.0729 C   0  0  0  0  0  0  0  0  0  0  0  0
    0.1612   22.2811  -27.6999 C   0  0  0  0  0  0  0  0  0  0  0  0
    0.5043   23.6083  -27.9323 O   0  0  0  0  0  0  0  0  0  0  0  0
    1.3143   23.8948  -27.4417 H   0  0  0  0  0  0  0  0  0  0  0  0
 14 15  1  0  0  0
 15 16  1  0  0  0
 16 17  1  0  0  0
 17 18  1  0  0  0
 18 13  1  0  0  0
 13 12  1  0  0  0
 12  7  1  0  0  0
  7  8  1  0  0  0
  8  9  2  0  0  0
  9 10  1  0  0  0
 10 11  2  0  0  0
  9  1  1  0  0  0
  1  2  2  0  0  0
  2  3  1  0  0  0
  3  4  2  0  0  0
  4 21  1  0  0  0
 21 22  1  0  0  0
 22 23  2  0  0  0
 22 25  1  0  0  0
 25 26  2  0  0  0
 26 27  1  0  0  0
 27 28  2  0  0  0
 28 29  1  0  0  0
 28 30  1  0  0  0
 30 31  1  0  0  0
 30 32  2  0  0  0
  4  5  1  0  0  0
  5 33  1  0  0  0
 33 34  1  0  0  0
  5  6  2  0  0  0
 18 19  1  0  0  0
 19 20  1  0  0  0
 20 15  1  0  0  0
 11  7  1  0  0  0
  6  1  1  0  0  0
 32 25  1  0  0  0
 21 24  1  0  0  0
 34 35  1  0  0  0
M  END
> <minimizedAffinity>
-9.73660

> <CNNscore>
0.6169154644

> <CNNaffinity>
6.5364542007

> <CNN_VS>
4.0324397087

> <CNNaffinity_variance>
0.1715049446

$$$$
[H]OC([H])([H])c1c([H])c(-c2c([H])nn(C([H])([H])C([H])([H])N3C([H])([H])C([H])([H])N(C([H])([H])[H])C([H])([H])C3([H])[H])c2[H])c([H])c([H])c1N([H])C(=O)c1c([H])c([H])c(F)c(Cl)c1[H]


 35 38  0  0  0  0  0  0  0  0999 V2000
   -0.6125   21.7460  -23.8559 C   0  0  0  0  0  0  0  0  0  0  0  0
   -1.9796   21.6556  -23.7832 C   0  0  0  0  0  0  0  0  0  0  0  0
   -2.8285   21.9372  -24.8612 C   0  0  0  0  0  0  0  0  0  0  0  0
   -2.3079   22.3274  -26.0706 C   0  0  0  0  0  0  0  0  0  0  0  0
   -0.9049   22.4111  -26.1130 C   0  0  0  0  0  0  0  0  0  0  0  0
   -0.0858   22.1343  -25.0558 C   0  0  0  0  0  0  0  0  0  0  0  0
    2.0357   20.8824  -21.4924 N   0  0  0  0  0  0  0  0  0  0  0  0
    1.6014   21.0795  -22.7356 C   0  0  0  0  0  0  0  0  0  0  0  0
    0.2528   21.4440  -22.7313 C   0  0  0  0  0  0  0  0  0  0  0  0
   -0.0898   21.4517  -21.3979 C   0  0  0  0  0  0  0  0  0  0  0  0
    1.0051   21.1108  -20.6932 N   0  0  0  0  0  0  0  0  0  0  0  0
    3.3877   20.4817  -21.0846 C   0  0  0  0  0  0  0  0  0  0  0  0
    4.0023   19.6564  -22.1971 C   0  0  0  0  0  0  0  0  0  0  0  0
    6.4409   15.0453  -21.8179 C   0  0  0  0  0  0  0  0  0  0  0  0
    5.8237   16.0491  -22.6698 N   0  0  0  0  0  0  0  0  0  0  0  0
    6.3680   17.3531  -22.3847 C   0  0  0  0  0  0  0  0  0  0  0  0
    5.5689   18.0738  -21.2904 C   0  0  0  0  0  0  0  0  0  0  0  0
    4.2732   18.3142  -21.8210 N   0  0  0  0  0  0  0  0  0  0  0  0
    3.6967   17.2917  -22.6175 C   0  0  0  0  0  0  0  0  0  0  0  0
    4.4004   15.9619  -22.5004 C   0  0  0  0  0  0  0  0  0  0  0  0
   -3.0323   22.6376  -27.2344 N   0  0  0  0  0  0  0  0  0  0  0  0
   -3.7956   23.7924  -27.4225 C   0  0  0  0  0  0  0  0  0  0  0  0
   -3.9661   24.7364  -26.6172 O   0  0  0  0  0  0  0  0  0  0  0  0
   -2.9890   21.9528  -28.0182 H   0  0  0  0  0  0  0  0  0  0  0  0
   -4.4999   23.9478  -28.7221 C   0  0  0  0  0  0  0  0  0  0  0  0
   -5.0038   22.8839  -29.4309 C   0  0  0  0  0  0  0  0  0  0  0  0
   -5.6516   23.0751  -30.6528 C   0  0  0  0  0  0  0  0  0  0  0  0
   -5.7796   24.3481  -31.1401 C   0  0  0  0  0  0  0  0  0  0  0  0
   -6.3944   24.6018  -32.3107 F   0  0  0  0  0  0  0  0  0  0  0  0
   -5.2781   25.4508  -30.4433 C   0  0  0  0  0  0  0  0  0  0  0  0
   -5.4309   27.0663  -31.0405 Cl  0  0  0  0  0  0  0  0  0  0  0  0
   -4.6381   25.2241  -29.2288 C   0  0  0  0  0  0  0  0  0  0  0  0
   -0.2818   22.8324  -27.4100 C   0  0  0  0  0  0  0  0  0  0  0  0
    1.0730   22.5206  -27.4298 O   0  0  0  0  0  0  0  0  0  0  0  0
    1.2501   21.5488  -27.4870 H   0  0  0  0  0  0  0  0  0  0  0  0
 14 15  1  0  0  0
 15 16  1  0  0  0
 16 17  1  0  0  0
 17 18  1  0  0  0
 18 13  1  0  0  0
 13 12  1  0  0  0
 12  7  1  0  0  0
  7  8  1  0  0  0
  8  9  2  0  0  0
  9 10  1  0  0  0
 10 11  2  0  0  0
  9  1  1  0  0  0
  1  2  2  0  0  0
  2  3  1  0  0  0
  3  4  2  0  0  0
  4 21  1  0  0  0
 21 22  1  0  0  0
 22 23  2  0  0  0
 22 25  1  0  0  0
 25 26  2  0  0  0
 26 27  1  0  0  0
 27 28  2  0  0  0
 28 29  1  0  0  0
 28 30  1  0  0  0
 30 31  1  0  0  0
 30 32  2  0  0  0
  4  5  1  0  0  0
  5 33  1  0  0  0
 33 34  1  0  0  0
  5  6  2  0  0  0
 18 19  1  0  0  0
 19 20  1  0  0  0
 20 15  1  0  0  0
 11  7  1  0  0  0
  6  1  1  0  0  0
 32 25  1  0  0  0
 21 24  1  0  0  0
 34 35  1  0  0  0
M  END
> <minimizedAffinity>
-9.17439

> <CNNscore>
0.5909664631

> <CNNaffinity>
6.6807794571

> <CNN_VS>
3.9481165409

> <CNNaffinity_variance>
0.0325633064

$$$$
[H]OC([H])([H])c1c([H])c(-c2c([H])nn(C([H])([H])C([H])([H])N3C([H])([H])C([H])([H])N(C([H])([H])[H])C([H])([H])C3([H])[H])c2[H])c([H])c([H])c1N([H])C(=O)c1c([H])c([H])c(F)c(Cl)c1[H]


 35 38  0  0  0  0  0  0  0  0999 V2000
    0.5141   21.4742  -23.6178 C   0  0  0  0  0  0  0  0  0  0  0  0
   -0.8119   21.6358  -23.3042 C   0  0  0  0  0  0  0  0  0  0  0  0
   -1.7869   21.9964  -24.2429 C   0  0  0  0  0  0  0  0  0  0  0  0
   -1.4416   22.2090  -25.5550 C   0  0  0  0  0  0  0  0  0  0  0  0
   -0.0765   22.0364  -25.8444 C   0  0  0  0  0  0  0  0  0  0  0  0
    0.8667   21.6845  -24.9214 C   0  0  0  0  0  0  0  0  0  0  0  0
    2.5092   20.5239  -20.7090 N   0  0  0  0  0  0  0  0  0  0  0  0
    1.3445   20.8434  -21.2698 C   0  0  0  0  0  0  0  0  0  0  0  0
    1.5102   21.0937  -22.6342 C   0  0  0  0  0  0  0  0  0  0  0  0
    2.8561   20.9012  -22.8509 C   0  0  0  0  0  0  0  0  0  0  0  0
    3.4145   20.5618  -21.6743 N   0  0  0  0  0  0  0  0  0  0  0  0
    2.7480   20.2016  -19.2970 C   0  0  0  0  0  0  0  0  0  0  0  0
    3.1714   18.7498  -19.1986 C   0  0  0  0  0  0  0  0  0  0  0  0
   -1.2231   15.9527  -19.6653 C   0  0  0  0  0  0  0  0  0  0  0  0
   -0.5830   17.2582  -19.6814 N   0  0  0  0  0  0  0  0  0  0  0  0
    0.5594   17.2465  -20.5604 C   0  0  0  0  0  0  0  0  0  0  0  0
    1.8414   16.8451  -19.8181 C   0  0  0  0  0  0  0  0  0  0  0  0
    2.1047   17.8714  -18.8718 N   0  0  0  0  0  0  0  0  0  0  0  0
    0.9919   18.4314  -18.1934 C   0  0  0  0  0  0  0  0  0  0  0  0
   -0.2721   17.6180  -18.3264 C   0  0  0  0  0  0  0  0  0  0  0  0
   -2.3072   22.5698  -26.6019 N   0  0  0  0  0  0  0  0  0  0  0  0
   -3.1635   23.6736  -26.5930 C   0  0  0  0  0  0  0  0  0  0  0  0
   -3.3099   24.5210  -25.6824 O   0  0  0  0  0  0  0  0  0  0  0  0
   -2.3023   21.9676  -27.4520 H   0  0  0  0  0  0  0  0  0  0  0  0
   -4.0132   23.8952  -27.7921 C   0  0  0  0  0  0  0  0  0  0  0  0
   -4.6713   25.0771  -28.0335 C   0  0  0  0  0  0  0  0  0  0  0  0
   -5.4665   25.2392  -29.1697 C   0  0  0  0  0  0  0  0  0  0  0  0
   -5.5829   24.1957  -30.0483 C   0  0  0  0  0  0  0  0  0  0  0  0
   -6.3322   24.2866  -31.1632 F   0  0  0  0  0  0  0  0  0  0  0  0
   -4.9264   22.9813  -29.8312 C   0  0  0  0  0  0  0  0  0  0  0  0
   -5.0591   21.6522  -30.9293 Cl  0  0  0  0  0  0  0  0  0  0  0  0
   -4.1423   22.8541  -28.6889 C   0  0  0  0  0  0  0  0  0  0  0  0
    0.3570   22.2555  -27.2628 C   0  0  0  0  0  0  0  0  0  0  0  0
    0.5321   23.6105  -27.5206 O   0  0  0  0  0  0  0  0  0  0  0  0
    1.3186   23.9978  -27.0618 H   0  0  0  0  0  0  0  0  0  0  0  0
 14 15  1  0  0  0
 15 16  1  0  0  0
 16 17  1  0  0  0
 17 18  1  0  0  0
 18 13  1  0  0  0
 13 12  1  0  0  0
 12  7  1  0  0  0
  7  8  1  0  0  0
  8  9  2  0  0  0
  9 10  1  0  0  0
 10 11  2  0  0  0
  9  1  1  0  0  0
  1  2  2  0  0  0
  2  3  1  0  0  0
  3  4  2  0  0  0
  4 21  1  0  0  0
 21 22  1  0  0  0
 22 23  2  0  0  0
 22 25  1  0  0  0
 25 26  2  0  0  0
 26 27  1  0  0  0
 27 28  2  0  0  0
 28 29  1  0  0  0
 28 30  1  0  0  0
 30 31  1  0  0  0
 30 32  2  0  0  0
  4  5  1  0  0  0
  5 33  1  0  0  0
 33 34  1  0  0  0
  5  6  2  0  0  0
 18 19  1  0  0  0
 19 20  1  0  0  0
 20 15  1  0  0  0
 11  7  1  0  0  0
  6  1  1  0  0  0
 32 25  1  0  0  0
 21 24  1  0  0  0
 34 35  1  0  0  0
M  END
> <minimizedAffinity>
-8.14084

> <CNNscore>
0.4300588965

> <CNNaffinity>
6.3334045410

> <CNN_VS>
2.7237370014

> <CNNaffinity_variance>
0.0802970678

$$$$
[H]OC([H])([H])c1c([H])c(-c2c([H])nn(C([H])([H])C([H])([H])N3C([H])([H])C([H])([H])N(C([H])([H])[H])C([H])([H])C3([H])[H])c2[H])c([H])c([H])c1N([H])C(=O)c1c([H])c([H])c(F)c(Cl)c1[H]


 35 38  0  0  0  0  0  0  0  0999 V2000
   -0.7580   21.7457  -23.6525 C   0  0  0  0  0  0  0  0  0  0  0  0
   -2.1283   21.7262  -23.5854 C   0  0  0  0  0  0  0  0  0  0  0  0
   -2.9570   22.0019  -24.6805 C   0  0  0  0  0  0  0  0  0  0  0  0
   -2.4119   22.3124  -25.9021 C   0  0  0  0  0  0  0  0  0  0  0  0
   -1.0063   22.3248  -25.9384 C   0  0  0  0  0  0  0  0  0  0  0  0
   -0.2070   22.0545  -24.8645 C   0  0  0  0  0  0  0  0  0  0  0  0
    0.8221   21.1524  -20.4127 N   0  0  0  0  0  0  0  0  0  0  0  0
   -0.2344   21.4879  -21.1505 C   0  0  0  0  0  0  0  0  0  0  0  0
    0.0858   21.4510  -22.5098 C   0  0  0  0  0  0  0  0  0  0  0  0
    1.4084   21.0695  -22.5340 C   0  0  0  0  0  0  0  0  0  0  0  0
    1.8081   20.9015  -21.2599 N   0  0  0  0  0  0  0  0  0  0  0  0
    0.8873   21.0824  -18.9479 C   0  0  0  0  0  0  0  0  0  0  0  0
   -0.3651   21.7178  -18.3784 C   0  0  0  0  0  0  0  0  0  0  0  0
   -2.0700   18.7353  -14.4348 C   0  0  0  0  0  0  0  0  0  0  0  0
   -1.0082   19.0454  -15.3787 N   0  0  0  0  0  0  0  0  0  0  0  0
   -0.6981   20.4527  -15.3410 C   0  0  0  0  0  0  0  0  0  0  0  0
   -1.5501   21.2475  -16.3399 C   0  0  0  0  0  0  0  0  0  0  0  0
   -1.1709   20.8128  -17.6381 N   0  0  0  0  0  0  0  0  0  0  0  0
   -0.9127   19.4286  -17.8107 C   0  0  0  0  0  0  0  0  0  0  0  0
   -1.4113   18.5718  -16.6730 C   0  0  0  0  0  0  0  0  0  0  0  0
   -3.1144   22.6067  -27.0834 N   0  0  0  0  0  0  0  0  0  0  0  0
   -3.8009   23.7970  -27.3352 C   0  0  0  0  0  0  0  0  0  0  0  0
   -3.9097   24.7916  -26.5818 O   0  0  0  0  0  0  0  0  0  0  0  0
   -3.1157   21.8797  -27.8295 H   0  0  0  0  0  0  0  0  0  0  0  0
   -4.4935   23.9285  -28.6437 C   0  0  0  0  0  0  0  0  0  0  0  0
   -4.9509   22.8480  -29.3590 C   0  0  0  0  0  0  0  0  0  0  0  0
   -5.5892   23.0172  -30.5892 C   0  0  0  0  0  0  0  0  0  0  0  0
   -5.7552   24.2853  -31.0779 C   0  0  0  0  0  0  0  0  0  0  0  0
   -6.3634   24.5179  -32.2563 F   0  0  0  0  0  0  0  0  0  0  0  0
   -5.3015   25.4043  -30.3746 C   0  0  0  0  0  0  0  0  0  0  0  0
   -5.5029   27.0139  -30.9736 Cl  0  0  0  0  0  0  0  0  0  0  0  0
   -4.6696   25.1995  -29.1521 C   0  0  0  0  0  0  0  0  0  0  0  0
   -0.3569   22.6575  -27.2481 C   0  0  0  0  0  0  0  0  0  0  0  0
    1.0272   22.6852  -27.1187 O   0  0  0  0  0  0  0  0  0  0  0  0
    1.4249   21.7904  -26.9771 H   0  0  0  0  0  0  0  0  0  0  0  0
 14 15  1  0  0  0
 15 16  1  0  0  0
 16 17  1  0  0  0
 17 18  1  0  0  0
 18 13  1  0  0  0
 13 12  1  0  0  0
 12  7  1  0  0  0
  7  8  1  0  0  0
  8  9  2  0  0  0
  9 10  1  0  0  0
 10 11  2  0  0  0
  9  1  1  0  0  0
  1  2  2  0  0  0
  2  3  1  0  0  0
  3  4  2  0  0  0
  4 21  1  0  0  0
 21 22  1  0  0  0
 22 23  2  0  0  0
 22 25  1  0  0  0
 25 26  2  0  0  0
 26 27  1  0  0  0
 27 28  2  0  0  0
 28 29  1  0  0  0
 28 30  1  0  0  0
 30 31  1  0  0  0
 30 32  2  0  0  0
  4  5  1  0  0  0
  5 33  1  0  0  0
 33 34  1  0  0  0
  5  6  2  0  0  0
 18 19  1  0  0  0
 19 20  1  0  0  0
 20 15  1  0  0  0
 11  7  1  0  0  0
  6  1  1  0  0  0
 32 25  1  0  0  0
 21 24  1  0  0  0
 34 35  1  0  0  0
M  END
> <minimizedAffinity>
-8.56538

> <CNNscore>
0.3638425171

> <CNNaffinity>
6.2955856323

> <CNN_VS>
2.2906017303

> <CNNaffinity_variance>
0.1040818468

$$$$
[H]OC([H])([H])c1c([H])c(-c2c([H])nn(C([H])([H])C([H])([H])N3C([H])([H])C([H])([H])N(C([H])([H])[H])C([H])([H])C3([H])[H])c2[H])c([H])c([H])c1N([H])C(=O)c1c([H])c([H])c(F)c(Cl)c1[H]


 35 38  0  0  0  0  0  0  0  0999 V2000
   -0.6364   21.6973  -23.8252 C   0  0  0  0  0  0  0  0  0  0  0  0
   -2.0025   21.5908  -23.7544 C   0  0  0  0  0  0  0  0  0  0  0  0
   -2.8539   21.8734  -24.8301 C   0  0  0  0  0  0  0  0  0  0  0  0
   -2.3369   22.2812  -26.0353 C   0  0  0  0  0  0  0  0  0  0  0  0
   -0.9350   22.3811  -26.0759 C   0  0  0  0  0  0  0  0  0  0  0  0
   -0.1134   22.1032  -25.0209 C   0  0  0  0  0  0  0  0  0  0  0  0
    2.0296   20.8815  -21.4648 N   0  0  0  0  0  0  0  0  0  0  0  0
    1.5996   21.1116  -22.7039 C   0  0  0  0  0  0  0  0  0  0  0  0
    0.2315   21.3942  -22.7030 C   0  0  0  0  0  0  0  0  0  0  0  0
   -0.1274   21.3175  -21.3761 C   0  0  0  0  0  0  0  0  0  0  0  0
    0.9772   21.0093  -20.6716 N   0  0  0  0  0  0  0  0  0  0  0  0
    3.3982   20.5434  -21.0558 C   0  0  0  0  0  0  0  0  0  0  0  0
    3.7794   19.2221  -21.6924 C   0  0  0  0  0  0  0  0  0  0  0  0
    0.9442   15.6149  -19.1816 C   0  0  0  0  0  0  0  0  0  0  0  0
    1.2737   17.0195  -19.3635 N   0  0  0  0  0  0  0  0  0  0  0  0
    1.1993   17.3762  -20.7582 C   0  0  0  0  0  0  0  0  0  0  0  0
    2.5445   17.1713  -21.4679 C   0  0  0  0  0  0  0  0  0  0  0  0
    3.4565   18.0952  -20.8910 N   0  0  0  0  0  0  0  0  0  0  0  0
    3.3740   18.3016  -19.4900 C   0  0  0  0  0  0  0  0  0  0  0  0
    2.5596   17.2553  -18.7694 C   0  0  0  0  0  0  0  0  0  0  0  0
   -3.0641   22.5946  -27.1966 N   0  0  0  0  0  0  0  0  0  0  0  0
   -3.7651   23.7839  -27.4098 C   0  0  0  0  0  0  0  0  0  0  0  0
   -3.8680   24.7612  -26.6332 O   0  0  0  0  0  0  0  0  0  0  0  0
   -3.0734   21.8838  -27.9582 H   0  0  0  0  0  0  0  0  0  0  0  0
   -4.4833   23.9374  -28.7020 C   0  0  0  0  0  0  0  0  0  0  0  0
   -4.9993   22.8729  -29.4011 C   0  0  0  0  0  0  0  0  0  0  0  0
   -5.6600   23.0622  -30.6165 C   0  0  0  0  0  0  0  0  0  0  0  0
   -5.7885   24.3340  -31.1070 C   0  0  0  0  0  0  0  0  0  0  0  0
   -6.4153   24.5857  -32.2716 F   0  0  0  0  0  0  0  0  0  0  0  0
   -5.2748   25.4371  -30.4199 C   0  0  0  0  0  0  0  0  0  0  0  0
   -5.4280   27.0510  -31.0214 Cl  0  0  0  0  0  0  0  0  0  0  0  0
   -4.6221   25.2124  -29.2119 C   0  0  0  0  0  0  0  0  0  0  0  0
   -0.3159   22.8220  -27.3683 C   0  0  0  0  0  0  0  0  0  0  0  0
    1.0674   22.6896  -27.3223 O   0  0  0  0  0  0  0  0  0  0  0  0
    1.3707   21.7478  -27.3243 H   0  0  0  0  0  0  0  0  0  0  0  0
 14 15  1  0  0  0
 15 16  1  0  0  0
 16 17  1  0  0  0
 17 18  1  0  0  0
 18 13  1  0  0  0
 13 12  1  0  0  0
 12  7  1  0  0  0
  7  8  1  0  0  0
  8  9  2  0  0  0
  9 10  1  0  0  0
 10 11  2  0  0  0
  9  1  1  0  0  0
  1  2  2  0  0  0
  2  3  1  0  0  0
  3  4  2  0  0  0
  4 21  1  0  0  0
 21 22  1  0  0  0
 22 23  2  0  0  0
 22 25  1  0  0  0
 25 26  2  0  0  0
 26 27  1  0  0  0
 27 28  2  0  0  0
 28 29  1  0  0  0
 28 30  1  0  0  0
 30 31  1  0  0  0
 30 32  2  0  0  0
  4  5  1  0  0  0
  5 33  1  0  0  0
 33 34  1  0  0  0
  5  6  2  0  0  0
 18 19  1  0  0  0
 19 20  1  0  0  0
 20 15  1  0  0  0
 11  7  1  0  0  0
  6  1  1  0  0  0
 32 25  1  0  0  0
 21 24  1  0  0  0
 34 35  1  0  0  0
M  END
> <minimizedAffinity>
-9.04878

> <CNNscore>
0.3544965386

> <CNNaffinity>
6.4016304016

> <CNN_VS>
2.2693557739

> <CNNaffinity_variance>
0.0095662894

$$$$
[H]OC([H])([H])c1c([H])c(-c2c([H])nn(C([H])([H])C([H])([H])N3C([H])([H])C([H])([H])N(C([H])([H])[H])C([H])([H])C3([H])[H])c2[H])c([H])c([H])c1N([H])C(=O)c1c([H])c([H])c(F)c(Cl)c1[H]


 35 38  0  0  0  0  0  0  0  0999 V2000
    0.6707   21.4329  -23.5792 C   0  0  0  0  0  0  0  0  0  0  0  0
   -0.6528   21.5761  -23.2470 C   0  0  0  0  0  0  0  0  0  0  0  0
   -1.6485   21.9066  -24.1750 C   0  0  0  0  0  0  0  0  0  0  0  0
   -1.3274   22.1066  -25.4952 C   0  0  0  0  0  0  0  0  0  0  0  0
    0.0358   21.9535  -25.8038 C   0  0  0  0  0  0  0  0  0  0  0  0
    0.9993   21.6309  -24.8910 C   0  0  0  0  0  0  0  0  0  0  0  0
    2.7571   20.6839  -20.6757 N   0  0  0  0  0  0  0  0  0  0  0  0
    1.5963   21.0544  -21.2127 C   0  0  0  0  0  0  0  0  0  0  0  0
    1.6885   21.0835  -22.6064 C   0  0  0  0  0  0  0  0  0  0  0  0
    2.9861   20.7039  -22.8660 C   0  0  0  0  0  0  0  0  0  0  0  0
    3.5885   20.4745  -21.6845 N   0  0  0  0  0  0  0  0  0  0  0  0
    3.0616   20.5431  -19.2466 C   0  0  0  0  0  0  0  0  0  0  0  0
    2.2540   19.3865  -18.6930 C   0  0  0  0  0  0  0  0  0  0  0  0
   -2.1407   21.3421  -16.6397 C   0  0  0  0  0  0  0  0  0  0  0  0
   -0.9457   21.5638  -17.4381 N   0  0  0  0  0  0  0  0  0  0  0  0
   -0.8312   20.5549  -18.4614 C   0  0  0  0  0  0  0  0  0  0  0  0
   -0.0383   19.3364  -17.9693 C   0  0  0  0  0  0  0  0  0  0  0  0
    1.2891   19.7817  -17.7291 N   0  0  0  0  0  0  0  0  0  0  0  0
    1.4489   21.0639  -17.1437 C   0  0  0  0  0  0  0  0  0  0  0  0
    0.1795   21.6214  -16.5479 C   0  0  0  0  0  0  0  0  0  0  0  0
   -2.2153   22.4378  -26.5332 N   0  0  0  0  0  0  0  0  0  0  0  0
   -3.1641   23.4620  -26.4836 C   0  0  0  0  0  0  0  0  0  0  0  0
   -3.3884   24.2520  -25.5379 O   0  0  0  0  0  0  0  0  0  0  0  0
   -2.1536   21.8768  -27.4089 H   0  0  0  0  0  0  0  0  0  0  0  0
   -4.0234   23.6627  -27.6796 C   0  0  0  0  0  0  0  0  0  0  0  0
   -5.1724   22.9430  -27.9036 C   0  0  0  0  0  0  0  0  0  0  0  0
   -5.9457   23.1587  -29.0459 C   0  0  0  0  0  0  0  0  0  0  0  0
   -5.5408   24.1056  -29.9481 C   0  0  0  0  0  0  0  0  0  0  0  0
   -6.2412   24.3640  -31.0685 F   0  0  0  0  0  0  0  0  0  0  0  0
   -4.3775   24.8539  -29.7490 C   0  0  0  0  0  0  0  0  0  0  0  0
   -3.8500   26.0552  -30.8753 Cl  0  0  0  0  0  0  0  0  0  0  0  0
   -3.6306   24.6131  -28.6001 C   0  0  0  0  0  0  0  0  0  0  0  0
    0.4434   22.1602  -27.2317 C   0  0  0  0  0  0  0  0  0  0  0  0
    0.5139   23.5157  -27.5326 O   0  0  0  0  0  0  0  0  0  0  0  0
    1.2714   23.9754  -27.0924 H   0  0  0  0  0  0  0  0  0  0  0  0
 14 15  1  0  0  0
 15 16  1  0  0  0
 16 17  1  0  0  0
 17 18  1  0  0  0
 18 13  1  0  0  0
 13 12  1  0  0  0
 12  7  1  0  0  0
  7  8  1  0  0  0
  8  9  2  0  0  0
  9 10  1  0  0  0
 10 11  2  0  0  0
  9  1  1  0  0  0
  1  2  2  0  0  0
  2  3  1  0  0  0
  3  4  2  0  0  0
  4 21  1  0  0  0
 21 22  1  0  0  0
 22 23  2  0  0  0
 22 25  1  0  0  0
 25 26  2  0  0  0
 26 27  1  0  0  0
 27 28  2  0  0  0
 28 29  1  0  0  0
 28 30  1  0  0  0
 30 31  1  0  0  0
 30 32  2  0  0  0
  4  5  1  0  0  0
  5 33  1  0  0  0
 33 34  1  0  0  0
  5  6  2  0  0  0
 18 19  1  0  0  0
 19 20  1  0  0  0
 20 15  1  0  0  0
 11  7  1  0  0  0
  6  1  1  0  0  0
 32 25  1  0  0  0
 21 24  1  0  0  0
 34 35  1  0  0  0
M  END
> <minimizedAffinity>
-8.16142

> <CNNscore>
0.3080669045

> <CNNaffinity>
6.1282963753

> <CNN_VS>
1.8879252672

> <CNNaffinity_variance>
0.1501902938

$$$$
[H]OC([H])([H])c1c([H])c(-c2c([H])nn(C([H])([H])C([H])([H])N3C([H])([H])C([H])([H])N(C([H])([H])[H])C([H])([H])C3([H])[H])c2[H])c([H])c([H])c1N([H])C(=O)c1c([H])c([H])c(F)c(Cl)c1[H]


 35 38  0  0  0  0  0  0  0  0999 V2000
   -7.1589   22.5789  -20.5831 C   0  0  0  0  0  0  0  0  0  0  0  0
   -7.5870   21.9709  -21.7363 C   0  0  0  0  0  0  0  0  0  0  0  0
   -6.9128   22.0778  -22.9594 C   0  0  0  0  0  0  0  0  0  0  0  0
   -5.7608   22.8193  -23.0539 C   0  0  0  0  0  0  0  0  0  0  0  0
   -5.3485   23.4299  -21.8563 C   0  0  0  0  0  0  0  0  0  0  0  0
   -6.0134   23.3194  -20.6684 C   0  0  0  0  0  0  0  0  0  0  0  0
   -8.3732   21.9719  -17.1917 N   0  0  0  0  0  0  0  0  0  0  0  0
   -7.4188   21.9045  -18.1177 C   0  0  0  0  0  0  0  0  0  0  0  0
   -7.8658   22.4522  -19.3227 C   0  0  0  0  0  0  0  0  0  0  0  0
   -9.1550   22.8529  -19.0527 C   0  0  0  0  0  0  0  0  0  0  0  0
   -9.4170   22.5472  -17.7684 N   0  0  0  0  0  0  0  0  0  0  0  0
   -8.2913   21.4951  -15.8058 C   0  0  0  0  0  0  0  0  0  0  0  0
   -9.6517   20.9680  -15.3959 C   0  0  0  0  0  0  0  0  0  0  0  0
  -12.2626   16.5744  -16.5063 C   0  0  0  0  0  0  0  0  0  0  0  0
  -11.6117   17.4043  -15.5053 N   0  0  0  0  0  0  0  0  0  0  0  0
  -12.1045   18.7571  -15.5770 C   0  0  0  0  0  0  0  0  0  0  0  0
  -11.2729   19.6124  -16.5426 C   0  0  0  0  0  0  0  0  0  0  0  0
   -9.9717   19.7147  -15.9819 N   0  0  0  0  0  0  0  0  0  0  0  0
   -9.4386   18.5564  -15.3602 C   0  0  0  0  0  0  0  0  0  0  0  0
  -10.1920   17.2907  -15.6880 C   0  0  0  0  0  0  0  0  0  0  0  0
   -4.9803   23.0126  -24.2067 N   0  0  0  0  0  0  0  0  0  0  0  0
   -4.2159   22.0263  -24.8349 C   0  0  0  0  0  0  0  0  0  0  0  0
   -4.0926   20.8255  -24.5010 O   0  0  0  0  0  0  0  0  0  0  0  0
   -4.9793   23.9663  -24.6260 H   0  0  0  0  0  0  0  0  0  0  0  0
   -3.4476   22.4179  -26.0455 C   0  0  0  0  0  0  0  0  0  0  0  0
   -4.0274   23.0204  -27.1360 C   0  0  0  0  0  0  0  0  0  0  0  0
   -3.2687   23.3641  -28.2565 C   0  0  0  0  0  0  0  0  0  0  0  0
   -1.9272   23.0907  -28.2546 C   0  0  0  0  0  0  0  0  0  0  0  0
   -1.1386   23.3976  -29.3018 F   0  0  0  0  0  0  0  0  0  0  0  0
   -1.3080   22.4790  -27.1613 C   0  0  0  0  0  0  0  0  0  0  0  0
    0.3848   22.1269  -27.1385 Cl  0  0  0  0  0  0  0  0  0  0  0  0
   -2.0939   22.1498  -26.0613 C   0  0  0  0  0  0  0  0  0  0  0  0
   -4.0956   24.2520  -21.9014 C   0  0  0  0  0  0  0  0  0  0  0  0
   -4.3778   25.5595  -22.2809 O   0  0  0  0  0  0  0  0  0  0  0  0
   -4.8677   26.0706  -21.5897 H   0  0  0  0  0  0  0  0  0  0  0  0
 14 15  1  0  0  0
 15 16  1  0  0  0
 16 17  1  0  0  0
 17 18  1  0  0  0
 18 13  1  0  0  0
 13 12  1  0  0  0
 12  7  1  0  0  0
  7  8  1  0  0  0
  8  9  2  0  0  0
  9 10  1  0  0  0
 10 11  2  0  0  0
  9  1  1  0  0  0
  1  2  2  0  0  0
  2  3  1  0  0  0
  3  4  2  0  0  0
  4 21  1  0  0  0
 21 22  1  0  0  0
 22 23  2  0  0  0
 22 25  1  0  0  0
 25 26  2  0  0  0
 26 27  1  0  0  0
 27 28  2  0  0  0
 28 29  1  0  0  0
 28 30  1  0  0  0
 30 31  1  0  0  0
 30 32  2  0  0  0
  4  5  1  0  0  0
  5 33  1  0  0  0
 33 34  1  0  0  0
  5  6  2  0  0  0
 18 19  1  0  0  0
 19 20  1  0  0  0
 20 15  1  0  0  0
 11  7  1  0  0  0
  6  1  1  0  0  0
 32 25  1  0  0  0
 21 24  1  0  0  0
 34 35  1  0  0  0
M  END
> <minimizedAffinity>
-7.59069

> <CNNscore>
0.2958930433

> <CNNaffinity>
5.7994532585

> <CNN_VS>
1.7160178423

> <CNNaffinity_variance>
0.0794825107

$$$$
[H]OC([H])([H])c1c([H])c(-c2c([H])nn(C([H])([H])C([H])([H])N3C([H])([H])C([H])([H])N(C([H])([H])[H])C([H])([H])C3([H])[H])c2[H])c([H])c([H])c1N([H])C(=O)c1c([H])c([H])c(F)c(Cl)c1[H]


 35 38  0  0  0  0  0  0  0  0999 V2000
   -0.8625   21.6685  -23.6957 C   0  0  0  0  0  0  0  0  0  0  0  0
   -2.2277   21.5320  -23.6851 C   0  0  0  0  0  0  0  0  0  0  0  0
   -3.0393   21.8202  -24.7897 C   0  0  0  0  0  0  0  0  0  0  0  0
   -2.4813   22.2649  -25.9631 C   0  0  0  0  0  0  0  0  0  0  0  0
   -1.0814   22.3950  -25.9423 C   0  0  0  0  0  0  0  0  0  0  0  0
   -0.2989   22.1113  -24.8595 C   0  0  0  0  0  0  0  0  0  0  0  0
    0.6381   20.8760  -20.4608 N   0  0  0  0  0  0  0  0  0  0  0  0
   -0.4251   21.1221  -21.2238 C   0  0  0  0  0  0  0  0  0  0  0  0
   -0.0359   21.3591  -22.5444 C   0  0  0  0  0  0  0  0  0  0  0  0
    1.3351   21.2372  -22.5185 C   0  0  0  0  0  0  0  0  0  0  0  0
    1.6954   20.9480  -21.2544 N   0  0  0  0  0  0  0  0  0  0  0  0
    0.6420   20.5900  -19.0211 C   0  0  0  0  0  0  0  0  0  0  0  0
   -0.7762   20.2790  -18.5872 C   0  0  0  0  0  0  0  0  0  0  0  0
   -3.7403   22.4726  -14.8783 C   0  0  0  0  0  0  0  0  0  0  0  0
   -3.6735   21.7382  -16.1316 N   0  0  0  0  0  0  0  0  0  0  0  0
   -2.8083   20.5930  -15.9970 C   0  0  0  0  0  0  0  0  0  0  0  0
   -1.3544   20.9371  -16.3481 C   0  0  0  0  0  0  0  0  0  0  0  0
   -1.3337   21.2645  -17.7303 N   0  0  0  0  0  0  0  0  0  0  0  0
   -2.4237   22.0182  -18.2364 C   0  0  0  0  0  0  0  0  0  0  0  0
   -3.2726   22.6536  -17.1627 C   0  0  0  0  0  0  0  0  0  0  0  0
   -3.1659   22.5884  -27.1473 N   0  0  0  0  0  0  0  0  0  0  0  0
   -3.8527   23.7827  -27.3784 C   0  0  0  0  0  0  0  0  0  0  0  0
   -3.9773   24.7565  -26.6005 O   0  0  0  0  0  0  0  0  0  0  0  0
   -3.1525   21.8817  -27.9126 H   0  0  0  0  0  0  0  0  0  0  0  0
   -4.5246   23.9469  -28.6939 C   0  0  0  0  0  0  0  0  0  0  0  0
   -4.9826   22.8855  -29.4367 C   0  0  0  0  0  0  0  0  0  0  0  0
   -5.6011   23.0852  -30.6724 C   0  0  0  0  0  0  0  0  0  0  0  0
   -5.7468   24.3642  -31.1386 C   0  0  0  0  0  0  0  0  0  0  0  0
   -6.3352   24.6261  -32.3209 F   0  0  0  0  0  0  0  0  0  0  0  0
   -5.2917   25.4646  -30.4071 C   0  0  0  0  0  0  0  0  0  0  0  0
   -5.4676   27.0874  -30.9775 Cl  0  0  0  0  0  0  0  0  0  0  0  0
   -4.6800   25.2293  -29.1798 C   0  0  0  0  0  0  0  0  0  0  0  0
   -0.4185   22.8769  -27.1977 C   0  0  0  0  0  0  0  0  0  0  0  0
    0.9488   22.6275  -27.1598 O   0  0  0  0  0  0  0  0  0  0  0  0
    1.1734   21.6666  -27.2310 H   0  0  0  0  0  0  0  0  0  0  0  0
 14 15  1  0  0  0
 15 16  1  0  0  0
 16 17  1  0  0  0
 17 18  1  0  0  0
 18 13  1  0  0  0
 13 12  1  0  0  0
 12  7  1  0  0  0
  7  8  1  0  0  0
  8  9  2  0  0  0
  9 10  1  0  0  0
 10 11  2  0  0  0
  9  1  1  0  0  0
  1  2  2  0  0  0
  2  3  1  0  0  0
  3  4  2  0  0  0
  4 21  1  0  0  0
 21 22  1  0  0  0
 22 23  2  0  0  0
 22 25  1  0  0  0
 25 26  2  0  0  0
 26 27  1  0  0  0
 27 28  2  0  0  0
 28 29  1  0  0  0
 28 30  1  0  0  0
 30 31  1  0  0  0
 30 32  2  0  0  0
  4  5  1  0  0  0
  5 33  1  0  0  0
 33 34  1  0  0  0
  5  6  2  0  0  0
 18 19  1  0  0  0
 19 20  1  0  0  0
 20 15  1  0  0  0
 11  7  1  0  0  0
  6  1  1  0  0  0
 32 25  1  0  0  0
 21 24  1  0  0  0
 34 35  1  0  0  0
M  END
> <minimizedAffinity>
-8.78583

> <CNNscore>
0.2879441977

> <CNNaffinity>
6.3194346428

> <CNN_VS>
1.8196445704

> <CNNaffinity_variance>
0.0522284620

$$$$
[H]OC([H])([H])c1c([H])c(-c2c([H])nn(C([H])([H])C([H])([H])N3C([H])([H])C([H])([H])N(C([H])([H])[H])C([H])([H])C3([H])[H])c2[H])c([H])c([H])c1N([H])C(=O)c1c([H])c([H])c(F)c(Cl)c1[H]


 35 38  0  0  0  0  0  0  0  0999 V2000
    0.2386   21.8271  -24.5250 C   0  0  0  0  0  0  0  0  0  0  0  0
    1.5279   21.4140  -24.3020 C   0  0  0  0  0  0  0  0  0  0  0  0
    1.9953   20.9898  -23.0516 C   0  0  0  0  0  0  0  0  0  0  0  0
    1.1538   20.9708  -21.9664 C   0  0  0  0  0  0  0  0  0  0  0  0
   -0.1596   21.4001  -22.2269 C   0  0  0  0  0  0  0  0  0  0  0  0
   -0.6056   21.8120  -23.4502 C   0  0  0  0  0  0  0  0  0  0  0  0
   -1.5563   22.8212  -27.5474 N   0  0  0  0  0  0  0  0  0  0  0  0
   -1.5439   22.4090  -26.2813 C   0  0  0  0  0  0  0  0  0  0  0  0
   -0.2311   22.2571  -25.8285 C   0  0  0  0  0  0  0  0  0  0  0  0
    0.5418   22.6077  -26.9125 C   0  0  0  0  0  0  0  0  0  0  0  0
   -0.2904   22.9380  -27.9174 N   0  0  0  0  0  0  0  0  0  0  0  0
   -2.7386   23.0861  -28.3761 C   0  0  0  0  0  0  0  0  0  0  0  0
   -3.9722   22.9902  -27.5012 C   0  0  0  0  0  0  0  0  0  0  0  0
   -6.4714   26.5150  -24.5544 C   0  0  0  0  0  0  0  0  0  0  0  0
   -6.4051   25.7751  -25.8045 N   0  0  0  0  0  0  0  0  0  0  0  0
   -6.2580   24.3646  -25.5459 C   0  0  0  0  0  0  0  0  0  0  0  0
   -4.7813   23.9565  -25.4537 C   0  0  0  0  0  0  0  0  0  0  0  0
   -4.2182   24.1642  -26.7412 N   0  0  0  0  0  0  0  0  0  0  0  0
   -4.6318   25.3193  -27.4532 C   0  0  0  0  0  0  0  0  0  0  0  0
   -5.3475   26.3356  -26.5976 C   0  0  0  0  0  0  0  0  0  0  0  0
    1.4798   20.5694  -20.6595 N   0  0  0  0  0  0  0  0  0  0  0  0
    2.5238   21.0943  -19.8940 C   0  0  0  0  0  0  0  0  0  0  0  0
    3.3329   21.9939  -20.2180 O   0  0  0  0  0  0  0  0  0  0  0  0
    0.8904   19.8259  -20.2294 H   0  0  0  0  0  0  0  0  0  0  0  0
    2.7225   20.5405  -18.5291 C   0  0  0  0  0  0  0  0  0  0  0  0
    3.7161   20.9735  -17.6843 C   0  0  0  0  0  0  0  0  0  0  0  0
    3.8719   20.4190  -16.4124 C   0  0  0  0  0  0  0  0  0  0  0  0
    3.0137   19.4293  -16.0141 C   0  0  0  0  0  0  0  0  0  0  0  0
    3.1081   18.8538  -14.8006 F   0  0  0  0  0  0  0  0  0  0  0  0
    1.9933   18.9673  -16.8497 C   0  0  0  0  0  0  0  0  0  0  0  0
    0.8984   17.7199  -16.3650 Cl  0  0  0  0  0  0  0  0  0  0  0  0
    1.8668   19.5418  -18.1106 C   0  0  0  0  0  0  0  0  0  0  0  0
   -1.1220   21.3996  -21.0773 C   0  0  0  0  0  0  0  0  0  0  0  0
   -2.4022   21.0681  -21.5067 O   0  0  0  0  0  0  0  0  0  0  0  0
   -2.4911   20.1205  -21.7772 H   0  0  0  0  0  0  0  0  0  0  0  0
 14 15  1  0  0  0
 15 16  1  0  0  0
 16 17  1  0  0  0
 17 18  1  0  0  0
 18 13  1  0  0  0
 13 12  1  0  0  0
 12  7  1  0  0  0
  7  8  1  0  0  0
  8  9  2  0  0  0
  9 10  1  0  0  0
 10 11  2  0  0  0
  9  1  1  0  0  0
  1  2  2  0  0  0
  2  3  1  0  0  0
  3  4  2  0  0  0
  4 21  1  0  0  0
 21 22  1  0  0  0
 22 23  2  0  0  0
 22 25  1  0  0  0
 25 26  2  0  0  0
 26 27  1  0  0  0
 27 28  2  0  0  0
 28 29  1  0  0  0
 28 30  1  0  0  0
 30 31  1  0  0  0
 30 32  2  0  0  0
  4  5  1  0  0  0
  5 33  1  0  0  0
 33 34  1  0  0  0
  5  6  2  0  0  0
 18 19  1  0  0  0
 19 20  1  0  0  0
 20 15  1  0  0  0
 11  7  1  0  0  0
  6  1  1  0  0  0
 32 25  1  0  0  0
 21 24  1  0  0  0
 34 35  1  0  0  0
M  END
> <minimizedAffinity>
-7.19903

> <CNNscore>
0.2843725979

> <CNNaffinity>
6.3014616966

> <CNN_VS>
1.7919629812

> <CNNaffinity_variance>
0.1393209100

$$$$
[H]c1nc([H])c([H])c(C([H])([H])N([H])c2nc([H])c(Cl)c(N([H])c3c([H])c(C([H])([H])OC([H])([H])C([H])([H])[H])nn3[H])n2)c1[H]


 28 30  0  0  0  0  0  0  0  0999 V2000
   -4.2306   23.7435  -28.4003 C   0  0  0  0  0  0  0  0  0  0  0  0
   -4.9887   23.2746  -27.4015 N   0  0  0  0  0  0  0  0  0  0  0  0
   -5.9929   23.9472  -26.8298 C   0  0  0  0  0  0  0  0  0  0  0  0
   -6.2512   25.1802  -27.2985 N   0  0  0  0  0  0  0  0  0  0  0  0
   -5.5565   25.7425  -28.2911 C   0  0  0  0  0  0  0  0  0  0  0  0
   -4.5260   25.0392  -28.8700 C   0  0  0  0  0  0  0  0  0  0  0  0
   -3.5743   25.7010  -30.1672 Cl  0  0  0  0  0  0  0  0  0  0  0  0
   -3.1650   23.0781  -29.0317 N   0  0  0  0  0  0  0  0  0  0  0  0
   -3.2880   22.5922  -29.9615 H   0  0  0  0  0  0  0  0  0  0  0  0
   -0.2712   22.5961  -26.9015 C   0  0  0  0  0  0  0  0  0  0  0  0
   -1.6083   22.5201  -27.1686 C   0  0  0  0  0  0  0  0  0  0  0  0
   -1.8707   23.0196  -28.4617 C   0  0  0  0  0  0  0  0  0  0  0  0
   -0.6611   23.3723  -28.9052 N   0  0  0  0  0  0  0  0  0  0  0  0
    0.2891   23.1251  -27.9891 N   0  0  0  0  0  0  0  0  0  0  0  0
   -0.4718   23.7911  -29.8521 H   0  0  0  0  0  0  0  0  0  0  0  0
    0.3745   22.1490  -25.6298 C   0  0  0  0  0  0  0  0  0  0  0  0
   -0.3205   22.5383  -24.5212 O   0  0  0  0  0  0  0  0  0  0  0  0
   -1.4869   21.3109  -22.8967 C   0  0  0  0  0  0  0  0  0  0  0  0
   -0.1132   21.7651  -23.4124 C   0  0  0  0  0  0  0  0  0  0  0  0
   -6.7302   23.3661  -25.7856 N   0  0  0  0  0  0  0  0  0  0  0  0
   -7.7497   23.5066  -25.7368 H   0  0  0  0  0  0  0  0  0  0  0  0
   -6.1311   22.5576  -24.7407 C   0  0  0  0  0  0  0  0  0  0  0  0
   -5.5567   23.3734  -23.6609 C   0  0  0  0  0  0  0  0  0  0  0  0
   -4.2032   23.6826  -23.5989 C   0  0  0  0  0  0  0  0  0  0  0  0
   -3.7910   24.4441  -22.5506 C   0  0  0  0  0  0  0  0  0  0  0  0
   -4.5936   24.9180  -21.5733 N   0  0  0  0  0  0  0  0  0  0  0  0
   -5.8849   24.6113  -21.6503 C   0  0  0  0  0  0  0  0  0  0  0  0
   -6.3803   23.8445  -22.6818 C   0  0  0  0  0  0  0  0  0  0  0  0
 18 19  1  0  0  0
 19 17  1  0  0  0
 17 16  1  0  0  0
 16 10  1  0  0  0
 10 11  1  0  0  0
 11 12  2  0  0  0
 12  8  1  0  0  0
  8  1  1  0  0  0
  1  2  2  0  0  0
  2  3  1  0  0  0
  3 20  1  0  0  0
 20 22  1  0  0  0
 22 23  1  0  0  0
 23 24  2  0  0  0
 24 25  1  0  0  0
 25 26  2  0  0  0
 26 27  1  0  0  0
 27 28  2  0  0  0
  3  4  2  0  0  0
  4  5  1  0  0  0
  5  6  2  0  0  0
  6  7  1  0  0  0
 12 13  1  0  0  0
 13 14  1  0  0  0
 14 10  2  0  0  0
  6  1  1  0  0  0
 28 23  1  0  0  0
  8  9  1  0  0  0
 20 21  1  0  0  0
 13 15  1  0  0  0
M  END
> <minimizedAffinity>
-7.29113

> <CNNscore>
0.8450446725

> <CNNaffinity>
7.1247520447

> <CNN_VS>
6.0207338333

> <CNNaffinity_variance>
0.0626624674

$$$$
[H]c1nc([H])c([H])c(C([H])([H])N([H])c2nc([H])c(Cl)c(N([H])c3c([H])c(C([H])([H])OC([H])([H])C([H])([H])[H])nn3[H])n2)c1[H]


 28 30  0  0  0  0  0  0  0  0999 V2000
   -1.7595   22.2114  -24.8683 C   0  0  0  0  0  0  0  0  0  0  0  0
   -2.3996   22.4897  -26.0107 N   0  0  0  0  0  0  0  0  0  0  0  0
   -1.8057   22.6233  -27.2011 C   0  0  0  0  0  0  0  0  0  0  0  0
   -0.4716   22.4652  -27.2427 N   0  0  0  0  0  0  0  0  0  0  0  0
    0.2629   22.1860  -26.1626 C   0  0  0  0  0  0  0  0  0  0  0  0
   -0.3612   22.0513  -24.9444 C   0  0  0  0  0  0  0  0  0  0  0  0
    0.5242   21.6881  -23.4915 Cl  0  0  0  0  0  0  0  0  0  0  0  0
   -2.3367   22.0635  -23.5948 N   0  0  0  0  0  0  0  0  0  0  0  0
   -2.1586   21.2079  -23.0015 H   0  0  0  0  0  0  0  0  0  0  0  0
   -5.0997   24.2234  -22.6755 C   0  0  0  0  0  0  0  0  0  0  0  0
   -4.5481   23.1896  -23.3769 C   0  0  0  0  0  0  0  0  0  0  0  0
   -3.1868   23.0471  -23.0349 C   0  0  0  0  0  0  0  0  0  0  0  0
   -2.9939   24.0155  -22.1353 N   0  0  0  0  0  0  0  0  0  0  0  0
   -4.1195   24.7148  -21.9177 N   0  0  0  0  0  0  0  0  0  0  0  0
   -2.0777   24.2096  -21.6551 H   0  0  0  0  0  0  0  0  0  0  0  0
   -6.5257   24.6602  -22.7740 C   0  0  0  0  0  0  0  0  0  0  0  0
   -7.2062   24.0167  -23.7672 O   0  0  0  0  0  0  0  0  0  0  0  0
   -7.0428   24.4062  -26.0753 C   0  0  0  0  0  0  0  0  0  0  0  0
   -7.6939   24.8320  -24.7509 C   0  0  0  0  0  0  0  0  0  0  0  0
   -2.5677   22.9168  -28.3434 N   0  0  0  0  0  0  0  0  0  0  0  0
   -2.1045   23.0142  -29.2585 H   0  0  0  0  0  0  0  0  0  0  0  0
   -4.0069   23.0971  -28.3168 C   0  0  0  0  0  0  0  0  0  0  0  0
   -4.4761   24.0138  -29.3661 C   0  0  0  0  0  0  0  0  0  0  0  0
   -3.9382   25.2829  -29.5431 C   0  0  0  0  0  0  0  0  0  0  0  0
   -4.4565   26.0389  -30.5473 C   0  0  0  0  0  0  0  0  0  0  0  0
   -5.4475   25.6503  -31.3784 N   0  0  0  0  0  0  0  0  0  0  0  0
   -5.9491   24.4331  -31.1929 C   0  0  0  0  0  0  0  0  0  0  0  0
   -5.4773   23.6065  -30.1971 C   0  0  0  0  0  0  0  0  0  0  0  0
 18 19  1  0  0  0
 19 17  1  0  0  0
 17 16  1  0  0  0
 16 10  1  0  0  0
 10 11  1  0  0  0
 11 12  2  0  0  0
 12  8  1  0  0  0
  8  1  1  0  0  0
  1  2  2  0  0  0
  2  3  1  0  0  0
  3 20  1  0  0  0
 20 22  1  0  0  0
 22 23  1  0  0  0
 23 24  2  0  0  0
 24 25  1  0  0  0
 25 26  2  0  0  0
 26 27  1  0  0  0
 27 28  2  0  0  0
  3  4  2  0  0  0
  4  5  1  0  0  0
  5  6  2  0  0  0
  6  7  1  0  0  0
 12 13  1  0  0  0
 13 14  1  0  0  0
 14 10  2  0  0  0
  6  1  1  0  0  0
 28 23  1  0  0  0
  8  9  1  0  0  0
 20 21  1  0  0  0
 13 15  1  0  0  0
M  END
> <minimizedAffinity>
-7.26749

> <CNNscore>
0.3046258390

> <CNNaffinity>
6.7600579262

> <CNN_VS>
2.0592882633

> <CNNaffinity_variance>
0.1494092643

$$$$
[H]c1nc([H])c([H])c(C([H])([H])N([H])c2nc([H])c(Cl)c(N([H])c3c([H])c(C([H])([H])OC([H])([H])C([H])([H])[H])nn3[H])n2)c1[H]


 28 30  0  0  0  0  0  0  0  0999 V2000
   -1.4236   22.1901  -24.7770 C   0  0  0  0  0  0  0  0  0  0  0  0
   -2.1891   22.5071  -25.8286 N   0  0  0  0  0  0  0  0  0  0  0  0
   -1.7398   22.6499  -27.0797 C   0  0  0  0  0  0  0  0  0  0  0  0
   -0.4253   22.4595  -27.2853 N   0  0  0  0  0  0  0  0  0  0  0  0
    0.4264   22.1404  -26.3071 C   0  0  0  0  0  0  0  0  0  0  0  0
   -0.0495   21.9968  -25.0247 C   0  0  0  0  0  0  0  0  0  0  0  0
    0.9945   21.5825  -23.6962 Cl  0  0  0  0  0  0  0  0  0  0  0  0
   -1.8467   22.0310  -23.4457 N   0  0  0  0  0  0  0  0  0  0  0  0
   -1.4962   21.2368  -22.8439 H   0  0  0  0  0  0  0  0  0  0  0  0
   -4.4997   23.5903  -21.5288 C   0  0  0  0  0  0  0  0  0  0  0  0
   -3.7785   22.5087  -21.9471 C   0  0  0  0  0  0  0  0  0  0  0  0
   -2.7631   22.9207  -22.8357 C   0  0  0  0  0  0  0  0  0  0  0  0
   -2.9330   24.2440  -22.9027 N   0  0  0  0  0  0  0  0  0  0  0  0
   -3.9570   24.6471  -22.1333 N   0  0  0  0  0  0  0  0  0  0  0  0
   -2.3414   24.8926  -23.4834 H   0  0  0  0  0  0  0  0  0  0  0  0
   -5.6491   23.5359  -20.5749 C   0  0  0  0  0  0  0  0  0  0  0  0
   -5.6141   24.5396  -19.6504 O   0  0  0  0  0  0  0  0  0  0  0  0
   -7.9451   24.6477  -19.8972 C   0  0  0  0  0  0  0  0  0  0  0  0
   -6.6389   25.4407  -19.7417 C   0  0  0  0  0  0  0  0  0  0  0  0
   -2.6258   22.9851  -28.1161 N   0  0  0  0  0  0  0  0  0  0  0  0
   -2.3628   22.8030  -29.0955 H   0  0  0  0  0  0  0  0  0  0  0  0
   -3.9252   23.5891  -27.8898 C   0  0  0  0  0  0  0  0  0  0  0  0
   -4.4895   24.1789  -29.1126 C   0  0  0  0  0  0  0  0  0  0  0  0
   -5.4218   23.5139  -29.9000 C   0  0  0  0  0  0  0  0  0  0  0  0
   -5.8692   24.1624  -31.0081 C   0  0  0  0  0  0  0  0  0  0  0  0
   -5.4774   25.3951  -31.3965 N   0  0  0  0  0  0  0  0  0  0  0  0
   -4.5850   26.0148  -30.6302 C   0  0  0  0  0  0  0  0  0  0  0  0
   -4.0839   25.4243  -29.4910 C   0  0  0  0  0  0  0  0  0  0  0  0
 18 19  1  0  0  0
 19 17  1  0  0  0
 17 16  1  0  0  0
 16 10  1  0  0  0
 10 11  1  0  0  0
 11 12  2  0  0  0
 12  8  1  0  0  0
  8  1  1  0  0  0
  1  2  2  0  0  0
  2  3  1  0  0  0
  3 20  1  0  0  0
 20 22  1  0  0  0
 22 23  1  0  0  0
 23 24  2  0  0  0
 24 25  1  0  0  0
 25 26  2  0  0  0
 26 27  1  0  0  0
 27 28  2  0  0  0
  3  4  2  0  0  0
  4  5  1  0  0  0
  5  6  2  0  0  0
  6  7  1  0  0  0
 12 13  1  0  0  0
 13 14  1  0  0  0
 14 10  2  0  0  0
  6  1  1  0  0  0
 28 23  1  0  0  0
  8  9  1  0  0  0
 20 21  1  0  0  0
 13 15  1  0  0  0
M  END
> <minimizedAffinity>
-7.19933

> <CNNscore>
0.2710506022

> <CNNaffinity>
6.6251487732

> <CNN_VS>
1.7957506180

> <CNNaffinity_variance>
0.3035828173

$$$$
[H]c1nc([H])c([H])c(C([H])([H])N([H])c2nc([H])c(Cl)c(N([H])c3c([H])c(C([H])([H])OC([H])([H])C([H])([H])[H])nn3[H])n2)c1[H]


 28 30  0  0  0  0  0  0  0  0999 V2000
   -1.8233   22.9303  -23.1594 C   0  0  0  0  0  0  0  0  0  0  0  0
   -2.7064   23.9336  -23.2362 N   0  0  0  0  0  0  0  0  0  0  0  0
   -3.6158   24.2185  -22.2985 C   0  0  0  0  0  0  0  0  0  0  0  0
   -3.6365   23.4363  -21.2057 N   0  0  0  0  0  0  0  0  0  0  0  0
   -2.8004   22.4098  -21.0286 C   0  0  0  0  0  0  0  0  0  0  0  0
   -1.8699   22.1280  -22.0014 C   0  0  0  0  0  0  0  0  0  0  0  0
   -0.7458   20.8093  -21.8460 Cl  0  0  0  0  0  0  0  0  0  0  0  0
   -0.8516   22.5895  -24.1168 N   0  0  0  0  0  0  0  0  0  0  0  0
    0.1079   22.2490  -23.8356 H   0  0  0  0  0  0  0  0  0  0  0  0
   -2.3079   22.8541  -27.4264 C   0  0  0  0  0  0  0  0  0  0  0  0
   -2.3917   22.7839  -26.0651 C   0  0  0  0  0  0  0  0  0  0  0  0
   -1.0999   22.6822  -25.5072 C   0  0  0  0  0  0  0  0  0  0  0  0
   -0.3016   22.6972  -26.5781 N   0  0  0  0  0  0  0  0  0  0  0  0
   -1.0080   22.7986  -27.7157 N   0  0  0  0  0  0  0  0  0  0  0  0
    0.7485   22.6376  -26.5401 H   0  0  0  0  0  0  0  0  0  0  0  0
   -3.4759   22.9783  -28.3507 C   0  0  0  0  0  0  0  0  0  0  0  0
   -4.0533   24.2145  -28.3066 O   0  0  0  0  0  0  0  0  0  0  0  0
   -5.4857   24.3722  -30.1584 C   0  0  0  0  0  0  0  0  0  0  0  0
   -4.1694   24.8378  -29.5184 C   0  0  0  0  0  0  0  0  0  0  0  0
   -4.4999   25.2951  -22.4738 N   0  0  0  0  0  0  0  0  0  0  0  0
   -4.1428   26.2614  -22.4528 H   0  0  0  0  0  0  0  0  0  0  0  0
   -5.9250   25.1295  -22.6883 C   0  0  0  0  0  0  0  0  0  0  0  0
   -6.2427   24.7483  -24.0723 C   0  0  0  0  0  0  0  0  0  0  0  0
   -6.2669   23.4244  -24.4945 C   0  0  0  0  0  0  0  0  0  0  0  0
   -6.5730   23.1979  -25.7996 C   0  0  0  0  0  0  0  0  0  0  0  0
   -6.8529   24.1569  -26.7083 N   0  0  0  0  0  0  0  0  0  0  0  0
   -6.8245   25.4169  -26.2852 C   0  0  0  0  0  0  0  0  0  0  0  0
   -6.5232   25.7283  -24.9776 C   0  0  0  0  0  0  0  0  0  0  0  0
 18 19  1  0  0  0
 19 17  1  0  0  0
 17 16  1  0  0  0
 16 10  1  0  0  0
 10 11  1  0  0  0
 11 12  2  0  0  0
 12  8  1  0  0  0
  8  1  1  0  0  0
  1  2  2  0  0  0
  2  3  1  0  0  0
  3 20  1  0  0  0
 20 22  1  0  0  0
 22 23  1  0  0  0
 23 24  2  0  0  0
 24 25  1  0  0  0
 25 26  2  0  0  0
 26 27  1  0  0  0
 27 28  2  0  0  0
  3  4  2  0  0  0
  4  5  1  0  0  0
  5  6  2  0  0  0
  6  7  1  0  0  0
 12 13  1  0  0  0
 13 14  1  0  0  0
 14 10  2  0  0  0
  6  1  1  0  0  0
 28 23  1  0  0  0
  8  9  1  0  0  0
 20 21  1  0  0  0
 13 15  1  0  0  0
M  END
> <minimizedAffinity>
-6.63752

> <CNNscore>
0.2680919766

> <CNNaffinity>
6.6577119827

> <CNN_VS>
1.7848792076

> <CNNaffinity_variance>
0.1462108940

$$$$
[H]c1nc([H])c([H])c(C([H])([H])N([H])c2nc([H])c(Cl)c(N([H])c3c([H])c(C([H])([H])OC([H])([H])C([H])([H])[H])nn3[H])n2)c1[H]


 28 30  0  0  0  0  0  0  0  0999 V2000
   -4.3410   23.1020  -26.2472 C   0  0  0  0  0  0  0  0  0  0  0  0
   -3.4107   22.9543  -25.2959 N   0  0  0  0  0  0  0  0  0  0  0  0
   -2.1150   22.7217  -25.5300 C   0  0  0  0  0  0  0  0  0  0  0  0
   -1.7299   22.6318  -26.8146 N   0  0  0  0  0  0  0  0  0  0  0  0
   -2.5759   22.7635  -27.8397 C   0  0  0  0  0  0  0  0  0  0  0  0
   -3.9061   23.0025  -27.5843 C   0  0  0  0  0  0  0  0  0  0  0  0
   -5.0707   23.1865  -28.8635 Cl  0  0  0  0  0  0  0  0  0  0  0  0
   -5.7121   23.3449  -26.0528 N   0  0  0  0  0  0  0  0  0  0  0  0
   -6.3635   23.5259  -26.8645 H   0  0  0  0  0  0  0  0  0  0  0  0
   -6.9386   22.5751  -22.7291 C   0  0  0  0  0  0  0  0  0  0  0  0
   -6.2977   22.2537  -23.8914 C   0  0  0  0  0  0  0  0  0  0  0  0
   -6.2983   23.3618  -24.7646 C   0  0  0  0  0  0  0  0  0  0  0  0
   -6.9478   24.2994  -24.0693 N   0  0  0  0  0  0  0  0  0  0  0  0
   -7.3293   23.8421  -22.8657 N   0  0  0  0  0  0  0  0  0  0  0  0
   -7.1386   25.2745  -24.4166 H   0  0  0  0  0  0  0  0  0  0  0  0
   -7.1230   21.6506  -21.5693 C   0  0  0  0  0  0  0  0  0  0  0  0
   -8.4331   21.3363  -21.3494 O   0  0  0  0  0  0  0  0  0  0  0  0
   -7.6693   21.2283  -19.1333 C   0  0  0  0  0  0  0  0  0  0  0  0
   -8.8586   21.5153  -20.0620 C   0  0  0  0  0  0  0  0  0  0  0  0
   -1.2164   22.5815  -24.4603 N   0  0  0  0  0  0  0  0  0  0  0  0
   -0.3471   22.0432  -24.5872 H   0  0  0  0  0  0  0  0  0  0  0  0
   -1.4401   23.1624  -23.1499 C   0  0  0  0  0  0  0  0  0  0  0  0
   -1.0115   22.2717  -22.0616 C   0  0  0  0  0  0  0  0  0  0  0  0
   -0.5360   20.9865  -22.2930 C   0  0  0  0  0  0  0  0  0  0  0  0
   -0.1711   20.2577  -21.2048 C   0  0  0  0  0  0  0  0  0  0  0  0
   -0.2362   20.6875  -19.9262 N   0  0  0  0  0  0  0  0  0  0  0  0
   -0.6937   21.9195  -19.7255 C   0  0  0  0  0  0  0  0  0  0  0  0
   -1.0832   22.7205  -20.7762 C   0  0  0  0  0  0  0  0  0  0  0  0
 18 19  1  0  0  0
 19 17  1  0  0  0
 17 16  1  0  0  0
 16 10  1  0  0  0
 10 11  1  0  0  0
 11 12  2  0  0  0
 12  8  1  0  0  0
  8  1  1  0  0  0
  1  2  2  0  0  0
  2  3  1  0  0  0
  3 20  1  0  0  0
 20 22  1  0  0  0
 22 23  1  0  0  0
 23 24  2  0  0  0
 24 25  1  0  0  0
 25 26  2  0  0  0
 26 27  1  0  0  0
 27 28  2  0  0  0
  3  4  2  0  0  0
  4  5  1  0  0  0
  5  6  2  0  0  0
  6  7  1  0  0  0
 12 13  1  0  0  0
 13 14  1  0  0  0
 14 10  2  0  0  0
  6  1  1  0  0  0
 28 23  1  0  0  0
  8  9  1  0  0  0
 20 21  1  0  0  0
 13 15  1  0  0  0
M  END
> <minimizedAffinity>
-5.96151

> <CNNscore>
0.1900561005

> <CNNaffinity>
6.1187191010

> <CNN_VS>
1.1628998518

> <CNNaffinity_variance>
0.2186813802

$$$$
[H]c1nc([H])c([H])c(C([H])([H])N([H])c2nc([H])c(Cl)c(N([H])c3c([H])c(C([H])([H])OC([H])([H])C([H])([H])[H])nn3[H])n2)c1[H]


 28 30  0  0  0  0  0  0  0  0999 V2000
   -4.4813   23.2016  -26.8574 C   0  0  0  0  0  0  0  0  0  0  0  0
   -3.4447   22.9198  -26.0584 N   0  0  0  0  0  0  0  0  0  0  0  0
   -2.2032   22.6671  -26.4855 C   0  0  0  0  0  0  0  0  0  0  0  0
   -1.9916   22.7010  -27.8123 N   0  0  0  0  0  0  0  0  0  0  0  0
   -2.9550   22.9718  -28.6969 C   0  0  0  0  0  0  0  0  0  0  0  0
   -4.2277   23.2297  -28.2437 C   0  0  0  0  0  0  0  0  0  0  0  0
   -5.5368   23.5910  -29.3311 Cl  0  0  0  0  0  0  0  0  0  0  0  0
   -5.8022   23.4715  -26.4585 N   0  0  0  0  0  0  0  0  0  0  0  0
   -6.6309   23.1144  -27.0075 H   0  0  0  0  0  0  0  0  0  0  0  0
   -7.3714   25.2181  -23.6960 C   0  0  0  0  0  0  0  0  0  0  0  0
   -7.4073   24.4423  -24.8193 C   0  0  0  0  0  0  0  0  0  0  0  0
   -6.0987   24.2342  -25.3036 C   0  0  0  0  0  0  0  0  0  0  0  0
   -5.3396   24.9053  -24.4330 N   0  0  0  0  0  0  0  0  0  0  0  0
   -6.0843   25.4893  -23.4804 N   0  0  0  0  0  0  0  0  0  0  0  0
   -4.2903   24.9707  -24.4832 H   0  0  0  0  0  0  0  0  0  0  0  0
   -8.5692   25.6362  -22.9058 C   0  0  0  0  0  0  0  0  0  0  0  0
   -9.0069   24.6606  -22.0572 O   0  0  0  0  0  0  0  0  0  0  0  0
   -8.3745   26.0885  -20.3060 C   0  0  0  0  0  0  0  0  0  0  0  0
   -8.3955   24.6463  -20.8340 C   0  0  0  0  0  0  0  0  0  0  0  0
   -1.1824   22.3812  -25.5647 N   0  0  0  0  0  0  0  0  0  0  0  0
   -0.1975   22.4051  -25.8662 H   0  0  0  0  0  0  0  0  0  0  0  0
   -1.4328   22.0443  -24.1761 C   0  0  0  0  0  0  0  0  0  0  0  0
   -0.2131   21.6191  -23.4740 C   0  0  0  0  0  0  0  0  0  0  0  0
   -0.2236   21.1944  -22.1507 C   0  0  0  0  0  0  0  0  0  0  0  0
    0.9687   20.8273  -21.6103 C   0  0  0  0  0  0  0  0  0  0  0  0
    2.1528   20.8449  -22.2597 N   0  0  0  0  0  0  0  0  0  0  0  0
    2.1421   21.2544  -23.5245 C   0  0  0  0  0  0  0  0  0  0  0  0
    0.9744   21.6425  -24.1435 C   0  0  0  0  0  0  0  0  0  0  0  0
 18 19  1  0  0  0
 19 17  1  0  0  0
 17 16  1  0  0  0
 16 10  1  0  0  0
 10 11  1  0  0  0
 11 12  2  0  0  0
 12  8  1  0  0  0
  8  1  1  0  0  0
  1  2  2  0  0  0
  2  3  1  0  0  0
  3 20  1  0  0  0
 20 22  1  0  0  0
 22 23  1  0  0  0
 23 24  2  0  0  0
 24 25  1  0  0  0
 25 26  2  0  0  0
 26 27  1  0  0  0
 27 28  2  0  0  0
  3  4  2  0  0  0
  4  5  1  0  0  0
  5  6  2  0  0  0
  6  7  1  0  0  0
 12 13  1  0  0  0
 13 14  1  0  0  0
 14 10  2  0  0  0
  6  1  1  0  0  0
 28 23  1  0  0  0
  8  9  1  0  0  0
 20 21  1  0  0  0
 13 15  1  0  0  0
M  END
> <minimizedAffinity>
-6.37687

> <CNNscore>
0.1689252704

> <CNNaffinity>
6.2980089188

> <CNN_VS>
1.0638928413

> <CNNaffinity_variance>
0.4608357847

$$$$
[H]c1nc([H])c([H])c(C([H])([H])N([H])c2nc([H])c(Cl)c(N([H])c3c([H])c(C([H])([H])OC([H])([H])C([H])([H])[H])nn3[H])n2)c1[H]


 28 30  0  0  0  0  0  0  0  0999 V2000
   -0.9907   21.9413  -24.5703 C   0  0  0  0  0  0  0  0  0  0  0  0
   -1.9237   22.1389  -25.5099 N   0  0  0  0  0  0  0  0  0  0  0  0
   -1.6740   22.2364  -26.8197 C   0  0  0  0  0  0  0  0  0  0  0  0
   -0.3925   22.1269  -27.2101 N   0  0  0  0  0  0  0  0  0  0  0  0
    0.6149   21.9287  -26.3558 C   0  0  0  0  0  0  0  0  0  0  0  0
    0.3436   21.8304  -25.0110 C   0  0  0  0  0  0  0  0  0  0  0  0
    1.5992   21.5724  -23.8348 Cl  0  0  0  0  0  0  0  0  0  0  0  0
   -1.2017   21.8342  -23.1844 N   0  0  0  0  0  0  0  0  0  0  0  0
   -0.3963   21.7525  -22.5058 H   0  0  0  0  0  0  0  0  0  0  0  0
   -4.1743   22.3747  -21.1804 C   0  0  0  0  0  0  0  0  0  0  0  0
   -2.8615   22.5912  -21.4879 C   0  0  0  0  0  0  0  0  0  0  0  0
   -2.4992   21.8293  -22.6187 C   0  0  0  0  0  0  0  0  0  0  0  0
   -3.6291   21.1892  -22.9317 N   0  0  0  0  0  0  0  0  0  0  0  0
   -4.6232   21.5063  -22.0865 N   0  0  0  0  0  0  0  0  0  0  0  0
   -3.7320   20.5204  -23.7378 H   0  0  0  0  0  0  0  0  0  0  0  0
   -4.9062   23.0204  -20.0485 C   0  0  0  0  0  0  0  0  0  0  0  0
   -4.1355   23.1510  -18.9294 O   0  0  0  0  0  0  0  0  0  0  0  0
   -3.2425   22.2544  -16.9533 C   0  0  0  0  0  0  0  0  0  0  0  0
   -4.4361   22.2788  -17.9198 C   0  0  0  0  0  0  0  0  0  0  0  0
   -2.7250   22.4446  -27.7272 N   0  0  0  0  0  0  0  0  0  0  0  0
   -3.3104   21.6510  -28.0258 H   0  0  0  0  0  0  0  0  0  0  0  0
   -3.0488   23.7429  -28.2877 C   0  0  0  0  0  0  0  0  0  0  0  0
   -4.3683   24.2264  -27.8556 C   0  0  0  0  0  0  0  0  0  0  0  0
   -4.8323   25.5005  -28.1601 C   0  0  0  0  0  0  0  0  0  0  0  0
   -6.0691   25.8329  -27.7035 C   0  0  0  0  0  0  0  0  0  0  0  0
   -6.8730   25.0225  -26.9817 N   0  0  0  0  0  0  0  0  0  0  0  0
   -6.4112   23.8079  -26.7006 C   0  0  0  0  0  0  0  0  0  0  0  0
   -5.1681   23.3961  -27.1277 C   0  0  0  0  0  0  0  0  0  0  0  0
 18 19  1  0  0  0
 19 17  1  0  0  0
 17 16  1  0  0  0
 16 10  1  0  0  0
 10 11  1  0  0  0
 11 12  2  0  0  0
 12  8  1  0  0  0
  8  1  1  0  0  0
  1  2  2  0  0  0
  2  3  1  0  0  0
  3 20  1  0  0  0
 20 22  1  0  0  0
 22 23  1  0  0  0
 23 24  2  0  0  0
 24 25  1  0  0  0
 25 26  2  0  0  0
 26 27  1  0  0  0
 27 28  2  0  0  0
  3  4  2  0  0  0
  4  5  1  0  0  0
  5  6  2  0  0  0
  6  7  1  0  0  0
 12 13  1  0  0  0
 13 14  1  0  0  0
 14 10  2  0  0  0
  6  1  1  0  0  0
 28 23  1  0  0  0
  8  9  1  0  0  0
 20 21  1  0  0  0
 13 15  1  0  0  0
M  END
> <minimizedAffinity>
-6.13434

> <CNNscore>
0.1653108597

> <CNNaffinity>
6.4776053429

> <CNN_VS>
1.0708185434

> <CNNaffinity_variance>
0.5358467102

$$$$
[H]c1nc([H])c([H])c(C([H])([H])N([H])c2nc([H])c(Cl)c(N([H])c3c([H])c(C([H])([H])OC([H])([H])C([H])([H])[H])nn3[H])n2)c1[H]


 28 30  0  0  0  0  0  0  0  0999 V2000
   -4.5425   23.4272  -22.7004 C   0  0  0  0  0  0  0  0  0  0  0  0
   -4.0940   23.3688  -23.9604 N   0  0  0  0  0  0  0  0  0  0  0  0
   -4.4569   24.2086  -24.9355 C   0  0  0  0  0  0  0  0  0  0  0  0
   -5.3342   25.1759  -24.6176 N   0  0  0  0  0  0  0  0  0  0  0  0
   -5.8432   25.3236  -23.3916 C   0  0  0  0  0  0  0  0  0  0  0  0
   -5.4612   24.4525  -22.3981 C   0  0  0  0  0  0  0  0  0  0  0  0
   -6.0780   24.5780  -20.7763 Cl  0  0  0  0  0  0  0  0  0  0  0  0
   -4.1940   22.5689  -21.6426 N   0  0  0  0  0  0  0  0  0  0  0  0
   -4.8698   22.3502  -20.8608 H   0  0  0  0  0  0  0  0  0  0  0  0
   -0.9580   21.2832  -20.6330 C   0  0  0  0  0  0  0  0  0  0  0  0
   -2.1235   21.9559  -20.4005 C   0  0  0  0  0  0  0  0  0  0  0  0
   -2.9234   21.9503  -21.5626 C   0  0  0  0  0  0  0  0  0  0  0  0
   -2.1845   21.2656  -22.4399 N   0  0  0  0  0  0  0  0  0  0  0  0
   -1.0219   20.8681  -21.8980 N   0  0  0  0  0  0  0  0  0  0  0  0
   -2.4730   21.0609  -23.4312 H   0  0  0  0  0  0  0  0  0  0  0  0
    0.1276   21.0784  -19.6264 C   0  0  0  0  0  0  0  0  0  0  0  0
    1.0646   22.0708  -19.6531 O   0  0  0  0  0  0  0  0  0  0  0  0
    2.3994   23.4817  -18.3364 C   0  0  0  0  0  0  0  0  0  0  0  0
    0.9808   22.9679  -18.6243 C   0  0  0  0  0  0  0  0  0  0  0  0
   -3.9283   24.0630  -26.2282 N   0  0  0  0  0  0  0  0  0  0  0  0
   -3.8346   24.8865  -26.8403 H   0  0  0  0  0  0  0  0  0  0  0  0
   -3.4935   22.7908  -26.7730 C   0  0  0  0  0  0  0  0  0  0  0  0
   -2.0391   22.7384  -26.9816 C   0  0  0  0  0  0  0  0  0  0  0  0
   -1.1547   22.3605  -25.9783 C   0  0  0  0  0  0  0  0  0  0  0  0
    0.1682   22.3522  -26.2919 C   0  0  0  0  0  0  0  0  0  0  0  0
    0.6816   22.6816  -27.4968 N   0  0  0  0  0  0  0  0  0  0  0  0
   -0.1804   23.0404  -28.4433 C   0  0  0  0  0  0  0  0  0  0  0  0
   -1.5364   23.0738  -28.2037 C   0  0  0  0  0  0  0  0  0  0  0  0
 18 19  1  0  0  0
 19 17  1  0  0  0
 17 16  1  0  0  0
 16 10  1  0  0  0
 10 11  1  0  0  0
 11 12  2  0  0  0
 12  8  1  0  0  0
  8  1  1  0  0  0
  1  2  2  0  0  0
  2  3  1  0  0  0
  3 20  1  0  0  0
 20 22  1  0  0  0
 22 23  1  0  0  0
 23 24  2  0  0  0
 24 25  1  0  0  0
 25 26  2  0  0  0
 26 27  1  0  0  0
 27 28  2  0  0  0
  3  4  2  0  0  0
  4  5  1  0  0  0
  5  6  2  0  0  0
  6  7  1  0  0  0
 12 13  1  0  0  0
 13 14  1  0  0  0
 14 10  2  0  0  0
  6  1  1  0  0  0
 28 23  1  0  0  0
  8  9  1  0  0  0
 20 21  1  0  0  0
 13 15  1  0  0  0
M  END
> <minimizedAffinity>
-6.14214

> <CNNscore>
0.1514113992

> <CNNaffinity>
6.0856719017

> <CNN_VS>
0.9214401245

> <CNNaffinity_variance>
0.4072466791

$$$$
[H]c1nc([H])c([H])c(C([H])([H])N([H])c2nc([H])c(Cl)c(N([H])c3c([H])c(C([H])([H])OC([H])([H])C([H])([H])[H])nn3[H])n2)c1[H]


 28 30  0  0  0  0  0  0  0  0999 V2000
   -1.7026   22.0893  -25.4541 C   0  0  0  0  0  0  0  0  0  0  0  0
   -2.3320   21.8208  -24.3034 N   0  0  0  0  0  0  0  0  0  0  0  0
   -1.7182   21.5375  -23.1499 C   0  0  0  0  0  0  0  0  0  0  0  0
   -0.3742   21.5239  -23.1569 N   0  0  0  0  0  0  0  0  0  0  0  0
    0.3512   21.7775  -24.2495 C   0  0  0  0  0  0  0  0  0  0  0  0
   -0.2934   22.0674  -25.4293 C   0  0  0  0  0  0  0  0  0  0  0  0
    0.5789   22.4092  -26.8952 Cl  0  0  0  0  0  0  0  0  0  0  0  0
   -2.3010   22.3899  -26.6903 N   0  0  0  0  0  0  0  0  0  0  0  0
   -2.0859   21.8314  -27.5606 H   0  0  0  0  0  0  0  0  0  0  0  0
   -4.7184   24.8156  -27.8804 C   0  0  0  0  0  0  0  0  0  0  0  0
   -3.9043   23.7317  -28.0450 C   0  0  0  0  0  0  0  0  0  0  0  0
   -3.2224   23.4538  -26.8416 C   0  0  0  0  0  0  0  0  0  0  0  0
   -3.6707   24.3984  -26.0102 N   0  0  0  0  0  0  0  0  0  0  0  0
   -4.5549   25.2068  -26.6167 N   0  0  0  0  0  0  0  0  0  0  0  0
   -3.3718   24.5000  -25.0062 H   0  0  0  0  0  0  0  0  0  0  0  0
   -5.6001   25.3928  -28.9404 C   0  0  0  0  0  0  0  0  0  0  0  0
   -6.0774   24.4469  -29.8011 O   0  0  0  0  0  0  0  0  0  0  0  0
   -4.9304   25.9332  -31.2086 C   0  0  0  0  0  0  0  0  0  0  0  0
   -5.8566   24.7108  -31.1247 C   0  0  0  0  0  0  0  0  0  0  0  0
   -2.4704   21.2693  -21.9950 N   0  0  0  0  0  0  0  0  0  0  0  0
   -2.6652   20.2945  -21.7240 H   0  0  0  0  0  0  0  0  0  0  0  0
   -3.0066   22.3066  -21.1342 C   0  0  0  0  0  0  0  0  0  0  0  0
   -4.1921   22.9566  -21.7118 C   0  0  0  0  0  0  0  0  0  0  0  0
   -4.1765   24.2708  -22.1636 C   0  0  0  0  0  0  0  0  0  0  0  0
   -5.3362   24.7613  -22.6766 C   0  0  0  0  0  0  0  0  0  0  0  0
   -6.4924   24.0710  -22.7784 N   0  0  0  0  0  0  0  0  0  0  0  0
   -6.4871   22.8156  -22.3408 C   0  0  0  0  0  0  0  0  0  0  0  0
   -5.3518   22.2461  -21.8078 C   0  0  0  0  0  0  0  0  0  0  0  0
 18 19  1  0  0  0
 19 17  1  0  0  0
 17 16  1  0  0  0
 16 10  1  0  0  0
 10 11  1  0  0  0
 11 12  2  0  0  0
 12  8  1  0  0  0
  8  1  1  0  0  0
  1  2  2  0  0  0
  2  3  1  0  0  0
  3 20  1  0  0  0
 20 22  1  0  0  0
 22 23  1  0  0  0
 23 24  2  0  0  0
 24 25  1  0  0  0
 25 26  2  0  0  0
 26 27  1  0  0  0
 27 28  2  0  0  0
  3  4  2  0  0  0
  4  5  1  0  0  0
  5  6  2  0  0  0
  6  7  1  0  0  0
 12 13  1  0  0  0
 13 14  1  0  0  0
 14 10  2  0  0  0
  6  1  1  0  0  0
 28 23  1  0  0  0
  8  9  1  0  0  0
 20 21  1  0  0  0
 13 15  1  0  0  0
M  END
> <minimizedAffinity>
-6.95097

> <CNNscore>
0.1469441950

> <CNNaffinity>
6.1925916672

> <CNN_VS>
0.9099653959

> <CNNaffinity_variance>
0.5000602007

$$$$
[H]C([H])=C([H])C(=O)N1C([H])([H])C([H])(OC([H])([H])C([H])([H])n2c(=O)c(-c3c(Cl)c(OC([H])([H])[H])c([H])c(OC([H])([H])[H])c3Cl)c([H])c3c([H])nc(N([H])C([H])([H])C([H])([H])C([H])([H])N4C([H])([H])C([H])([H])C([H])([H])C([H])([H])C4([H])[H])nc32)C1([H])[H]


 45 49  0  0  0  0  0  0  0  0999 V2000
   -2.3117   22.9021  -24.3797 C   0  0  0  0  0  0  0  0  0  0  0  0
   -0.9810   22.7051  -24.7377 C   0  0  0  0  0  0  0  0  0  0  0  0
   -0.1073   22.1069  -23.8478 C   0  0  0  0  0  0  0  0  0  0  0  0
    1.2116   21.9005  -24.1646 C   0  0  0  0  0  0  0  0  0  0  0  0
    2.0360   21.3193  -23.2749 N   0  0  0  0  0  0  0  0  0  0  0  0
    1.6461   20.9129  -22.0574 C   0  0  0  0  0  0  0  0  0  0  0  0
    0.3361   21.1238  -21.7566 N   0  0  0  0  0  0  0  0  0  0  0  0
   -0.5302   21.6981  -22.6033 C   0  0  0  0  0  0  0  0  0  0  0  0
   -1.8254   21.9049  -22.2908 N   0  0  0  0  0  0  0  0  0  0  0  0
   -2.7003   22.4815  -23.1274 C   0  0  0  0  0  0  0  0  0  0  0  0
   -3.9058   22.6424  -22.7599 O   0  0  0  0  0  0  0  0  0  0  0  0
   -4.7371   25.2653  -25.9545 C   0  0  0  0  0  0  0  0  0  0  0  0
   -4.9811   24.6448  -27.1658 C   0  0  0  0  0  0  0  0  0  0  0  0
   -4.3511   23.4552  -27.4626 C   0  0  0  0  0  0  0  0  0  0  0  0
   -3.4882   22.9137  -26.5349 C   0  0  0  0  0  0  0  0  0  0  0  0
   -2.6724   21.4025  -26.8835 Cl  0  0  0  0  0  0  0  0  0  0  0  0
   -3.2346   23.5240  -25.3182 C   0  0  0  0  0  0  0  0  0  0  0  0
   -3.8638   24.7120  -25.0222 C   0  0  0  0  0  0  0  0  0  0  0  0
   -3.5925   25.5468  -23.4972 Cl  0  0  0  0  0  0  0  0  0  0  0  0
   -6.4795   26.4704  -24.7791 C   0  0  0  0  0  0  0  0  0  0  0  0
   -5.3733   26.4627  -25.6597 O   0  0  0  0  0  0  0  0  0  0  0  0
   -4.5911   22.8286  -28.6740 O   0  0  0  0  0  0  0  0  0  0  0  0
   -5.4262   23.3979  -29.6633 C   0  0  0  0  0  0  0  0  0  0  0  0
    2.5162   20.2996  -21.1091 N   0  0  0  0  0  0  0  0  0  0  0  0
    3.1538   19.5162  -21.4523 H   0  0  0  0  0  0  0  0  0  0  0  0
    2.6205   20.6337  -19.7301 C   0  0  0  0  0  0  0  0  0  0  0  0
    3.0342   19.4061  -18.9451 C   0  0  0  0  0  0  0  0  0  0  0  0
    2.6312   18.1756  -19.7133 C   0  0  0  0  0  0  0  0  0  0  0  0
    1.2297   17.9654  -19.6809 N   0  0  0  0  0  0  0  0  0  0  0  0
    0.6624   17.6476  -18.4194 C   0  0  0  0  0  0  0  0  0  0  0  0
    0.7288   16.1623  -18.1174 C   0  0  0  0  0  0  0  0  0  0  0  0
    0.3090   15.3046  -19.2651 C   0  0  0  0  0  0  0  0  0  0  0  0
    0.9813   15.7219  -20.5496 C   0  0  0  0  0  0  0  0  0  0  0  0
    0.7260   17.1894  -20.7733 C   0  0  0  0  0  0  0  0  0  0  0  0
   -2.2961   21.4793  -21.0039 C   0  0  0  0  0  0  0  0  0  0  0  0
   -2.2004   22.6333  -20.0442 C   0  0  0  0  0  0  0  0  0  0  0  0
   -3.1893   22.6448  -19.0683 O   0  0  0  0  0  0  0  0  0  0  0  0
   -4.2721   21.9802  -19.5891 C   0  0  0  0  0  0  0  0  0  0  0  0
   -5.1878   21.2901  -18.5884 C   0  0  0  0  0  0  0  0  0  0  0  0
   -6.2766   21.6565  -19.4627 N   0  0  0  0  0  0  0  0  0  0  0  0
   -5.5246   22.8406  -19.8076 C   0  0  0  0  0  0  0  0  0  0  0  0
   -7.5208   21.1030  -19.8222 C   0  0  0  0  0  0  0  0  0  0  0  0
   -7.8759   19.9960  -19.2968 O   0  0  0  0  0  0  0  0  0  0  0  0
   -8.4255   21.7279  -20.7638 C   0  0  0  0  0  0  0  0  0  0  0  0
   -9.3795   22.5412  -20.3758 C   0  0  0  0  0  0  0  0  0  0  0  0
 20 21  1  0  0  0
 21 12  1  0  0  0
 12 13  2  0  0  0
 13 14  1  0  0  0
 14 22  1  0  0  0
 22 23  1  0  0  0
 14 15  2  0  0  0
 15 16  1  0  0  0
 15 17  1  0  0  0
 17 18  2  0  0  0
 18 19  1  0  0  0
 17  1  1  0  0  0
  1  2  2  0  0  0
  2  3  1  0  0  0
  3  4  2  0  0  0
  4  5  1  0  0  0
  5  6  2  0  0  0
  6 24  1  0  0  0
 24 26  1  0  0  0
 26 27  1  0  0  0
 27 28  1  0  0  0
 28 29  1  0  0  0
 29 30  1  0  0  0
 30 31  1  0  0  0
 31 32  1  0  0  0
 32 33  1  0  0  0
 33 34  1  0  0  0
  6  7  1  0  0  0
  7  8  2  0  0  0
  8  9  1  0  0  0
  9 35  1  0  0  0
 35 36  1  0  0  0
 36 37  1  0  0  0
 37 38  1  0  0  0
 38 39  1  0  0  0
 39 40  1  0  0  0
 40 41  1  0  0  0
 40 42  1  0  0  0
 42 43  2  0  0  0
 42 44  1  0  0  0
 44 45  2  0  0  0
  9 10  1  0  0  0
 10 11  2  0  0  0
 18 12  1  0  0  0
 10  1  1  0  0  0
  8  3  1  0  0  0
 41 38  1  0  0  0
 34 29  1  0  0  0
 24 25  1  0  0  0
M  END
> <minimizedAffinity>
-6.85154

> <CNNscore>
0.1269936413

> <CNNaffinity>
6.9842348099

> <CNN_VS>
0.8869534135

> <CNNaffinity_variance>
0.2598989308

$$$$
[H]C([H])=C([H])C(=O)N1C([H])([H])C([H])(OC([H])([H])C([H])([H])n2c(=O)c(-c3c(Cl)c(OC([H])([H])[H])c([H])c(OC([H])([H])[H])c3Cl)c([H])c3c([H])nc(N([H])C([H])([H])C([H])([H])C([H])([H])N4C([H])([H])C([H])([H])C([H])([H])C([H])([H])C4([H])[H])nc32)C1([H])[H]


 45 49  0  0  0  0  0  0  0  0999 V2000
   -2.1764   22.7315  -24.3735 C   0  0  0  0  0  0  0  0  0  0  0  0
   -0.8488   22.6178  -24.7763 C   0  0  0  0  0  0  0  0  0  0  0  0
    0.0742   22.0042  -23.9488 C   0  0  0  0  0  0  0  0  0  0  0  0
    1.3916   21.8778  -24.3109 C   0  0  0  0  0  0  0  0  0  0  0  0
    2.2647   21.2790  -23.4813 N   0  0  0  0  0  0  0  0  0  0  0  0
    1.9264   20.7789  -22.2834 C   0  0  0  0  0  0  0  0  0  0  0  0
    0.6173   20.9111  -21.9373 N   0  0  0  0  0  0  0  0  0  0  0  0
   -0.2961   21.4985  -22.7233 C   0  0  0  0  0  0  0  0  0  0  0  0
   -1.5899   21.6265  -22.3661 N   0  0  0  0  0  0  0  0  0  0  0  0
   -2.5117   22.2151  -23.1417 C   0  0  0  0  0  0  0  0  0  0  0  0
   -3.7124   22.2979  -22.7349 O   0  0  0  0  0  0  0  0  0  0  0  0
   -4.7729   25.0558  -25.7162 C   0  0  0  0  0  0  0  0  0  0  0  0
   -4.9924   24.5277  -26.9751 C   0  0  0  0  0  0  0  0  0  0  0  0
   -4.2900   23.4128  -27.3797 C   0  0  0  0  0  0  0  0  0  0  0  0
   -3.3808   22.8515  -26.5098 C   0  0  0  0  0  0  0  0  0  0  0  0
   -2.4726   21.4338  -26.9957 Cl  0  0  0  0  0  0  0  0  0  0  0  0
   -3.1509   23.3697  -25.2465 C   0  0  0  0  0  0  0  0  0  0  0  0
   -3.8524   24.4831  -24.8428 C   0  0  0  0  0  0  0  0  0  0  0  0
   -3.6155   25.1988  -23.2530 Cl  0  0  0  0  0  0  0  0  0  0  0  0
   -5.0002   27.4667  -25.6391 C   0  0  0  0  0  0  0  0  0  0  0  0
   -5.4821   26.1781  -25.3128 O   0  0  0  0  0  0  0  0  0  0  0  0
   -4.5051   22.8790  -28.6393 O   0  0  0  0  0  0  0  0  0  0  0  0
   -5.5056   23.3761  -29.5065 C   0  0  0  0  0  0  0  0  0  0  0  0
    2.8482   20.1463  -21.3986 N   0  0  0  0  0  0  0  0  0  0  0  0
    2.6336   19.1493  -21.0858 H   0  0  0  0  0  0  0  0  0  0  0  0
    4.0434   20.7211  -20.8839 C   0  0  0  0  0  0  0  0  0  0  0  0
    3.6914   21.7955  -19.8759 C   0  0  0  0  0  0  0  0  0  0  0  0
    4.9436   22.2199  -19.1559 C   0  0  0  0  0  0  0  0  0  0  0  0
    4.7396   22.3308  -17.7575 N   0  0  0  0  0  0  0  0  0  0  0  0
    3.5192   22.9205  -17.3368 C   0  0  0  0  0  0  0  0  0  0  0  0
    3.6018   24.4343  -17.2811 C   0  0  0  0  0  0  0  0  0  0  0  0
    4.8411   24.9364  -16.6171 C   0  0  0  0  0  0  0  0  0  0  0  0
    6.0762   24.2524  -17.1489 C   0  0  0  0  0  0  0  0  0  0  0  0
    5.8928   22.7624  -17.0274 C   0  0  0  0  0  0  0  0  0  0  0  0
   -2.0061   21.0992  -21.0982 C   0  0  0  0  0  0  0  0  0  0  0  0
   -1.6747   22.0973  -20.0232 C   0  0  0  0  0  0  0  0  0  0  0  0
   -2.7444   22.4195  -19.1970 O   0  0  0  0  0  0  0  0  0  0  0  0
   -2.2737   22.3974  -17.9073 C   0  0  0  0  0  0  0  0  0  0  0  0
   -2.3074   21.0516  -17.1977 C   0  0  0  0  0  0  0  0  0  0  0  0
   -1.0747   21.4528  -16.5624 N   0  0  0  0  0  0  0  0  0  0  0  0
   -0.7598   22.1849  -17.7672 C   0  0  0  0  0  0  0  0  0  0  0  0
   -0.4545   21.2304  -15.3176 C   0  0  0  0  0  0  0  0  0  0  0  0
   -1.0480   20.4993  -14.4571 O   0  0  0  0  0  0  0  0  0  0  0  0
    0.8308   21.7921  -14.9594 C   0  0  0  0  0  0  0  0  0  0  0  0
    1.8062   21.0510  -14.4891 C   0  0  0  0  0  0  0  0  0  0  0  0
 20 21  1  0  0  0
 21 12  1  0  0  0
 12 13  2  0  0  0
 13 14  1  0  0  0
 14 22  1  0  0  0
 22 23  1  0  0  0
 14 15  2  0  0  0
 15 16  1  0  0  0
 15 17  1  0  0  0
 17 18  2  0  0  0
 18 19  1  0  0  0
 17  1  1  0  0  0
  1  2  2  0  0  0
  2  3  1  0  0  0
  3  4  2  0  0  0
  4  5  1  0  0  0
  5  6  2  0  0  0
  6 24  1  0  0  0
 24 26  1  0  0  0
 26 27  1  0  0  0
 27 28  1  0  0  0
 28 29  1  0  0  0
 29 30  1  0  0  0
 30 31  1  0  0  0
 31 32  1  0  0  0
 32 33  1  0  0  0
 33 34  1  0  0  0
  6  7  1  0  0  0
  7  8  2  0  0  0
  8  9  1  0  0  0
  9 35  1  0  0  0
 35 36  1  0  0  0
 36 37  1  0  0  0
 37 38  1  0  0  0
 38 39  1  0  0  0
 39 40  1  0  0  0
 40 41  1  0  0  0
 40 42  1  0  0  0
 42 43  2  0  0  0
 42 44  1  0  0  0
 44 45  2  0  0  0
  9 10  1  0  0  0
 10 11  2  0  0  0
 18 12  1  0  0  0
 10  1  1  0  0  0
  8  3  1  0  0  0
 41 38  1  0  0  0
 34 29  1  0  0  0
 24 25  1  0  0  0
M  END
> <minimizedAffinity>
-6.99720

> <CNNscore>
0.1102429554

> <CNNaffinity>
6.8645286560

> <CNN_VS>
0.7567659020

> <CNNaffinity_variance>
0.3027466238

$$$$
[H]C([H])=C([H])C(=O)N1C([H])([H])C([H])(OC([H])([H])C([H])([H])n2c(=O)c(-c3c(Cl)c(OC([H])([H])[H])c([H])c(OC([H])([H])[H])c3Cl)c([H])c3c([H])nc(N([H])C([H])([H])C([H])([H])C([H])([H])N4C([H])([H])C([H])([H])C([H])([H])C([H])([H])C4([H])[H])nc32)C1([H])[H]


 45 49  0  0  0  0  0  0  0  0999 V2000
   -0.0356   21.0233  -20.9337 C   0  0  0  0  0  0  0  0  0  0  0  0
    0.7119   21.0546  -22.1075 C   0  0  0  0  0  0  0  0  0  0  0  0
    0.1615   21.5779  -23.2636 C   0  0  0  0  0  0  0  0  0  0  0  0
    0.8669   21.6214  -24.4396 C   0  0  0  0  0  0  0  0  0  0  0  0
    0.3010   22.1335  -25.5471 N   0  0  0  0  0  0  0  0  0  0  0  0
   -0.9477   22.6221  -25.5841 C   0  0  0  0  0  0  0  0  0  0  0  0
   -1.6356   22.5726  -24.4113 N   0  0  0  0  0  0  0  0  0  0  0  0
   -1.1226   22.0736  -23.2777 C   0  0  0  0  0  0  0  0  0  0  0  0
   -1.8170   22.0269  -22.1228 N   0  0  0  0  0  0  0  0  0  0  0  0
   -1.3163   21.5269  -20.9840 C   0  0  0  0  0  0  0  0  0  0  0  0
   -2.0335   21.5174  -19.9353 O   0  0  0  0  0  0  0  0  0  0  0  0
    1.2057   18.6546  -18.3269 C   0  0  0  0  0  0  0  0  0  0  0  0
    1.6676   19.5265  -17.3583 C   0  0  0  0  0  0  0  0  0  0  0  0
    1.5708   20.8865  -17.5619 C   0  0  0  0  0  0  0  0  0  0  0  0
    1.0114   21.3419  -18.7357 C   0  0  0  0  0  0  0  0  0  0  0  0
    0.8749   23.0651  -19.0233 Cl  0  0  0  0  0  0  0  0  0  0  0  0
    0.5449   20.4803  -19.7141 C   0  0  0  0  0  0  0  0  0  0  0  0
    0.6417   19.1224  -19.5106 C   0  0  0  0  0  0  0  0  0  0  0  0
    0.0709   17.9653  -20.7070 Cl  0  0  0  0  0  0  0  0  0  0  0  0
    2.5178   16.7358  -17.6437 C   0  0  0  0  0  0  0  0  0  0  0  0
    1.3049   17.2864  -18.1180 O   0  0  0  0  0  0  0  0  0  0  0  0
    2.0315   21.7651  -16.5957 O   0  0  0  0  0  0  0  0  0  0  0  0
    3.3898   22.1509  -16.5155 C   0  0  0  0  0  0  0  0  0  0  0  0
   -1.5539   23.1628  -26.7558 N   0  0  0  0  0  0  0  0  0  0  0  0
   -1.4849   24.2159  -26.9112 H   0  0  0  0  0  0  0  0  0  0  0  0
   -2.2518   22.4265  -27.7532 C   0  0  0  0  0  0  0  0  0  0  0  0
   -3.6592   22.9700  -27.8870 C   0  0  0  0  0  0  0  0  0  0  0  0
   -3.7593   24.2625  -27.1213 C   0  0  0  0  0  0  0  0  0  0  0  0
   -4.3834   24.0852  -25.8609 N   0  0  0  0  0  0  0  0  0  0  0  0
   -5.4218   23.1202  -25.7947 C   0  0  0  0  0  0  0  0  0  0  0  0
   -6.7667   23.6946  -26.1982 C   0  0  0  0  0  0  0  0  0  0  0  0
   -7.0564   25.0200  -25.5750 C   0  0  0  0  0  0  0  0  0  0  0  0
   -5.8925   25.9696  -25.7153 C   0  0  0  0  0  0  0  0  0  0  0  0
   -4.6583   25.3051  -25.1641 C   0  0  0  0  0  0  0  0  0  0  0  0
   -3.1545   22.5461  -22.1061 C   0  0  0  0  0  0  0  0  0  0  0  0
   -4.0890   21.5022  -22.6527 C   0  0  0  0  0  0  0  0  0  0  0  0
   -5.3959   21.6126  -22.1939 O   0  0  0  0  0  0  0  0  0  0  0  0
   -5.3380   22.2289  -20.9682 C   0  0  0  0  0  0  0  0  0  0  0  0
   -6.3762   23.3100  -20.7049 C   0  0  0  0  0  0  0  0  0  0  0  0
   -6.3850   22.8477  -19.3373 N   0  0  0  0  0  0  0  0  0  0  0  0
   -6.1100   21.5234  -19.8444 C   0  0  0  0  0  0  0  0  0  0  0  0
   -6.5753   23.4306  -18.0694 C   0  0  0  0  0  0  0  0  0  0  0  0
   -6.8083   24.6828  -17.9973 O   0  0  0  0  0  0  0  0  0  0  0  0
   -6.5198   22.6787  -16.8336 C   0  0  0  0  0  0  0  0  0  0  0  0
   -7.5357   21.9654  -16.4080 C   0  0  0  0  0  0  0  0  0  0  0  0
 20 21  1  0  0  0
 21 12  1  0  0  0
 12 13  2  0  0  0
 13 14  1  0  0  0
 14 22  1  0  0  0
 22 23  1  0  0  0
 14 15  2  0  0  0
 15 16  1  0  0  0
 15 17  1  0  0  0
 17 18  2  0  0  0
 18 19  1  0  0  0
 17  1  1  0  0  0
  1  2  2  0  0  0
  2  3  1  0  0  0
  3  4  2  0  0  0
  4  5  1  0  0  0
  5  6  2  0  0  0
  6 24  1  0  0  0
 24 26  1  0  0  0
 26 27  1  0  0  0
 27 28  1  0  0  0
 28 29  1  0  0  0
 29 30  1  0  0  0
 30 31  1  0  0  0
 31 32  1  0  0  0
 32 33  1  0  0  0
 33 34  1  0  0  0
  6  7  1  0  0  0
  7  8  2  0  0  0
  8  9  1  0  0  0
  9 35  1  0  0  0
 35 36  1  0  0  0
 36 37  1  0  0  0
 37 38  1  0  0  0
 38 39  1  0  0  0
 39 40  1  0  0  0
 40 41  1  0  0  0
 40 42  1  0  0  0
 42 43  2  0  0  0
 42 44  1  0  0  0
 44 45  2  0  0  0
  9 10  1  0  0  0
 10 11  2  0  0  0
 18 12  1  0  0  0
 10  1  1  0  0  0
  8  3  1  0  0  0
 41 38  1  0  0  0
 34 29  1  0  0  0
 24 25  1  0  0  0
M  END
> <minimizedAffinity>
-6.76317

> <CNNscore>
0.1024890915

> <CNNaffinity>
7.3347330093

> <CNN_VS>
0.7517301440

> <CNNaffinity_variance>
0.0783211589

$$$$
[H]C([H])=C([H])C(=O)N1C([H])([H])C([H])(OC([H])([H])C([H])([H])n2c(=O)c(-c3c(Cl)c(OC([H])([H])[H])c([H])c(OC([H])([H])[H])c3Cl)c([H])c3c([H])nc(N([H])C([H])([H])C([H])([H])C([H])([H])N4C([H])([H])C([H])([H])C([H])([H])C([H])([H])C4([H])[H])nc32)C1([H])[H]


 45 49  0  0  0  0  0  0  0  0999 V2000
   -2.1842   22.8541  -24.3616 C   0  0  0  0  0  0  0  0  0  0  0  0
   -0.8492   22.6340  -24.6887 C   0  0  0  0  0  0  0  0  0  0  0  0
   -0.0095   22.0110  -23.7831 C   0  0  0  0  0  0  0  0  0  0  0  0
    1.3125   21.7811  -24.0695 C   0  0  0  0  0  0  0  0  0  0  0  0
    2.1032   21.1761  -23.1652 N   0  0  0  0  0  0  0  0  0  0  0  0
    1.6755   20.7670  -21.9614 C   0  0  0  0  0  0  0  0  0  0  0  0
    0.3629   21.0012  -21.6908 N   0  0  0  0  0  0  0  0  0  0  0  0
   -0.4709   21.5998  -22.5532 C   0  0  0  0  0  0  0  0  0  0  0  0
   -1.7691   21.8295  -22.2705 N   0  0  0  0  0  0  0  0  0  0  0  0
   -2.6117   22.4305  -23.1230 C   0  0  0  0  0  0  0  0  0  0  0  0
   -3.8225   22.6120  -22.7836 O   0  0  0  0  0  0  0  0  0  0  0  0
   -4.5627   25.2526  -25.9546 C   0  0  0  0  0  0  0  0  0  0  0  0
   -4.7465   24.6754  -27.1975 C   0  0  0  0  0  0  0  0  0  0  0  0
   -4.0914   23.5033  -27.5095 C   0  0  0  0  0  0  0  0  0  0  0  0
   -3.2647   22.9354  -26.5649 C   0  0  0  0  0  0  0  0  0  0  0  0
   -2.4183   21.4456  -26.9324 Cl  0  0  0  0  0  0  0  0  0  0  0  0
   -3.0714   23.5023  -25.3165 C   0  0  0  0  0  0  0  0  0  0  0  0
   -3.7255   24.6727  -25.0053 C   0  0  0  0  0  0  0  0  0  0  0  0
   -3.5306   25.4526  -23.4401 Cl  0  0  0  0  0  0  0  0  0  0  0  0
   -6.4249   26.3879  -24.8995 C   0  0  0  0  0  0  0  0  0  0  0  0
   -5.2239   26.4324  -25.6444 O   0  0  0  0  0  0  0  0  0  0  0  0
   -4.2712   22.9202  -28.7527 O   0  0  0  0  0  0  0  0  0  0  0  0
   -5.4848   23.0356  -29.4697 C   0  0  0  0  0  0  0  0  0  0  0  0
    2.5099   20.1285  -20.9977 N   0  0  0  0  0  0  0  0  0  0  0  0
    2.0509   19.7602  -20.1079 H   0  0  0  0  0  0  0  0  0  0  0  0
    3.9145   19.9304  -21.1065 C   0  0  0  0  0  0  0  0  0  0  0  0
    4.5413   20.0069  -19.7298 C   0  0  0  0  0  0  0  0  0  0  0  0
    3.6445   20.8128  -18.8281 C   0  0  0  0  0  0  0  0  0  0  0  0
    3.7966   22.2066  -19.0369 N   0  0  0  0  0  0  0  0  0  0  0  0
    5.0329   22.7788  -18.6394 C   0  0  0  0  0  0  0  0  0  0  0  0
    5.0433   23.1619  -17.1715 C   0  0  0  0  0  0  0  0  0  0  0  0
    3.8113   23.8858  -16.7390 C   0  0  0  0  0  0  0  0  0  0  0  0
    2.5590   23.1842  -17.2033 C   0  0  0  0  0  0  0  0  0  0  0  0
    2.6433   22.9820  -18.6935 C   0  0  0  0  0  0  0  0  0  0  0  0
   -2.2796   21.4023  -20.9995 C   0  0  0  0  0  0  0  0  0  0  0  0
   -2.1440   22.5315  -20.0156 C   0  0  0  0  0  0  0  0  0  0  0  0
   -3.1454   22.5705  -19.0531 O   0  0  0  0  0  0  0  0  0  0  0  0
   -4.2488   21.9633  -19.6000 C   0  0  0  0  0  0  0  0  0  0  0  0
   -5.1868   21.2624  -18.6280 C   0  0  0  0  0  0  0  0  0  0  0  0
   -6.2628   21.6996  -19.4854 N   0  0  0  0  0  0  0  0  0  0  0  0
   -5.4727   22.8720  -19.7816 C   0  0  0  0  0  0  0  0  0  0  0  0
   -7.5240   21.2019  -19.8664 C   0  0  0  0  0  0  0  0  0  0  0  0
   -7.9149   20.0862  -19.3870 O   0  0  0  0  0  0  0  0  0  0  0  0
   -8.4077   21.8942  -20.7805 C   0  0  0  0  0  0  0  0  0  0  0  0
   -9.4658   22.5483  -20.3627 C   0  0  0  0  0  0  0  0  0  0  0  0
 20 21  1  0  0  0
 21 12  1  0  0  0
 12 13  2  0  0  0
 13 14  1  0  0  0
 14 22  1  0  0  0
 22 23  1  0  0  0
 14 15  2  0  0  0
 15 16  1  0  0  0
 15 17  1  0  0  0
 17 18  2  0  0  0
 18 19  1  0  0  0
 17  1  1  0  0  0
  1  2  2  0  0  0
  2  3  1  0  0  0
  3  4  2  0  0  0
  4  5  1  0  0  0
  5  6  2  0  0  0
  6 24  1  0  0  0
 24 26  1  0  0  0
 26 27  1  0  0  0
 27 28  1  0  0  0
 28 29  1  0  0  0
 29 30  1  0  0  0
 30 31  1  0  0  0
 31 32  1  0  0  0
 32 33  1  0  0  0
 33 34  1  0  0  0
  6  7  1  0  0  0
  7  8  2  0  0  0
  8  9  1  0  0  0
  9 35  1  0  0  0
 35 36  1  0  0  0
 36 37  1  0  0  0
 37 38  1  0  0  0
 38 39  1  0  0  0
 39 40  1  0  0  0
 40 41  1  0  0  0
 40 42  1  0  0  0
 42 43  2  0  0  0
 42 44  1  0  0  0
 44 45  2  0  0  0
  9 10  1  0  0  0
 10 11  2  0  0  0
 18 12  1  0  0  0
 10  1  1  0  0  0
  8  3  1  0  0  0
 41 38  1  0  0  0
 34 29  1  0  0  0
 24 25  1  0  0  0
M  END
> <minimizedAffinity>
-7.37091

> <CNNscore>
0.0934759304

> <CNNaffinity>
6.9194517136

> <CNN_VS>
0.6468021870

> <CNNaffinity_variance>
0.2693135440

$$$$
[H]C([H])=C([H])C(=O)N1C([H])([H])C([H])(OC([H])([H])C([H])([H])n2c(=O)c(-c3c(Cl)c(OC([H])([H])[H])c([H])c(OC([H])([H])[H])c3Cl)c([H])c3c([H])nc(N([H])C([H])([H])C([H])([H])C([H])([H])N4C([H])([H])C([H])([H])C([H])([H])C([H])([H])C4([H])[H])nc32)C1([H])[H]


 45 49  0  0  0  0  0  0  0  0999 V2000
   -2.6382   22.9521  -24.5289 C   0  0  0  0  0  0  0  0  0  0  0  0
   -1.2704   22.7039  -24.6006 C   0  0  0  0  0  0  0  0  0  0  0  0
   -0.6372   22.0226  -23.5767 C   0  0  0  0  0  0  0  0  0  0  0  0
    0.7098   21.7637  -23.6113 C   0  0  0  0  0  0  0  0  0  0  0  0
    1.2957   21.1019  -22.5975 N   0  0  0  0  0  0  0  0  0  0  0  0
    0.6328   20.6616  -21.5175 C   0  0  0  0  0  0  0  0  0  0  0  0
   -0.7018   20.9253  -21.4964 N   0  0  0  0  0  0  0  0  0  0  0  0
   -1.3381   21.5804  -22.4777 C   0  0  0  0  0  0  0  0  0  0  0  0
   -2.6611   21.8387  -22.4422 N   0  0  0  0  0  0  0  0  0  0  0  0
   -3.3079   22.4961  -23.4154 C   0  0  0  0  0  0  0  0  0  0  0  0
   -4.5572   22.7015  -23.3094 O   0  0  0  0  0  0  0  0  0  0  0  0
   -4.0697   23.8313  -27.8644 C   0  0  0  0  0  0  0  0  0  0  0  0
   -4.6026   25.0826  -27.6155 C   0  0  0  0  0  0  0  0  0  0  0  0
   -4.4913   25.6341  -26.3570 C   0  0  0  0  0  0  0  0  0  0  0  0
   -3.8462   24.9156  -25.3742 C   0  0  0  0  0  0  0  0  0  0  0  0
   -3.6891   25.5902  -23.7645 Cl  0  0  0  0  0  0  0  0  0  0  0  0
   -3.3078   23.6617  -25.6093 C   0  0  0  0  0  0  0  0  0  0  0  0
   -3.4192   23.1113  -26.8660 C   0  0  0  0  0  0  0  0  0  0  0  0
   -2.7606   21.5235  -27.2414 Cl  0  0  0  0  0  0  0  0  0  0  0  0
   -5.3013   23.5991  -29.9378 C   0  0  0  0  0  0  0  0  0  0  0  0
   -4.1838   23.2799  -29.1325 O   0  0  0  0  0  0  0  0  0  0  0  0
   -5.0230   26.8869  -26.1012 O   0  0  0  0  0  0  0  0  0  0  0  0
   -6.0979   27.0792  -25.2025 C   0  0  0  0  0  0  0  0  0  0  0  0
    1.2492   19.9629  -20.4385 N   0  0  0  0  0  0  0  0  0  0  0  0
    0.6575   19.7599  -19.5743 H   0  0  0  0  0  0  0  0  0  0  0  0
    2.5947   19.5025  -20.3991 C   0  0  0  0  0  0  0  0  0  0  0  0
    3.1792   19.7738  -19.0283 C   0  0  0  0  0  0  0  0  0  0  0  0
    2.5375   21.0111  -18.4591 C   0  0  0  0  0  0  0  0  0  0  0  0
    3.0380   22.1929  -19.0611 N   0  0  0  0  0  0  0  0  0  0  0  0
    4.4470   22.2887  -19.2011 C   0  0  0  0  0  0  0  0  0  0  0  0
    5.1126   22.8364  -17.9526 C   0  0  0  0  0  0  0  0  0  0  0  0
    4.4221   24.0344  -17.3897 C   0  0  0  0  0  0  0  0  0  0  0  0
    2.9337   23.8177  -17.2726 C   0  0  0  0  0  0  0  0  0  0  0  0
    2.4004   23.3949  -18.6163 C   0  0  0  0  0  0  0  0  0  0  0  0
   -3.4185   21.3803  -21.3132 C   0  0  0  0  0  0  0  0  0  0  0  0
   -3.2020   22.3268  -20.1646 C   0  0  0  0  0  0  0  0  0  0  0  0
   -4.0827   23.4012  -20.1393 O   0  0  0  0  0  0  0  0  0  0  0  0
   -5.3312   22.8882  -19.8875 C   0  0  0  0  0  0  0  0  0  0  0  0
   -6.0721   23.4678  -18.6912 C   0  0  0  0  0  0  0  0  0  0  0  0
   -7.2774   23.3082  -19.4695 N   0  0  0  0  0  0  0  0  0  0  0  0
   -6.4814   23.5638  -20.6474 C   0  0  0  0  0  0  0  0  0  0  0  0
   -8.6306   23.0258  -19.1998 C   0  0  0  0  0  0  0  0  0  0  0  0
   -8.9924   22.8504  -17.9891 O   0  0  0  0  0  0  0  0  0  0  0  0
   -9.6411   22.9230  -20.2313 C   0  0  0  0  0  0  0  0  0  0  0  0
  -10.7783   23.5736  -20.1574 C   0  0  0  0  0  0  0  0  0  0  0  0
 20 21  1  0  0  0
 21 12  1  0  0  0
 12 13  2  0  0  0
 13 14  1  0  0  0
 14 22  1  0  0  0
 22 23  1  0  0  0
 14 15  2  0  0  0
 15 16  1  0  0  0
 15 17  1  0  0  0
 17 18  2  0  0  0
 18 19  1  0  0  0
 17  1  1  0  0  0
  1  2  2  0  0  0
  2  3  1  0  0  0
  3  4  2  0  0  0
  4  5  1  0  0  0
  5  6  2  0  0  0
  6 24  1  0  0  0
 24 26  1  0  0  0
 26 27  1  0  0  0
 27 28  1  0  0  0
 28 29  1  0  0  0
 29 30  1  0  0  0
 30 31  1  0  0  0
 31 32  1  0  0  0
 32 33  1  0  0  0
 33 34  1  0  0  0
  6  7  1  0  0  0
  7  8  2  0  0  0
  8  9  1  0  0  0
  9 35  1  0  0  0
 35 36  1  0  0  0
 36 37  1  0  0  0
 37 38  1  0  0  0
 38 39  1  0  0  0
 39 40  1  0  0  0
 40 41  1  0  0  0
 40 42  1  0  0  0
 42 43  2  0  0  0
 42 44  1  0  0  0
 44 45  2  0  0  0
  9 10  1  0  0  0
 10 11  2  0  0  0
 18 12  1  0  0  0
 10  1  1  0  0  0
  8  3  1  0  0  0
 41 38  1  0  0  0
 34 29  1  0  0  0
 24 25  1  0  0  0
M  END
> <minimizedAffinity>
-7.11967

> <CNNscore>
0.0823041126

> <CNNaffinity>
7.0149469376

> <CNN_VS>
0.5773589611

> <CNNaffinity_variance>
0.1780222803

$$$$
[H]C([H])=C([H])C(=O)N1C([H])([H])C([H])(OC([H])([H])C([H])([H])n2c(=O)c(-c3c(Cl)c(OC([H])([H])[H])c([H])c(OC([H])([H])[H])c3Cl)c([H])c3c([H])nc(N([H])C([H])([H])C([H])([H])C([H])([H])N4C([H])([H])C([H])([H])C([H])([H])C([H])([H])C4([H])[H])nc32)C1([H])[H]


 45 49  0  0  0  0  0  0  0  0999 V2000
    0.4920   20.7040  -20.8534 C   0  0  0  0  0  0  0  0  0  0  0  0
    1.2138   20.8939  -22.0283 C   0  0  0  0  0  0  0  0  0  0  0  0
    0.5819   21.3876  -23.1554 C   0  0  0  0  0  0  0  0  0  0  0  0
    1.2604   21.5837  -24.3318 C   0  0  0  0  0  0  0  0  0  0  0  0
    0.6154   22.0618  -25.4108 N   0  0  0  0  0  0  0  0  0  0  0  0
   -0.6898   22.3716  -25.4181 C   0  0  0  0  0  0  0  0  0  0  0  0
   -1.3500   22.1722  -24.2453 N   0  0  0  0  0  0  0  0  0  0  0  0
   -0.7589   21.6983  -23.1394 C   0  0  0  0  0  0  0  0  0  0  0  0
   -1.4262   21.5016  -21.9843 N   0  0  0  0  0  0  0  0  0  0  0  0
   -0.8471   21.0248  -20.8730 C   0  0  0  0  0  0  0  0  0  0  0  0
   -1.5434   20.8665  -19.8222 O   0  0  0  0  0  0  0  0  0  0  0  0
    1.9367   18.4024  -18.2916 C   0  0  0  0  0  0  0  0  0  0  0  0
    2.4415   19.2987  -17.3678 C   0  0  0  0  0  0  0  0  0  0  0  0
    2.3071   20.6531  -17.5866 C   0  0  0  0  0  0  0  0  0  0  0  0
    1.6675   21.0785  -18.7304 C   0  0  0  0  0  0  0  0  0  0  0  0
    1.4813   22.7939  -19.0364 Cl  0  0  0  0  0  0  0  0  0  0  0  0
    1.1571   20.1922  -19.6639 C   0  0  0  0  0  0  0  0  0  0  0  0
    1.2916   18.8399  -19.4451 C   0  0  0  0  0  0  0  0  0  0  0  0
    0.6691   17.6527  -20.5849 Cl  0  0  0  0  0  0  0  0  0  0  0  0
    2.7198   16.5839  -16.8953 C   0  0  0  0  0  0  0  0  0  0  0  0
    2.0740   17.0399  -18.0675 O   0  0  0  0  0  0  0  0  0  0  0  0
    2.8105   21.5561  -16.6653 O   0  0  0  0  0  0  0  0  0  0  0  0
    2.3094   21.6432  -15.3457 C   0  0  0  0  0  0  0  0  0  0  0  0
   -1.3794   22.8753  -26.5597 N   0  0  0  0  0  0  0  0  0  0  0  0
   -0.9608   23.7179  -27.0625 H   0  0  0  0  0  0  0  0  0  0  0  0
   -2.5883   22.3582  -27.1032 C   0  0  0  0  0  0  0  0  0  0  0  0
   -3.7591   23.1677  -26.5857 C   0  0  0  0  0  0  0  0  0  0  0  0
   -3.9230   24.3942  -27.4433 C   0  0  0  0  0  0  0  0  0  0  0  0
   -5.2365   24.5053  -27.9645 N   0  0  0  0  0  0  0  0  0  0  0  0
   -5.7751   23.3485  -28.5857 C   0  0  0  0  0  0  0  0  0  0  0  0
   -5.3787   23.2434  -30.0464 C   0  0  0  0  0  0  0  0  0  0  0  0
   -5.5298   24.5260  -30.7954 C   0  0  0  0  0  0  0  0  0  0  0  0
   -4.9114   25.6836  -30.0515 C   0  0  0  0  0  0  0  0  0  0  0  0
   -5.4910   25.7292  -28.6620 C   0  0  0  0  0  0  0  0  0  0  0  0
   -2.8229   21.8267  -21.9360 C   0  0  0  0  0  0  0  0  0  0  0  0
   -2.9714   23.2955  -21.6493 C   0  0  0  0  0  0  0  0  0  0  0  0
   -4.1320   23.6259  -20.9603 O   0  0  0  0  0  0  0  0  0  0  0  0
   -4.8120   24.5327  -21.7353 C   0  0  0  0  0  0  0  0  0  0  0  0
   -4.0652   25.0881  -22.9394 C   0  0  0  0  0  0  0  0  0  0  0  0
   -5.3375   25.0846  -23.6216 N   0  0  0  0  0  0  0  0  0  0  0  0
   -5.6887   23.9230  -22.8382 C   0  0  0  0  0  0  0  0  0  0  0  0
   -5.9612   25.8686  -24.6116 C   0  0  0  0  0  0  0  0  0  0  0  0
   -5.3257   26.8606  -25.1008 O   0  0  0  0  0  0  0  0  0  0  0  0
   -7.2959   25.6069  -25.1074 C   0  0  0  0  0  0  0  0  0  0  0  0
   -7.6357   24.4417  -25.6063 C   0  0  0  0  0  0  0  0  0  0  0  0
 20 21  1  0  0  0
 21 12  1  0  0  0
 12 13  2  0  0  0
 13 14  1  0  0  0
 14 22  1  0  0  0
 22 23  1  0  0  0
 14 15  2  0  0  0
 15 16  1  0  0  0
 15 17  1  0  0  0
 17 18  2  0  0  0
 18 19  1  0  0  0
 17  1  1  0  0  0
  1  2  2  0  0  0
  2  3  1  0  0  0
  3  4  2  0  0  0
  4  5  1  0  0  0
  5  6  2  0  0  0
  6 24  1  0  0  0
 24 26  1  0  0  0
 26 27  1  0  0  0
 27 28  1  0  0  0
 28 29  1  0  0  0
 29 30  1  0  0  0
 30 31  1  0  0  0
 31 32  1  0  0  0
 32 33  1  0  0  0
 33 34  1  0  0  0
  6  7  1  0  0  0
  7  8  2  0  0  0
  8  9  1  0  0  0
  9 35  1  0  0  0
 35 36  1  0  0  0
 36 37  1  0  0  0
 37 38  1  0  0  0
 38 39  1  0  0  0
 39 40  1  0  0  0
 40 41  1  0  0  0
 40 42  1  0  0  0
 42 43  2  0  0  0
 42 44  1  0  0  0
 44 45  2  0  0  0
  9 10  1  0  0  0
 10 11  2  0  0  0
 18 12  1  0  0  0
 10  1  1  0  0  0
  8  3  1  0  0  0
 41 38  1  0  0  0
 34 29  1  0  0  0
 24 25  1  0  0  0
M  END
> <minimizedAffinity>
-7.62689

> <CNNscore>
0.0796037838

> <CNNaffinity>
7.3198194504

> <CNN_VS>
0.5826853514

> <CNNaffinity_variance>
0.1146021634

$$$$
[H]C([H])=C([H])C(=O)N1C([H])([H])C([H])(OC([H])([H])C([H])([H])n2c(=O)c(-c3c(Cl)c(OC([H])([H])[H])c([H])c(OC([H])([H])[H])c3Cl)c([H])c3c([H])nc(N([H])C([H])([H])C([H])([H])C([H])([H])N4C([H])([H])C([H])([H])C([H])([H])C([H])([H])C4([H])[H])nc32)C1([H])[H]


 45 49  0  0  0  0  0  0  0  0999 V2000
    0.5202   20.6936  -20.8637 C   0  0  0  0  0  0  0  0  0  0  0  0
    1.2353   20.8770  -22.0438 C   0  0  0  0  0  0  0  0  0  0  0  0
    0.5992   21.3737  -23.1672 C   0  0  0  0  0  0  0  0  0  0  0  0
    1.2710   21.5635  -24.3484 C   0  0  0  0  0  0  0  0  0  0  0  0
    0.6220   22.0449  -25.4236 N   0  0  0  0  0  0  0  0  0  0  0  0
   -0.6810   22.3638  -25.4224 C   0  0  0  0  0  0  0  0  0  0  0  0
   -1.3346   22.1705  -24.2449 N   0  0  0  0  0  0  0  0  0  0  0  0
   -0.7393   21.6939  -23.1424 C   0  0  0  0  0  0  0  0  0  0  0  0
   -1.4000   21.5033  -21.9825 N   0  0  0  0  0  0  0  0  0  0  0  0
   -0.8166   21.0238  -20.8746 C   0  0  0  0  0  0  0  0  0  0  0  0
   -1.5068   20.8718  -19.8188 O   0  0  0  0  0  0  0  0  0  0  0  0
    2.3653   20.4819  -17.6236 C   0  0  0  0  0  0  0  0  0  0  0  0
    2.4501   19.1138  -17.4425 C   0  0  0  0  0  0  0  0  0  0  0  0
    1.9033   18.2656  -18.3817 C   0  0  0  0  0  0  0  0  0  0  0  0
    1.2822   18.8109  -19.4840 C   0  0  0  0  0  0  0  0  0  0  0  0
    0.5775   17.7583  -20.6950 Cl  0  0  0  0  0  0  0  0  0  0  0  0
    1.1899   20.1787  -19.6781 C   0  0  0  0  0  0  0  0  0  0  0  0
    1.7359   21.0253  -18.7402 C   0  0  0  0  0  0  0  0  0  0  0  0
    1.6587   22.7743  -18.9172 Cl  0  0  0  0  0  0  0  0  0  0  0  0
    3.3994   20.8038  -15.4564 C   0  0  0  0  0  0  0  0  0  0  0  0
    2.9170   21.3321  -16.6759 O   0  0  0  0  0  0  0  0  0  0  0  0
    1.9849   16.8944  -18.2063 O   0  0  0  0  0  0  0  0  0  0  0  0
    3.2206   16.2065  -18.2164 C   0  0  0  0  0  0  0  0  0  0  0  0
   -1.3749   22.8709  -26.5599 N   0  0  0  0  0  0  0  0  0  0  0  0
   -0.9563   23.7129  -27.0639 H   0  0  0  0  0  0  0  0  0  0  0  0
   -2.5880   22.3581  -27.0979 C   0  0  0  0  0  0  0  0  0  0  0  0
   -3.7526   23.1796  -26.5850 C   0  0  0  0  0  0  0  0  0  0  0  0
   -3.9063   24.4030  -27.4490 C   0  0  0  0  0  0  0  0  0  0  0  0
   -5.2210   24.5265  -27.9643 N   0  0  0  0  0  0  0  0  0  0  0  0
   -5.7748   23.3736  -28.5796 C   0  0  0  0  0  0  0  0  0  0  0  0
   -5.3864   23.2600  -30.0417 C   0  0  0  0  0  0  0  0  0  0  0  0
   -5.5274   24.5419  -30.7939 C   0  0  0  0  0  0  0  0  0  0  0  0
   -4.8932   25.6951  -30.0563 C   0  0  0  0  0  0  0  0  0  0  0  0
   -5.4657   25.7510  -28.6643 C   0  0  0  0  0  0  0  0  0  0  0  0
   -2.7940   21.8382  -21.9251 C   0  0  0  0  0  0  0  0  0  0  0  0
   -2.9302   23.3117  -21.6566 C   0  0  0  0  0  0  0  0  0  0  0  0
   -4.0829   23.6592  -20.9629 O   0  0  0  0  0  0  0  0  0  0  0  0
   -4.7624   24.5612  -21.7440 C   0  0  0  0  0  0  0  0  0  0  0  0
   -4.0304   25.0769  -22.9746 C   0  0  0  0  0  0  0  0  0  0  0  0
   -5.3161   25.0817  -23.6311 N   0  0  0  0  0  0  0  0  0  0  0  0
   -5.6719   23.9438  -22.8156 C   0  0  0  0  0  0  0  0  0  0  0  0
   -5.9458   25.8553  -24.6255 C   0  0  0  0  0  0  0  0  0  0  0  0
   -5.3029   26.8249  -25.1489 O   0  0  0  0  0  0  0  0  0  0  0  0
   -7.2947   25.6071  -25.0888 C   0  0  0  0  0  0  0  0  0  0  0  0
   -7.6509   24.4547  -25.6056 C   0  0  0  0  0  0  0  0  0  0  0  0
 20 21  1  0  0  0
 21 12  1  0  0  0
 12 13  2  0  0  0
 13 14  1  0  0  0
 14 22  1  0  0  0
 22 23  1  0  0  0
 14 15  2  0  0  0
 15 16  1  0  0  0
 15 17  1  0  0  0
 17 18  2  0  0  0
 18 19  1  0  0  0
 17  1  1  0  0  0
  1  2  2  0  0  0
  2  3  1  0  0  0
  3  4  2  0  0  0
  4  5  1  0  0  0
  5  6  2  0  0  0
  6 24  1  0  0  0
 24 26  1  0  0  0
 26 27  1  0  0  0
 27 28  1  0  0  0
 28 29  1  0  0  0
 29 30  1  0  0  0
 30 31  1  0  0  0
 31 32  1  0  0  0
 32 33  1  0  0  0
 33 34  1  0  0  0
  6  7  1  0  0  0
  7  8  2  0  0  0
  8  9  1  0  0  0
  9 35  1  0  0  0
 35 36  1  0  0  0
 36 37  1  0  0  0
 37 38  1  0  0  0
 38 39  1  0  0  0
 39 40  1  0  0  0
 40 41  1  0  0  0
 40 42  1  0  0  0
 42 43  2  0  0  0
 42 44  1  0  0  0
 44 45  2  0  0  0
  9 10  1  0  0  0
 10 11  2  0  0  0
 18 12  1  0  0  0
 10  1  1  0  0  0
  8  3  1  0  0  0
 41 38  1  0  0  0
 34 29  1  0  0  0
 24 25  1  0  0  0
M  END
> <minimizedAffinity>
-7.66068

> <CNNscore>
0.0755579993

> <CNNaffinity>
7.3280210495

> <CNN_VS>
0.5536906123

> <CNNaffinity_variance>
0.1264187843

$$$$
[H]C([H])=C([H])C(=O)N1C([H])([H])C([H])(OC([H])([H])C([H])([H])n2c(=O)c(-c3c(Cl)c(OC([H])([H])[H])c([H])c(OC([H])([H])[H])c3Cl)c([H])c3c([H])nc(N([H])C([H])([H])C([H])([H])C([H])([H])N4C([H])([H])C([H])([H])C([H])([H])C([H])([H])C4([H])[H])nc32)C1([H])[H]


 45 49  0  0  0  0  0  0  0  0999 V2000
   -2.3100   22.8582  -24.4745 C   0  0  0  0  0  0  0  0  0  0  0  0
   -0.9486   22.6849  -24.7080 C   0  0  0  0  0  0  0  0  0  0  0  0
   -0.1726   21.9971  -23.7926 C   0  0  0  0  0  0  0  0  0  0  0  0
    1.1727   21.8106  -23.9875 C   0  0  0  0  0  0  0  0  0  0  0  0
    1.8997   21.1401  -23.0759 N   0  0  0  0  0  0  0  0  0  0  0  0
    1.3843   20.6227  -21.9507 C   0  0  0  0  0  0  0  0  0  0  0  0
    0.0496   20.8152  -21.7703 N   0  0  0  0  0  0  0  0  0  0  0  0
   -0.7236   21.4750  -22.6444 C   0  0  0  0  0  0  0  0  0  0  0  0
   -2.0449   21.6621  -22.4512 N   0  0  0  0  0  0  0  0  0  0  0  0
   -2.8277   22.3233  -23.3160 C   0  0  0  0  0  0  0  0  0  0  0  0
   -4.0654   22.4587  -23.0634 O   0  0  0  0  0  0  0  0  0  0  0  0
   -4.5256   25.4037  -26.0741 C   0  0  0  0  0  0  0  0  0  0  0  0
   -4.6764   24.8797  -27.3447 C   0  0  0  0  0  0  0  0  0  0  0  0
   -4.0525   23.6952  -27.6732 C   0  0  0  0  0  0  0  0  0  0  0  0
   -3.2895   23.0616  -26.7168 C   0  0  0  0  0  0  0  0  0  0  0  0
   -2.4840   21.5544  -27.1046 Cl  0  0  0  0  0  0  0  0  0  0  0  0
   -3.1298   23.5747  -25.4407 C   0  0  0  0  0  0  0  0  0  0  0  0
   -3.7528   24.7575  -25.1131 C   0  0  0  0  0  0  0  0  0  0  0  0
   -3.5975   25.4717  -23.5125 Cl  0  0  0  0  0  0  0  0  0  0  0  0
   -6.3401   26.5750  -24.9760 C   0  0  0  0  0  0  0  0  0  0  0  0
   -5.1553   26.5962  -25.7475 O   0  0  0  0  0  0  0  0  0  0  0  0
   -4.1995   23.1651  -28.9441 O   0  0  0  0  0  0  0  0  0  0  0  0
   -5.4668   23.0073  -29.5518 C   0  0  0  0  0  0  0  0  0  0  0  0
    2.1507   19.9144  -20.9794 N   0  0  0  0  0  0  0  0  0  0  0  0
    2.0561   18.8522  -20.9487 H   0  0  0  0  0  0  0  0  0  0  0  0
    3.0424   20.4918  -20.0330 C   0  0  0  0  0  0  0  0  0  0  0  0
    2.3320   21.5998  -19.2836 C   0  0  0  0  0  0  0  0  0  0  0  0
    3.3592   22.5408  -18.7126 C   0  0  0  0  0  0  0  0  0  0  0  0
    2.7952   23.4281  -17.7618 N   0  0  0  0  0  0  0  0  0  0  0  0
    3.5964   24.5307  -17.3660 C   0  0  0  0  0  0  0  0  0  0  0  0
    4.5420   24.1766  -16.2338 C   0  0  0  0  0  0  0  0  0  0  0  0
    3.8884   23.4070  -15.1341 C   0  0  0  0  0  0  0  0  0  0  0  0
    3.0753   22.2530  -15.6665 C   0  0  0  0  0  0  0  0  0  0  0  0
    2.1032   22.7791  -16.6898 C   0  0  0  0  0  0  0  0  0  0  0  0
   -2.6479   21.1197  -21.2676 C   0  0  0  0  0  0  0  0  0  0  0  0
   -2.7230   22.1975  -20.2215 C   0  0  0  0  0  0  0  0  0  0  0  0
   -2.4244   21.7639  -18.9357 O   0  0  0  0  0  0  0  0  0  0  0  0
   -3.1074   22.5819  -18.0697 C   0  0  0  0  0  0  0  0  0  0  0  0
   -4.5485   22.9038  -18.4376 C   0  0  0  0  0  0  0  0  0  0  0  0
   -4.8264   22.8727  -17.0213 N   0  0  0  0  0  0  0  0  0  0  0  0
   -3.7979   21.8656  -16.9006 C   0  0  0  0  0  0  0  0  0  0  0  0
   -5.7085   23.5337  -16.1446 C   0  0  0  0  0  0  0  0  0  0  0  0
   -6.5135   24.4011  -16.6212 O   0  0  0  0  0  0  0  0  0  0  0  0
   -5.7507   23.2797  -14.7201 C   0  0  0  0  0  0  0  0  0  0  0  0
   -6.7926   23.5972  -13.9882 C   0  0  0  0  0  0  0  0  0  0  0  0
 20 21  1  0  0  0
 21 12  1  0  0  0
 12 13  2  0  0  0
 13 14  1  0  0  0
 14 22  1  0  0  0
 22 23  1  0  0  0
 14 15  2  0  0  0
 15 16  1  0  0  0
 15 17  1  0  0  0
 17 18  2  0  0  0
 18 19  1  0  0  0
 17  1  1  0  0  0
  1  2  2  0  0  0
  2  3  1  0  0  0
  3  4  2  0  0  0
  4  5  1  0  0  0
  5  6  2  0  0  0
  6 24  1  0  0  0
 24 26  1  0  0  0
 26 27  1  0  0  0
 27 28  1  0  0  0
 28 29  1  0  0  0
 29 30  1  0  0  0
 30 31  1  0  0  0
 31 32  1  0  0  0
 32 33  1  0  0  0
 33 34  1  0  0  0
  6  7  1  0  0  0
  7  8  2  0  0  0
  8  9  1  0  0  0
  9 35  1  0  0  0
 35 36  1  0  0  0
 36 37  1  0  0  0
 37 38  1  0  0  0
 38 39  1  0  0  0
 39 40  1  0  0  0
 40 41  1  0  0  0
 40 42  1  0  0  0
 42 43  2  0  0  0
 42 44  1  0  0  0
 44 45  2  0  0  0
  9 10  1  0  0  0
 10 11  2  0  0  0
 18 12  1  0  0  0
 10  1  1  0  0  0
  8  3  1  0  0  0
 41 38  1  0  0  0
 34 29  1  0  0  0
 24 25  1  0  0  0
M  END
> <minimizedAffinity>
-7.02670

> <CNNscore>
0.0724843368

> <CNNaffinity>
6.8085908890

> <CNN_VS>
0.4935162067

> <CNNaffinity_variance>
0.1879881322

$$$$
[H]C([H])=C([H])C(=O)N1C([H])([H])C([H])(OC([H])([H])C([H])([H])n2c(=O)c(-c3c(Cl)c(OC([H])([H])[H])c([H])c(OC([H])([H])[H])c3Cl)c([H])c3c([H])nc(N([H])C([H])([H])C([H])([H])C([H])([H])N4C([H])([H])C([H])([H])C([H])([H])C([H])([H])C4([H])[H])nc32)C1([H])[H]


 45 49  0  0  0  0  0  0  0  0999 V2000
    0.0256   21.0209  -20.5811 C   0  0  0  0  0  0  0  0  0  0  0  0
    0.9442   21.0283  -21.6269 C   0  0  0  0  0  0  0  0  0  0  0  0
    0.5460   21.4157  -22.8937 C   0  0  0  0  0  0  0  0  0  0  0  0
    1.4227   21.4315  -23.9491 C   0  0  0  0  0  0  0  0  0  0  0  0
    1.0024   21.8100  -25.1694 N   0  0  0  0  0  0  0  0  0  0  0  0
   -0.2570   22.1866  -25.4366 C   0  0  0  0  0  0  0  0  0  0  0  0
   -1.1154   22.1661  -24.3812 N   0  0  0  0  0  0  0  0  0  0  0  0
   -0.7523   21.7980  -23.1443 C   0  0  0  0  0  0  0  0  0  0  0  0
   -1.6145   21.7784  -22.1078 N   0  0  0  0  0  0  0  0  0  0  0  0
   -1.2643   21.4087  -20.8675 C   0  0  0  0  0  0  0  0  0  0  0  0
   -2.1349   21.4162  -19.9422 O   0  0  0  0  0  0  0  0  0  0  0  0
    0.8780   18.9684  -17.5798 C   0  0  0  0  0  0  0  0  0  0  0  0
    1.2595   19.9438  -16.6770 C   0  0  0  0  0  0  0  0  0  0  0  0
    1.2362   21.2696  -17.0539 C   0  0  0  0  0  0  0  0  0  0  0  0
    0.8295   21.5875  -18.3313 C   0  0  0  0  0  0  0  0  0  0  0  0
    0.7895   23.2640  -18.8397 Cl  0  0  0  0  0  0  0  0  0  0  0  0
    0.4448   20.6213  -19.2455 C   0  0  0  0  0  0  0  0  0  0  0  0
    0.4683   19.2976  -18.8690 C   0  0  0  0  0  0  0  0  0  0  0  0
   -0.0062   18.0135  -19.9744 Cl  0  0  0  0  0  0  0  0  0  0  0  0
    2.0944   17.0764  -16.6795 C   0  0  0  0  0  0  0  0  0  0  0  0
    0.9028   17.6351  -17.1964 O   0  0  0  0  0  0  0  0  0  0  0  0
    1.6171   22.2512  -16.1544 O   0  0  0  0  0  0  0  0  0  0  0  0
    1.3183   22.1648  -14.7748 C   0  0  0  0  0  0  0  0  0  0  0  0
   -0.7089   22.5853  -26.7287 N   0  0  0  0  0  0  0  0  0  0  0  0
   -0.1697   23.3587  -27.2279 H   0  0  0  0  0  0  0  0  0  0  0  0
   -1.8237   22.0460  -27.4290 C   0  0  0  0  0  0  0  0  0  0  0  0
   -2.9928   23.0037  -27.3270 C   0  0  0  0  0  0  0  0  0  0  0  0
   -3.5748   23.2130  -28.6997 C   0  0  0  0  0  0  0  0  0  0  0  0
   -4.6686   24.1145  -28.6801 N   0  0  0  0  0  0  0  0  0  0  0  0
   -5.8208   23.7337  -29.4161 C   0  0  0  0  0  0  0  0  0  0  0  0
   -5.7273   24.1327  -30.8768 C   0  0  0  0  0  0  0  0  0  0  0  0
   -5.2467   25.5316  -31.0797 C   0  0  0  0  0  0  0  0  0  0  0  0
   -4.0128   25.8225  -30.2619 C   0  0  0  0  0  0  0  0  0  0  0  0
   -4.2993   25.4903  -28.8210 C   0  0  0  0  0  0  0  0  0  0  0  0
   -2.9720   22.1818  -22.3381 C   0  0  0  0  0  0  0  0  0  0  0  0
   -3.0859   23.6633  -22.1064 C   0  0  0  0  0  0  0  0  0  0  0  0
   -3.3374   24.4012  -23.2567 O   0  0  0  0  0  0  0  0  0  0  0  0
   -4.4334   25.1862  -22.9959 C   0  0  0  0  0  0  0  0  0  0  0  0
   -5.7194   24.8145  -23.7197 C   0  0  0  0  0  0  0  0  0  0  0  0
   -6.4110   25.2221  -22.5198 N   0  0  0  0  0  0  0  0  0  0  0  0
   -5.2612   24.7680  -21.7725 C   0  0  0  0  0  0  0  0  0  0  0  0
   -7.6554   25.8062  -22.2135 C   0  0  0  0  0  0  0  0  0  0  0  0
   -8.4547   26.0857  -23.1676 O   0  0  0  0  0  0  0  0  0  0  0  0
   -8.0793   26.1091  -20.8628 C   0  0  0  0  0  0  0  0  0  0  0  0
   -8.6259   25.2032  -20.0865 C   0  0  0  0  0  0  0  0  0  0  0  0
 20 21  1  0  0  0
 21 12  1  0  0  0
 12 13  2  0  0  0
 13 14  1  0  0  0
 14 22  1  0  0  0
 22 23  1  0  0  0
 14 15  2  0  0  0
 15 16  1  0  0  0
 15 17  1  0  0  0
 17 18  2  0  0  0
 18 19  1  0  0  0
 17  1  1  0  0  0
  1  2  2  0  0  0
  2  3  1  0  0  0
  3  4  2  0  0  0
  4  5  1  0  0  0
  5  6  2  0  0  0
  6 24  1  0  0  0
 24 26  1  0  0  0
 26 27  1  0  0  0
 27 28  1  0  0  0
 28 29  1  0  0  0
 29 30  1  0  0  0
 30 31  1  0  0  0
 31 32  1  0  0  0
 32 33  1  0  0  0
 33 34  1  0  0  0
  6  7  1  0  0  0
  7  8  2  0  0  0
  8  9  1  0  0  0
  9 35  1  0  0  0
 35 36  1  0  0  0
 36 37  1  0  0  0
 37 38  1  0  0  0
 38 39  1  0  0  0
 39 40  1  0  0  0
 40 41  1  0  0  0
 40 42  1  0  0  0
 42 43  2  0  0  0
 42 44  1  0  0  0
 44 45  2  0  0  0
  9 10  1  0  0  0
 10 11  2  0  0  0
 18 12  1  0  0  0
 10  1  1  0  0  0
  8  3  1  0  0  0
 41 38  1  0  0  0
 34 29  1  0  0  0
 24 25  1  0  0  0
M  END
> <minimizedAffinity>
-7.75370

> <CNNscore>
0.0717280433

> <CNNaffinity>
7.1638135910

> <CNN_VS>
0.5138463378

> <CNNaffinity_variance>
0.0993864387

$$$$
[H]c1nc(N([H])[H])c(-c2nn(-c3c(Cl)c(OC([H])([H])[H])c([H])c(OC([H])([H])[H])c3Cl)c(=O)c([H])c2[H])nc1-c1c([H])nn(C2([H])C([H])([H])C([H])([H])N([H])C([H])([H])C2([H])[H])c1[H]


 40 44  0  0  0  0  0  0  0  0999 V2000
   -2.3241   22.8082  -26.3294 C   0  0  0  0  0  0  0  0  0  0  0  0
   -1.7422   22.4284  -25.1560 N   0  0  0  0  0  0  0  0  0  0  0  0
   -0.4517   22.1170  -25.0795 C   0  0  0  0  0  0  0  0  0  0  0  0
    0.3071   22.1818  -26.2152 C   0  0  0  0  0  0  0  0  0  0  0  0
   -0.2108   22.5517  -27.4124 N   0  0  0  0  0  0  0  0  0  0  0  0
   -1.5236   22.8582  -27.4403 C   0  0  0  0  0  0  0  0  0  0  0  0
   -2.0820   23.2432  -28.6706 N   0  0  0  0  0  0  0  0  0  0  0  0
   -2.4112   22.4877  -29.3113 H   0  0  0  0  0  0  0  0  0  0  0  0
   -2.1524   24.2433  -28.9076 H   0  0  0  0  0  0  0  0  0  0  0  0
   -5.7528   23.6132  -25.3550 N   0  0  0  0  0  0  0  0  0  0  0  0
   -4.4565   23.3007  -25.2939 N   0  0  0  0  0  0  0  0  0  0  0  0
   -3.7288   23.1482  -26.4135 C   0  0  0  0  0  0  0  0  0  0  0  0
   -4.3486   23.3215  -27.6274 C   0  0  0  0  0  0  0  0  0  0  0  0
   -5.6929   23.6463  -27.7101 C   0  0  0  0  0  0  0  0  0  0  0  0
   -6.3836   23.7883  -26.5243 C   0  0  0  0  0  0  0  0  0  0  0  0
   -7.6028   24.0817  -26.5450 O   0  0  0  0  0  0  0  0  0  0  0  0
   -7.5026   22.7374  -22.1945 C   0  0  0  0  0  0  0  0  0  0  0  0
   -7.7873   23.9911  -21.7134 C   0  0  0  0  0  0  0  0  0  0  0  0
   -7.4125   25.1362  -22.4092 C   0  0  0  0  0  0  0  0  0  0  0  0
   -6.7475   24.9884  -23.5952 C   0  0  0  0  0  0  0  0  0  0  0  0
   -6.2731   26.4251  -24.4749 Cl  0  0  0  0  0  0  0  0  0  0  0  0
   -6.4437   23.7501  -24.1112 C   0  0  0  0  0  0  0  0  0  0  0  0
   -6.8334   22.6262  -23.3888 C   0  0  0  0  0  0  0  0  0  0  0  0
   -6.4594   21.0465  -24.0260 Cl  0  0  0  0  0  0  0  0  0  0  0  0
   -8.6134   21.5529  -20.3136 C   0  0  0  0  0  0  0  0  0  0  0  0
   -7.8826   21.6282  -21.4887 O   0  0  0  0  0  0  0  0  0  0  0  0
   -7.7077   26.3909  -21.9092 O   0  0  0  0  0  0  0  0  0  0  0  0
   -8.4173   26.4851  -20.6951 C   0  0  0  0  0  0  0  0  0  0  0  0
    0.1391   21.7200  -23.8171 C   0  0  0  0  0  0  0  0  0  0  0  0
   -0.5369   21.6253  -22.6027 C   0  0  0  0  0  0  0  0  0  0  0  0
    0.3541   21.2271  -21.6767 N   0  0  0  0  0  0  0  0  0  0  0  0
    1.5535   21.0665  -22.2430 N   0  0  0  0  0  0  0  0  0  0  0  0
    1.4428   21.3606  -23.5400 C   0  0  0  0  0  0  0  0  0  0  0  0
    2.7820   20.6454  -21.5866 C   0  0  0  0  0  0  0  0  0  0  0  0
    3.6027   19.8825  -22.5732 C   0  0  0  0  0  0  0  0  0  0  0  0
    4.0559   18.5318  -22.0690 C   0  0  0  0  0  0  0  0  0  0  0  0
    2.9954   17.7491  -21.5179 N   0  0  0  0  0  0  0  0  0  0  0  0
    2.0245   18.4819  -20.7707 C   0  0  0  0  0  0  0  0  0  0  0  0
    2.4892   19.8451  -20.3365 C   0  0  0  0  0  0  0  0  0  0  0  0
    2.5289   17.1013  -22.1783 H   0  0  0  0  0  0  0  0  0  0  0  0
 25 26  1  0  0  0
 26 17  1  0  0  0
 17 18  2  0  0  0
 18 19  1  0  0  0
 19 27  1  0  0  0
 27 28  1  0  0  0
 19 20  2  0  0  0
 20 21  1  0  0  0
 20 22  1  0  0  0
 22 23  2  0  0  0
 23 24  1  0  0  0
 22 10  1  0  0  0
 10 11  1  0  0  0
 11 12  2  0  0  0
 12 13  1  0  0  0
 13 14  2  0  0  0
 14 15  1  0  0  0
 15 16  2  0  0  0
 12  1  1  0  0  0
  1  2  2  0  0  0
  2  3  1  0  0  0
  3  4  2  0  0  0
  4  5  1  0  0  0
  5  6  2  0  0  0
  6  7  1  0  0  0
  3 29  1  0  0  0
 29 30  1  0  0  0
 30 31  2  0  0  0
 31 32  1  0  0  0
 32 33  1  0  0  0
 32 34  1  0  0  0
 34 35  1  0  0  0
 35 36  1  0  0  0
 36 37  1  0  0  0
 37 38  1  0  0  0
 38 39  1  0  0  0
 23 17  1  0  0  0
 15 10  1  0  0  0
  6  1  1  0  0  0
 33 29  2  0  0  0
 39 34  1  0  0  0
  7  8  1  0  0  0
  7  9  1  0  0  0
 37 40  1  0  0  0
M  END
> <minimizedAffinity>
-9.75548

> <CNNscore>
0.7629292607

> <CNNaffinity>
8.0790271759

> <CNN_VS>
6.1637263298

> <CNNaffinity_variance>
0.1927157193

$$$$
[H]c1nc(N([H])[H])c(-c2nn(-c3c(Cl)c(OC([H])([H])[H])c([H])c(OC([H])([H])[H])c3Cl)c(=O)c([H])c2[H])nc1-c1c([H])nn(C2([H])C([H])([H])C([H])([H])N([H])C([H])([H])C2([H])[H])c1[H]


 40 44  0  0  0  0  0  0  0  0999 V2000
   -2.3520   22.8330  -26.2785 C   0  0  0  0  0  0  0  0  0  0  0  0
   -1.7735   22.4475  -25.1053 N   0  0  0  0  0  0  0  0  0  0  0  0
   -0.4850   22.1280  -25.0281 C   0  0  0  0  0  0  0  0  0  0  0  0
    0.2752   22.1901  -26.1631 C   0  0  0  0  0  0  0  0  0  0  0  0
   -0.2393   22.5654  -27.3601 N   0  0  0  0  0  0  0  0  0  0  0  0
   -1.5502   22.8800  -27.3886 C   0  0  0  0  0  0  0  0  0  0  0  0
   -2.1051   23.2706  -28.6187 N   0  0  0  0  0  0  0  0  0  0  0  0
   -2.4385   22.5184  -29.2610 H   0  0  0  0  0  0  0  0  0  0  0  0
   -2.1691   24.2715  -28.8540 H   0  0  0  0  0  0  0  0  0  0  0  0
   -5.7826   23.6326  -25.3065 N   0  0  0  0  0  0  0  0  0  0  0  0
   -4.4883   23.3123  -25.2448 N   0  0  0  0  0  0  0  0  0  0  0  0
   -3.7545   23.1819  -26.3632 C   0  0  0  0  0  0  0  0  0  0  0  0
   -4.3660   23.3859  -27.5766 C   0  0  0  0  0  0  0  0  0  0  0  0
   -5.7082   23.7191  -27.6598 C   0  0  0  0  0  0  0  0  0  0  0  0
   -6.4054   23.8375  -26.4753 C   0  0  0  0  0  0  0  0  0  0  0  0
   -7.6231   24.1374  -26.4966 O   0  0  0  0  0  0  0  0  0  0  0  0
   -7.4556   25.1218  -22.3399 C   0  0  0  0  0  0  0  0  0  0  0  0
   -7.8178   23.9842  -21.6627 C   0  0  0  0  0  0  0  0  0  0  0  0
   -7.5245   22.7193  -22.1627 C   0  0  0  0  0  0  0  0  0  0  0  0
   -6.8608   22.6290  -23.3551 C   0  0  0  0  0  0  0  0  0  0  0  0
   -6.4893   21.0406  -23.9894 Cl  0  0  0  0  0  0  0  0  0  0  0  0
   -6.4805   23.7446  -24.0641 C   0  0  0  0  0  0  0  0  0  0  0  0
   -6.7902   24.9938  -23.5347 C   0  0  0  0  0  0  0  0  0  0  0  0
   -6.3157   26.4214  -24.4169 Cl  0  0  0  0  0  0  0  0  0  0  0  0
   -8.5682   26.6703  -20.7464 C   0  0  0  0  0  0  0  0  0  0  0  0
   -7.7578   26.3533  -21.8250 O   0  0  0  0  0  0  0  0  0  0  0  0
   -7.8973   21.5844  -21.4667 O   0  0  0  0  0  0  0  0  0  0  0  0
   -8.7322   21.7259  -20.3400 C   0  0  0  0  0  0  0  0  0  0  0  0
    0.1022   21.7251  -23.7660 C   0  0  0  0  0  0  0  0  0  0  0  0
   -0.5741   21.6382  -22.5511 C   0  0  0  0  0  0  0  0  0  0  0  0
    0.3132   21.2308  -21.6255 N   0  0  0  0  0  0  0  0  0  0  0  0
    1.5104   21.0569  -22.1924 N   0  0  0  0  0  0  0  0  0  0  0  0
    1.4021   21.3517  -23.4895 C   0  0  0  0  0  0  0  0  0  0  0  0
    2.7347   20.6228  -21.5366 C   0  0  0  0  0  0  0  0  0  0  0  0
    3.5959   19.9471  -22.5518 C   0  0  0  0  0  0  0  0  0  0  0  0
    4.0723   18.5772  -22.1272 C   0  0  0  0  0  0  0  0  0  0  0  0
    3.0204   17.7343  -21.6539 N   0  0  0  0  0  0  0  0  0  0  0  0
    2.0150   18.3923  -20.8830 C   0  0  0  0  0  0  0  0  0  0  0  0
    2.4352   19.7344  -20.3492 C   0  0  0  0  0  0  0  0  0  0  0  0
    2.5850   17.1208  -22.3663 H   0  0  0  0  0  0  0  0  0  0  0  0
 25 26  1  0  0  0
 26 17  1  0  0  0
 17 18  2  0  0  0
 18 19  1  0  0  0
 19 27  1  0  0  0
 27 28  1  0  0  0
 19 20  2  0  0  0
 20 21  1  0  0  0
 20 22  1  0  0  0
 22 23  2  0  0  0
 23 24  1  0  0  0
 22 10  1  0  0  0
 10 11  1  0  0  0
 11 12  2  0  0  0
 12 13  1  0  0  0
 13 14  2  0  0  0
 14 15  1  0  0  0
 15 16  2  0  0  0
 12  1  1  0  0  0
  1  2  2  0  0  0
  2  3  1  0  0  0
  3  4  2  0  0  0
  4  5  1  0  0  0
  5  6  2  0  0  0
  6  7  1  0  0  0
  3 29  1  0  0  0
 29 30  1  0  0  0
 30 31  2  0  0  0
 31 32  1  0  0  0
 32 33  1  0  0  0
 32 34  1  0  0  0
 34 35  1  0  0  0
 35 36  1  0  0  0
 36 37  1  0  0  0
 37 38  1  0  0  0
 38 39  1  0  0  0
 23 17  1  0  0  0
 15 10  1  0  0  0
  6  1  1  0  0  0
 33 29  2  0  0  0
 39 34  1  0  0  0
  7  8  1  0  0  0
  7  9  1  0  0  0
 37 40  1  0  0  0
M  END
> <minimizedAffinity>
-9.68504

> <CNNscore>
0.7338899970

> <CNNaffinity>
8.0454730988

> <CNN_VS>
5.9044923782

> <CNNaffinity_variance>
0.2014638186

$$$$
[H]c1nc(N([H])[H])c(-c2nn(-c3c(Cl)c(OC([H])([H])[H])c([H])c(OC([H])([H])[H])c3Cl)c(=O)c([H])c2[H])nc1-c1c([H])nn(C2([H])C([H])([H])C([H])([H])N([H])C([H])([H])C2([H])[H])c1[H]


 40 44  0  0  0  0  0  0  0  0999 V2000
   -2.2748   22.7595  -26.2381 C   0  0  0  0  0  0  0  0  0  0  0  0
   -1.7066   22.3961  -25.0528 N   0  0  0  0  0  0  0  0  0  0  0  0
   -0.4172   22.0852  -24.9571 C   0  0  0  0  0  0  0  0  0  0  0  0
    0.3545   22.1335  -26.0849 C   0  0  0  0  0  0  0  0  0  0  0  0
   -0.1494   22.4867  -27.2930 N   0  0  0  0  0  0  0  0  0  0  0  0
   -1.4616   22.7934  -27.3403 C   0  0  0  0  0  0  0  0  0  0  0  0
   -2.0056   23.1610  -28.5823 N   0  0  0  0  0  0  0  0  0  0  0  0
   -2.3280   22.3967  -29.2159 H   0  0  0  0  0  0  0  0  0  0  0  0
   -2.0727   24.1577  -28.8342 H   0  0  0  0  0  0  0  0  0  0  0  0
   -5.7208   23.5510  -25.3151 N   0  0  0  0  0  0  0  0  0  0  0  0
   -4.4254   23.2393  -25.2348 N   0  0  0  0  0  0  0  0  0  0  0  0
   -3.6782   23.0989  -26.3431 C   0  0  0  0  0  0  0  0  0  0  0  0
   -4.2771   23.2838  -27.5657 C   0  0  0  0  0  0  0  0  0  0  0  0
   -5.6202   23.6081  -27.6684 C   0  0  0  0  0  0  0  0  0  0  0  0
   -6.3315   23.7374  -26.4934 C   0  0  0  0  0  0  0  0  0  0  0  0
   -7.5505   24.0297  -26.5322 O   0  0  0  0  0  0  0  0  0  0  0  0
   -7.4094   25.0680  -22.3716 C   0  0  0  0  0  0  0  0  0  0  0  0
   -7.7988   23.9366  -21.6990 C   0  0  0  0  0  0  0  0  0  0  0  0
   -7.5190   22.6670  -22.1948 C   0  0  0  0  0  0  0  0  0  0  0  0
   -6.8409   22.5656  -23.3781 C   0  0  0  0  0  0  0  0  0  0  0  0
   -6.4863   20.9712  -24.0070 Cl  0  0  0  0  0  0  0  0  0  0  0  0
   -6.4333   23.6747  -24.0822 C   0  0  0  0  0  0  0  0  0  0  0  0
   -6.7302   24.9289  -23.5572 C   0  0  0  0  0  0  0  0  0  0  0  0
   -6.2212   26.3484  -24.4333 Cl  0  0  0  0  0  0  0  0  0  0  0  0
   -8.4191   26.6286  -20.7222 C   0  0  0  0  0  0  0  0  0  0  0  0
   -7.6987   26.3044  -21.8610 O   0  0  0  0  0  0  0  0  0  0  0  0
   -7.9191   21.5384  -21.5036 O   0  0  0  0  0  0  0  0  0  0  0  0
   -8.7465   21.6957  -20.3734 C   0  0  0  0  0  0  0  0  0  0  0  0
    0.1589   21.7060  -23.6825 C   0  0  0  0  0  0  0  0  0  0  0  0
    1.4968   21.3850  -23.4637 C   0  0  0  0  0  0  0  0  0  0  0  0
    1.6313   21.0919  -22.1576 N   0  0  0  0  0  0  0  0  0  0  0  0
    0.4507   21.2110  -21.5435 N   0  0  0  0  0  0  0  0  0  0  0  0
   -0.4538   21.5825  -22.4516 C   0  0  0  0  0  0  0  0  0  0  0  0
    0.1704   20.9832  -20.1339 C   0  0  0  0  0  0  0  0  0  0  0  0
   -1.3023   20.7987  -19.9728 C   0  0  0  0  0  0  0  0  0  0  0  0
   -1.9130   21.6909  -18.9168 C   0  0  0  0  0  0  0  0  0  0  0  0
   -1.5455   23.0644  -19.0556 N   0  0  0  0  0  0  0  0  0  0  0  0
   -0.1982   23.2942  -19.4677 C   0  0  0  0  0  0  0  0  0  0  0  0
    0.7090   22.1092  -19.2789 C   0  0  0  0  0  0  0  0  0  0  0  0
   -2.1972   23.6471  -19.6116 H   0  0  0  0  0  0  0  0  0  0  0  0
 25 26  1  0  0  0
 26 17  1  0  0  0
 17 18  2  0  0  0
 18 19  1  0  0  0
 19 27  1  0  0  0
 27 28  1  0  0  0
 19 20  2  0  0  0
 20 21  1  0  0  0
 20 22  1  0  0  0
 22 23  2  0  0  0
 23 24  1  0  0  0
 22 10  1  0  0  0
 10 11  1  0  0  0
 11 12  2  0  0  0
 12 13  1  0  0  0
 13 14  2  0  0  0
 14 15  1  0  0  0
 15 16  2  0  0  0
 12  1  1  0  0  0
  1  2  2  0  0  0
  2  3  1  0  0  0
  3  4  2  0  0  0
  4  5  1  0  0  0
  5  6  2  0  0  0
  6  7  1  0  0  0
  3 29  1  0  0  0
 29 30  1  0  0  0
 30 31  2  0  0  0
 31 32  1  0  0  0
 32 33  1  0  0  0
 32 34  1  0  0  0
 34 35  1  0  0  0
 35 36  1  0  0  0
 36 37  1  0  0  0
 37 38  1  0  0  0
 38 39  1  0  0  0
 23 17  1  0  0  0
 15 10  1  0  0  0
  6  1  1  0  0  0
 33 29  2  0  0  0
 39 34  1  0  0  0
  7  8  1  0  0  0
  7  9  1  0  0  0
 37 40  1  0  0  0
M  END
> <minimizedAffinity>
-9.58089

> <CNNscore>
0.5659273267

> <CNNaffinity>
7.7932825089

> <CNN_VS>
4.4104313850

> <CNNaffinity_variance>
0.2340836525

$$$$
[H]c1nc(N([H])[H])c(-c2nn(-c3c(Cl)c(OC([H])([H])[H])c([H])c(OC([H])([H])[H])c3Cl)c(=O)c([H])c2[H])nc1-c1c([H])nn(C2([H])C([H])([H])C([H])([H])N([H])C([H])([H])C2([H])[H])c1[H]


 40 44  0  0  0  0  0  0  0  0999 V2000
   -2.2656   22.7357  -26.2072 C   0  0  0  0  0  0  0  0  0  0  0  0
   -1.7043   22.3717  -25.0189 N   0  0  0  0  0  0  0  0  0  0  0  0
   -0.4163   22.0568  -24.9166 C   0  0  0  0  0  0  0  0  0  0  0  0
    0.3609   22.1015  -26.0407 C   0  0  0  0  0  0  0  0  0  0  0  0
   -0.1360   22.4550  -27.2516 N   0  0  0  0  0  0  0  0  0  0  0  0
   -1.4470   22.7658  -27.3056 C   0  0  0  0  0  0  0  0  0  0  0  0
   -1.9840   23.1339  -28.5505 N   0  0  0  0  0  0  0  0  0  0  0  0
   -2.3057   22.3699  -29.1848 H   0  0  0  0  0  0  0  0  0  0  0  0
   -2.0467   24.1305  -28.8038 H   0  0  0  0  0  0  0  0  0  0  0  0
   -5.7066   23.5673  -25.3009 N   0  0  0  0  0  0  0  0  0  0  0  0
   -4.4127   23.2511  -25.2141 N   0  0  0  0  0  0  0  0  0  0  0  0
   -3.6675   23.0794  -26.3193 C   0  0  0  0  0  0  0  0  0  0  0  0
   -4.2667   23.2368  -27.5456 C   0  0  0  0  0  0  0  0  0  0  0  0
   -5.6083   23.5651  -27.6550 C   0  0  0  0  0  0  0  0  0  0  0  0
   -6.3177   23.7272  -26.4829 C   0  0  0  0  0  0  0  0  0  0  0  0
   -7.5352   24.0246  -26.5279 O   0  0  0  0  0  0  0  0  0  0  0  0
   -7.5259   22.7449  -22.1654 C   0  0  0  0  0  0  0  0  0  0  0  0
   -7.7990   24.0067  -21.6993 C   0  0  0  0  0  0  0  0  0  0  0  0
   -7.3937   25.1401  -22.3972 C   0  0  0  0  0  0  0  0  0  0  0  0
   -6.7103   24.9722  -23.5699 C   0  0  0  0  0  0  0  0  0  0  0  0
   -6.1975   26.3941  -24.4522 Cl  0  0  0  0  0  0  0  0  0  0  0  0
   -6.4172   23.7252  -24.0708 C   0  0  0  0  0  0  0  0  0  0  0  0
   -6.8375   22.6135  -23.3467 C   0  0  0  0  0  0  0  0  0  0  0  0
   -6.4775   21.0229  -23.9648 Cl  0  0  0  0  0  0  0  0  0  0  0  0
   -8.7394   21.5900  -20.3301 C   0  0  0  0  0  0  0  0  0  0  0  0
   -7.9359   21.6476  -21.4579 O   0  0  0  0  0  0  0  0  0  0  0  0
   -7.6776   26.4033  -21.9124 O   0  0  0  0  0  0  0  0  0  0  0  0
   -8.4942   26.5211  -20.7696 C   0  0  0  0  0  0  0  0  0  0  0  0
    0.1524   21.6771  -23.6389 C   0  0  0  0  0  0  0  0  0  0  0  0
    1.4916   21.3690  -23.4098 C   0  0  0  0  0  0  0  0  0  0  0  0
    1.6177   21.0706  -22.1041 N   0  0  0  0  0  0  0  0  0  0  0  0
    0.4306   21.1743  -21.4999 N   0  0  0  0  0  0  0  0  0  0  0  0
   -0.4698   21.5409  -22.4142 C   0  0  0  0  0  0  0  0  0  0  0  0
    0.1402   20.9363  -20.0940 C   0  0  0  0  0  0  0  0  0  0  0  0
   -1.3422   20.9138  -19.9189 C   0  0  0  0  0  0  0  0  0  0  0  0
   -1.8380   21.8361  -18.8292 C   0  0  0  0  0  0  0  0  0  0  0  0
   -1.3193   23.1633  -18.9325 N   0  0  0  0  0  0  0  0  0  0  0  0
    0.0412   23.2526  -19.3554 C   0  0  0  0  0  0  0  0  0  0  0  0
    0.8107   21.9679  -19.2135 C   0  0  0  0  0  0  0  0  0  0  0  0
   -1.9066   23.8323  -19.4625 H   0  0  0  0  0  0  0  0  0  0  0  0
 25 26  1  0  0  0
 26 17  1  0  0  0
 17 18  2  0  0  0
 18 19  1  0  0  0
 19 27  1  0  0  0
 27 28  1  0  0  0
 19 20  2  0  0  0
 20 21  1  0  0  0
 20 22  1  0  0  0
 22 23  2  0  0  0
 23 24  1  0  0  0
 22 10  1  0  0  0
 10 11  1  0  0  0
 11 12  2  0  0  0
 12 13  1  0  0  0
 13 14  2  0  0  0
 14 15  1  0  0  0
 15 16  2  0  0  0
 12  1  1  0  0  0
  1  2  2  0  0  0
  2  3  1  0  0  0
  3  4  2  0  0  0
  4  5  1  0  0  0
  5  6  2  0  0  0
  6  7  1  0  0  0
  3 29  1  0  0  0
 29 30  1  0  0  0
 30 31  2  0  0  0
 31 32  1  0  0  0
 32 33  1  0  0  0
 32 34  1  0  0  0
 34 35  1  0  0  0
 35 36  1  0  0  0
 36 37  1  0  0  0
 37 38  1  0  0  0
 38 39  1  0  0  0
 23 17  1  0  0  0
 15 10  1  0  0  0
  6  1  1  0  0  0
 33 29  2  0  0  0
 39 34  1  0  0  0
  7  8  1  0  0  0
  7  9  1  0  0  0
 37 40  1  0  0  0
M  END
> <minimizedAffinity>
-9.61407

> <CNNscore>
0.5391401052

> <CNNaffinity>
7.7770600319

> <CNN_VS>
4.1929249763

> <CNNaffinity_variance>
0.2415590733

$$$$
[H]c1nc(N([H])[H])c(-c2nn(-c3c(Cl)c(OC([H])([H])[H])c([H])c(OC([H])([H])[H])c3Cl)c(=O)c([H])c2[H])nc1-c1c([H])nn(C2([H])C([H])([H])C([H])([H])N([H])C([H])([H])C2([H])[H])c1[H]


 40 44  0  0  0  0  0  0  0  0999 V2000
   -0.4380   22.0377  -23.9447 C   0  0  0  0  0  0  0  0  0  0  0  0
   -1.6007   22.4793  -24.5041 N   0  0  0  0  0  0  0  0  0  0  0  0
   -1.7096   22.7117  -25.8089 C   0  0  0  0  0  0  0  0  0  0  0  0
   -0.6191   22.4995  -26.6060 C   0  0  0  0  0  0  0  0  0  0  0  0
    0.5652   22.0615  -26.1122 N   0  0  0  0  0  0  0  0  0  0  0  0
    0.6271   21.8396  -24.7836 C   0  0  0  0  0  0  0  0  0  0  0  0
    1.8450   21.3865  -24.2496 N   0  0  0  0  0  0  0  0  0  0  0  0
    2.5611   22.1033  -23.9988 H   0  0  0  0  0  0  0  0  0  0  0  0
    2.0002   20.3763  -24.1203 H   0  0  0  0  0  0  0  0  0  0  0  0
    0.7157   20.6638  -20.7612 N   0  0  0  0  0  0  0  0  0  0  0  0
    0.5941   20.9094  -22.0676 N   0  0  0  0  0  0  0  0  0  0  0  0
   -0.3187   21.7836  -22.5245 C   0  0  0  0  0  0  0  0  0  0  0  0
   -1.1277   22.4222  -21.6159 C   0  0  0  0  0  0  0  0  0  0  0  0
   -1.0156   22.1800  -20.2564 C   0  0  0  0  0  0  0  0  0  0  0  0
   -0.0591   21.2716  -19.8523 C   0  0  0  0  0  0  0  0  0  0  0  0
    0.0822   21.0173  -18.6324 O   0  0  0  0  0  0  0  0  0  0  0  0
    2.3444   17.4373  -19.8927 C   0  0  0  0  0  0  0  0  0  0  0  0
    3.6167   17.8695  -19.6126 C   0  0  0  0  0  0  0  0  0  0  0  0
    3.9613   19.2144  -19.7044 C   0  0  0  0  0  0  0  0  0  0  0  0
    2.9981   20.1084  -20.0831 C   0  0  0  0  0  0  0  0  0  0  0  0
    3.4256   21.8015  -20.2007 Cl  0  0  0  0  0  0  0  0  0  0  0  0
    1.7120   19.7156  -20.3720 C   0  0  0  0  0  0  0  0  0  0  0  0
    1.4022   18.3626  -20.2701 C   0  0  0  0  0  0  0  0  0  0  0  0
   -0.2233   17.8434  -20.6306 Cl  0  0  0  0  0  0  0  0  0  0  0  0
    1.6195   15.3909  -18.6836 C   0  0  0  0  0  0  0  0  0  0  0  0
    2.0333   16.1081  -19.7950 O   0  0  0  0  0  0  0  0  0  0  0  0
    5.2481   19.6315  -19.4185 O   0  0  0  0  0  0  0  0  0  0  0  0
    6.2310   19.5289  -20.4234 C   0  0  0  0  0  0  0  0  0  0  0  0
   -2.9599   23.1774  -26.3746 C   0  0  0  0  0  0  0  0  0  0  0  0
   -3.5782   22.6551  -27.5085 C   0  0  0  0  0  0  0  0  0  0  0  0
   -4.7112   23.3530  -27.7060 N   0  0  0  0  0  0  0  0  0  0  0  0
   -4.8388   24.2857  -26.7579 N   0  0  0  0  0  0  0  0  0  0  0  0
   -3.7868   24.1946  -25.9419 C   0  0  0  0  0  0  0  0  0  0  0  0
   -5.9231   25.2454  -26.6144 C   0  0  0  0  0  0  0  0  0  0  0  0
   -5.4561   26.3510  -25.7266 C   0  0  0  0  0  0  0  0  0  0  0  0
   -6.3913   26.6398  -24.5751 C   0  0  0  0  0  0  0  0  0  0  0  0
   -6.7649   25.4711  -23.8433 N   0  0  0  0  0  0  0  0  0  0  0  0
   -6.9732   24.3004  -24.6333 C   0  0  0  0  0  0  0  0  0  0  0  0
   -7.1794   24.5798  -26.0969 C   0  0  0  0  0  0  0  0  0  0  0  0
   -6.1740   25.2511  -23.0211 H   0  0  0  0  0  0  0  0  0  0  0  0
 25 26  1  0  0  0
 26 17  1  0  0  0
 17 18  2  0  0  0
 18 19  1  0  0  0
 19 27  1  0  0  0
 27 28  1  0  0  0
 19 20  2  0  0  0
 20 21  1  0  0  0
 20 22  1  0  0  0
 22 23  2  0  0  0
 23 24  1  0  0  0
 22 10  1  0  0  0
 10 11  1  0  0  0
 11 12  2  0  0  0
 12 13  1  0  0  0
 13 14  2  0  0  0
 14 15  1  0  0  0
 15 16  2  0  0  0
 12  1  1  0  0  0
  1  2  2  0  0  0
  2  3  1  0  0  0
  3  4  2  0  0  0
  4  5  1  0  0  0
  5  6  2  0  0  0
  6  7  1  0  0  0
  3 29  1  0  0  0
 29 30  1  0  0  0
 30 31  2  0  0  0
 31 32  1  0  0  0
 32 33  1  0  0  0
 32 34  1  0  0  0
 34 35  1  0  0  0
 35 36  1  0  0  0
 36 37  1  0  0  0
 37 38  1  0  0  0
 38 39  1  0  0  0
 23 17  1  0  0  0
 15 10  1  0  0  0
  6  1  1  0  0  0
 33 29  2  0  0  0
 39 34  1  0  0  0
  7  8  1  0  0  0
  7  9  1  0  0  0
 37 40  1  0  0  0
M  END
> <minimizedAffinity>
-7.76549

> <CNNscore>
0.3798800111

> <CNNaffinity>
7.3620362282

> <CNN_VS>
2.7966904640

> <CNNaffinity_variance>
0.1672598571

$$$$
[H]c1nc(N([H])[H])c(-c2nn(-c3c(Cl)c(OC([H])([H])[H])c([H])c(OC([H])([H])[H])c3Cl)c(=O)c([H])c2[H])nc1-c1c([H])nn(C2([H])C([H])([H])C([H])([H])N([H])C([H])([H])C2([H])[H])c1[H]


 40 44  0  0  0  0  0  0  0  0999 V2000
    0.3246   18.4962  -20.4435 C   0  0  0  0  0  0  0  0  0  0  0  0
   -0.5662   17.5274  -20.0861 N   0  0  0  0  0  0  0  0  0  0  0  0
   -0.1837   16.2795  -19.8316 C   0  0  0  0  0  0  0  0  0  0  0  0
    1.1436   15.9667  -19.9339 C   0  0  0  0  0  0  0  0  0  0  0  0
    2.0790   16.8833  -20.2847 N   0  0  0  0  0  0  0  0  0  0  0  0
    1.6433   18.1350  -20.5328 C   0  0  0  0  0  0  0  0  0  0  0  0
    2.5951   19.1011  -20.8992 N   0  0  0  0  0  0  0  0  0  0  0  0
    2.8560   19.1667  -21.9078 H   0  0  0  0  0  0  0  0  0  0  0  0
    3.0058   19.7111  -20.1778 H   0  0  0  0  0  0  0  0  0  0  0  0
   -0.8470   21.4591  -22.2329 N   0  0  0  0  0  0  0  0  0  0  0  0
   -0.4623   20.2100  -21.9619 N   0  0  0  0  0  0  0  0  0  0  0  0
   -0.0909   19.8552  -20.7200 C   0  0  0  0  0  0  0  0  0  0  0  0
   -0.1156   20.8080  -19.7305 C   0  0  0  0  0  0  0  0  0  0  0  0
   -0.5123   22.1092  -19.9931 C   0  0  0  0  0  0  0  0  0  0  0  0
   -0.8811   22.4091  -21.2882 C   0  0  0  0  0  0  0  0  0  0  0  0
   -1.2481   23.5729  -21.5777 O   0  0  0  0  0  0  0  0  0  0  0  0
   -2.9383   22.0574  -25.2471 C   0  0  0  0  0  0  0  0  0  0  0  0
   -1.9619   22.2758  -26.1867 C   0  0  0  0  0  0  0  0  0  0  0  0
   -0.6121   22.2333  -25.8519 C   0  0  0  0  0  0  0  0  0  0  0  0
   -0.2718   21.9665  -24.5543 C   0  0  0  0  0  0  0  0  0  0  0  0
    1.4245   21.9120  -24.1269 Cl  0  0  0  0  0  0  0  0  0  0  0  0
   -1.2198   21.7418  -23.5835 C   0  0  0  0  0  0  0  0  0  0  0  0
   -2.5605   21.7923  -23.9535 C   0  0  0  0  0  0  0  0  0  0  0  0
   -3.7788   21.5089  -22.7382 Cl  0  0  0  0  0  0  0  0  0  0  0  0
   -4.9596   23.1396  -26.2055 C   0  0  0  0  0  0  0  0  0  0  0  0
   -4.2586   22.1061  -25.6044 O   0  0  0  0  0  0  0  0  0  0  0  0
    0.3578   22.4559  -26.8117 O   0  0  0  0  0  0  0  0  0  0  0  0
   -0.0379   22.9514  -28.0704 C   0  0  0  0  0  0  0  0  0  0  0  0
   -1.1535   15.2724  -19.4505 C   0  0  0  0  0  0  0  0  0  0  0  0
   -0.8834   14.1372  -18.6894 C   0  0  0  0  0  0  0  0  0  0  0  0
   -2.0380   13.4602  -18.5539 N   0  0  0  0  0  0  0  0  0  0  0  0
   -3.0192   14.1080  -19.1884 N   0  0  0  0  0  0  0  0  0  0  0  0
   -2.5023   15.2088  -19.7379 C   0  0  0  0  0  0  0  0  0  0  0  0
   -4.4154   13.7083  -19.2806 C   0  0  0  0  0  0  0  0  0  0  0  0
   -5.1547   14.7596  -20.0401 C   0  0  0  0  0  0  0  0  0  0  0  0
   -6.3894   15.2649  -19.3302 C   0  0  0  0  0  0  0  0  0  0  0  0
   -6.1480   15.6385  -17.9726 N   0  0  0  0  0  0  0  0  0  0  0  0
   -5.2312   14.8026  -17.2663 C   0  0  0  0  0  0  0  0  0  0  0  0
   -5.0067   13.4617  -17.9099 C   0  0  0  0  0  0  0  0  0  0  0  0
   -5.9185   16.6369  -17.8183 H   0  0  0  0  0  0  0  0  0  0  0  0
 25 26  1  0  0  0
 26 17  1  0  0  0
 17 18  2  0  0  0
 18 19  1  0  0  0
 19 27  1  0  0  0
 27 28  1  0  0  0
 19 20  2  0  0  0
 20 21  1  0  0  0
 20 22  1  0  0  0
 22 23  2  0  0  0
 23 24  1  0  0  0
 22 10  1  0  0  0
 10 11  1  0  0  0
 11 12  2  0  0  0
 12 13  1  0  0  0
 13 14  2  0  0  0
 14 15  1  0  0  0
 15 16  2  0  0  0
 12  1  1  0  0  0
  1  2  2  0  0  0
  2  3  1  0  0  0
  3  4  2  0  0  0
  4  5  1  0  0  0
  5  6  2  0  0  0
  6  7  1  0  0  0
  3 29  1  0  0  0
 29 30  1  0  0  0
 30 31  2  0  0  0
 31 32  1  0  0  0
 32 33  1  0  0  0
 32 34  1  0  0  0
 34 35  1  0  0  0
 35 36  1  0  0  0
 36 37  1  0  0  0
 37 38  1  0  0  0
 38 39  1  0  0  0
 23 17  1  0  0  0
 15 10  1  0  0  0
  6  1  1  0  0  0
 33 29  2  0  0  0
 39 34  1  0  0  0
  7  8  1  0  0  0
  7  9  1  0  0  0
 37 40  1  0  0  0
M  END
> <minimizedAffinity>
-7.13977

> <CNNscore>
0.1521333456

> <CNNaffinity>
6.6789884567

> <CNN_VS>
1.0160968304

> <CNNaffinity_variance>
0.0488125123

$$$$
[H]c1nc(N([H])[H])c(-c2nn(-c3c(Cl)c(OC([H])([H])[H])c([H])c(OC([H])([H])[H])c3Cl)c(=O)c([H])c2[H])nc1-c1c([H])nn(C2([H])C([H])([H])C([H])([H])N([H])C([H])([H])C2([H])[H])c1[H]


 40 44  0  0  0  0  0  0  0  0999 V2000
   -0.3762   21.8515  -23.6768 C   0  0  0  0  0  0  0  0  0  0  0  0
   -1.5932   22.3288  -24.0651 N   0  0  0  0  0  0  0  0  0  0  0  0
   -1.8305   22.7162  -25.3149 C   0  0  0  0  0  0  0  0  0  0  0  0
   -0.8192   22.6307  -26.2312 C   0  0  0  0  0  0  0  0  0  0  0  0
    0.4129   22.1655  -25.9091 N   0  0  0  0  0  0  0  0  0  0  0  0
    0.6056   21.7844  -24.6301 C   0  0  0  0  0  0  0  0  0  0  0  0
    1.8752   21.3002  -24.2734 N   0  0  0  0  0  0  0  0  0  0  0  0
    2.6025   21.9987  -24.0039 H   0  0  0  0  0  0  0  0  0  0  0  0
    2.0557   20.2860  -24.2857 H   0  0  0  0  0  0  0  0  0  0  0  0
    1.3861   21.0844  -20.5688 N   0  0  0  0  0  0  0  0  0  0  0  0
    1.1311   21.4716  -21.8206 N   0  0  0  0  0  0  0  0  0  0  0  0
   -0.1173   21.4286  -22.3166 C   0  0  0  0  0  0  0  0  0  0  0  0
   -1.1301   20.9764  -21.5059 C   0  0  0  0  0  0  0  0  0  0  0  0
   -0.8843   20.5708  -20.2042 C   0  0  0  0  0  0  0  0  0  0  0  0
    0.4185   20.6391  -19.7555 C   0  0  0  0  0  0  0  0  0  0  0  0
    0.6935   20.2834  -18.5846 O   0  0  0  0  0  0  0  0  0  0  0  0
    4.9798   20.2541  -20.1077 C   0  0  0  0  0  0  0  0  0  0  0  0
    5.3704   21.2879  -19.2936 C   0  0  0  0  0  0  0  0  0  0  0  0
    4.4713   22.2683  -18.8862 C   0  0  0  0  0  0  0  0  0  0  0  0
    3.1759   22.1824  -19.3164 C   0  0  0  0  0  0  0  0  0  0  0  0
    2.0402   23.4130  -18.8076 Cl  0  0  0  0  0  0  0  0  0  0  0  0
    2.7449   21.1624  -20.1324 C   0  0  0  0  0  0  0  0  0  0  0  0
    3.6711   20.1990  -20.5208 C   0  0  0  0  0  0  0  0  0  0  0  0
    3.1452   18.8962  -21.5542 Cl  0  0  0  0  0  0  0  0  0  0  0  0
    6.2269   18.1189  -19.8607 C   0  0  0  0  0  0  0  0  0  0  0  0
    5.8858   19.3037  -20.4937 O   0  0  0  0  0  0  0  0  0  0  0  0
    4.8826   23.3025  -18.0660 O   0  0  0  0  0  0  0  0  0  0  0  0
    4.9646   23.0728  -16.6778 C   0  0  0  0  0  0  0  0  0  0  0  0
   -3.1356   23.2160  -25.6985 C   0  0  0  0  0  0  0  0  0  0  0  0
   -4.0228   23.8868  -24.8595 C   0  0  0  0  0  0  0  0  0  0  0  0
   -5.1154   24.1848  -25.5857 N   0  0  0  0  0  0  0  0  0  0  0  0
   -4.9632   23.7378  -26.8356 N   0  0  0  0  0  0  0  0  0  0  0  0
   -3.7694   23.1479  -26.9230 C   0  0  0  0  0  0  0  0  0  0  0  0
   -5.9141   23.8590  -27.9303 C   0  0  0  0  0  0  0  0  0  0  0  0
   -5.4074   23.0562  -29.0824 C   0  0  0  0  0  0  0  0  0  0  0  0
   -5.3469   23.8289  -30.3798 C   0  0  0  0  0  0  0  0  0  0  0  0
   -4.6843   25.0886  -30.2572 N   0  0  0  0  0  0  0  0  0  0  0  0
   -4.9339   25.7903  -29.0393 C   0  0  0  0  0  0  0  0  0  0  0  0
   -6.1489   25.3086  -28.2946 C   0  0  0  0  0  0  0  0  0  0  0  0
   -3.6701   25.0822  -30.4686 H   0  0  0  0  0  0  0  0  0  0  0  0
 25 26  1  0  0  0
 26 17  1  0  0  0
 17 18  2  0  0  0
 18 19  1  0  0  0
 19 27  1  0  0  0
 27 28  1  0  0  0
 19 20  2  0  0  0
 20 21  1  0  0  0
 20 22  1  0  0  0
 22 23  2  0  0  0
 23 24  1  0  0  0
 22 10  1  0  0  0
 10 11  1  0  0  0
 11 12  2  0  0  0
 12 13  1  0  0  0
 13 14  2  0  0  0
 14 15  1  0  0  0
 15 16  2  0  0  0
 12  1  1  0  0  0
  1  2  2  0  0  0
  2  3  1  0  0  0
  3  4  2  0  0  0
  4  5  1  0  0  0
  5  6  2  0  0  0
  6  7  1  0  0  0
  3 29  1  0  0  0
 29 30  1  0  0  0
 30 31  2  0  0  0
 31 32  1  0  0  0
 32 33  1  0  0  0
 32 34  1  0  0  0
 34 35  1  0  0  0
 35 36  1  0  0  0
 36 37  1  0  0  0
 37 38  1  0  0  0
 38 39  1  0  0  0
 23 17  1  0  0  0
 15 10  1  0  0  0
  6  1  1  0  0  0
 33 29  2  0  0  0
 39 34  1  0  0  0
  7  8  1  0  0  0
  7  9  1  0  0  0
 37 40  1  0  0  0
M  END
> <minimizedAffinity>
-8.17253

> <CNNscore>
0.1382333338

> <CNNaffinity>
7.1772551537

> <CNN_VS>
0.9921358824

> <CNNaffinity_variance>
0.2219684571

$$$$
[H]c1nc(N([H])[H])c(-c2nn(-c3c(Cl)c(OC([H])([H])[H])c([H])c(OC([H])([H])[H])c3Cl)c(=O)c([H])c2[H])nc1-c1c([H])nn(C2([H])C([H])([H])C([H])([H])N([H])C([H])([H])C2([H])[H])c1[H]


 40 44  0  0  0  0  0  0  0  0999 V2000
    0.3609   18.6361  -20.5740 C   0  0  0  0  0  0  0  0  0  0  0  0
   -0.4669   17.6588  -20.1057 N   0  0  0  0  0  0  0  0  0  0  0  0
   -0.0417   16.4157  -19.8999 C   0  0  0  0  0  0  0  0  0  0  0  0
    1.2653   16.1168  -20.1688 C   0  0  0  0  0  0  0  0  0  0  0  0
    2.1389   17.0424  -20.6362 N   0  0  0  0  0  0  0  0  0  0  0  0
    1.6617   18.2887  -20.8288 C   0  0  0  0  0  0  0  0  0  0  0  0
    2.5489   19.2639  -21.3139 N   0  0  0  0  0  0  0  0  0  0  0  0
    2.6795   19.3296  -22.3475 H   0  0  0  0  0  0  0  0  0  0  0  0
    3.0409   19.8801  -20.6510 H   0  0  0  0  0  0  0  0  0  0  0  0
   -0.9763   21.6056  -22.2314 N   0  0  0  0  0  0  0  0  0  0  0  0
   -0.5480   20.3610  -22.0093 N   0  0  0  0  0  0  0  0  0  0  0  0
   -0.1009   19.9898  -20.7975 C   0  0  0  0  0  0  0  0  0  0  0  0
   -0.0938   20.9210  -19.7873 C   0  0  0  0  0  0  0  0  0  0  0  0
   -0.5348   22.2172  -19.9993 C   0  0  0  0  0  0  0  0  0  0  0  0
   -0.9810   22.5347  -21.2656 C   0  0  0  0  0  0  0  0  0  0  0  0
   -1.3906   23.6948  -21.5089 O   0  0  0  0  0  0  0  0  0  0  0  0
   -0.9409   22.5643  -25.8226 C   0  0  0  0  0  0  0  0  0  0  0  0
   -2.2820   22.5028  -26.1086 C   0  0  0  0  0  0  0  0  0  0  0  0
   -3.2139   22.1472  -25.1385 C   0  0  0  0  0  0  0  0  0  0  0  0
   -2.7642   21.8568  -23.8800 C   0  0  0  0  0  0  0  0  0  0  0  0
   -3.9316   21.4085  -22.6554 Cl  0  0  0  0  0  0  0  0  0  0  0  0
   -1.4291   21.9070  -23.5532 C   0  0  0  0  0  0  0  0  0  0  0  0
   -0.5246   22.2662  -24.5481 C   0  0  0  0  0  0  0  0  0  0  0  0
    1.1729   22.3374  -24.1546 Cl  0  0  0  0  0  0  0  0  0  0  0  0
    0.1581   22.3389  -28.0399 C   0  0  0  0  0  0  0  0  0  0  0  0
   -0.0463   22.9163  -26.7966 O   0  0  0  0  0  0  0  0  0  0  0  0
   -4.5609   22.0904  -25.4448 O   0  0  0  0  0  0  0  0  0  0  0  0
   -5.3084   23.2853  -25.4309 C   0  0  0  0  0  0  0  0  0  0  0  0
   -0.9446   15.3994  -19.3980 C   0  0  0  0  0  0  0  0  0  0  0  0
   -0.5937   14.3582  -18.5414 C   0  0  0  0  0  0  0  0  0  0  0  0
   -1.7052   13.6366  -18.3096 N   0  0  0  0  0  0  0  0  0  0  0  0
   -2.7356   14.1674  -18.9740 N   0  0  0  0  0  0  0  0  0  0  0  0
   -2.2940   15.2366  -19.6393 C   0  0  0  0  0  0  0  0  0  0  0  0
   -4.1090   13.6868  -18.9880 C   0  0  0  0  0  0  0  0  0  0  0  0
   -4.8946   14.5401  -19.9279 C   0  0  0  0  0  0  0  0  0  0  0  0
   -6.1588   15.1044  -19.3218 C   0  0  0  0  0  0  0  0  0  0  0  0
   -5.9471   15.7348  -18.0575 N   0  0  0  0  0  0  0  0  0  0  0  0
   -4.9947   15.0921  -17.2101 C   0  0  0  0  0  0  0  0  0  0  0  0
   -4.6977   13.6684  -17.5944 C   0  0  0  0  0  0  0  0  0  0  0  0
   -5.7695   16.7549  -18.0913 H   0  0  0  0  0  0  0  0  0  0  0  0
 25 26  1  0  0  0
 26 17  1  0  0  0
 17 18  2  0  0  0
 18 19  1  0  0  0
 19 27  1  0  0  0
 27 28  1  0  0  0
 19 20  2  0  0  0
 20 21  1  0  0  0
 20 22  1  0  0  0
 22 23  2  0  0  0
 23 24  1  0  0  0
 22 10  1  0  0  0
 10 11  1  0  0  0
 11 12  2  0  0  0
 12 13  1  0  0  0
 13 14  2  0  0  0
 14 15  1  0  0  0
 15 16  2  0  0  0
 12  1  1  0  0  0
  1  2  2  0  0  0
  2  3  1  0  0  0
  3  4  2  0  0  0
  4  5  1  0  0  0
  5  6  2  0  0  0
  6  7  1  0  0  0
  3 29  1  0  0  0
 29 30  1  0  0  0
 30 31  2  0  0  0
 31 32  1  0  0  0
 32 33  1  0  0  0
 32 34  1  0  0  0
 34 35  1  0  0  0
 35 36  1  0  0  0
 36 37  1  0  0  0
 37 38  1  0  0  0
 38 39  1  0  0  0
 23 17  1  0  0  0
 15 10  1  0  0  0
  6  1  1  0  0  0
 33 29  2  0  0  0
 39 34  1  0  0  0
  7  8  1  0  0  0
  7  9  1  0  0  0
 37 40  1  0  0  0
M  END
> <minimizedAffinity>
-6.82566

> <CNNscore>
0.1370847374

> <CNNaffinity>
6.5213713646

> <CNN_VS>
0.8939805031

> <CNNaffinity_variance>
0.0689868480

$$$$
[H]c1nc(N([H])[H])c(-c2nn(-c3c(Cl)c(OC([H])([H])[H])c([H])c(OC([H])([H])[H])c3Cl)c(=O)c([H])c2[H])nc1-c1c([H])nn(C2([H])C([H])([H])C([H])([H])N([H])C([H])([H])C2([H])[H])c1[H]


 40 44  0  0  0  0  0  0  0  0999 V2000
   -0.4798   22.1086  -23.7900 C   0  0  0  0  0  0  0  0  0  0  0  0
   -1.6711   22.6053  -24.2303 N   0  0  0  0  0  0  0  0  0  0  0  0
   -1.8953   22.8589  -25.5163 C   0  0  0  0  0  0  0  0  0  0  0  0
   -0.8967   22.6118  -26.4171 C   0  0  0  0  0  0  0  0  0  0  0  0
    0.3099   22.1186  -26.0441 N   0  0  0  0  0  0  0  0  0  0  0  0
    0.4901   21.8772  -24.7298 C   0  0  0  0  0  0  0  0  0  0  0  0
    1.7333   21.3670  -24.3202 N   0  0  0  0  0  0  0  0  0  0  0  0
    2.5002   22.0501  -24.1336 H   0  0  0  0  0  0  0  0  0  0  0  0
    1.8571   20.3497  -24.2154 H   0  0  0  0  0  0  0  0  0  0  0  0
    0.8773   20.6101  -20.7460 N   0  0  0  0  0  0  0  0  0  0  0  0
    0.6416   20.8780  -22.0323 N   0  0  0  0  0  0  0  0  0  0  0  0
   -0.2352   21.8315  -22.3903 C   0  0  0  0  0  0  0  0  0  0  0  0
   -0.8867   22.5283  -21.4015 C   0  0  0  0  0  0  0  0  0  0  0  0
   -0.6545   22.2642  -20.0614 C   0  0  0  0  0  0  0  0  0  0  0  0
    0.2570   21.2733  -19.7605 C   0  0  0  0  0  0  0  0  0  0  0  0
    0.5025   20.9960  -18.5622 O   0  0  0  0  0  0  0  0  0  0  0  0
    2.2929   17.2652  -19.9554 C   0  0  0  0  0  0  0  0  0  0  0  0
    3.6310   17.5675  -19.9079 C   0  0  0  0  0  0  0  0  0  0  0  0
    4.0897   18.8614  -20.1341 C   0  0  0  0  0  0  0  0  0  0  0  0
    3.1724   19.8383  -20.4077 C   0  0  0  0  0  0  0  0  0  0  0  0
    3.7433   21.4679  -20.6934 Cl  0  0  0  0  0  0  0  0  0  0  0  0
    1.8233   19.5764  -20.4640 C   0  0  0  0  0  0  0  0  0  0  0  0
    1.3996   18.2710  -20.2330 C   0  0  0  0  0  0  0  0  0  0  0  0
   -0.3069   17.9175  -20.2982 Cl  0  0  0  0  0  0  0  0  0  0  0  0
    1.5502   15.3718  -18.5278 C   0  0  0  0  0  0  0  0  0  0  0  0
    1.8698   15.9835  -19.7297 O   0  0  0  0  0  0  0  0  0  0  0  0
    5.4414   19.1474  -20.0823 O   0  0  0  0  0  0  0  0  0  0  0  0
    6.2333   18.8783  -21.2168 C   0  0  0  0  0  0  0  0  0  0  0  0
   -3.1732   23.3834  -25.9543 C   0  0  0  0  0  0  0  0  0  0  0  0
   -4.0004   24.2221  -25.2105 C   0  0  0  0  0  0  0  0  0  0  0  0
   -5.0855   24.4851  -25.9611 N   0  0  0  0  0  0  0  0  0  0  0  0
   -4.9853   23.8574  -27.1362 N   0  0  0  0  0  0  0  0  0  0  0  0
   -3.8329   23.1846  -27.1505 C   0  0  0  0  0  0  0  0  0  0  0  0
   -5.9472   23.8846  -28.2278 C   0  0  0  0  0  0  0  0  0  0  0  0
   -5.3919   23.0878  -29.3617 C   0  0  0  0  0  0  0  0  0  0  0  0
   -5.3900   23.8282  -30.6791 C   0  0  0  0  0  0  0  0  0  0  0  0
   -4.8143   25.1329  -30.5936 N   0  0  0  0  0  0  0  0  0  0  0  0
   -5.1058   25.8480  -29.3929 C   0  0  0  0  0  0  0  0  0  0  0  0
   -6.2818   25.3046  -28.6284 C   0  0  0  0  0  0  0  0  0  0  0  0
   -3.8030   25.1899  -30.8111 H   0  0  0  0  0  0  0  0  0  0  0  0
 25 26  1  0  0  0
 26 17  1  0  0  0
 17 18  2  0  0  0
 18 19  1  0  0  0
 19 27  1  0  0  0
 27 28  1  0  0  0
 19 20  2  0  0  0
 20 21  1  0  0  0
 20 22  1  0  0  0
 22 23  2  0  0  0
 23 24  1  0  0  0
 22 10  1  0  0  0
 10 11  1  0  0  0
 11 12  2  0  0  0
 12 13  1  0  0  0
 13 14  2  0  0  0
 14 15  1  0  0  0
 15 16  2  0  0  0
 12  1  1  0  0  0
  1  2  2  0  0  0
  2  3  1  0  0  0
  3  4  2  0  0  0
  4  5  1  0  0  0
  5  6  2  0  0  0
  6  7  1  0  0  0
  3 29  1  0  0  0
 29 30  1  0  0  0
 30 31  2  0  0  0
 31 32  1  0  0  0
 32 33  1  0  0  0
 32 34  1  0  0  0
 34 35  1  0  0  0
 35 36  1  0  0  0
 36 37  1  0  0  0
 37 38  1  0  0  0
 38 39  1  0  0  0
 23 17  1  0  0  0
 15 10  1  0  0  0
  6  1  1  0  0  0
 33 29  2  0  0  0
 39 34  1  0  0  0
  7  8  1  0  0  0
  7  9  1  0  0  0
 37 40  1  0  0  0
M  END
> <minimizedAffinity>
-7.84801

> <CNNscore>
0.1346493810

> <CNNaffinity>
7.2376403809

> <CNN_VS>
0.9745438099

> <CNNaffinity_variance>
0.3571820557

$$$$
[H]C([H])=C([H])C(=O)N([H])c1c([H])c([H])c([H])c(C([H])([H])n2c(=O)c(-c3c([H])c(OC([H])([H])[H])c([H])c(OC([H])([H])[H])c3Cl)c([H])c3c([H])nc(N([H])C([H])([H])C([H])([H])[H])nc32)c1[H]


 39 42  0  0  0  0  0  0  0  0999 V2000
   -1.6612   22.3165  -26.4308 C   0  0  0  0  0  0  0  0  0  0  0  0
   -0.3382   22.4060  -26.6295 N   0  0  0  0  0  0  0  0  0  0  0  0
    0.4886   22.1532  -25.6078 C   0  0  0  0  0  0  0  0  0  0  0  0
   -0.0224   21.8078  -24.3765 C   0  0  0  0  0  0  0  0  0  0  0  0
    0.7882   21.5131  -23.2966 C   0  0  0  0  0  0  0  0  0  0  0  0
    0.2807   21.1472  -22.0782 C   0  0  0  0  0  0  0  0  0  0  0  0
   -1.0818   21.0671  -21.9075 C   0  0  0  0  0  0  0  0  0  0  0  0
   -1.5538   20.7221  -20.7647 O   0  0  0  0  0  0  0  0  0  0  0  0
   -1.8960   21.3491  -22.9391 N   0  0  0  0  0  0  0  0  0  0  0  0
   -1.3834   21.7087  -24.1423 C   0  0  0  0  0  0  0  0  0  0  0  0
   -2.1490   21.9792  -25.2251 N   0  0  0  0  0  0  0  0  0  0  0  0
    1.1929   20.8524  -20.9708 C   0  0  0  0  0  0  0  0  0  0  0  0
    2.0138   19.7493  -21.1102 C   0  0  0  0  0  0  0  0  0  0  0  0
    2.8690   19.4447  -20.0749 C   0  0  0  0  0  0  0  0  0  0  0  0
    2.9157   20.2139  -18.9193 C   0  0  0  0  0  0  0  0  0  0  0  0
    2.0926   21.3109  -18.7922 C   0  0  0  0  0  0  0  0  0  0  0  0
    1.2406   21.6186  -19.8188 C   0  0  0  0  0  0  0  0  0  0  0  0
    0.2209   23.0149  -19.6427 Cl  0  0  0  0  0  0  0  0  0  0  0  0
    3.6998   18.3550  -20.1789 O   0  0  0  0  0  0  0  0  0  0  0  0
    3.1624   17.0546  -20.1057 C   0  0  0  0  0  0  0  0  0  0  0  0
    2.1539   22.0739  -17.6195 O   0  0  0  0  0  0  0  0  0  0  0  0
    3.0370   23.1448  -17.4604 C   0  0  0  0  0  0  0  0  0  0  0  0
   -2.5075   22.5845  -27.5322 N   0  0  0  0  0  0  0  0  0  0  0  0
   -2.4630   21.9568  -28.3511 H   0  0  0  0  0  0  0  0  0  0  0  0
   -4.8370   23.3032  -27.3099 C   0  0  0  0  0  0  0  0  0  0  0  0
   -3.4042   23.6939  -27.5189 C   0  0  0  0  0  0  0  0  0  0  0  0
   -3.3222   21.2434  -22.8024 C   0  0  0  0  0  0  0  0  0  0  0  0
   -4.0595   22.4053  -22.3343 C   0  0  0  0  0  0  0  0  0  0  0  0
   -4.6685   22.3390  -21.0821 C   0  0  0  0  0  0  0  0  0  0  0  0
   -5.3854   23.3806  -20.5477 C   0  0  0  0  0  0  0  0  0  0  0  0
   -5.5312   24.5783  -21.2675 C   0  0  0  0  0  0  0  0  0  0  0  0
   -4.9492   24.6840  -22.5033 C   0  0  0  0  0  0  0  0  0  0  0  0
   -4.2191   23.5828  -23.0125 C   0  0  0  0  0  0  0  0  0  0  0  0
   -5.0510   25.8310  -23.3331 N   0  0  0  0  0  0  0  0  0  0  0  0
   -5.9025   25.9970  -24.4173 C   0  0  0  0  0  0  0  0  0  0  0  0
   -6.6914   25.0957  -24.7800 O   0  0  0  0  0  0  0  0  0  0  0  0
   -4.4076   26.6614  -23.0982 H   0  0  0  0  0  0  0  0  0  0  0  0
   -5.8915   27.2754  -25.1827 C   0  0  0  0  0  0  0  0  0  0  0  0
   -4.8648   27.5640  -25.9415 C   0  0  0  0  0  0  0  0  0  0  0  0
 25 26  1  0  0  0
 26 23  1  0  0  0
 23  1  1  0  0  0
  1  2  2  0  0  0
  2  3  1  0  0  0
  3  4  2  0  0  0
  4  5  1  0  0  0
  5  6  2  0  0  0
  6 12  1  0  0  0
 12 13  2  0  0  0
 13 14  1  0  0  0
 14 19  1  0  0  0
 19 20  1  0  0  0
 14 15  2  0  0  0
 15 16  1  0  0  0
 16 21  1  0  0  0
 21 22  1  0  0  0
 16 17  2  0  0  0
 17 18  1  0  0  0
  6  7  1  0  0  0
  7  8  2  0  0  0
  7  9  1  0  0  0
  9 27  1  0  0  0
 27 28  1  0  0  0
 28 29  2  0  0  0
 29 30  1  0  0  0
 30 31  2  0  0  0
 31 32  1  0  0  0
 32 34  1  0  0  0
 34 35  1  0  0  0
 35 36  2  0  0  0
 35 38  1  0  0  0
 38 39  2  0  0  0
 32 33  2  0  0  0
  9 10  1  0  0  0
 10 11  2  0  0  0
 11  1  1  0  0  0
 10  4  1  0  0  0
 17 12  1  0  0  0
 33 28  1  0  0  0
 23 24  1  0  0  0
 34 37  1  0  0  0
M  END
> <minimizedAffinity>
-7.08544

> <CNNscore>
0.3383792937

> <CNNaffinity>
7.3602790833

> <CNN_VS>
2.4905660152

> <CNNaffinity_variance>
0.6373986006

$$$$
[H]C([H])=C([H])C(=O)N([H])c1c([H])c([H])c([H])c(C([H])([H])n2c(=O)c(-c3c([H])c(OC([H])([H])[H])c([H])c(OC([H])([H])[H])c3Cl)c([H])c3c([H])nc(N([H])C([H])([H])C([H])([H])[H])nc32)c1[H]


 39 42  0  0  0  0  0  0  0  0999 V2000
   -1.1227   22.1114  -26.2730 C   0  0  0  0  0  0  0  0  0  0  0  0
    0.2157   22.0552  -26.2131 N   0  0  0  0  0  0  0  0  0  0  0  0
    0.8020   21.8285  -25.0315 C   0  0  0  0  0  0  0  0  0  0  0  0
    0.0332   21.6573  -23.9018 C   0  0  0  0  0  0  0  0  0  0  0  0
    0.5881   21.3964  -22.6633 C   0  0  0  0  0  0  0  0  0  0  0  0
   -0.1771   21.2033  -21.5439 C   0  0  0  0  0  0  0  0  0  0  0  0
   -1.5477   21.2697  -21.6397 C   0  0  0  0  0  0  0  0  0  0  0  0
   -2.2617   21.0865  -20.5888 O   0  0  0  0  0  0  0  0  0  0  0  0
   -2.1166   21.5232  -22.8307 N   0  0  0  0  0  0  0  0  0  0  0  0
   -1.3499   21.7111  -23.9338 C   0  0  0  0  0  0  0  0  0  0  0  0
   -1.8631   21.9435  -25.1645 N   0  0  0  0  0  0  0  0  0  0  0  0
    0.4718   20.9355  -20.2584 C   0  0  0  0  0  0  0  0  0  0  0  0
    0.8473   22.0311  -19.5042 C   0  0  0  0  0  0  0  0  0  0  0  0
    1.4725   21.8028  -18.2989 C   0  0  0  0  0  0  0  0  0  0  0  0
    1.7249   20.5155  -17.8423 C   0  0  0  0  0  0  0  0  0  0  0  0
    1.3459   19.4316  -18.6029 C   0  0  0  0  0  0  0  0  0  0  0  0
    0.7234   19.6529  -19.8022 C   0  0  0  0  0  0  0  0  0  0  0  0
    0.2417   18.2707  -20.7390 Cl  0  0  0  0  0  0  0  0  0  0  0  0
    1.8597   22.8684  -17.5223 O   0  0  0  0  0  0  0  0  0  0  0  0
    2.1932   22.6644  -16.1687 C   0  0  0  0  0  0  0  0  0  0  0  0
    1.6091   18.1416  -18.1259 O   0  0  0  0  0  0  0  0  0  0  0  0
    2.1345   17.8989  -16.8542 C   0  0  0  0  0  0  0  0  0  0  0  0
   -1.7114   22.3471  -27.5376 N   0  0  0  0  0  0  0  0  0  0  0  0
   -1.2748   21.9207  -28.3707 H   0  0  0  0  0  0  0  0  0  0  0  0
   -3.7399   22.7801  -28.8376 C   0  0  0  0  0  0  0  0  0  0  0  0
   -2.8810   23.1537  -27.6663 C   0  0  0  0  0  0  0  0  0  0  0  0
   -3.5458   21.5670  -22.9703 C   0  0  0  0  0  0  0  0  0  0  0  0
   -4.1834   22.8608  -23.1493 C   0  0  0  0  0  0  0  0  0  0  0  0
   -4.6058   23.5503  -22.0137 C   0  0  0  0  0  0  0  0  0  0  0  0
   -5.2161   24.7784  -22.0735 C   0  0  0  0  0  0  0  0  0  0  0  0
   -5.4399   25.3944  -23.3162 C   0  0  0  0  0  0  0  0  0  0  0  0
   -5.0409   24.7493  -24.4571 C   0  0  0  0  0  0  0  0  0  0  0  0
   -4.4152   23.4841  -24.3450 C   0  0  0  0  0  0  0  0  0  0  0  0
   -5.2382   25.2586  -25.7673 N   0  0  0  0  0  0  0  0  0  0  0  0
   -6.2855   24.9536  -26.6264 C   0  0  0  0  0  0  0  0  0  0  0  0
   -7.1912   24.1527  -26.3034 O   0  0  0  0  0  0  0  0  0  0  0  0
   -4.5059   25.9572  -26.1342 H   0  0  0  0  0  0  0  0  0  0  0  0
   -6.3504   25.5864  -27.9739 C   0  0  0  0  0  0  0  0  0  0  0  0
   -5.2431   25.9483  -28.5705 C   0  0  0  0  0  0  0  0  0  0  0  0
 25 26  1  0  0  0
 26 23  1  0  0  0
 23  1  1  0  0  0
  1  2  2  0  0  0
  2  3  1  0  0  0
  3  4  2  0  0  0
  4  5  1  0  0  0
  5  6  2  0  0  0
  6 12  1  0  0  0
 12 13  2  0  0  0
 13 14  1  0  0  0
 14 19  1  0  0  0
 19 20  1  0  0  0
 14 15  2  0  0  0
 15 16  1  0  0  0
 16 21  1  0  0  0
 21 22  1  0  0  0
 16 17  2  0  0  0
 17 18  1  0  0  0
  6  7  1  0  0  0
  7  8  2  0  0  0
  7  9  1  0  0  0
  9 27  1  0  0  0
 27 28  1  0  0  0
 28 29  2  0  0  0
 29 30  1  0  0  0
 30 31  2  0  0  0
 31 32  1  0  0  0
 32 34  1  0  0  0
 34 35  1  0  0  0
 35 36  2  0  0  0
 35 38  1  0  0  0
 38 39  2  0  0  0
 32 33  2  0  0  0
  9 10  1  0  0  0
 10 11  2  0  0  0
 11  1  1  0  0  0
 10  4  1  0  0  0
 17 12  1  0  0  0
 33 28  1  0  0  0
 23 24  1  0  0  0
 34 37  1  0  0  0
M  END
> <minimizedAffinity>
-7.02306

> <CNNscore>
0.2939096391

> <CNNaffinity>
7.2031531334

> <CNN_VS>
2.1170761585

> <CNNaffinity_variance>
0.3685184121

$$$$
[H]C([H])=C([H])C(=O)N([H])c1c([H])c([H])c([H])c(C([H])([H])n2c(=O)c(-c3c([H])c(OC([H])([H])[H])c([H])c(OC([H])([H])[H])c3Cl)c([H])c3c([H])nc(N([H])C([H])([H])C([H])([H])[H])nc32)c1[H]


 39 42  0  0  0  0  0  0  0  0999 V2000
   -4.9155   25.5469  -28.2755 C   0  0  0  0  0  0  0  0  0  0  0  0
   -5.6579   26.3630  -27.5134 N   0  0  0  0  0  0  0  0  0  0  0  0
   -5.9443   25.9948  -26.2589 C   0  0  0  0  0  0  0  0  0  0  0  0
   -5.4788   24.7947  -25.7692 C   0  0  0  0  0  0  0  0  0  0  0  0
   -5.7255   24.3799  -24.4742 C   0  0  0  0  0  0  0  0  0  0  0  0
   -5.2434   23.1971  -23.9796 C   0  0  0  0  0  0  0  0  0  0  0  0
   -4.4866   22.3820  -24.7889 C   0  0  0  0  0  0  0  0  0  0  0  0
   -4.0350   21.2750  -24.3215 O   0  0  0  0  0  0  0  0  0  0  0  0
   -4.2309   22.7579  -26.0538 N   0  0  0  0  0  0  0  0  0  0  0  0
   -4.7114   23.9322  -26.5334 C   0  0  0  0  0  0  0  0  0  0  0  0
   -4.4671   24.3780  -27.7878 N   0  0  0  0  0  0  0  0  0  0  0  0
   -5.5443   22.8111  -22.5992 C   0  0  0  0  0  0  0  0  0  0  0  0
   -6.7439   22.1620  -22.3759 C   0  0  0  0  0  0  0  0  0  0  0  0
   -7.0542   21.8031  -21.0833 C   0  0  0  0  0  0  0  0  0  0  0  0
   -6.1970   22.0790  -20.0258 C   0  0  0  0  0  0  0  0  0  0  0  0
   -5.0043   22.7265  -20.2609 C   0  0  0  0  0  0  0  0  0  0  0  0
   -4.6906   23.0852  -21.5445 C   0  0  0  0  0  0  0  0  0  0  0  0
   -3.1745   23.8890  -21.8199 Cl  0  0  0  0  0  0  0  0  0  0  0  0
   -8.2385   21.1560  -20.8241 O   0  0  0  0  0  0  0  0  0  0  0  0
   -8.9616   21.4603  -19.6537 C   0  0  0  0  0  0  0  0  0  0  0  0
   -4.1535   22.9961  -19.1818 O   0  0  0  0  0  0  0  0  0  0  0  0
   -3.8304   22.0387  -18.2170 C   0  0  0  0  0  0  0  0  0  0  0  0
   -4.6261   25.9677  -29.5947 N   0  0  0  0  0  0  0  0  0  0  0  0
   -3.6800   26.3273  -29.8001 H   0  0  0  0  0  0  0  0  0  0  0  0
   -5.8329   24.5132  -31.1505 C   0  0  0  0  0  0  0  0  0  0  0  0
   -5.6131   25.8995  -30.6225 C   0  0  0  0  0  0  0  0  0  0  0  0
   -3.4171   21.9445  -26.9140 C   0  0  0  0  0  0  0  0  0  0  0  0
   -1.9906   22.2164  -26.9756 C   0  0  0  0  0  0  0  0  0  0  0  0
   -1.4931   22.8759  -28.0985 C   0  0  0  0  0  0  0  0  0  0  0  0
   -0.1638   23.1815  -28.2532 C   0  0  0  0  0  0  0  0  0  0  0  0
    0.7613   22.8284  -27.2564 C   0  0  0  0  0  0  0  0  0  0  0  0
    0.3133   22.1775  -26.1372 C   0  0  0  0  0  0  0  0  0  0  0  0
   -1.0671   21.8840  -26.0223 C   0  0  0  0  0  0  0  0  0  0  0  0
    1.1556   21.7469  -25.0789 N   0  0  0  0  0  0  0  0  0  0  0  0
    0.8079   21.6239  -23.7403 C   0  0  0  0  0  0  0  0  0  0  0  0
   -0.3399   21.9055  -23.3287 O   0  0  0  0  0  0  0  0  0  0  0  0
    2.1667   21.4827  -25.3371 H   0  0  0  0  0  0  0  0  0  0  0  0
    1.8146   21.1455  -22.7513 C   0  0  0  0  0  0  0  0  0  0  0  0
    2.9891   20.7460  -23.1685 C   0  0  0  0  0  0  0  0  0  0  0  0
 25 26  1  0  0  0
 26 23  1  0  0  0
 23  1  1  0  0  0
  1  2  2  0  0  0
  2  3  1  0  0  0
  3  4  2  0  0  0
  4  5  1  0  0  0
  5  6  2  0  0  0
  6 12  1  0  0  0
 12 13  2  0  0  0
 13 14  1  0  0  0
 14 19  1  0  0  0
 19 20  1  0  0  0
 14 15  2  0  0  0
 15 16  1  0  0  0
 16 21  1  0  0  0
 21 22  1  0  0  0
 16 17  2  0  0  0
 17 18  1  0  0  0
  6  7  1  0  0  0
  7  8  2  0  0  0
  7  9  1  0  0  0
  9 27  1  0  0  0
 27 28  1  0  0  0
 28 29  2  0  0  0
 29 30  1  0  0  0
 30 31  2  0  0  0
 31 32  1  0  0  0
 32 34  1  0  0  0
 34 35  1  0  0  0
 35 36  2  0  0  0
 35 38  1  0  0  0
 38 39  2  0  0  0
 32 33  2  0  0  0
  9 10  1  0  0  0
 10 11  2  0  0  0
 11  1  1  0  0  0
 10  4  1  0  0  0
 17 12  1  0  0  0
 33 28  1  0  0  0
 23 24  1  0  0  0
 34 37  1  0  0  0
M  END
> <minimizedAffinity>
-9.08796

> <CNNscore>
0.2021027654

> <CNNaffinity>
7.2712640762

> <CNN_VS>
1.4695426226

> <CNNaffinity_variance>
0.2281735390

$$$$
[H]C([H])=C([H])C(=O)N([H])c1c([H])c([H])c([H])c(C([H])([H])n2c(=O)c(-c3c([H])c(OC([H])([H])[H])c([H])c(OC([H])([H])[H])c3Cl)c([H])c3c([H])nc(N([H])C([H])([H])C([H])([H])[H])nc32)c1[H]


 39 42  0  0  0  0  0  0  0  0999 V2000
   -2.1766   22.8424  -27.4197 C   0  0  0  0  0  0  0  0  0  0  0  0
   -0.8411   22.7216  -27.4154 N   0  0  0  0  0  0  0  0  0  0  0  0
   -0.2287   22.3445  -26.2867 C   0  0  0  0  0  0  0  0  0  0  0  0
   -0.9683   22.0873  -25.1538 C   0  0  0  0  0  0  0  0  0  0  0  0
   -0.3870   21.6715  -23.9709 C   0  0  0  0  0  0  0  0  0  0  0  0
   -1.1243   21.3935  -22.8506 C   0  0  0  0  0  0  0  0  0  0  0  0
   -2.4926   21.5297  -22.8883 C   0  0  0  0  0  0  0  0  0  0  0  0
   -3.1805   21.2666  -21.8369 O   0  0  0  0  0  0  0  0  0  0  0  0
   -3.0866   21.9337  -24.0242 N   0  0  0  0  0  0  0  0  0  0  0  0
   -2.3475   22.2047  -25.1289 C   0  0  0  0  0  0  0  0  0  0  0  0
   -2.8883   22.5896  -26.3085 N   0  0  0  0  0  0  0  0  0  0  0  0
   -0.4481   20.9616  -21.6253 C   0  0  0  0  0  0  0  0  0  0  0  0
    0.1218   19.7025  -21.6329 C   0  0  0  0  0  0  0  0  0  0  0  0
    0.7499   19.2699  -20.4865 C   0  0  0  0  0  0  0  0  0  0  0  0
    0.8162   20.0643  -19.3491 C   0  0  0  0  0  0  0  0  0  0  0  0
    0.2444   21.3174  -19.3537 C   0  0  0  0  0  0  0  0  0  0  0  0
   -0.3810   21.7527  -20.4912 C   0  0  0  0  0  0  0  0  0  0  0  0
   -1.0835   23.3422  -20.4790 Cl  0  0  0  0  0  0  0  0  0  0  0  0
    1.3278   18.0234  -20.4581 O   0  0  0  0  0  0  0  0  0  0  0  0
    2.5714   17.8421  -19.8210 C   0  0  0  0  0  0  0  0  0  0  0  0
    0.3214   22.1034  -18.1973 O   0  0  0  0  0  0  0  0  0  0  0  0
    1.0732   21.7318  -17.0799 C   0  0  0  0  0  0  0  0  0  0  0  0
   -2.7936   23.2374  -28.6299 N   0  0  0  0  0  0  0  0  0  0  0  0
   -2.3814   22.9155  -29.5203 H   0  0  0  0  0  0  0  0  0  0  0  0
   -3.8147   25.3037  -29.4549 C   0  0  0  0  0  0  0  0  0  0  0  0
   -3.9585   24.0610  -28.6277 C   0  0  0  0  0  0  0  0  0  0  0  0
   -4.5159   22.0546  -24.1057 C   0  0  0  0  0  0  0  0  0  0  0  0
   -5.1632   23.1180  -23.3555 C   0  0  0  0  0  0  0  0  0  0  0  0
   -4.3587   24.0849  -22.7545 C   0  0  0  0  0  0  0  0  0  0  0  0
   -4.8703   25.1303  -22.0267 C   0  0  0  0  0  0  0  0  0  0  0  0
   -6.2593   25.2606  -21.8609 C   0  0  0  0  0  0  0  0  0  0  0  0
   -7.0854   24.3302  -22.4345 C   0  0  0  0  0  0  0  0  0  0  0  0
   -6.5112   23.2696  -23.1764 C   0  0  0  0  0  0  0  0  0  0  0  0
   -8.4995   24.3419  -22.3127 N   0  0  0  0  0  0  0  0  0  0  0  0
   -9.3212   25.4611  -22.2982 C   0  0  0  0  0  0  0  0  0  0  0  0
   -8.8581   26.6202  -22.3886 O   0  0  0  0  0  0  0  0  0  0  0  0
   -8.9895   23.3871  -22.2279 H   0  0  0  0  0  0  0  0  0  0  0  0
  -10.7971   25.2987  -22.1722 C   0  0  0  0  0  0  0  0  0  0  0  0
  -11.5791   25.7549  -23.1175 C   0  0  0  0  0  0  0  0  0  0  0  0
 25 26  1  0  0  0
 26 23  1  0  0  0
 23  1  1  0  0  0
  1  2  2  0  0  0
  2  3  1  0  0  0
  3  4  2  0  0  0
  4  5  1  0  0  0
  5  6  2  0  0  0
  6 12  1  0  0  0
 12 13  2  0  0  0
 13 14  1  0  0  0
 14 19  1  0  0  0
 19 20  1  0  0  0
 14 15  2  0  0  0
 15 16  1  0  0  0
 16 21  1  0  0  0
 21 22  1  0  0  0
 16 17  2  0  0  0
 17 18  1  0  0  0
  6  7  1  0  0  0
  7  8  2  0  0  0
  7  9  1  0  0  0
  9 27  1  0  0  0
 27 28  1  0  0  0
 28 29  2  0  0  0
 29 30  1  0  0  0
 30 31  2  0  0  0
 31 32  1  0  0  0
 32 34  1  0  0  0
 34 35  1  0  0  0
 35 36  2  0  0  0
 35 38  1  0  0  0
 38 39  2  0  0  0
 32 33  2  0  0  0
  9 10  1  0  0  0
 10 11  2  0  0  0
 11  1  1  0  0  0
 10  4  1  0  0  0
 17 12  1  0  0  0
 33 28  1  0  0  0
 23 24  1  0  0  0
 34 37  1  0  0  0
M  END
> <minimizedAffinity>
-7.68605

> <CNNscore>
0.1750483662

> <CNNaffinity>
7.0905532837

> <CNN_VS>
1.2411897182

> <CNNaffinity_variance>
0.2810823321

$$$$
[H]C([H])=C([H])C(=O)N([H])c1c([H])c([H])c([H])c(C([H])([H])n2c(=O)c(-c3c([H])c(OC([H])([H])[H])c([H])c(OC([H])([H])[H])c3Cl)c([H])c3c([H])nc(N([H])C([H])([H])C([H])([H])[H])nc32)c1[H]


 39 42  0  0  0  0  0  0  0  0999 V2000
    0.3816   22.4239  -24.7013 C   0  0  0  0  0  0  0  0  0  0  0  0
    1.1668   21.4513  -24.2159 N   0  0  0  0  0  0  0  0  0  0  0  0
    0.9652   21.0202  -22.9650 C   0  0  0  0  0  0  0  0  0  0  0  0
   -0.0354   21.5739  -22.1976 C   0  0  0  0  0  0  0  0  0  0  0  0
   -0.3003   21.1475  -20.9099 C   0  0  0  0  0  0  0  0  0  0  0  0
   -1.3102   21.6821  -20.1547 C   0  0  0  0  0  0  0  0  0  0  0  0
   -2.0960   22.6802  -20.6822 C   0  0  0  0  0  0  0  0  0  0  0  0
   -3.0427   23.1776  -19.9721 O   0  0  0  0  0  0  0  0  0  0  0  0
   -1.8617   23.1168  -21.9316 N   0  0  0  0  0  0  0  0  0  0  0  0
   -0.8602   22.5794  -22.6721 C   0  0  0  0  0  0  0  0  0  0  0  0
   -0.5913   22.9575  -23.9436 N   0  0  0  0  0  0  0  0  0  0  0  0
   -1.5372   21.1904  -18.7938 C   0  0  0  0  0  0  0  0  0  0  0  0
   -2.5626   20.2806  -18.6177 C   0  0  0  0  0  0  0  0  0  0  0  0
   -2.8035   19.8162  -17.3440 C   0  0  0  0  0  0  0  0  0  0  0  0
   -2.0468   20.2409  -16.2594 C   0  0  0  0  0  0  0  0  0  0  0  0
   -1.0276   21.1480  -16.4476 C   0  0  0  0  0  0  0  0  0  0  0  0
   -0.7835   21.6126  -17.7122 C   0  0  0  0  0  0  0  0  0  0  0  0
    0.5161   22.7460  -17.9285 Cl  0  0  0  0  0  0  0  0  0  0  0  0
   -3.8150   18.9106  -17.1316 O   0  0  0  0  0  0  0  0  0  0  0  0
   -5.0374   19.3422  -16.5796 C   0  0  0  0  0  0  0  0  0  0  0  0
   -0.2761   21.5643  -15.3418 O   0  0  0  0  0  0  0  0  0  0  0  0
    0.1182   20.6917  -14.3244 C   0  0  0  0  0  0  0  0  0  0  0  0
    0.6170   22.8532  -26.0284 N   0  0  0  0  0  0  0  0  0  0  0  0
    1.5733   23.1426  -26.2898 H   0  0  0  0  0  0  0  0  0  0  0  0
    0.0419   23.0756  -28.3975 C   0  0  0  0  0  0  0  0  0  0  0  0
   -0.4373   22.8880  -26.9889 C   0  0  0  0  0  0  0  0  0  0  0  0
   -2.6848   24.1350  -22.5229 C   0  0  0  0  0  0  0  0  0  0  0  0
   -3.6514   23.7413  -23.5344 C   0  0  0  0  0  0  0  0  0  0  0  0
   -4.3383   22.5411  -23.3581 C   0  0  0  0  0  0  0  0  0  0  0  0
   -5.2719   22.0803  -24.2527 C   0  0  0  0  0  0  0  0  0  0  0  0
   -5.5712   22.8254  -25.4056 C   0  0  0  0  0  0  0  0  0  0  0  0
   -4.9170   24.0104  -25.6173 C   0  0  0  0  0  0  0  0  0  0  0  0
   -3.9624   24.4448  -24.6660 C   0  0  0  0  0  0  0  0  0  0  0  0
   -5.1148   24.8338  -26.7564 N   0  0  0  0  0  0  0  0  0  0  0  0
   -4.4383   24.7517  -27.9662 C   0  0  0  0  0  0  0  0  0  0  0  0
   -3.5409   23.9021  -28.1634 O   0  0  0  0  0  0  0  0  0  0  0  0
   -5.8691   25.5980  -26.6806 H   0  0  0  0  0  0  0  0  0  0  0  0
   -4.7752   25.6920  -29.0720 C   0  0  0  0  0  0  0  0  0  0  0  0
   -4.0760   25.6636  -30.1781 C   0  0  0  0  0  0  0  0  0  0  0  0
 25 26  1  0  0  0
 26 23  1  0  0  0
 23  1  1  0  0  0
  1  2  2  0  0  0
  2  3  1  0  0  0
  3  4  2  0  0  0
  4  5  1  0  0  0
  5  6  2  0  0  0
  6 12  1  0  0  0
 12 13  2  0  0  0
 13 14  1  0  0  0
 14 19  1  0  0  0
 19 20  1  0  0  0
 14 15  2  0  0  0
 15 16  1  0  0  0
 16 21  1  0  0  0
 21 22  1  0  0  0
 16 17  2  0  0  0
 17 18  1  0  0  0
  6  7  1  0  0  0
  7  8  2  0  0  0
  7  9  1  0  0  0
  9 27  1  0  0  0
 27 28  1  0  0  0
 28 29  2  0  0  0
 29 30  1  0  0  0
 30 31  2  0  0  0
 31 32  1  0  0  0
 32 34  1  0  0  0
 34 35  1  0  0  0
 35 36  2  0  0  0
 35 38  1  0  0  0
 38 39  2  0  0  0
 32 33  2  0  0  0
  9 10  1  0  0  0
 10 11  2  0  0  0
 11  1  1  0  0  0
 10  4  1  0  0  0
 17 12  1  0  0  0
 33 28  1  0  0  0
 23 24  1  0  0  0
 34 37  1  0  0  0
M  END
> <minimizedAffinity>
-7.23200

> <CNNscore>
0.1701575071

> <CNNaffinity>
6.9477338791

> <CNN_VS>
1.1822091341

> <CNNaffinity_variance>
0.1031703353

$$$$
[H]C([H])=C([H])C(=O)N([H])c1c([H])c([H])c([H])c(C([H])([H])n2c(=O)c(-c3c([H])c(OC([H])([H])[H])c([H])c(OC([H])([H])[H])c3Cl)c([H])c3c([H])nc(N([H])C([H])([H])C([H])([H])[H])nc32)c1[H]


 39 42  0  0  0  0  0  0  0  0999 V2000
   -4.7217   24.0211  -28.2726 C   0  0  0  0  0  0  0  0  0  0  0  0
   -3.9584   23.0275  -28.7500 N   0  0  0  0  0  0  0  0  0  0  0  0
   -3.0713   22.4436  -27.9355 C   0  0  0  0  0  0  0  0  0  0  0  0
   -2.9528   22.8649  -26.6297 C   0  0  0  0  0  0  0  0  0  0  0  0
   -2.0704   22.2792  -25.7418 C   0  0  0  0  0  0  0  0  0  0  0  0
   -1.9686   22.6826  -24.4368 C   0  0  0  0  0  0  0  0  0  0  0  0
   -2.7650   23.7066  -23.9796 C   0  0  0  0  0  0  0  0  0  0  0  0
   -2.6680   24.0809  -22.7555 O   0  0  0  0  0  0  0  0  0  0  0  0
   -3.6321   24.2969  -24.8200 N   0  0  0  0  0  0  0  0  0  0  0  0
   -3.7266   23.8886  -26.1101 C   0  0  0  0  0  0  0  0  0  0  0  0
   -4.5973   24.4247  -26.9970 N   0  0  0  0  0  0  0  0  0  0  0  0
   -1.0096   22.0248  -23.5465 C   0  0  0  0  0  0  0  0  0  0  0  0
    0.3219   22.0695  -23.9144 C   0  0  0  0  0  0  0  0  0  0  0  0
    1.2393   21.4446  -23.0997 C   0  0  0  0  0  0  0  0  0  0  0  0
    0.8525   20.7851  -21.9401 C   0  0  0  0  0  0  0  0  0  0  0  0
   -0.4774   20.7474  -21.5840 C   0  0  0  0  0  0  0  0  0  0  0  0
   -1.3939   21.3675  -22.3903 C   0  0  0  0  0  0  0  0  0  0  0  0
   -3.0647   21.3189  -21.9145 Cl  0  0  0  0  0  0  0  0  0  0  0  0
    2.5720   21.4690  -23.4344 O   0  0  0  0  0  0  0  0  0  0  0  0
    3.4567   20.5371  -22.8564 C   0  0  0  0  0  0  0  0  0  0  0  0
   -0.8478   20.0774  -20.4114 O   0  0  0  0  0  0  0  0  0  0  0  0
   -0.0089   19.1665  -19.7646 C   0  0  0  0  0  0  0  0  0  0  0  0
   -5.6530   24.6134  -29.1574 N   0  0  0  0  0  0  0  0  0  0  0  0
   -6.5440   24.1224  -29.3349 H   0  0  0  0  0  0  0  0  0  0  0  0
   -5.0957   25.7339  -31.2613 C   0  0  0  0  0  0  0  0  0  0  0  0
   -5.3746   25.8598  -29.7931 C   0  0  0  0  0  0  0  0  0  0  0  0
   -4.5004   25.3471  -24.3650 C   0  0  0  0  0  0  0  0  0  0  0  0
   -5.7521   24.9797  -23.7239 C   0  0  0  0  0  0  0  0  0  0  0  0
   -6.9384   25.4785  -24.2598 C   0  0  0  0  0  0  0  0  0  0  0  0
   -8.1721   25.1903  -23.7312 C   0  0  0  0  0  0  0  0  0  0  0  0
   -8.2789   24.3610  -22.6022 C   0  0  0  0  0  0  0  0  0  0  0  0
   -7.1364   23.8512  -22.0438 C   0  0  0  0  0  0  0  0  0  0  0  0
   -5.8866   24.1763  -22.6247 C   0  0  0  0  0  0  0  0  0  0  0  0
   -7.1170   23.0268  -20.8886 N   0  0  0  0  0  0  0  0  0  0  0  0
   -7.6707   21.7594  -20.7650 C   0  0  0  0  0  0  0  0  0  0  0  0
   -8.2747   21.2087  -21.7127 O   0  0  0  0  0  0  0  0  0  0  0  0
   -6.6184   23.4182  -20.0185 H   0  0  0  0  0  0  0  0  0  0  0  0
   -7.5536   21.0188  -19.4773 C   0  0  0  0  0  0  0  0  0  0  0  0
   -6.4043   20.4918  -19.1388 C   0  0  0  0  0  0  0  0  0  0  0  0
 25 26  1  0  0  0
 26 23  1  0  0  0
 23  1  1  0  0  0
  1  2  2  0  0  0
  2  3  1  0  0  0
  3  4  2  0  0  0
  4  5  1  0  0  0
  5  6  2  0  0  0
  6 12  1  0  0  0
 12 13  2  0  0  0
 13 14  1  0  0  0
 14 19  1  0  0  0
 19 20  1  0  0  0
 14 15  2  0  0  0
 15 16  1  0  0  0
 16 21  1  0  0  0
 21 22  1  0  0  0
 16 17  2  0  0  0
 17 18  1  0  0  0
  6  7  1  0  0  0
  7  8  2  0  0  0
  7  9  1  0  0  0
  9 27  1  0  0  0
 27 28  1  0  0  0
 28 29  2  0  0  0
 29 30  1  0  0  0
 30 31  2  0  0  0
 31 32  1  0  0  0
 32 34  1  0  0  0
 34 35  1  0  0  0
 35 36  2  0  0  0
 35 38  1  0  0  0
 38 39  2  0  0  0
 32 33  2  0  0  0
  9 10  1  0  0  0
 10 11  2  0  0  0
 11  1  1  0  0  0
 10  4  1  0  0  0
 17 12  1  0  0  0
 33 28  1  0  0  0
 23 24  1  0  0  0
 34 37  1  0  0  0
M  END
> <minimizedAffinity>
-8.35290

> <CNNscore>
0.1683162004

> <CNNaffinity>
7.1016683578

> <CNN_VS>
1.1953258514

> <CNNaffinity_variance>
0.2443614751

$$$$
[H]C([H])=C([H])C(=O)N([H])c1c([H])c([H])c([H])c(C([H])([H])n2c(=O)c(-c3c([H])c(OC([H])([H])[H])c([H])c(OC([H])([H])[H])c3Cl)c([H])c3c([H])nc(N([H])C([H])([H])C([H])([H])[H])nc32)c1[H]


 39 42  0  0  0  0  0  0  0  0999 V2000
   -4.7843   24.1390  -28.0394 C   0  0  0  0  0  0  0  0  0  0  0  0
   -4.0323   23.1554  -28.5541 N   0  0  0  0  0  0  0  0  0  0  0  0
   -3.1299   22.5526  -27.7708 C   0  0  0  0  0  0  0  0  0  0  0  0
   -2.9845   22.9445  -26.4586 C   0  0  0  0  0  0  0  0  0  0  0  0
   -2.0852   22.3382  -25.6020 C   0  0  0  0  0  0  0  0  0  0  0  0
   -1.9565   22.7123  -24.2907 C   0  0  0  0  0  0  0  0  0  0  0  0
   -2.7420   23.7268  -23.7948 C   0  0  0  0  0  0  0  0  0  0  0  0
   -2.6198   24.0736  -22.5649 O   0  0  0  0  0  0  0  0  0  0  0  0
   -3.6249   24.3365  -24.6042 N   0  0  0  0  0  0  0  0  0  0  0  0
   -3.7461   23.9572  -25.9009 C   0  0  0  0  0  0  0  0  0  0  0  0
   -4.6336   24.5139  -26.7579 N   0  0  0  0  0  0  0  0  0  0  0  0
   -0.9808   22.0337  -23.4348 C   0  0  0  0  0  0  0  0  0  0  0  0
   -1.4630   21.4317  -22.2879 C   0  0  0  0  0  0  0  0  0  0  0  0
   -0.5611   20.8007  -21.4607 C   0  0  0  0  0  0  0  0  0  0  0  0
    0.7953   20.7627  -21.7572 C   0  0  0  0  0  0  0  0  0  0  0  0
    1.2638   21.3663  -22.9031 C   0  0  0  0  0  0  0  0  0  0  0  0
    0.3712   21.9949  -23.7295 C   0  0  0  0  0  0  0  0  0  0  0  0
    0.9825   22.7380  -25.1767 Cl  0  0  0  0  0  0  0  0  0  0  0  0
   -1.0050   20.1911  -20.3118 O   0  0  0  0  0  0  0  0  0  0  0  0
   -1.7077   20.9406  -19.3476 C   0  0  0  0  0  0  0  0  0  0  0  0
    2.6347   21.3176  -23.1847 O   0  0  0  0  0  0  0  0  0  0  0  0
    3.4867   20.3602  -22.6284 C   0  0  0  0  0  0  0  0  0  0  0  0
   -5.7324   24.7519  -28.8918 N   0  0  0  0  0  0  0  0  0  0  0  0
   -6.5058   25.2861  -28.4641 H   0  0  0  0  0  0  0  0  0  0  0  0
   -5.2301   25.9175  -30.9850 C   0  0  0  0  0  0  0  0  0  0  0  0
   -5.6286   24.6389  -30.3101 C   0  0  0  0  0  0  0  0  0  0  0  0
   -4.4823   25.3773  -24.1085 C   0  0  0  0  0  0  0  0  0  0  0  0
   -5.7295   24.9976  -23.4659 C   0  0  0  0  0  0  0  0  0  0  0  0
   -6.9252   25.3111  -24.1103 C   0  0  0  0  0  0  0  0  0  0  0  0
   -8.1555   24.9952  -23.5898 C   0  0  0  0  0  0  0  0  0  0  0  0
   -8.2490   24.3281  -22.3569 C   0  0  0  0  0  0  0  0  0  0  0  0
   -7.0971   24.0031  -21.6902 C   0  0  0  0  0  0  0  0  0  0  0  0
   -5.8512   24.3494  -22.2672 C   0  0  0  0  0  0  0  0  0  0  0  0
   -7.0665   23.3553  -20.4275 N   0  0  0  0  0  0  0  0  0  0  0  0
   -7.1180   23.9654  -19.1813 C   0  0  0  0  0  0  0  0  0  0  0  0
   -7.1920   25.2086  -19.0584 O   0  0  0  0  0  0  0  0  0  0  0  0
   -7.0021   22.2808  -20.4322 H   0  0  0  0  0  0  0  0  0  0  0  0
   -7.0851   23.1347  -17.9446 C   0  0  0  0  0  0  0  0  0  0  0  0
   -6.2601   22.1213  -17.8702 C   0  0  0  0  0  0  0  0  0  0  0  0
 25 26  1  0  0  0
 26 23  1  0  0  0
 23  1  1  0  0  0
  1  2  2  0  0  0
  2  3  1  0  0  0
  3  4  2  0  0  0
  4  5  1  0  0  0
  5  6  2  0  0  0
  6 12  1  0  0  0
 12 13  2  0  0  0
 13 14  1  0  0  0
 14 19  1  0  0  0
 19 20  1  0  0  0
 14 15  2  0  0  0
 15 16  1  0  0  0
 16 21  1  0  0  0
 21 22  1  0  0  0
 16 17  2  0  0  0
 17 18  1  0  0  0
  6  7  1  0  0  0
  7  8  2  0  0  0
  7  9  1  0  0  0
  9 27  1  0  0  0
 27 28  1  0  0  0
 28 29  2  0  0  0
 29 30  1  0  0  0
 30 31  2  0  0  0
 31 32  1  0  0  0
 32 34  1  0  0  0
 34 35  1  0  0  0
 35 36  2  0  0  0
 35 38  1  0  0  0
 38 39  2  0  0  0
 32 33  2  0  0  0
  9 10  1  0  0  0
 10 11  2  0  0  0
 11  1  1  0  0  0
 10  4  1  0  0  0
 17 12  1  0  0  0
 33 28  1  0  0  0
 23 24  1  0  0  0
 34 37  1  0  0  0
M  END
> <minimizedAffinity>
-8.30318

> <CNNscore>
0.1287750006

> <CNNaffinity>
6.8216691017

> <CNN_VS>
0.8784604669

> <CNNaffinity_variance>
0.4795308709

$$$$
[H]C([H])=C([H])C(=O)N([H])c1c([H])c([H])c([H])c(C([H])([H])n2c(=O)c(-c3c([H])c(OC([H])([H])[H])c([H])c(OC([H])([H])[H])c3Cl)c([H])c3c([H])nc(N([H])C([H])([H])C([H])([H])[H])nc32)c1[H]


 39 42  0  0  0  0  0  0  0  0999 V2000
   -4.6810   24.1952  -28.1406 C   0  0  0  0  0  0  0  0  0  0  0  0
   -3.8863   23.2434  -28.6510 N   0  0  0  0  0  0  0  0  0  0  0  0
   -2.9990   22.6421  -27.8495 C   0  0  0  0  0  0  0  0  0  0  0  0
   -2.9120   23.0034  -26.5234 C   0  0  0  0  0  0  0  0  0  0  0  0
   -2.0305   22.3966  -25.6489 C   0  0  0  0  0  0  0  0  0  0  0  0
   -1.9598   22.7396  -24.3248 C   0  0  0  0  0  0  0  0  0  0  0  0
   -2.7880   23.7219  -23.8336 C   0  0  0  0  0  0  0  0  0  0  0  0
   -2.7201   24.0396  -22.5917 O   0  0  0  0  0  0  0  0  0  0  0  0
   -3.6551   24.3313  -24.6603 N   0  0  0  0  0  0  0  0  0  0  0  0
   -3.7186   23.9829  -25.9696 C   0  0  0  0  0  0  0  0  0  0  0  0
   -4.5873   24.5402  -26.8454 N   0  0  0  0  0  0  0  0  0  0  0  0
   -1.0000   22.0625  -23.4498 C   0  0  0  0  0  0  0  0  0  0  0  0
    0.3273   22.0891  -23.8340 C   0  0  0  0  0  0  0  0  0  0  0  0
    1.2451   21.4460  -23.0340 C   0  0  0  0  0  0  0  0  0  0  0  0
    0.8627   20.7861  -21.8732 C   0  0  0  0  0  0  0  0  0  0  0  0
   -0.4632   20.7665  -21.5008 C   0  0  0  0  0  0  0  0  0  0  0  0
   -1.3800   21.4048  -22.2925 C   0  0  0  0  0  0  0  0  0  0  0  0
   -3.0454   21.3789  -21.7962 Cl  0  0  0  0  0  0  0  0  0  0  0  0
    2.5738   21.4521  -23.3850 O   0  0  0  0  0  0  0  0  0  0  0  0
    3.4443   20.4820  -22.8498 C   0  0  0  0  0  0  0  0  0  0  0  0
   -0.8293   20.0958  -20.3273 O   0  0  0  0  0  0  0  0  0  0  0  0
   -0.0276   19.1166  -19.7353 C   0  0  0  0  0  0  0  0  0  0  0  0
   -5.6116   24.8072  -29.0126 N   0  0  0  0  0  0  0  0  0  0  0  0
   -6.5411   24.3713  -29.1248 H   0  0  0  0  0  0  0  0  0  0  0  0
   -5.0691   25.7808  -31.1921 C   0  0  0  0  0  0  0  0  0  0  0  0
   -5.2808   25.9989  -29.7235 C   0  0  0  0  0  0  0  0  0  0  0  0
   -4.5558   25.3381  -24.1714 C   0  0  0  0  0  0  0  0  0  0  0  0
   -5.8122   24.9120  -23.5778 C   0  0  0  0  0  0  0  0  0  0  0  0
   -5.8302   23.7175  -22.8594 C   0  0  0  0  0  0  0  0  0  0  0  0
   -6.9634   23.2280  -22.2588 C   0  0  0  0  0  0  0  0  0  0  0  0
   -8.1731   23.9362  -22.3531 C   0  0  0  0  0  0  0  0  0  0  0  0
   -8.1985   25.1145  -23.0518 C   0  0  0  0  0  0  0  0  0  0  0  0
   -7.0042   25.5793  -23.6538 C   0  0  0  0  0  0  0  0  0  0  0  0
   -9.3649   25.9015  -23.2386 N   0  0  0  0  0  0  0  0  0  0  0  0
  -10.4254   26.0355  -22.3523 C   0  0  0  0  0  0  0  0  0  0  0  0
  -10.4478   25.4337  -21.2553 O   0  0  0  0  0  0  0  0  0  0  0  0
   -9.4361   26.4571  -24.1578 H   0  0  0  0  0  0  0  0  0  0  0  0
  -11.5776   26.9147  -22.6986 C   0  0  0  0  0  0  0  0  0  0  0  0
  -11.4877   28.2048  -22.4969 C   0  0  0  0  0  0  0  0  0  0  0  0
 25 26  1  0  0  0
 26 23  1  0  0  0
 23  1  1  0  0  0
  1  2  2  0  0  0
  2  3  1  0  0  0
  3  4  2  0  0  0
  4  5  1  0  0  0
  5  6  2  0  0  0
  6 12  1  0  0  0
 12 13  2  0  0  0
 13 14  1  0  0  0
 14 19  1  0  0  0
 19 20  1  0  0  0
 14 15  2  0  0  0
 15 16  1  0  0  0
 16 21  1  0  0  0
 21 22  1  0  0  0
 16 17  2  0  0  0
 17 18  1  0  0  0
  6  7  1  0  0  0
  7  8  2  0  0  0
  7  9  1  0  0  0
  9 27  1  0  0  0
 27 28  1  0  0  0
 28 29  2  0  0  0
 29 30  1  0  0  0
 30 31  2  0  0  0
 31 32  1  0  0  0
 32 34  1  0  0  0
 34 35  1  0  0  0
 35 36  2  0  0  0
 35 38  1  0  0  0
 38 39  2  0  0  0
 32 33  2  0  0  0
  9 10  1  0  0  0
 10 11  2  0  0  0
 11  1  1  0  0  0
 10  4  1  0  0  0
 17 12  1  0  0  0
 33 28  1  0  0  0
 23 24  1  0  0  0
 34 37  1  0  0  0
M  END
> <minimizedAffinity>
-8.45748

> <CNNscore>
0.1210265085

> <CNNaffinity>
6.9319715500

> <CNN_VS>
0.8389523029

> <CNNaffinity_variance>
0.1723640263

$$$$
[H]C([H])=C([H])C(=O)N([H])c1c([H])c([H])c([H])c(C([H])([H])n2c(=O)c(-c3c([H])c(OC([H])([H])[H])c([H])c(OC([H])([H])[H])c3Cl)c([H])c3c([H])nc(N([H])C([H])([H])C([H])([H])[H])nc32)c1[H]


 39 42  0  0  0  0  0  0  0  0999 V2000
   -2.7454   22.9619  -28.0804 C   0  0  0  0  0  0  0  0  0  0  0  0
   -1.4150   23.1155  -28.0135 N   0  0  0  0  0  0  0  0  0  0  0  0
   -0.7899   22.8522  -26.8598 C   0  0  0  0  0  0  0  0  0  0  0  0
   -1.5116   22.4308  -25.7651 C   0  0  0  0  0  0  0  0  0  0  0  0
   -0.9115   22.1223  -24.5590 C   0  0  0  0  0  0  0  0  0  0  0  0
   -1.6262   21.6813  -23.4770 C   0  0  0  0  0  0  0  0  0  0  0  0
   -2.9903   21.5366  -23.5787 C   0  0  0  0  0  0  0  0  0  0  0  0
   -3.6566   21.1213  -22.5631 O   0  0  0  0  0  0  0  0  0  0  0  0
   -3.6026   21.8301  -24.7386 N   0  0  0  0  0  0  0  0  0  0  0  0
   -2.8855   22.2644  -25.8049 C   0  0  0  0  0  0  0  0  0  0  0  0
   -3.4398   22.5508  -27.0061 N   0  0  0  0  0  0  0  0  0  0  0  0
   -0.9319   21.3757  -22.2241 C   0  0  0  0  0  0  0  0  0  0  0  0
   -0.1960   20.2065  -22.1830 C   0  0  0  0  0  0  0  0  0  0  0  0
    0.4530   19.8918  -21.0101 C   0  0  0  0  0  0  0  0  0  0  0  0
    0.3788   20.7150  -19.8939 C   0  0  0  0  0  0  0  0  0  0  0  0
   -0.3578   21.8776  -19.9471 C   0  0  0  0  0  0  0  0  0  0  0  0
   -1.0048   22.1956  -21.1111 C   0  0  0  0  0  0  0  0  0  0  0  0
   -1.9172   23.6740  -21.1601 Cl  0  0  0  0  0  0  0  0  0  0  0  0
    1.1942   18.7371  -20.9331 O   0  0  0  0  0  0  0  0  0  0  0  0
    2.6000   18.8009  -21.0036 C   0  0  0  0  0  0  0  0  0  0  0  0
   -0.4208   22.6945  -18.8114 O   0  0  0  0  0  0  0  0  0  0  0  0
   -1.4568   22.6116  -17.8777 C   0  0  0  0  0  0  0  0  0  0  0  0
   -3.3749   23.2432  -29.3156 N   0  0  0  0  0  0  0  0  0  0  0  0
   -3.1059   22.6868  -30.1430 H   0  0  0  0  0  0  0  0  0  0  0  0
   -5.5886   23.8450  -30.1700 C   0  0  0  0  0  0  0  0  0  0  0  0
   -4.3595   24.2700  -29.4231 C   0  0  0  0  0  0  0  0  0  0  0  0
   -5.0213   21.6588  -24.8869 C   0  0  0  0  0  0  0  0  0  0  0  0
   -5.8933   22.7592  -24.5109 C   0  0  0  0  0  0  0  0  0  0  0  0
   -6.4831   23.5097  -25.5268 C   0  0  0  0  0  0  0  0  0  0  0  0
   -7.3230   24.5667  -25.2787 C   0  0  0  0  0  0  0  0  0  0  0  0
   -7.6213   24.9345  -23.9559 C   0  0  0  0  0  0  0  0  0  0  0  0
   -7.0608   24.2232  -22.9279 C   0  0  0  0  0  0  0  0  0  0  0  0
   -6.2008   23.1405  -23.2334 C   0  0  0  0  0  0  0  0  0  0  0  0
   -7.2656   24.5179  -21.5545 N   0  0  0  0  0  0  0  0  0  0  0  0
   -6.3156   24.9856  -20.6563 C   0  0  0  0  0  0  0  0  0  0  0  0
   -5.1296   25.1913  -20.9987 O   0  0  0  0  0  0  0  0  0  0  0  0
   -8.2589   24.3699  -21.1670 H   0  0  0  0  0  0  0  0  0  0  0  0
   -6.6989   25.2558  -19.2419 C   0  0  0  0  0  0  0  0  0  0  0  0
   -6.3347   24.4187  -18.3039 C   0  0  0  0  0  0  0  0  0  0  0  0
 25 26  1  0  0  0
 26 23  1  0  0  0
 23  1  1  0  0  0
  1  2  2  0  0  0
  2  3  1  0  0  0
  3  4  2  0  0  0
  4  5  1  0  0  0
  5  6  2  0  0  0
  6 12  1  0  0  0
 12 13  2  0  0  0
 13 14  1  0  0  0
 14 19  1  0  0  0
 19 20  1  0  0  0
 14 15  2  0  0  0
 15 16  1  0  0  0
 16 21  1  0  0  0
 21 22  1  0  0  0
 16 17  2  0  0  0
 17 18  1  0  0  0
  6  7  1  0  0  0
  7  8  2  0  0  0
  7  9  1  0  0  0
  9 27  1  0  0  0
 27 28  1  0  0  0
 28 29  2  0  0  0
 29 30  1  0  0  0
 30 31  2  0  0  0
 31 32  1  0  0  0
 32 34  1  0  0  0
 34 35  1  0  0  0
 35 36  2  0  0  0
 35 38  1  0  0  0
 38 39  2  0  0  0
 32 33  2  0  0  0
  9 10  1  0  0  0
 10 11  2  0  0  0
 11  1  1  0  0  0
 10  4  1  0  0  0
 17 12  1  0  0  0
 33 28  1  0  0  0
 23 24  1  0  0  0
 34 37  1  0  0  0
M  END
> <minimizedAffinity>
-8.02505

> <CNNscore>
0.1098773479

> <CNNaffinity>
6.9009599686

> <CNN_VS>
0.7582591772

> <CNNaffinity_variance>
0.2338173836

$$$$
[H]c1nc(N([H])[H])c2c(-c3sc4c(OC([H])([H])[H])c([H])c(C([H])([H])[H])c([H])c4c3[H])c(C([H])([H])OC([H])([H])C#N)c([H])n2n1


 29 32  0  0  0  0  0  0  0  0999 V2000
   -2.2862   22.7731  -25.5432 C   0  0  0  0  0  0  0  0  0  0  0  0
   -3.6525   22.8031  -25.9244 C   0  0  0  0  0  0  0  0  0  0  0  0
   -3.6269   23.0225  -27.2682 C   0  0  0  0  0  0  0  0  0  0  0  0
   -2.3470   23.1192  -27.6937 N   0  0  0  0  0  0  0  0  0  0  0  0
   -1.8606   23.3016  -28.8967 N   0  0  0  0  0  0  0  0  0  0  0  0
   -0.5431   23.3372  -29.1273 C   0  0  0  0  0  0  0  0  0  0  0  0
    0.3227   23.1833  -28.1168 N   0  0  0  0  0  0  0  0  0  0  0  0
   -0.1287   22.9920  -26.8506 C   0  0  0  0  0  0  0  0  0  0  0  0
    0.8242   22.7562  -25.8298 N   0  0  0  0  0  0  0  0  0  0  0  0
   -1.4950   22.9646  -26.6403 C   0  0  0  0  0  0  0  0  0  0  0  0
    1.4133   23.4961  -25.3879 H   0  0  0  0  0  0  0  0  0  0  0  0
    0.9654   21.7805  -25.4779 H   0  0  0  0  0  0  0  0  0  0  0  0
   -0.5689   20.6970  -20.8331 C   0  0  0  0  0  0  0  0  0  0  0  0
   -0.6997   21.2011  -19.5609 C   0  0  0  0  0  0  0  0  0  0  0  0
   -1.3227   22.4186  -19.4170 C   0  0  0  0  0  0  0  0  0  0  0  0
   -1.4862   23.0084  -18.0315 C   0  0  0  0  0  0  0  0  0  0  0  0
   -1.7909   23.0938  -20.5090 C   0  0  0  0  0  0  0  0  0  0  0  0
   -1.6772   22.6119  -21.8327 C   0  0  0  0  0  0  0  0  0  0  0  0
   -2.0993   23.1840  -22.9969 C   0  0  0  0  0  0  0  0  0  0  0  0
   -1.8731   22.5261  -24.1596 C   0  0  0  0  0  0  0  0  0  0  0  0
   -1.0775   21.1110  -23.6234 S   0  0  0  0  0  0  0  0  0  0  0  0
   -1.0545   21.4009  -21.9465 C   0  0  0  0  0  0  0  0  0  0  0  0
    0.8540   18.7829  -20.2464 C   0  0  0  0  0  0  0  0  0  0  0  0
    0.0319   19.4925  -21.1250 O   0  0  0  0  0  0  0  0  0  0  0  0
   -4.7984   22.5599  -25.0122 C   0  0  0  0  0  0  0  0  0  0  0  0
   -5.2793   23.6592  -24.3693 O   0  0  0  0  0  0  0  0  0  0  0  0
   -6.3668   24.1931  -25.0118 C   0  0  0  0  0  0  0  0  0  0  0  0
   -6.5184   25.6401  -24.6603 C   0  0  0  0  0  0  0  0  0  0  0  0
   -6.6221   26.7492  -24.3847 N   0  0  0  0  0  0  0  0  0  0  0  0
 23 24  1  0  0  0
 24 13  1  0  0  0
 13 14  2  0  0  0
 14 15  1  0  0  0
 15 16  1  0  0  0
 15 17  2  0  0  0
 17 18  1  0  0  0
 18 19  1  0  0  0
 19 20  2  0  0  0
 20 21  1  0  0  0
 21 22  1  0  0  0
 20  1  1  0  0  0
  1  2  1  0  0  0
  2 25  1  0  0  0
 25 26  1  0  0  0
 26 27  1  0  0  0
 27 28  1  0  0  0
 28 29  3  0  0  0
  2  3  2  0  0  0
  3  4  1  0  0  0
  4  5  1  0  0  0
  5  6  2  0  0  0
  6  7  1  0  0  0
  7  8  2  0  0  0
  8  9  1  0  0  0
  8 10  1  0  0  0
 22 13  1  0  0  0
 10  1  2  0  0  0
 22 18  2  0  0  0
 10  4  1  0  0  0
  9 11  1  0  0  0
  9 12  1  0  0  0
M  END
> <minimizedAffinity>
-6.42367

> <CNNscore>
0.8277070522

> <CNNaffinity>
6.8266286850

> <CNN_VS>
5.6504487991

> <CNNaffinity_variance>
0.0835191384

$$$$
[H]c1nc(N([H])[H])c2c(-c3sc4c(OC([H])([H])[H])c([H])c(C([H])([H])[H])c([H])c4c3[H])c(C([H])([H])OC([H])([H])C#N)c([H])n2n1


 29 32  0  0  0  0  0  0  0  0999 V2000
   -1.9909   22.1632  -23.8432 C   0  0  0  0  0  0  0  0  0  0  0  0
   -2.6386   21.7428  -22.6529 C   0  0  0  0  0  0  0  0  0  0  0  0
   -1.6431   21.2060  -21.8944 C   0  0  0  0  0  0  0  0  0  0  0  0
   -0.4667   21.2868  -22.5561 N   0  0  0  0  0  0  0  0  0  0  0  0
    0.7393   20.9202  -22.1979 N   0  0  0  0  0  0  0  0  0  0  0  0
    1.8005   21.1155  -22.9890 C   0  0  0  0  0  0  0  0  0  0  0  0
    1.6516   21.7011  -24.1846 N   0  0  0  0  0  0  0  0  0  0  0  0
    0.4232   22.0995  -24.6044 C   0  0  0  0  0  0  0  0  0  0  0  0
    0.3290   22.7838  -25.8407 N   0  0  0  0  0  0  0  0  0  0  0  0
   -0.6564   21.8807  -23.7688 C   0  0  0  0  0  0  0  0  0  0  0  0
    0.3759   22.3240  -26.7766 H   0  0  0  0  0  0  0  0  0  0  0  0
    0.2034   23.8230  -25.8413 H   0  0  0  0  0  0  0  0  0  0  0  0
   -5.1544   25.3190  -26.9218 C   0  0  0  0  0  0  0  0  0  0  0  0
   -5.5713   25.1323  -28.2184 C   0  0  0  0  0  0  0  0  0  0  0  0
   -5.1222   24.0129  -28.8789 C   0  0  0  0  0  0  0  0  0  0  0  0
   -5.5585   23.7711  -30.3091 C   0  0  0  0  0  0  0  0  0  0  0  0
   -4.2906   23.1247  -28.2566 C   0  0  0  0  0  0  0  0  0  0  0  0
   -3.8387   23.2786  -26.9264 C   0  0  0  0  0  0  0  0  0  0  0  0
   -3.0154   22.4713  -26.1976 C   0  0  0  0  0  0  0  0  0  0  0  0
   -2.7172   22.8314  -24.9259 C   0  0  0  0  0  0  0  0  0  0  0  0
   -3.5899   24.2911  -24.7512 S   0  0  0  0  0  0  0  0  0  0  0  0
   -4.3000   24.3987  -26.2942 C   0  0  0  0  0  0  0  0  0  0  0  0
   -4.6595   27.4098  -25.7317 C   0  0  0  0  0  0  0  0  0  0  0  0
   -5.5243   26.3925  -26.1421 O   0  0  0  0  0  0  0  0  0  0  0  0
   -4.0760   21.9508  -22.3444 C   0  0  0  0  0  0  0  0  0  0  0  0
   -4.9483   21.2343  -23.1052 O   0  0  0  0  0  0  0  0  0  0  0  0
   -6.1052   21.9291  -23.3488 C   0  0  0  0  0  0  0  0  0  0  0  0
   -7.1124   21.6519  -22.2769 C   0  0  0  0  0  0  0  0  0  0  0  0
   -7.8745   21.4401  -21.4454 N   0  0  0  0  0  0  0  0  0  0  0  0
 23 24  1  0  0  0
 24 13  1  0  0  0
 13 14  2  0  0  0
 14 15  1  0  0  0
 15 16  1  0  0  0
 15 17  2  0  0  0
 17 18  1  0  0  0
 18 19  1  0  0  0
 19 20  2  0  0  0
 20 21  1  0  0  0
 21 22  1  0  0  0
 20  1  1  0  0  0
  1  2  1  0  0  0
  2 25  1  0  0  0
 25 26  1  0  0  0
 26 27  1  0  0  0
 27 28  1  0  0  0
 28 29  3  0  0  0
  2  3  2  0  0  0
  3  4  1  0  0  0
  4  5  1  0  0  0
  5  6  2  0  0  0
  6  7  1  0  0  0
  7  8  2  0  0  0
  8  9  1  0  0  0
  8 10  1  0  0  0
 22 13  1  0  0  0
 10  1  2  0  0  0
 22 18  2  0  0  0
 10  4  1  0  0  0
  9 11  1  0  0  0
  9 12  1  0  0  0
M  END
> <minimizedAffinity>
-7.53537

> <CNNscore>
0.6792094111

> <CNNaffinity>
7.0184922218

> <CNN_VS>
4.7670259476

> <CNNaffinity_variance>
0.2413633615

$$$$
[H]c1nc(N([H])[H])c2c(-c3sc4c(OC([H])([H])[H])c([H])c(C([H])([H])[H])c([H])c4c3[H])c(C([H])([H])OC([H])([H])C#N)c([H])n2n1


 29 32  0  0  0  0  0  0  0  0999 V2000
   -3.6059   23.1211  -26.1606 C   0  0  0  0  0  0  0  0  0  0  0  0
   -3.9227   23.1241  -27.5435 C   0  0  0  0  0  0  0  0  0  0  0  0
   -2.7446   22.8382  -28.1640 C   0  0  0  0  0  0  0  0  0  0  0  0
   -1.7698   22.6673  -27.2426 N   0  0  0  0  0  0  0  0  0  0  0  0
   -0.5043   22.3599  -27.3882 N   0  0  0  0  0  0  0  0  0  0  0  0
    0.3086   22.1998  -26.3375 C   0  0  0  0  0  0  0  0  0  0  0  0
   -0.1613   22.3516  -25.0923 N   0  0  0  0  0  0  0  0  0  0  0  0
   -1.4649   22.6708  -24.8857 C   0  0  0  0  0  0  0  0  0  0  0  0
   -1.9318   22.7431  -23.5506 N   0  0  0  0  0  0  0  0  0  0  0  0
   -2.2810   22.8351  -25.9896 C   0  0  0  0  0  0  0  0  0  0  0  0
   -1.7504   23.5412  -22.9027 H   0  0  0  0  0  0  0  0  0  0  0  0
   -2.5002   21.9534  -23.1646 H   0  0  0  0  0  0  0  0  0  0  0  0
   -7.3657   22.7596  -22.2647 C   0  0  0  0  0  0  0  0  0  0  0  0
   -8.2733   23.7013  -21.8414 C   0  0  0  0  0  0  0  0  0  0  0  0
   -8.2397   24.9370  -22.4439 C   0  0  0  0  0  0  0  0  0  0  0  0
   -9.2232   26.0023  -22.0056 C   0  0  0  0  0  0  0  0  0  0  0  0
   -7.3307   25.2067  -23.4281 C   0  0  0  0  0  0  0  0  0  0  0  0
   -6.3814   24.2683  -23.8924 C   0  0  0  0  0  0  0  0  0  0  0  0
   -5.4297   24.4122  -24.8590 C   0  0  0  0  0  0  0  0  0  0  0  0
   -4.6219   23.3593  -25.1325 C   0  0  0  0  0  0  0  0  0  0  0  0
   -5.1964   22.1727  -24.0439 S   0  0  0  0  0  0  0  0  0  0  0  0
   -6.4371   23.0497  -23.2768 C   0  0  0  0  0  0  0  0  0  0  0  0
   -7.2699   21.1770  -20.3889 C   0  0  0  0  0  0  0  0  0  0  0  0
   -7.2851   21.4840  -21.7515 O   0  0  0  0  0  0  0  0  0  0  0  0
   -5.2816   23.3244  -28.1072 C   0  0  0  0  0  0  0  0  0  0  0  0
   -5.5284   24.5628  -28.6159 O   0  0  0  0  0  0  0  0  0  0  0  0
   -5.5575   24.5565  -29.9868 C   0  0  0  0  0  0  0  0  0  0  0  0
   -5.6542   25.9555  -30.5101 C   0  0  0  0  0  0  0  0  0  0  0  0
   -5.7158   27.0309  -30.9059 N   0  0  0  0  0  0  0  0  0  0  0  0
 23 24  1  0  0  0
 24 13  1  0  0  0
 13 14  2  0  0  0
 14 15  1  0  0  0
 15 16  1  0  0  0
 15 17  2  0  0  0
 17 18  1  0  0  0
 18 19  1  0  0  0
 19 20  2  0  0  0
 20 21  1  0  0  0
 21 22  1  0  0  0
 20  1  1  0  0  0
  1  2  1  0  0  0
  2 25  1  0  0  0
 25 26  1  0  0  0
 26 27  1  0  0  0
 27 28  1  0  0  0
 28 29  3  0  0  0
  2  3  2  0  0  0
  3  4  1  0  0  0
  4  5  1  0  0  0
  5  6  2  0  0  0
  6  7  1  0  0  0
  7  8  2  0  0  0
  8  9  1  0  0  0
  8 10  1  0  0  0
 22 13  1  0  0  0
 10  1  2  0  0  0
 22 18  2  0  0  0
 10  4  1  0  0  0
  9 11  1  0  0  0
  9 12  1  0  0  0
M  END
> <minimizedAffinity>
-7.78267

> <CNNscore>
0.5217366219

> <CNNaffinity>
7.0512895584

> <CNN_VS>
3.6789159775

> <CNNaffinity_variance>
0.2791803479

$$$$
[H]c1nc(N([H])[H])c2c(-c3sc4c(OC([H])([H])[H])c([H])c(C([H])([H])[H])c([H])c4c3[H])c(C([H])([H])OC([H])([H])C#N)c([H])n2n1


 29 32  0  0  0  0  0  0  0  0999 V2000
   -3.3909   23.4368  -25.7554 C   0  0  0  0  0  0  0  0  0  0  0  0
   -4.1527   23.7674  -24.6049 C   0  0  0  0  0  0  0  0  0  0  0  0
   -3.3483   23.4373  -23.5568 C   0  0  0  0  0  0  0  0  0  0  0  0
   -2.1763   22.9425  -24.0151 N   0  0  0  0  0  0  0  0  0  0  0  0
   -1.1153   22.5276  -23.3677 N   0  0  0  0  0  0  0  0  0  0  0  0
   -0.0218   22.0967  -24.0072 C   0  0  0  0  0  0  0  0  0  0  0  0
    0.0138   22.0808  -25.3462 N   0  0  0  0  0  0  0  0  0  0  0  0
   -1.0591   22.4996  -26.0654 C   0  0  0  0  0  0  0  0  0  0  0  0
   -0.9442   22.5377  -27.4764 N   0  0  0  0  0  0  0  0  0  0  0  0
   -2.1775   22.9348  -25.3787 C   0  0  0  0  0  0  0  0  0  0  0  0
   -0.9966   21.7002  -28.0972 H   0  0  0  0  0  0  0  0  0  0  0  0
   -0.7958   23.4582  -27.9523 H   0  0  0  0  0  0  0  0  0  0  0  0
   -5.5130   25.4393  -30.3304 C   0  0  0  0  0  0  0  0  0  0  0  0
   -5.9645   24.7728  -31.4446 C   0  0  0  0  0  0  0  0  0  0  0  0
   -5.8548   23.4020  -31.4573 C   0  0  0  0  0  0  0  0  0  0  0  0
   -6.3407   22.6306  -32.6669 C   0  0  0  0  0  0  0  0  0  0  0  0
   -5.3136   22.7376  -30.3927 C   0  0  0  0  0  0  0  0  0  0  0  0
   -4.8379   23.3836  -29.2292 C   0  0  0  0  0  0  0  0  0  0  0  0
   -4.2816   22.8399  -28.1086 C   0  0  0  0  0  0  0  0  0  0  0  0
   -3.8939   23.6709  -27.1112 C   0  0  0  0  0  0  0  0  0  0  0  0
   -4.3113   25.2055  -27.7386 S   0  0  0  0  0  0  0  0  0  0  0  0
   -4.9591   24.7445  -29.2435 C   0  0  0  0  0  0  0  0  0  0  0  0
   -5.7902   27.7114  -31.2212 C   0  0  0  0  0  0  0  0  0  0  0  0
   -5.5601   26.8077  -30.1811 O   0  0  0  0  0  0  0  0  0  0  0  0
   -5.4936   24.4047  -24.6235 C   0  0  0  0  0  0  0  0  0  0  0  0
   -6.0727   24.5873  -23.4052 O   0  0  0  0  0  0  0  0  0  0  0  0
   -7.2439   23.8843  -23.2846 C   0  0  0  0  0  0  0  0  0  0  0  0
   -7.0289   22.6560  -22.4568 C   0  0  0  0  0  0  0  0  0  0  0  0
   -6.8769   21.7099  -21.8254 N   0  0  0  0  0  0  0  0  0  0  0  0
 23 24  1  0  0  0
 24 13  1  0  0  0
 13 14  2  0  0  0
 14 15  1  0  0  0
 15 16  1  0  0  0
 15 17  2  0  0  0
 17 18  1  0  0  0
 18 19  1  0  0  0
 19 20  2  0  0  0
 20 21  1  0  0  0
 21 22  1  0  0  0
 20  1  1  0  0  0
  1  2  1  0  0  0
  2 25  1  0  0  0
 25 26  1  0  0  0
 26 27  1  0  0  0
 27 28  1  0  0  0
 28 29  3  0  0  0
  2  3  2  0  0  0
  3  4  1  0  0  0
  4  5  1  0  0  0
  5  6  2  0  0  0
  6  7  1  0  0  0
  7  8  2  0  0  0
  8  9  1  0  0  0
  8 10  1  0  0  0
 22 13  1  0  0  0
 10  1  2  0  0  0
 22 18  2  0  0  0
 10  4  1  0  0  0
  9 11  1  0  0  0
  9 12  1  0  0  0
M  END
> <minimizedAffinity>
-6.55652

> <CNNscore>
0.5025922656

> <CNNaffinity>
7.1579771042

> <CNN_VS>
3.5975439548

> <CNNaffinity_variance>
0.7141376734

$$$$
[H]c1nc(N([H])[H])c2c(-c3sc4c(OC([H])([H])[H])c([H])c(C([H])([H])[H])c([H])c4c3[H])c(C([H])([H])OC([H])([H])C#N)c([H])n2n1


 29 32  0  0  0  0  0  0  0  0999 V2000
   -3.8567   23.0768  -26.4595 C   0  0  0  0  0  0  0  0  0  0  0  0
   -4.2219   23.2156  -27.8234 C   0  0  0  0  0  0  0  0  0  0  0  0
   -3.0475   23.1053  -28.5039 C   0  0  0  0  0  0  0  0  0  0  0  0
   -2.0297   22.9104  -27.6352 N   0  0  0  0  0  0  0  0  0  0  0  0
   -0.7495   22.7304  -27.8493 N   0  0  0  0  0  0  0  0  0  0  0  0
    0.1106   22.5173  -26.8467 C   0  0  0  0  0  0  0  0  0  0  0  0
   -0.3253   22.4812  -25.5806 N   0  0  0  0  0  0  0  0  0  0  0  0
   -1.6422   22.6625  -25.3036 C   0  0  0  0  0  0  0  0  0  0  0  0
   -2.0655   22.5375  -23.9580 N   0  0  0  0  0  0  0  0  0  0  0  0
   -2.5078   22.8859  -26.3584 C   0  0  0  0  0  0  0  0  0  0  0  0
   -1.9262   23.2663  -23.2237 H   0  0  0  0  0  0  0  0  0  0  0  0
   -2.5539   21.6626  -23.6551 H   0  0  0  0  0  0  0  0  0  0  0  0
   -7.2489   24.3955  -22.4348 C   0  0  0  0  0  0  0  0  0  0  0  0
   -7.8864   23.5787  -21.5314 C   0  0  0  0  0  0  0  0  0  0  0  0
   -7.6880   22.2226  -21.6453 C   0  0  0  0  0  0  0  0  0  0  0  0
   -8.3729   21.2887  -20.6692 C   0  0  0  0  0  0  0  0  0  0  0  0
   -6.8827   21.7175  -22.6272 C   0  0  0  0  0  0  0  0  0  0  0  0
   -6.2095   22.5210  -23.5751 C   0  0  0  0  0  0  0  0  0  0  0  0
   -5.3852   22.1432  -24.5942 C   0  0  0  0  0  0  0  0  0  0  0  0
   -4.8513   23.1057  -25.3843 C   0  0  0  0  0  0  0  0  0  0  0  0
   -5.4974   24.5327  -24.6996 S   0  0  0  0  0  0  0  0  0  0  0  0
   -6.4242   23.8636  -23.4387 C   0  0  0  0  0  0  0  0  0  0  0  0
   -7.8850   26.5261  -21.3913 C   0  0  0  0  0  0  0  0  0  0  0  0
   -7.3565   25.7686  -22.4393 O   0  0  0  0  0  0  0  0  0  0  0  0
   -5.6118   23.3651  -28.3237 C   0  0  0  0  0  0  0  0  0  0  0  0
   -5.9222   24.5878  -28.8354 O   0  0  0  0  0  0  0  0  0  0  0  0
   -5.7292   24.6390  -30.1920 C   0  0  0  0  0  0  0  0  0  0  0  0
   -5.7321   26.0596  -30.6633 C   0  0  0  0  0  0  0  0  0  0  0  0
   -5.7474   27.1471  -31.0293 N   0  0  0  0  0  0  0  0  0  0  0  0
 23 24  1  0  0  0
 24 13  1  0  0  0
 13 14  2  0  0  0
 14 15  1  0  0  0
 15 16  1  0  0  0
 15 17  2  0  0  0
 17 18  1  0  0  0
 18 19  1  0  0  0
 19 20  2  0  0  0
 20 21  1  0  0  0
 21 22  1  0  0  0
 20  1  1  0  0  0
  1  2  1  0  0  0
  2 25  1  0  0  0
 25 26  1  0  0  0
 26 27  1  0  0  0
 27 28  1  0  0  0
 28 29  3  0  0  0
  2  3  2  0  0  0
  3  4  1  0  0  0
  4  5  1  0  0  0
  5  6  2  0  0  0
  6  7  1  0  0  0
  7  8  2  0  0  0
  8  9  1  0  0  0
  8 10  1  0  0  0
 22 13  1  0  0  0
 10  1  2  0  0  0
 22 18  2  0  0  0
 10  4  1  0  0  0
  9 11  1  0  0  0
  9 12  1  0  0  0
M  END
> <minimizedAffinity>
-8.02359

> <CNNscore>
0.4809203446

> <CNNaffinity>
7.0438652039

> <CNN_VS>
3.3875381947

> <CNNaffinity_variance>
0.2740610838

$$$$
[H]c1nc(N([H])[H])c2c(-c3sc4c(OC([H])([H])[H])c([H])c(C([H])([H])[H])c([H])c4c3[H])c(C([H])([H])OC([H])([H])C#N)c([H])n2n1


 29 32  0  0  0  0  0  0  0  0999 V2000
   -4.4400   23.5802  -26.4728 C   0  0  0  0  0  0  0  0  0  0  0  0
   -3.2499   22.8711  -26.7794 C   0  0  0  0  0  0  0  0  0  0  0  0
   -2.9208   23.2838  -28.0348 C   0  0  0  0  0  0  0  0  0  0  0  0
   -3.8307   24.1811  -28.4768 N   0  0  0  0  0  0  0  0  0  0  0  0
   -3.8934   24.8461  -29.6041 N   0  0  0  0  0  0  0  0  0  0  0  0
   -4.8685   25.7289  -29.8496 C   0  0  0  0  0  0  0  0  0  0  0  0
   -5.8176   25.9575  -28.9323 N   0  0  0  0  0  0  0  0  0  0  0  0
   -5.7995   25.2945  -27.7474 C   0  0  0  0  0  0  0  0  0  0  0  0
   -6.7787   25.6279  -26.7801 N   0  0  0  0  0  0  0  0  0  0  0  0
   -4.7834   24.3843  -27.5225 C   0  0  0  0  0  0  0  0  0  0  0  0
   -7.7736   25.3136  -26.8125 H   0  0  0  0  0  0  0  0  0  0  0  0
   -6.5097   26.2303  -25.9673 H   0  0  0  0  0  0  0  0  0  0  0  0
   -6.1184   23.9369  -21.3250 C   0  0  0  0  0  0  0  0  0  0  0  0
   -6.8958   23.0645  -20.6009 C   0  0  0  0  0  0  0  0  0  0  0  0
   -7.3619   21.9409  -21.2423 C   0  0  0  0  0  0  0  0  0  0  0  0
   -8.2220   20.9549  -20.4792 C   0  0  0  0  0  0  0  0  0  0  0  0
   -7.0558   21.7113  -22.5542 C   0  0  0  0  0  0  0  0  0  0  0  0
   -6.2607   22.5814  -23.3342 C   0  0  0  0  0  0  0  0  0  0  0  0
   -5.8861   22.4669  -24.6408 C   0  0  0  0  0  0  0  0  0  0  0  0
   -5.1134   23.4409  -25.1794 C   0  0  0  0  0  0  0  0  0  0  0  0
   -4.9092   24.5089  -23.8601 S   0  0  0  0  0  0  0  0  0  0  0  0
   -5.8113   23.6891  -22.6723 C   0  0  0  0  0  0  0  0  0  0  0  0
   -6.1917   25.8830  -19.8283 C   0  0  0  0  0  0  0  0  0  0  0  0
   -5.5852   25.0989  -20.8126 O   0  0  0  0  0  0  0  0  0  0  0  0
   -2.5374   21.9579  -25.8505 C   0  0  0  0  0  0  0  0  0  0  0  0
   -1.6218   22.5490  -25.0348 O   0  0  0  0  0  0  0  0  0  0  0  0
   -0.3802   21.9811  -25.1627 C   0  0  0  0  0  0  0  0  0  0  0  0
    0.2459   22.3893  -26.4595 C   0  0  0  0  0  0  0  0  0  0  0  0
    0.7188   22.6924  -27.4602 N   0  0  0  0  0  0  0  0  0  0  0  0
 23 24  1  0  0  0
 24 13  1  0  0  0
 13 14  2  0  0  0
 14 15  1  0  0  0
 15 16  1  0  0  0
 15 17  2  0  0  0
 17 18  1  0  0  0
 18 19  1  0  0  0
 19 20  2  0  0  0
 20 21  1  0  0  0
 21 22  1  0  0  0
 20  1  1  0  0  0
  1  2  1  0  0  0
  2 25  1  0  0  0
 25 26  1  0  0  0
 26 27  1  0  0  0
 27 28  1  0  0  0
 28 29  3  0  0  0
  2  3  2  0  0  0
  3  4  1  0  0  0
  4  5  1  0  0  0
  5  6  2  0  0  0
  6  7  1  0  0  0
  7  8  2  0  0  0
  8  9  1  0  0  0
  8 10  1  0  0  0
 22 13  1  0  0  0
 10  1  2  0  0  0
 22 18  2  0  0  0
 10  4  1  0  0  0
  9 11  1  0  0  0
  9 12  1  0  0  0
M  END
> <minimizedAffinity>
-7.56306

> <CNNscore>
0.3816888928

> <CNNaffinity>
6.7025489807

> <CNN_VS>
2.5582885742

> <CNNaffinity_variance>
0.1517641842

$$$$
[H]c1nc(N([H])[H])c2c(-c3sc4c(OC([H])([H])[H])c([H])c(C([H])([H])[H])c([H])c4c3[H])c(C([H])([H])OC([H])([H])C#N)c([H])n2n1


 29 32  0  0  0  0  0  0  0  0999 V2000
   -4.6077   23.6471  -25.9469 C   0  0  0  0  0  0  0  0  0  0  0  0
   -3.3397   23.0108  -25.9299 C   0  0  0  0  0  0  0  0  0  0  0  0
   -2.9179   23.0561  -27.2240 C   0  0  0  0  0  0  0  0  0  0  0  0
   -3.8465   23.6739  -27.9885 N   0  0  0  0  0  0  0  0  0  0  0  0
   -3.8465   23.9548  -29.2684 N   0  0  0  0  0  0  0  0  0  0  0  0
   -4.8587   24.6114  -29.8469 C   0  0  0  0  0  0  0  0  0  0  0  0
   -5.9119   25.0039  -29.1181 N   0  0  0  0  0  0  0  0  0  0  0  0
   -5.9623   24.7374  -27.7876 C   0  0  0  0  0  0  0  0  0  0  0  0
   -7.0587   25.2411  -27.0462 N   0  0  0  0  0  0  0  0  0  0  0  0
   -4.9050   24.0531  -27.2170 C   0  0  0  0  0  0  0  0  0  0  0  0
   -8.0168   24.8267  -27.0512 H   0  0  0  0  0  0  0  0  0  0  0  0
   -6.9233   26.0868  -26.4444 H   0  0  0  0  0  0  0  0  0  0  0  0
   -7.8467   23.1522  -21.6217 C   0  0  0  0  0  0  0  0  0  0  0  0
   -8.4157   24.1327  -20.8441 C   0  0  0  0  0  0  0  0  0  0  0  0
   -8.1259   25.4412  -21.1524 C   0  0  0  0  0  0  0  0  0  0  0  0
   -8.7329   26.5510  -20.3193 C   0  0  0  0  0  0  0  0  0  0  0  0
   -7.2992   25.7428  -22.1980 C   0  0  0  0  0  0  0  0  0  0  0  0
   -6.6942   24.7666  -23.0217 C   0  0  0  0  0  0  0  0  0  0  0  0
   -5.8581   24.9359  -24.0861 C   0  0  0  0  0  0  0  0  0  0  0  0
   -5.3966   23.8350  -24.7270 C   0  0  0  0  0  0  0  0  0  0  0  0
   -6.1344   22.5696  -23.8452 S   0  0  0  0  0  0  0  0  0  0  0  0
   -6.9992   23.4758  -22.6931 C   0  0  0  0  0  0  0  0  0  0  0  0
   -7.7376   21.1159  -20.2527 C   0  0  0  0  0  0  0  0  0  0  0  0
   -8.0484   21.8036  -21.4282 O   0  0  0  0  0  0  0  0  0  0  0  0
   -2.6553   22.5044  -24.7135 C   0  0  0  0  0  0  0  0  0  0  0  0
   -1.6052   21.6675  -24.9373 O   0  0  0  0  0  0  0  0  0  0  0  0
   -0.4009   22.3052  -24.7847 C   0  0  0  0  0  0  0  0  0  0  0  0
    0.2758   22.4601  -26.1108 C   0  0  0  0  0  0  0  0  0  0  0  0
    0.7946   22.5651  -27.1290 N   0  0  0  0  0  0  0  0  0  0  0  0
 23 24  1  0  0  0
 24 13  1  0  0  0
 13 14  2  0  0  0
 14 15  1  0  0  0
 15 16  1  0  0  0
 15 17  2  0  0  0
 17 18  1  0  0  0
 18 19  1  0  0  0
 19 20  2  0  0  0
 20 21  1  0  0  0
 21 22  1  0  0  0
 20  1  1  0  0  0
  1  2  1  0  0  0
  2 25  1  0  0  0
 25 26  1  0  0  0
 26 27  1  0  0  0
 27 28  1  0  0  0
 28 29  3  0  0  0
  2  3  2  0  0  0
  3  4  1  0  0  0
  4  5  1  0  0  0
  5  6  2  0  0  0
  6  7  1  0  0  0
  7  8  2  0  0  0
  8  9  1  0  0  0
  8 10  1  0  0  0
 22 13  1  0  0  0
 10  1  2  0  0  0
 22 18  2  0  0  0
 10  4  1  0  0  0
  9 11  1  0  0  0
  9 12  1  0  0  0
M  END
> <minimizedAffinity>
-6.99175

> <CNNscore>
0.3715859354

> <CNNaffinity>
6.6333222389

> <CNN_VS>
2.4648492336

> <CNNaffinity_variance>
0.1705613285

$$$$
[H]c1nc(N([H])[H])c2c(-c3sc4c(OC([H])([H])[H])c([H])c(C([H])([H])[H])c([H])c4c3[H])c(C([H])([H])OC([H])([H])C#N)c([H])n2n1


 29 32  0  0  0  0  0  0  0  0999 V2000
   -3.8021   23.3839  -26.6713 C   0  0  0  0  0  0  0  0  0  0  0  0
   -2.7557   22.8160  -27.4430 C   0  0  0  0  0  0  0  0  0  0  0  0
   -2.8562   23.4267  -28.6560 C   0  0  0  0  0  0  0  0  0  0  0  0
   -3.8817   24.3080  -28.6431 N   0  0  0  0  0  0  0  0  0  0  0  0
   -4.3186   25.1205  -29.5737 N   0  0  0  0  0  0  0  0  0  0  0  0
   -5.3425   25.9546  -29.3586 C   0  0  0  0  0  0  0  0  0  0  0  0
   -5.9533   25.9790  -28.1667 N   0  0  0  0  0  0  0  0  0  0  0  0
   -5.5404   25.1569  -27.1679 C   0  0  0  0  0  0  0  0  0  0  0  0
   -6.1662   25.2754  -25.9030 N   0  0  0  0  0  0  0  0  0  0  0  0
   -4.4834   24.3018  -27.4194 C   0  0  0  0  0  0  0  0  0  0  0  0
   -7.1110   24.8961  -25.6724 H   0  0  0  0  0  0  0  0  0  0  0  0
   -5.6662   25.7739  -25.1302 H   0  0  0  0  0  0  0  0  0  0  0  0
   -5.8088   21.9212  -21.8466 C   0  0  0  0  0  0  0  0  0  0  0  0
   -5.2372   22.0202  -20.6003 C   0  0  0  0  0  0  0  0  0  0  0  0
   -3.9626   22.5302  -20.5208 C   0  0  0  0  0  0  0  0  0  0  0  0
   -3.2975   22.6553  -19.1657 C   0  0  0  0  0  0  0  0  0  0  0  0
   -3.2980   22.9213  -21.6491 C   0  0  0  0  0  0  0  0  0  0  0  0
   -3.8484   22.8367  -22.9481 C   0  0  0  0  0  0  0  0  0  0  0  0
   -3.2940   23.1904  -24.1432 C   0  0  0  0  0  0  0  0  0  0  0  0
   -4.0223   23.0119  -25.2716 C   0  0  0  0  0  0  0  0  0  0  0  0
   -5.4781   22.3563  -24.6604 S   0  0  0  0  0  0  0  0  0  0  0  0
   -5.1151   22.3267  -22.9978 C   0  0  0  0  0  0  0  0  0  0  0  0
   -8.1886   21.7071  -21.2780 C   0  0  0  0  0  0  0  0  0  0  0  0
   -7.0753   21.4303  -22.0750 O   0  0  0  0  0  0  0  0  0  0  0  0
   -1.7608   21.8349  -26.9407 C   0  0  0  0  0  0  0  0  0  0  0  0
   -0.4793   22.0361  -27.3534 O   0  0  0  0  0  0  0  0  0  0  0  0
    0.2186   22.8354  -26.4847 C   0  0  0  0  0  0  0  0  0  0  0  0
    0.2661   22.2081  -25.1266 C   0  0  0  0  0  0  0  0  0  0  0  0
    0.2892   21.7304  -24.0835 N   0  0  0  0  0  0  0  0  0  0  0  0
 23 24  1  0  0  0
 24 13  1  0  0  0
 13 14  2  0  0  0
 14 15  1  0  0  0
 15 16  1  0  0  0
 15 17  2  0  0  0
 17 18  1  0  0  0
 18 19  1  0  0  0
 19 20  2  0  0  0
 20 21  1  0  0  0
 21 22  1  0  0  0
 20  1  1  0  0  0
  1  2  1  0  0  0
  2 25  1  0  0  0
 25 26  1  0  0  0
 26 27  1  0  0  0
 27 28  1  0  0  0
 28 29  3  0  0  0
  2  3  2  0  0  0
  3  4  1  0  0  0
  4  5  1  0  0  0
  5  6  2  0  0  0
  6  7  1  0  0  0
  7  8  2  0  0  0
  8  9  1  0  0  0
  8 10  1  0  0  0
 22 13  1  0  0  0
 10  1  2  0  0  0
 22 18  2  0  0  0
 10  4  1  0  0  0
  9 11  1  0  0  0
  9 12  1  0  0  0
M  END
> <minimizedAffinity>
-7.14750

> <CNNscore>
0.3536280692

> <CNNaffinity>
6.7608146667

> <CNN_VS>
2.3908138275

> <CNNaffinity_variance>
0.2539637685

$$$$
[H]c1nc(N([H])[H])c2c(-c3sc4c(OC([H])([H])[H])c([H])c(C([H])([H])[H])c([H])c4c3[H])c(C([H])([H])OC([H])([H])C#N)c([H])n2n1


 29 32  0  0  0  0  0  0  0  0999 V2000
   -3.0525   22.9425  -25.4697 C   0  0  0  0  0  0  0  0  0  0  0  0
   -3.8185   23.0648  -26.6576 C   0  0  0  0  0  0  0  0  0  0  0  0
   -2.9239   22.8578  -27.6632 C   0  0  0  0  0  0  0  0  0  0  0  0
   -1.6972   22.6221  -27.1456 N   0  0  0  0  0  0  0  0  0  0  0  0
   -0.5599   22.3523  -27.7379 N   0  0  0  0  0  0  0  0  0  0  0  0
    0.5583   22.1127  -27.0433 C   0  0  0  0  0  0  0  0  0  0  0  0
    0.5396   22.1426  -25.7042 N   0  0  0  0  0  0  0  0  0  0  0  0
   -0.6127   22.4179  -25.0407 C   0  0  0  0  0  0  0  0  0  0  0  0
   -0.5993   22.3605  -23.6258 N   0  0  0  0  0  0  0  0  0  0  0  0
   -1.7519   22.6665  -25.7838 C   0  0  0  0  0  0  0  0  0  0  0  0
   -0.1985   23.0999  -23.0074 H   0  0  0  0  0  0  0  0  0  0  0  0
   -1.0140   21.5289  -23.1441 H   0  0  0  0  0  0  0  0  0  0  0  0
   -5.3572   22.1644  -20.6192 C   0  0  0  0  0  0  0  0  0  0  0  0
   -6.0021   23.0672  -19.8075 C   0  0  0  0  0  0  0  0  0  0  0  0
   -6.0708   24.3733  -20.2327 C   0  0  0  0  0  0  0  0  0  0  0  0
   -6.7728   25.3987  -19.3667 C   0  0  0  0  0  0  0  0  0  0  0  0
   -5.5132   24.7477  -21.4228 C   0  0  0  0  0  0  0  0  0  0  0  0
   -4.8421   23.8525  -22.2864 C   0  0  0  0  0  0  0  0  0  0  0  0
   -4.2483   24.0986  -23.4896 C   0  0  0  0  0  0  0  0  0  0  0  0
   -3.6574   23.0682  -24.1414 C   0  0  0  0  0  0  0  0  0  0  0  0
   -3.9366   21.7607  -23.0758 S   0  0  0  0  0  0  0  0  0  0  0  0
   -4.7887   22.5623  -21.8396 C   0  0  0  0  0  0  0  0  0  0  0  0
   -5.0984   20.3122  -19.0272 C   0  0  0  0  0  0  0  0  0  0  0  0
   -5.2131   20.8277  -20.3204 O   0  0  0  0  0  0  0  0  0  0  0  0
   -5.2852   23.2905  -26.7078 C   0  0  0  0  0  0  0  0  0  0  0  0
   -5.6766   24.5937  -26.7501 O   0  0  0  0  0  0  0  0  0  0  0  0
   -6.8725   24.7900  -26.1086 C   0  0  0  0  0  0  0  0  0  0  0  0
   -6.7441   25.8838  -25.0950 C   0  0  0  0  0  0  0  0  0  0  0  0
   -6.6576   26.7183  -24.3120 N   0  0  0  0  0  0  0  0  0  0  0  0
 23 24  1  0  0  0
 24 13  1  0  0  0
 13 14  2  0  0  0
 14 15  1  0  0  0
 15 16  1  0  0  0
 15 17  2  0  0  0
 17 18  1  0  0  0
 18 19  1  0  0  0
 19 20  2  0  0  0
 20 21  1  0  0  0
 21 22  1  0  0  0
 20  1  1  0  0  0
  1  2  1  0  0  0
  2 25  1  0  0  0
 25 26  1  0  0  0
 26 27  1  0  0  0
 27 28  1  0  0  0
 28 29  3  0  0  0
  2  3  2  0  0  0
  3  4  1  0  0  0
  4  5  1  0  0  0
  5  6  2  0  0  0
  6  7  1  0  0  0
  7  8  2  0  0  0
  8  9  1  0  0  0
  8 10  1  0  0  0
 22 13  1  0  0  0
 10  1  2  0  0  0
 22 18  2  0  0  0
 10  4  1  0  0  0
  9 11  1  0  0  0
  9 12  1  0  0  0
M  END
> <minimizedAffinity>
-6.75870

> <CNNscore>
0.3429174423

> <CNNaffinity>
6.4747238159

> <CNN_VS>
2.2202956676

> <CNNaffinity_variance>
0.4202955365

$$$$
[H]c1nc(N(C(=O)C([H])([H])C([H])([H])C([H])([H])N(C([H])([H])[H])C([H])([H])[H])C([H])([H])[H])c([H])c([H])c1N=C(c1c([H])c([H])c([H])c([H])c1[H])C1([H])C(=O)N([H])c2c([H])c(C(=O)OC([H])([H])[H])c([H])c([H])c21


 39 42  0  0  0  0  0  0  0  0999 V2000
   -2.5690   22.2886  -23.9813 C   0  0  0  0  0  0  0  0  0  0  0  0
   -1.6134   21.9369  -23.2851 N   0  0  0  0  0  0  0  0  0  0  0  0
   -4.8312   24.1513  -28.2647 C   0  0  0  0  0  0  0  0  0  0  0  0
   -5.5071   23.5597  -27.2358 C   0  0  0  0  0  0  0  0  0  0  0  0
   -4.8593   22.8021  -26.2536 C   0  0  0  0  0  0  0  0  0  0  0  0
   -3.4796   22.6110  -26.2751 C   0  0  0  0  0  0  0  0  0  0  0  0
   -2.5363   21.8472  -25.4234 C   0  0  0  0  0  0  0  0  0  0  0  0
   -1.2004   22.1986  -25.9971 C   0  0  0  0  0  0  0  0  0  0  0  0
   -0.0727   21.8473  -25.4952 O   0  0  0  0  0  0  0  0  0  0  0  0
   -1.4159   22.9591  -27.1475 N   0  0  0  0  0  0  0  0  0  0  0  0
   -2.8137   23.2083  -27.3062 C   0  0  0  0  0  0  0  0  0  0  0  0
   -3.4732   23.9686  -28.2920 C   0  0  0  0  0  0  0  0  0  0  0  0
   -0.6802   23.3210  -27.8337 H   0  0  0  0  0  0  0  0  0  0  0  0
   -5.5263   24.9424  -29.2793 C   0  0  0  0  0  0  0  0  0  0  0  0
   -6.4035   25.7654  -28.9230 O   0  0  0  0  0  0  0  0  0  0  0  0
   -5.4597   25.8800  -31.5605 C   0  0  0  0  0  0  0  0  0  0  0  0
   -5.2539   24.8203  -30.6300 O   0  0  0  0  0  0  0  0  0  0  0  0
   -1.0410   21.9580  -22.0709 C   0  0  0  0  0  0  0  0  0  0  0  0
   -1.3711   22.9341  -21.1227 C   0  0  0  0  0  0  0  0  0  0  0  0
   -0.8220   22.9643  -19.8801 C   0  0  0  0  0  0  0  0  0  0  0  0
    0.1116   21.9921  -19.5116 C   0  0  0  0  0  0  0  0  0  0  0  0
    0.4376   21.0507  -20.4115 N   0  0  0  0  0  0  0  0  0  0  0  0
   -0.1016   21.0153  -21.6423 C   0  0  0  0  0  0  0  0  0  0  0  0
    0.6596   22.0489  -18.1931 N   0  0  0  0  0  0  0  0  0  0  0  0
    1.7804   22.8975  -17.8911 C   0  0  0  0  0  0  0  0  0  0  0  0
    0.0697   21.2422  -17.1997 C   0  0  0  0  0  0  0  0  0  0  0  0
    0.5478   21.3638  -16.0290 O   0  0  0  0  0  0  0  0  0  0  0  0
   -1.0216   20.3017  -17.4201 C   0  0  0  0  0  0  0  0  0  0  0  0
   -2.3817   20.7063  -17.0203 C   0  0  0  0  0  0  0  0  0  0  0  0
   -2.6833   22.1348  -16.8886 C   0  0  0  0  0  0  0  0  0  0  0  0
   -3.7377   22.6059  -16.1135 N   0  0  0  0  0  0  0  0  0  0  0  0
   -5.0339   22.7663  -16.6103 C   0  0  0  0  0  0  0  0  0  0  0  0
   -3.6519   22.2892  -14.7011 C   0  0  0  0  0  0  0  0  0  0  0  0
   -3.6529   23.1379  -23.5489 C   0  0  0  0  0  0  0  0  0  0  0  0
   -3.6442   24.5188  -23.6033 C   0  0  0  0  0  0  0  0  0  0  0  0
   -4.6613   25.2918  -23.1033 C   0  0  0  0  0  0  0  0  0  0  0  0
   -5.7658   24.7312  -22.5110 C   0  0  0  0  0  0  0  0  0  0  0  0
   -5.8202   23.3749  -22.4346 C   0  0  0  0  0  0  0  0  0  0  0  0
   -4.8014   22.6121  -22.9353 C   0  0  0  0  0  0  0  0  0  0  0  0
 16 17  1  0  0  0
 17 14  1  0  0  0
 14 15  2  0  0  0
 14  3  1  0  0  0
  3  4  2  0  0  0
  4  5  1  0  0  0
  5  6  2  0  0  0
  6  7  1  0  0  0
  7  1  1  0  0  0
  1  2  2  0  0  0
  2 18  1  0  0  0
 18 19  2  0  0  0
 19 20  1  0  0  0
 20 21  2  0  0  0
 21 22  1  0  0  0
 22 23  2  0  0  0
 21 24  1  0  0  0
 24 25  1  0  0  0
 24 26  1  0  0  0
 26 27  2  0  0  0
 26 28  1  0  0  0
 28 29  1  0  0  0
 29 30  1  0  0  0
 30 31  1  0  0  0
 31 32  1  0  0  0
 31 33  1  0  0  0
  1 34  1  0  0  0
 34 35  2  0  0  0
 35 36  1  0  0  0
 36 37  2  0  0  0
 37 38  1  0  0  0
 38 39  2  0  0  0
  7  8  1  0  0  0
  8  9  2  0  0  0
  8 10  1  0  0  0
 10 11  1  0  0  0
 11 12  2  0  0  0
 12  3  1  0  0  0
 11  6  1  0  0  0
 23 18  1  0  0  0
 39 34  1  0  0  0
 10 13  1  0  0  0
M  END
> <minimizedAffinity>
-7.73983

> <CNNscore>
0.3439252675

> <CNNaffinity>
6.9771947861

> <CNN_VS>
2.3996336460

> <CNNaffinity_variance>
0.7053004503

$$$$
[H]c1nc(N(C(=O)C([H])([H])C([H])([H])C([H])([H])N(C([H])([H])[H])C([H])([H])[H])C([H])([H])[H])c([H])c([H])c1N=C(c1c([H])c([H])c([H])c([H])c1[H])C1([H])C(=O)N([H])c2c([H])c(C(=O)OC([H])([H])[H])c([H])c([H])c21


 39 42  0  0  0  0  0  0  0  0999 V2000
   -1.6423   22.0632  -22.9842 C   0  0  0  0  0  0  0  0  0  0  0  0
   -0.7835   21.7293  -22.1642 N   0  0  0  0  0  0  0  0  0  0  0  0
   -3.9221   23.2365  -27.4965 C   0  0  0  0  0  0  0  0  0  0  0  0
   -4.5577   22.6290  -26.4512 C   0  0  0  0  0  0  0  0  0  0  0  0
   -3.8589   22.0536  -25.3840 C   0  0  0  0  0  0  0  0  0  0  0  0
   -2.4669   22.0714  -25.3325 C   0  0  0  0  0  0  0  0  0  0  0  0
   -1.4684   21.5245  -24.3825 C   0  0  0  0  0  0  0  0  0  0  0  0
   -0.1699   22.0289  -24.9273 C   0  0  0  0  0  0  0  0  0  0  0  0
    0.9688   21.8902  -24.3519 O   0  0  0  0  0  0  0  0  0  0  0  0
   -0.4332   22.6596  -26.1443 N   0  0  0  0  0  0  0  0  0  0  0  0
   -1.8420   22.6829  -26.3808 C   0  0  0  0  0  0  0  0  0  0  0  0
   -2.5525   23.2589  -27.4523 C   0  0  0  0  0  0  0  0  0  0  0  0
    0.2769   23.0756  -26.8268 H   0  0  0  0  0  0  0  0  0  0  0  0
   -4.6708   23.8354  -28.6006 C   0  0  0  0  0  0  0  0  0  0  0  0
   -5.3967   23.1063  -29.3184 O   0  0  0  0  0  0  0  0  0  0  0  0
   -3.9268   25.7068  -30.0261 C   0  0  0  0  0  0  0  0  0  0  0  0
   -4.6119   25.1869  -28.8896 O   0  0  0  0  0  0  0  0  0  0  0  0
   -0.3477   21.8143  -20.8972 C   0  0  0  0  0  0  0  0  0  0  0  0
   -0.7392   22.8640  -20.0571 C   0  0  0  0  0  0  0  0  0  0  0  0
   -0.3293   22.9608  -18.7651 C   0  0  0  0  0  0  0  0  0  0  0  0
    0.5168   21.9849  -18.2320 C   0  0  0  0  0  0  0  0  0  0  0  0
    0.9003   20.9732  -19.0268 N   0  0  0  0  0  0  0  0  0  0  0  0
    0.4988   20.8717  -20.3057 C   0  0  0  0  0  0  0  0  0  0  0  0
    0.9184   22.1134  -16.8667 N   0  0  0  0  0  0  0  0  0  0  0  0
    0.1495   21.5176  -15.8076 C   0  0  0  0  0  0  0  0  0  0  0  0
    2.0892   22.8475  -16.5912 C   0  0  0  0  0  0  0  0  0  0  0  0
    2.4442   22.8903  -15.3721 O   0  0  0  0  0  0  0  0  0  0  0  0
    2.8973   23.5437  -17.5843 C   0  0  0  0  0  0  0  0  0  0  0  0
    4.2784   23.0795  -17.8085 C   0  0  0  0  0  0  0  0  0  0  0  0
    4.5397   21.6379  -17.8562 C   0  0  0  0  0  0  0  0  0  0  0  0
    4.4759   20.9072  -19.0380 N   0  0  0  0  0  0  0  0  0  0  0  0
    4.2202   21.4927  -20.2808 C   0  0  0  0  0  0  0  0  0  0  0  0
    5.3092   19.7211  -19.0732 C   0  0  0  0  0  0  0  0  0  0  0  0
   -2.7333   22.9736  -22.7312 C   0  0  0  0  0  0  0  0  0  0  0  0
   -2.7431   24.3109  -23.0798 C   0  0  0  0  0  0  0  0  0  0  0  0
   -3.7656   25.1619  -22.7452 C   0  0  0  0  0  0  0  0  0  0  0  0
   -4.8576   24.7292  -22.0342 C   0  0  0  0  0  0  0  0  0  0  0  0
   -4.8936   23.4202  -21.6688 C   0  0  0  0  0  0  0  0  0  0  0  0
   -3.8694   22.5789  -22.0063 C   0  0  0  0  0  0  0  0  0  0  0  0
 16 17  1  0  0  0
 17 14  1  0  0  0
 14 15  2  0  0  0
 14  3  1  0  0  0
  3  4  2  0  0  0
  4  5  1  0  0  0
  5  6  2  0  0  0
  6  7  1  0  0  0
  7  1  1  0  0  0
  1  2  2  0  0  0
  2 18  1  0  0  0
 18 19  2  0  0  0
 19 20  1  0  0  0
 20 21  2  0  0  0
 21 22  1  0  0  0
 22 23  2  0  0  0
 21 24  1  0  0  0
 24 25  1  0  0  0
 24 26  1  0  0  0
 26 27  2  0  0  0
 26 28  1  0  0  0
 28 29  1  0  0  0
 29 30  1  0  0  0
 30 31  1  0  0  0
 31 32  1  0  0  0
 31 33  1  0  0  0
  1 34  1  0  0  0
 34 35  2  0  0  0
 35 36  1  0  0  0
 36 37  2  0  0  0
 37 38  1  0  0  0
 38 39  2  0  0  0
  7  8  1  0  0  0
  8  9  2  0  0  0
  8 10  1  0  0  0
 10 11  1  0  0  0
 11 12  2  0  0  0
 12  3  1  0  0  0
 11  6  1  0  0  0
 23 18  1  0  0  0
 39 34  1  0  0  0
 10 13  1  0  0  0
M  END
> <minimizedAffinity>
-7.68495

> <CNNscore>
0.2934456170

> <CNNaffinity>
6.4967141151

> <CNN_VS>
1.9064322710

> <CNNaffinity_variance>
0.2187761813

$$$$
[H]c1nc(N(C(=O)C([H])([H])C([H])([H])C([H])([H])N(C([H])([H])[H])C([H])([H])[H])C([H])([H])[H])c([H])c([H])c1N=C(c1c([H])c([H])c([H])c([H])c1[H])C1([H])C(=O)N([H])c2c([H])c(C(=O)OC([H])([H])[H])c([H])c([H])c21


 39 42  0  0  0  0  0  0  0  0999 V2000
   -3.3620   23.3062  -24.4111 C   0  0  0  0  0  0  0  0  0  0  0  0
   -2.9265   22.9175  -23.3245 N   0  0  0  0  0  0  0  0  0  0  0  0
   -7.6699   22.4645  -21.6419 C   0  0  0  0  0  0  0  0  0  0  0  0
   -7.2005   21.6187  -22.6063 C   0  0  0  0  0  0  0  0  0  0  0  0
   -6.2297   22.0096  -23.5352 C   0  0  0  0  0  0  0  0  0  0  0  0
   -5.6873   23.2926  -23.5238 C   0  0  0  0  0  0  0  0  0  0  0  0
   -4.7023   23.9977  -24.3789 C   0  0  0  0  0  0  0  0  0  0  0  0
   -4.5395   25.3166  -23.6924 C   0  0  0  0  0  0  0  0  0  0  0  0
   -3.6869   26.2156  -24.0266 O   0  0  0  0  0  0  0  0  0  0  0  0
   -5.4671   25.3736  -22.6510 N   0  0  0  0  0  0  0  0  0  0  0  0
   -6.1615   24.1288  -22.5547 C   0  0  0  0  0  0  0  0  0  0  0  0
   -7.1400   23.7283  -21.6236 C   0  0  0  0  0  0  0  0  0  0  0  0
   -5.6626   26.1992  -22.0004 H   0  0  0  0  0  0  0  0  0  0  0  0
   -8.6821   22.0355  -20.6777 C   0  0  0  0  0  0  0  0  0  0  0  0
   -8.5337   20.9460  -20.0739 O   0  0  0  0  0  0  0  0  0  0  0  0
  -10.4345   22.8039  -19.1200 C   0  0  0  0  0  0  0  0  0  0  0  0
   -9.8084   22.7891  -20.4003 O   0  0  0  0  0  0  0  0  0  0  0  0
   -1.9285   22.3028  -22.6697 C   0  0  0  0  0  0  0  0  0  0  0  0
   -2.1421   21.6656  -21.4412 C   0  0  0  0  0  0  0  0  0  0  0  0
   -1.1539   21.0184  -20.7695 C   0  0  0  0  0  0  0  0  0  0  0  0
    0.1349   20.9738  -21.3075 C   0  0  0  0  0  0  0  0  0  0  0  0
    0.3536   21.5812  -22.4846 N   0  0  0  0  0  0  0  0  0  0  0  0
   -0.6193   22.2233  -23.1540 C   0  0  0  0  0  0  0  0  0  0  0  0
    1.1460   20.2748  -20.5788 N   0  0  0  0  0  0  0  0  0  0  0  0
    1.5619   18.9543  -20.9670 C   0  0  0  0  0  0  0  0  0  0  0  0
    1.7185   20.9194  -19.4641 C   0  0  0  0  0  0  0  0  0  0  0  0
    2.6532   20.2897  -18.8778 O   0  0  0  0  0  0  0  0  0  0  0  0
    1.3193   22.2240  -18.9516 C   0  0  0  0  0  0  0  0  0  0  0  0
    2.3639   23.2461  -18.7585 C   0  0  0  0  0  0  0  0  0  0  0  0
    2.9895   23.3759  -17.4392 C   0  0  0  0  0  0  0  0  0  0  0  0
    4.3644   23.2776  -17.2529 N   0  0  0  0  0  0  0  0  0  0  0  0
    5.2628   23.0904  -18.3068 C   0  0  0  0  0  0  0  0  0  0  0  0
    4.8858   24.0177  -16.1203 C   0  0  0  0  0  0  0  0  0  0  0  0
   -2.7357   23.0843  -25.6924 C   0  0  0  0  0  0  0  0  0  0  0  0
   -1.3917   22.8226  -25.8799 C   0  0  0  0  0  0  0  0  0  0  0  0
   -0.8211   22.7016  -27.1214 C   0  0  0  0  0  0  0  0  0  0  0  0
   -1.5625   22.8342  -28.2694 C   0  0  0  0  0  0  0  0  0  0  0  0
   -2.8907   23.0916  -28.1359 C   0  0  0  0  0  0  0  0  0  0  0  0
   -3.4512   23.2111  -26.8941 C   0  0  0  0  0  0  0  0  0  0  0  0
 16 17  1  0  0  0
 17 14  1  0  0  0
 14 15  2  0  0  0
 14  3  1  0  0  0
  3  4  2  0  0  0
  4  5  1  0  0  0
  5  6  2  0  0  0
  6  7  1  0  0  0
  7  1  1  0  0  0
  1  2  2  0  0  0
  2 18  1  0  0  0
 18 19  2  0  0  0
 19 20  1  0  0  0
 20 21  2  0  0  0
 21 22  1  0  0  0
 22 23  2  0  0  0
 21 24  1  0  0  0
 24 25  1  0  0  0
 24 26  1  0  0  0
 26 27  2  0  0  0
 26 28  1  0  0  0
 28 29  1  0  0  0
 29 30  1  0  0  0
 30 31  1  0  0  0
 31 32  1  0  0  0
 31 33  1  0  0  0
  1 34  1  0  0  0
 34 35  2  0  0  0
 35 36  1  0  0  0
 36 37  2  0  0  0
 37 38  1  0  0  0
 38 39  2  0  0  0
  7  8  1  0  0  0
  8  9  2  0  0  0
  8 10  1  0  0  0
 10 11  1  0  0  0
 11 12  2  0  0  0
 12  3  1  0  0  0
 11  6  1  0  0  0
 23 18  1  0  0  0
 39 34  1  0  0  0
 10 13  1  0  0  0
M  END
> <minimizedAffinity>
-7.73385

> <CNNscore>
0.1055350304

> <CNNaffinity>
6.3383164406

> <CNN_VS>
0.6689144373

> <CNNaffinity_variance>
0.0874944851

$$$$
[H]c1nc(N(C(=O)C([H])([H])C([H])([H])C([H])([H])N(C([H])([H])[H])C([H])([H])[H])C([H])([H])[H])c([H])c([H])c1N=C(c1c([H])c([H])c([H])c([H])c1[H])C1([H])C(=O)N([H])c2c([H])c(C(=O)OC([H])([H])[H])c([H])c([H])c21


 39 42  0  0  0  0  0  0  0  0999 V2000
   -5.7597   22.5097  -20.5912 C   0  0  0  0  0  0  0  0  0  0  0  0
   -4.9186   22.1289  -21.4091 N   0  0  0  0  0  0  0  0  0  0  0  0
   -6.0612   24.0075  -15.6314 C   0  0  0  0  0  0  0  0  0  0  0  0
   -4.9664   24.1994  -16.4253 C   0  0  0  0  0  0  0  0  0  0  0  0
   -4.7961   23.5247  -17.6394 C   0  0  0  0  0  0  0  0  0  0  0  0
   -5.7428   22.6149  -18.1047 C   0  0  0  0  0  0  0  0  0  0  0  0
   -5.8229   21.7372  -19.2971 C   0  0  0  0  0  0  0  0  0  0  0  0
   -7.1818   21.1239  -19.1763 C   0  0  0  0  0  0  0  0  0  0  0  0
   -7.7273   20.3726  -20.0623 O   0  0  0  0  0  0  0  0  0  0  0  0
   -7.7210   21.5176  -17.9506 N   0  0  0  0  0  0  0  0  0  0  0  0
   -6.8338   22.4324  -17.3048 C   0  0  0  0  0  0  0  0  0  0  0  0
   -6.9977   23.1146  -16.0831 C   0  0  0  0  0  0  0  0  0  0  0  0
   -8.6498   21.2084  -17.5208 H   0  0  0  0  0  0  0  0  0  0  0  0
   -6.2225   24.7254  -14.3676 C   0  0  0  0  0  0  0  0  0  0  0  0
   -5.5091   24.4093  -13.3854 O   0  0  0  0  0  0  0  0  0  0  0  0
   -8.1536   25.7326  -13.2084 C   0  0  0  0  0  0  0  0  0  0  0  0
   -7.1383   25.7498  -14.2084 O   0  0  0  0  0  0  0  0  0  0  0  0
   -4.3630   22.3139  -22.6173 C   0  0  0  0  0  0  0  0  0  0  0  0
   -4.2750   21.2729  -23.5497 C   0  0  0  0  0  0  0  0  0  0  0  0
   -3.7370   21.4400  -24.7863 C   0  0  0  0  0  0  0  0  0  0  0  0
   -3.2460   22.6924  -25.1646 C   0  0  0  0  0  0  0  0  0  0  0  0
   -3.3237   23.6991  -24.2798 N   0  0  0  0  0  0  0  0  0  0  0  0
   -3.8544   23.5405  -23.0550 C   0  0  0  0  0  0  0  0  0  0  0  0
   -2.6976   22.8335  -26.4765 N   0  0  0  0  0  0  0  0  0  0  0  0
   -1.2993   22.6083  -26.7246 C   0  0  0  0  0  0  0  0  0  0  0  0
   -3.5703   23.2058  -27.5183 C   0  0  0  0  0  0  0  0  0  0  0  0
   -3.0569   23.2646  -28.6789 O   0  0  0  0  0  0  0  0  0  0  0  0
   -4.9841   23.5212  -27.3574 C   0  0  0  0  0  0  0  0  0  0  0  0
   -5.4217   24.9067  -27.6068 C   0  0  0  0  0  0  0  0  0  0  0  0
   -6.3545   25.5329  -26.6653 C   0  0  0  0  0  0  0  0  0  0  0  0
   -5.9236   26.2827  -25.5760 N   0  0  0  0  0  0  0  0  0  0  0  0
   -6.3584   26.0446  -24.2695 C   0  0  0  0  0  0  0  0  0  0  0  0
   -4.5824   26.8215  -25.6925 C   0  0  0  0  0  0  0  0  0  0  0  0
   -6.7196   23.5658  -20.8067 C   0  0  0  0  0  0  0  0  0  0  0  0
   -7.8845   23.4370  -21.5390 C   0  0  0  0  0  0  0  0  0  0  0  0
   -8.7281   24.4891  -21.7906 C   0  0  0  0  0  0  0  0  0  0  0  0
   -8.4620   25.7519  -21.3219 C   0  0  0  0  0  0  0  0  0  0  0  0
   -7.3267   25.9283  -20.5951 C   0  0  0  0  0  0  0  0  0  0  0  0
   -6.4912   24.8738  -20.3494 C   0  0  0  0  0  0  0  0  0  0  0  0
 16 17  1  0  0  0
 17 14  1  0  0  0
 14 15  2  0  0  0
 14  3  1  0  0  0
  3  4  2  0  0  0
  4  5  1  0  0  0
  5  6  2  0  0  0
  6  7  1  0  0  0
  7  1  1  0  0  0
  1  2  2  0  0  0
  2 18  1  0  0  0
 18 19  2  0  0  0
 19 20  1  0  0  0
 20 21  2  0  0  0
 21 22  1  0  0  0
 22 23  2  0  0  0
 21 24  1  0  0  0
 24 25  1  0  0  0
 24 26  1  0  0  0
 26 27  2  0  0  0
 26 28  1  0  0  0
 28 29  1  0  0  0
 29 30  1  0  0  0
 30 31  1  0  0  0
 31 32  1  0  0  0
 31 33  1  0  0  0
  1 34  1  0  0  0
 34 35  2  0  0  0
 35 36  1  0  0  0
 36 37  2  0  0  0
 37 38  1  0  0  0
 38 39  2  0  0  0
  7  8  1  0  0  0
  8  9  2  0  0  0
  8 10  1  0  0  0
 10 11  1  0  0  0
 11 12  2  0  0  0
 12  3  1  0  0  0
 11  6  1  0  0  0
 23 18  1  0  0  0
 39 34  1  0  0  0
 10 13  1  0  0  0
M  END
> <minimizedAffinity>
-7.52010

> <CNNscore>
0.1033868715

> <CNNaffinity>
5.5287814140

> <CNN_VS>
0.5716034174

> <CNNaffinity_variance>
1.0116626024

$$$$
[H]c1nc(N(C(=O)C([H])([H])C([H])([H])C([H])([H])N(C([H])([H])[H])C([H])([H])[H])C([H])([H])[H])c([H])c([H])c1N=C(c1c([H])c([H])c([H])c([H])c1[H])C1([H])C(=O)N([H])c2c([H])c(C(=O)OC([H])([H])[H])c([H])c([H])c21


 39 42  0  0  0  0  0  0  0  0999 V2000
   -5.6408   22.3541  -21.2277 C   0  0  0  0  0  0  0  0  0  0  0  0
   -4.6824   21.8873  -21.8482 N   0  0  0  0  0  0  0  0  0  0  0  0
   -6.0594   23.5144  -16.1865 C   0  0  0  0  0  0  0  0  0  0  0  0
   -4.8713   23.3872  -16.8482 C   0  0  0  0  0  0  0  0  0  0  0  0
   -4.7774   22.7813  -18.1061 C   0  0  0  0  0  0  0  0  0  0  0  0
   -5.9009   22.2726  -18.7538 C   0  0  0  0  0  0  0  0  0  0  0  0
   -6.1101   21.5575  -20.0357 C   0  0  0  0  0  0  0  0  0  0  0  0
   -7.5980   21.4233  -20.1106 C   0  0  0  0  0  0  0  0  0  0  0  0
   -8.2415   20.9601  -21.1197 O   0  0  0  0  0  0  0  0  0  0  0  0
   -8.1299   21.8865  -18.9061 N   0  0  0  0  0  0  0  0  0  0  0  0
   -7.0832   22.4070  -18.0849 C   0  0  0  0  0  0  0  0  0  0  0  0
   -7.1695   23.0172  -16.8180 C   0  0  0  0  0  0  0  0  0  0  0  0
   -9.1548   21.8739  -18.6017 H   0  0  0  0  0  0  0  0  0  0  0  0
   -6.1370   24.1543  -14.8740 C   0  0  0  0  0  0  0  0  0  0  0  0
   -5.2896   23.8624  -13.9963 O   0  0  0  0  0  0  0  0  0  0  0  0
   -7.6405   25.2297  -13.2397 C   0  0  0  0  0  0  0  0  0  0  0  0
   -7.1161   25.0784  -14.5563 O   0  0  0  0  0  0  0  0  0  0  0  0
   -3.8339   22.0321  -22.8784 C   0  0  0  0  0  0  0  0  0  0  0  0
   -3.9088   21.2100  -24.0096 C   0  0  0  0  0  0  0  0  0  0  0  0
   -3.0760   21.3503  -25.0742 C   0  0  0  0  0  0  0  0  0  0  0  0
   -2.0981   22.3483  -25.0617 C   0  0  0  0  0  0  0  0  0  0  0  0
   -2.0149   23.1431  -23.9829 N   0  0  0  0  0  0  0  0  0  0  0  0
   -2.8354   23.0095  -22.9266 C   0  0  0  0  0  0  0  0  0  0  0  0
   -1.2475   22.4733  -26.2031 N   0  0  0  0  0  0  0  0  0  0  0  0
    0.1511   22.1487  -26.1256 C   0  0  0  0  0  0  0  0  0  0  0  0
   -1.8226   22.9301  -27.4057 C   0  0  0  0  0  0  0  0  0  0  0  0
   -1.0472   22.9728  -28.4112 O   0  0  0  0  0  0  0  0  0  0  0  0
   -3.2094   23.3475  -27.5682 C   0  0  0  0  0  0  0  0  0  0  0  0
   -3.8829   23.0460  -28.8445 C   0  0  0  0  0  0  0  0  0  0  0  0
   -5.3251   23.2840  -28.9553 C   0  0  0  0  0  0  0  0  0  0  0  0
   -5.8495   24.3934  -29.6101 N   0  0  0  0  0  0  0  0  0  0  0  0
   -5.7366   25.6940  -29.1116 C   0  0  0  0  0  0  0  0  0  0  0  0
   -5.8994   24.2876  -31.0553 C   0  0  0  0  0  0  0  0  0  0  0  0
   -6.3800   23.5382  -21.5949 C   0  0  0  0  0  0  0  0  0  0  0  0
   -6.4637   24.6860  -20.8297 C   0  0  0  0  0  0  0  0  0  0  0  0
   -7.2463   25.7581  -21.1757 C   0  0  0  0  0  0  0  0  0  0  0  0
   -8.0040   25.7554  -22.3207 C   0  0  0  0  0  0  0  0  0  0  0  0
   -7.9541   24.6475  -23.1071 C   0  0  0  0  0  0  0  0  0  0  0  0
   -7.1713   23.5829  -22.7541 C   0  0  0  0  0  0  0  0  0  0  0  0
 16 17  1  0  0  0
 17 14  1  0  0  0
 14 15  2  0  0  0
 14  3  1  0  0  0
  3  4  2  0  0  0
  4  5  1  0  0  0
  5  6  2  0  0  0
  6  7  1  0  0  0
  7  1  1  0  0  0
  1  2  2  0  0  0
  2 18  1  0  0  0
 18 19  2  0  0  0
 19 20  1  0  0  0
 20 21  2  0  0  0
 21 22  1  0  0  0
 22 23  2  0  0  0
 21 24  1  0  0  0
 24 25  1  0  0  0
 24 26  1  0  0  0
 26 27  2  0  0  0
 26 28  1  0  0  0
 28 29  1  0  0  0
 29 30  1  0  0  0
 30 31  1  0  0  0
 31 32  1  0  0  0
 31 33  1  0  0  0
  1 34  1  0  0  0
 34 35  2  0  0  0
 35 36  1  0  0  0
 36 37  2  0  0  0
 37 38  1  0  0  0
 38 39  2  0  0  0
  7  8  1  0  0  0
  8  9  2  0  0  0
  8 10  1  0  0  0
 10 11  1  0  0  0
 11 12  2  0  0  0
 12  3  1  0  0  0
 11  6  1  0  0  0
 23 18  1  0  0  0
 39 34  1  0  0  0
 10 13  1  0  0  0
M  END
> <minimizedAffinity>
-8.09335

> <CNNscore>
0.1011741012

> <CNNaffinity>
5.9198007584

> <CNN_VS>
0.5989305377

> <CNNaffinity_variance>
0.4503288269

$$$$
[H]c1nc(N(C(=O)C([H])([H])C([H])([H])C([H])([H])N(C([H])([H])[H])C([H])([H])[H])C([H])([H])[H])c([H])c([H])c1N=C(c1c([H])c([H])c([H])c([H])c1[H])C1([H])C(=O)N([H])c2c([H])c(C(=O)OC([H])([H])[H])c([H])c([H])c21


 39 42  0  0  0  0  0  0  0  0999 V2000
   -3.8774   22.7214  -24.1682 C   0  0  0  0  0  0  0  0  0  0  0  0
   -3.4829   22.1290  -23.1608 N   0  0  0  0  0  0  0  0  0  0  0  0
   -4.8349   24.1005  -29.0790 C   0  0  0  0  0  0  0  0  0  0  0  0
   -5.7772   23.6031  -28.2244 C   0  0  0  0  0  0  0  0  0  0  0  0
   -5.4371   22.9606  -27.0287 C   0  0  0  0  0  0  0  0  0  0  0  0
   -4.1083   22.7940  -26.6452 C   0  0  0  0  0  0  0  0  0  0  0  0
   -3.4480   22.1376  -25.4912 C   0  0  0  0  0  0  0  0  0  0  0  0
   -2.0016   22.4542  -25.7026 C   0  0  0  0  0  0  0  0  0  0  0  0
   -1.0625   22.1764  -24.8732 O   0  0  0  0  0  0  0  0  0  0  0  0
   -1.8796   23.0908  -26.9388 N   0  0  0  0  0  0  0  0  0  0  0  0
   -3.1749   23.2967  -27.5052 C   0  0  0  0  0  0  0  0  0  0  0  0
   -3.5252   23.9414  -28.7079 C   0  0  0  0  0  0  0  0  0  0  0  0
   -0.9780   23.3954  -27.4259 H   0  0  0  0  0  0  0  0  0  0  0  0
   -5.2111   24.7722  -30.3222 C   0  0  0  0  0  0  0  0  0  0  0  0
   -5.8690   24.1441  -31.1860 O   0  0  0  0  0  0  0  0  0  0  0  0
   -5.7623   27.0100  -31.2031 C   0  0  0  0  0  0  0  0  0  0  0  0
   -4.8685   26.0857  -30.5883 O   0  0  0  0  0  0  0  0  0  0  0  0
   -3.4733   22.0789  -21.8192 C   0  0  0  0  0  0  0  0  0  0  0  0
   -2.3780   22.5381  -21.0772 C   0  0  0  0  0  0  0  0  0  0  0  0
   -2.3527   22.5180  -19.7188 C   0  0  0  0  0  0  0  0  0  0  0  0
   -3.4527   22.0240  -19.0127 C   0  0  0  0  0  0  0  0  0  0  0  0
   -4.5093   21.5799  -19.7119 N   0  0  0  0  0  0  0  0  0  0  0  0
   -4.5406   21.5967  -21.0556 C   0  0  0  0  0  0  0  0  0  0  0  0
   -3.3950   22.0287  -17.5850 N   0  0  0  0  0  0  0  0  0  0  0  0
   -2.6235   21.0482  -16.8701 C   0  0  0  0  0  0  0  0  0  0  0  0
   -4.1229   23.0219  -16.9000 C   0  0  0  0  0  0  0  0  0  0  0  0
   -4.0001   23.0280  -15.6355 O   0  0  0  0  0  0  0  0  0  0  0  0
   -4.9855   24.0146  -17.5281 C   0  0  0  0  0  0  0  0  0  0  0  0
   -6.4287   23.7272  -17.6169 C   0  0  0  0  0  0  0  0  0  0  0  0
   -6.9753   22.6101  -16.8409 C   0  0  0  0  0  0  0  0  0  0  0  0
   -7.4077   22.7560  -15.5269 N   0  0  0  0  0  0  0  0  0  0  0  0
   -7.1348   23.8908  -14.7584 C   0  0  0  0  0  0  0  0  0  0  0  0
   -8.6500   22.0788  -15.2098 C   0  0  0  0  0  0  0  0  0  0  0  0
   -4.6368   23.9488  -24.1747 C   0  0  0  0  0  0  0  0  0  0  0  0
   -5.9924   24.0401  -23.9217 C   0  0  0  0  0  0  0  0  0  0  0  0
   -6.6926   25.2155  -24.0213 C   0  0  0  0  0  0  0  0  0  0  0  0
   -6.0790   26.3895  -24.3825 C   0  0  0  0  0  0  0  0  0  0  0  0
   -4.7449   26.3500  -24.6410 C   0  0  0  0  0  0  0  0  0  0  0  0
   -4.0548   25.1735  -24.5397 C   0  0  0  0  0  0  0  0  0  0  0  0
 16 17  1  0  0  0
 17 14  1  0  0  0
 14 15  2  0  0  0
 14  3  1  0  0  0
  3  4  2  0  0  0
  4  5  1  0  0  0
  5  6  2  0  0  0
  6  7  1  0  0  0
  7  1  1  0  0  0
  1  2  2  0  0  0
  2 18  1  0  0  0
 18 19  2  0  0  0
 19 20  1  0  0  0
 20 21  2  0  0  0
 21 22  1  0  0  0
 22 23  2  0  0  0
 21 24  1  0  0  0
 24 25  1  0  0  0
 24 26  1  0  0  0
 26 27  2  0  0  0
 26 28  1  0  0  0
 28 29  1  0  0  0
 29 30  1  0  0  0
 30 31  1  0  0  0
 31 32  1  0  0  0
 31 33  1  0  0  0
  1 34  1  0  0  0
 34 35  2  0  0  0
 35 36  1  0  0  0
 36 37  2  0  0  0
 37 38  1  0  0  0
 38 39  2  0  0  0
  7  8  1  0  0  0
  8  9  2  0  0  0
  8 10  1  0  0  0
 10 11  1  0  0  0
 11 12  2  0  0  0
 12  3  1  0  0  0
 11  6  1  0  0  0
 23 18  1  0  0  0
 39 34  1  0  0  0
 10 13  1  0  0  0
M  END
> <minimizedAffinity>
-7.52518

> <CNNscore>
0.0937739164

> <CNNaffinity>
6.3738946915

> <CNN_VS>
0.5977050662

> <CNNaffinity_variance>
0.2518757880

$$$$
[H]c1nc(N(C(=O)C([H])([H])C([H])([H])C([H])([H])N(C([H])([H])[H])C([H])([H])[H])C([H])([H])[H])c([H])c([H])c1N=C(c1c([H])c([H])c([H])c([H])c1[H])C1([H])C(=O)N([H])c2c([H])c(C(=O)OC([H])([H])[H])c([H])c([H])c21


 39 42  0  0  0  0  0  0  0  0999 V2000
   -4.5680   22.5214  -22.3446 C   0  0  0  0  0  0  0  0  0  0  0  0
   -5.2922   22.1197  -21.4305 N   0  0  0  0  0  0  0  0  0  0  0  0
   -1.1726   22.3428  -26.2656 C   0  0  0  0  0  0  0  0  0  0  0  0
   -2.4312   21.8147  -26.3163 C   0  0  0  0  0  0  0  0  0  0  0  0
   -3.2006   21.6049  -25.1664 C   0  0  0  0  0  0  0  0  0  0  0  0
   -2.7182   21.9269  -23.9000 C   0  0  0  0  0  0  0  0  0  0  0  0
   -3.2633   21.7868  -22.5282 C   0  0  0  0  0  0  0  0  0  0  0  0
   -2.2232   22.4477  -21.6805 C   0  0  0  0  0  0  0  0  0  0  0  0
   -2.3333   22.6610  -20.4198 O   0  0  0  0  0  0  0  0  0  0  0  0
   -1.1455   22.7759  -22.5046 N   0  0  0  0  0  0  0  0  0  0  0  0
   -1.4604   22.4560  -23.8609 C   0  0  0  0  0  0  0  0  0  0  0  0
   -0.6914   22.6632  -25.0230 C   0  0  0  0  0  0  0  0  0  0  0  0
   -0.2099   23.2019  -22.2109 H   0  0  0  0  0  0  0  0  0  0  0  0
   -0.3860   22.5579  -27.4794 C   0  0  0  0  0  0  0  0  0  0  0  0
    0.7823   22.1054  -27.5435 O   0  0  0  0  0  0  0  0  0  0  0  0
   -2.2758   23.4289  -28.8051 C   0  0  0  0  0  0  0  0  0  0  0  0
   -0.8817   23.2465  -28.5719 O   0  0  0  0  0  0  0  0  0  0  0  0
   -6.4493   22.2693  -20.7663 C   0  0  0  0  0  0  0  0  0  0  0  0
   -7.5829   21.5141  -21.0913 C   0  0  0  0  0  0  0  0  0  0  0  0
   -8.7589   21.6314  -20.4206 C   0  0  0  0  0  0  0  0  0  0  0  0
   -8.8643   22.5354  -19.3604 C   0  0  0  0  0  0  0  0  0  0  0  0
   -7.7851   23.2663  -19.0387 N   0  0  0  0  0  0  0  0  0  0  0  0
   -6.6190   23.1553  -19.6982 C   0  0  0  0  0  0  0  0  0  0  0  0
  -10.1129   22.6239  -18.6712 N   0  0  0  0  0  0  0  0  0  0  0  0
  -11.1921   23.4202  -19.1897 C   0  0  0  0  0  0  0  0  0  0  0  0
  -10.2506   21.9098  -17.4642 C   0  0  0  0  0  0  0  0  0  0  0  0
  -11.3932   21.9674  -16.9119 O   0  0  0  0  0  0  0  0  0  0  0  0
   -9.1977   21.1321  -16.8235 C   0  0  0  0  0  0  0  0  0  0  0  0
   -9.5678   20.2480  -15.7034 C   0  0  0  0  0  0  0  0  0  0  0  0
   -9.3005   18.8114  -15.8197 C   0  0  0  0  0  0  0  0  0  0  0  0
  -10.2563   17.9096  -16.2756 N   0  0  0  0  0  0  0  0  0  0  0  0
  -11.5765   18.2758  -16.5512 C   0  0  0  0  0  0  0  0  0  0  0  0
   -9.7383   16.8166  -17.0752 C   0  0  0  0  0  0  0  0  0  0  0  0
   -4.8340   23.6659  -23.1827 C   0  0  0  0  0  0  0  0  0  0  0  0
   -5.7892   23.7093  -24.1805 C   0  0  0  0  0  0  0  0  0  0  0  0
   -5.9524   24.7888  -25.0110 C   0  0  0  0  0  0  0  0  0  0  0  0
   -5.1653   25.9081  -24.8983 C   0  0  0  0  0  0  0  0  0  0  0  0
   -4.2111   25.9129  -23.9299 C   0  0  0  0  0  0  0  0  0  0  0  0
   -4.0551   24.8319  -23.1066 C   0  0  0  0  0  0  0  0  0  0  0  0
 16 17  1  0  0  0
 17 14  1  0  0  0
 14 15  2  0  0  0
 14  3  1  0  0  0
  3  4  2  0  0  0
  4  5  1  0  0  0
  5  6  2  0  0  0
  6  7  1  0  0  0
  7  1  1  0  0  0
  1  2  2  0  0  0
  2 18  1  0  0  0
 18 19  2  0  0  0
 19 20  1  0  0  0
 20 21  2  0  0  0
 21 22  1  0  0  0
 22 23  2  0  0  0
 21 24  1  0  0  0
 24 25  1  0  0  0
 24 26  1  0  0  0
 26 27  2  0  0  0
 26 28  1  0  0  0
 28 29  1  0  0  0
 29 30  1  0  0  0
 30 31  1  0  0  0
 31 32  1  0  0  0
 31 33  1  0  0  0
  1 34  1  0  0  0
 34 35  2  0  0  0
 35 36  1  0  0  0
 36 37  2  0  0  0
 37 38  1  0  0  0
 38 39  2  0  0  0
  7  8  1  0  0  0
  8  9  2  0  0  0
  8 10  1  0  0  0
 10 11  1  0  0  0
 11 12  2  0  0  0
 12  3  1  0  0  0
 11  6  1  0  0  0
 23 18  1  0  0  0
 39 34  1  0  0  0
 10 13  1  0  0  0
M  END
> <minimizedAffinity>
-7.38927

> <CNNscore>
0.0878721625

> <CNNaffinity>
6.0433092117

> <CNN_VS>
0.5310386419

> <CNNaffinity_variance>
0.0538928285

$$$$
[H]c1nc(N(C(=O)C([H])([H])C([H])([H])C([H])([H])N(C([H])([H])[H])C([H])([H])[H])C([H])([H])[H])c([H])c([H])c1N=C(c1c([H])c([H])c([H])c([H])c1[H])C1([H])C(=O)N([H])c2c([H])c(C(=O)OC([H])([H])[H])c([H])c([H])c21


 39 42  0  0  0  0  0  0  0  0999 V2000
   -3.3870   23.2903  -24.2477 C   0  0  0  0  0  0  0  0  0  0  0  0
   -3.0342   23.0554  -23.0893 N   0  0  0  0  0  0  0  0  0  0  0  0
   -7.8037   22.4993  -21.6397 C   0  0  0  0  0  0  0  0  0  0  0  0
   -7.1896   21.5550  -22.4123 C   0  0  0  0  0  0  0  0  0  0  0  0
   -6.1885   21.8796  -23.3346 C   0  0  0  0  0  0  0  0  0  0  0  0
   -5.7632   23.1939  -23.5136 C   0  0  0  0  0  0  0  0  0  0  0  0
   -4.7812   23.8405  -24.4172 C   0  0  0  0  0  0  0  0  0  0  0  0
   -4.7879   25.2652  -23.9618 C   0  0  0  0  0  0  0  0  0  0  0  0
   -3.9943   26.1760  -24.3951 O   0  0  0  0  0  0  0  0  0  0  0  0
   -5.7939   25.4031  -23.0042 N   0  0  0  0  0  0  0  0  0  0  0  0
   -6.3818   24.1291  -22.7351 C   0  0  0  0  0  0  0  0  0  0  0  0
   -7.3897   23.7947  -21.8094 C   0  0  0  0  0  0  0  0  0  0  0  0
   -6.1103   26.3023  -22.5199 H   0  0  0  0  0  0  0  0  0  0  0  0
   -8.8453   22.1391  -20.6786 C   0  0  0  0  0  0  0  0  0  0  0  0
   -8.7299   21.0813  -20.0142 O   0  0  0  0  0  0  0  0  0  0  0  0
  -10.5519   23.1082  -19.1832 C   0  0  0  0  0  0  0  0  0  0  0  0
   -9.9643   22.9247  -20.4687 O   0  0  0  0  0  0  0  0  0  0  0  0
   -2.0582   22.6126  -22.2807 C   0  0  0  0  0  0  0  0  0  0  0  0
   -1.4191   21.3874  -22.5074 C   0  0  0  0  0  0  0  0  0  0  0  0
   -0.4145   20.9273  -21.7165 C   0  0  0  0  0  0  0  0  0  0  0  0
    0.0149   21.6907  -20.6278 C   0  0  0  0  0  0  0  0  0  0  0  0
   -0.5897   22.8673  -20.3987 N   0  0  0  0  0  0  0  0  0  0  0  0
   -1.5842   23.3280  -21.1769 C   0  0  0  0  0  0  0  0  0  0  0  0
    1.0812   21.1803  -19.8250 N   0  0  0  0  0  0  0  0  0  0  0  0
    2.3851   21.7859  -19.8507 C   0  0  0  0  0  0  0  0  0  0  0  0
    0.8150   20.0611  -19.0113 C   0  0  0  0  0  0  0  0  0  0  0  0
    1.7710   19.6731  -18.2701 O   0  0  0  0  0  0  0  0  0  0  0  0
   -0.4491   19.3372  -18.9660 C   0  0  0  0  0  0  0  0  0  0  0  0
   -0.4652   17.9341  -19.4181 C   0  0  0  0  0  0  0  0  0  0  0  0
    0.3399   17.5588  -20.5841 C   0  0  0  0  0  0  0  0  0  0  0  0
    1.4663   16.7489  -20.4832 N   0  0  0  0  0  0  0  0  0  0  0  0
    1.9332   16.2445  -19.2665 C   0  0  0  0  0  0  0  0  0  0  0  0
    1.7296   15.9151  -21.6398 C   0  0  0  0  0  0  0  0  0  0  0  0
   -2.6117   23.0106  -25.4325 C   0  0  0  0  0  0  0  0  0  0  0  0
   -1.2685   22.6851  -25.4389 C   0  0  0  0  0  0  0  0  0  0  0  0
   -0.5487   22.5097  -26.5934 C   0  0  0  0  0  0  0  0  0  0  0  0
   -1.1285   22.6480  -27.8302 C   0  0  0  0  0  0  0  0  0  0  0  0
   -2.4492   22.9673  -27.8752 C   0  0  0  0  0  0  0  0  0  0  0  0
   -3.1591   23.1408  -26.7191 C   0  0  0  0  0  0  0  0  0  0  0  0
 16 17  1  0  0  0
 17 14  1  0  0  0
 14 15  2  0  0  0
 14  3  1  0  0  0
  3  4  2  0  0  0
  4  5  1  0  0  0
  5  6  2  0  0  0
  6  7  1  0  0  0
  7  1  1  0  0  0
  1  2  2  0  0  0
  2 18  1  0  0  0
 18 19  2  0  0  0
 19 20  1  0  0  0
 20 21  2  0  0  0
 21 22  1  0  0  0
 22 23  2  0  0  0
 21 24  1  0  0  0
 24 25  1  0  0  0
 24 26  1  0  0  0
 26 27  2  0  0  0
 26 28  1  0  0  0
 28 29  1  0  0  0
 29 30  1  0  0  0
 30 31  1  0  0  0
 31 32  1  0  0  0
 31 33  1  0  0  0
  1 34  1  0  0  0
 34 35  2  0  0  0
 35 36  1  0  0  0
 36 37  2  0  0  0
 37 38  1  0  0  0
 38 39  2  0  0  0
  7  8  1  0  0  0
  8  9  2  0  0  0
  8 10  1  0  0  0
 10 11  1  0  0  0
 11 12  2  0  0  0
 12  3  1  0  0  0
 11  6  1  0  0  0
 23 18  1  0  0  0
 39 34  1  0  0  0
 10 13  1  0  0  0
M  END
> <minimizedAffinity>
-7.73830

> <CNNscore>
0.0841712207

> <CNNaffinity>
6.1234512329

> <CNN_VS>
0.5154183507

> <CNNaffinity_variance>
0.1859772503

$$$$
[H]c1nc(N(C(=O)C([H])([H])C([H])([H])C([H])([H])N(C([H])([H])[H])C([H])([H])[H])C([H])([H])[H])c([H])c([H])c1N=C(c1c([H])c([H])c([H])c([H])c1[H])C1([H])C(=O)N([H])c2c([H])c(C(=O)OC([H])([H])[H])c([H])c([H])c21


 39 42  0  0  0  0  0  0  0  0999 V2000
   -4.4085   22.3487  -21.3423 C   0  0  0  0  0  0  0  0  0  0  0  0
   -4.7845   21.9702  -20.2302 N   0  0  0  0  0  0  0  0  0  0  0  0
   -2.0204   22.2317  -25.9485 C   0  0  0  0  0  0  0  0  0  0  0  0
   -3.0779   21.4352  -25.6125 C   0  0  0  0  0  0  0  0  0  0  0  0
   -3.4971   21.2690  -24.2877 C   0  0  0  0  0  0  0  0  0  0  0  0
   -2.8517   21.9131  -23.2346 C   0  0  0  0  0  0  0  0  0  0  0  0
   -3.0298   21.9037  -21.7626 C   0  0  0  0  0  0  0  0  0  0  0  0
   -2.0391   22.9218  -21.2944 C   0  0  0  0  0  0  0  0  0  0  0  0
   -1.9242   23.3283  -20.0826 O   0  0  0  0  0  0  0  0  0  0  0  0
   -1.2900   23.3290  -22.3995 N   0  0  0  0  0  0  0  0  0  0  0  0
   -1.7978   22.7082  -23.5818 C   0  0  0  0  0  0  0  0  0  0  0  0
   -1.3810   22.8697  -24.9178 C   0  0  0  0  0  0  0  0  0  0  0  0
   -0.4569   23.9991  -22.4077 H   0  0  0  0  0  0  0  0  0  0  0  0
   -1.6003   22.3953  -27.3396 C   0  0  0  0  0  0  0  0  0  0  0  0
   -0.3767   22.3986  -27.6163 O   0  0  0  0  0  0  0  0  0  0  0  0
   -3.3204   23.7071  -28.5263 C   0  0  0  0  0  0  0  0  0  0  0  0
   -2.5054   22.5477  -28.3745 O   0  0  0  0  0  0  0  0  0  0  0  0
   -5.7665   21.9766  -19.3147 C   0  0  0  0  0  0  0  0  0  0  0  0
   -6.3036   20.7864  -18.8089 C   0  0  0  0  0  0  0  0  0  0  0  0
   -7.2825   20.7661  -17.8666 C   0  0  0  0  0  0  0  0  0  0  0  0
   -7.7884   21.9693  -17.3674 C   0  0  0  0  0  0  0  0  0  0  0  0
   -7.2826   23.1178  -17.8443 N   0  0  0  0  0  0  0  0  0  0  0  0
   -6.3146   23.1448  -18.7765 C   0  0  0  0  0  0  0  0  0  0  0  0
   -8.8093   21.9092  -16.3694 N   0  0  0  0  0  0  0  0  0  0  0  0
  -10.1964   21.8007  -16.7323 C   0  0  0  0  0  0  0  0  0  0  0  0
   -8.4132   21.9651  -15.0183 C   0  0  0  0  0  0  0  0  0  0  0  0
   -9.3440   21.8510  -14.1613 O   0  0  0  0  0  0  0  0  0  0  0  0
   -7.0441   22.1424  -14.5510 C   0  0  0  0  0  0  0  0  0  0  0  0
   -6.8306   22.4818  -13.1324 C   0  0  0  0  0  0  0  0  0  0  0  0
   -6.5260   23.8710  -12.7769 C   0  0  0  0  0  0  0  0  0  0  0  0
   -7.1643   24.9513  -13.3769 N   0  0  0  0  0  0  0  0  0  0  0  0
   -8.4165   25.4175  -12.9676 C   0  0  0  0  0  0  0  0  0  0  0  0
   -6.2797   25.9591  -13.9286 C   0  0  0  0  0  0  0  0  0  0  0  0
   -5.1411   23.2306  -22.2189 C   0  0  0  0  0  0  0  0  0  0  0  0
   -6.2419   22.8629  -22.9693 C   0  0  0  0  0  0  0  0  0  0  0  0
   -6.8580   23.7100  -23.8550 C   0  0  0  0  0  0  0  0  0  0  0  0
   -6.4119   24.9936  -24.0512 C   0  0  0  0  0  0  0  0  0  0  0  0
   -5.3312   25.4019  -23.3345 C   0  0  0  0  0  0  0  0  0  0  0  0
   -4.7228   24.5504  -22.4539 C   0  0  0  0  0  0  0  0  0  0  0  0
 16 17  1  0  0  0
 17 14  1  0  0  0
 14 15  2  0  0  0
 14  3  1  0  0  0
  3  4  2  0  0  0
  4  5  1  0  0  0
  5  6  2  0  0  0
  6  7  1  0  0  0
  7  1  1  0  0  0
  1  2  2  0  0  0
  2 18  1  0  0  0
 18 19  2  0  0  0
 19 20  1  0  0  0
 20 21  2  0  0  0
 21 22  1  0  0  0
 22 23  2  0  0  0
 21 24  1  0  0  0
 24 25  1  0  0  0
 24 26  1  0  0  0
 26 27  2  0  0  0
 26 28  1  0  0  0
 28 29  1  0  0  0
 29 30  1  0  0  0
 30 31  1  0  0  0
 31 32  1  0  0  0
 31 33  1  0  0  0
  1 34  1  0  0  0
 34 35  2  0  0  0
 35 36  1  0  0  0
 36 37  2  0  0  0
 37 38  1  0  0  0
 38 39  2  0  0  0
  7  8  1  0  0  0
  8  9  2  0  0  0
  8 10  1  0  0  0
 10 11  1  0  0  0
 11 12  2  0  0  0
 12  3  1  0  0  0
 11  6  1  0  0  0
 23 18  1  0  0  0
 39 34  1  0  0  0
 10 13  1  0  0  0
M  END
> <minimizedAffinity>
-6.68939

> <CNNscore>
0.0800502226

> <CNNaffinity>
5.7507157326

> <CNN_VS>
0.4603460729

> <CNNaffinity_variance>
0.1444721669

$$$$
[H]C([H])=C([H])C(=O)N([H])[C@]1([H])C([H])([H])N(C([H])([H])C([H])([H])C([H])([H])n2c(=O)c(-c3c([H])c(OC([H])([H])[H])c([H])c(OC([H])([H])[H])c3Cl)c([H])c3c([H])nc(N([H])C([H])([H])[H])nc32)C([H])([H])C([H])([H])C1([H])[H]


 40 43  0  0  0  0  0  0  0  0999 V2000
   -1.7053   22.8034  -27.3253 C   0  0  0  0  0  0  0  0  0  0  0  0
   -0.3591   22.9366  -27.2685 N   0  0  0  0  0  0  0  0  0  0  0  0
    0.2874   22.6369  -26.1338 C   0  0  0  0  0  0  0  0  0  0  0  0
   -0.3539   22.1925  -25.0001 C   0  0  0  0  0  0  0  0  0  0  0  0
    0.2807   21.8769  -23.8285 C   0  0  0  0  0  0  0  0  0  0  0  0
   -0.4098   21.4288  -22.7077 C   0  0  0  0  0  0  0  0  0  0  0  0
   -1.7787   21.3155  -22.8314 C   0  0  0  0  0  0  0  0  0  0  0  0
   -2.4606   20.9226  -21.8726 O   0  0  0  0  0  0  0  0  0  0  0  0
   -2.4303   21.6224  -23.9830 N   0  0  0  0  0  0  0  0  0  0  0  0
   -1.7397   22.0593  -25.0700 C   0  0  0  0  0  0  0  0  0  0  0  0
   -2.3253   22.3756  -26.2350 N   0  0  0  0  0  0  0  0  0  0  0  0
    0.3197   21.0994  -21.4846 C   0  0  0  0  0  0  0  0  0  0  0  0
    1.1873   20.0332  -21.3801 C   0  0  0  0  0  0  0  0  0  0  0  0
    1.8798   19.6946  -20.2481 C   0  0  0  0  0  0  0  0  0  0  0  0
    1.6911   20.4891  -19.1214 C   0  0  0  0  0  0  0  0  0  0  0  0
    0.8370   21.5684  -19.1647 C   0  0  0  0  0  0  0  0  0  0  0  0
    0.1525   21.8788  -20.3320 C   0  0  0  0  0  0  0  0  0  0  0  0
   -0.9106   23.2464  -20.3346 Cl  0  0  0  0  0  0  0  0  0  0  0  0
    2.7500   18.6192  -20.1516 O   0  0  0  0  0  0  0  0  0  0  0  0
    3.3507   18.1475  -21.3422 C   0  0  0  0  0  0  0  0  0  0  0  0
    0.6621   22.3520  -18.0241 O   0  0  0  0  0  0  0  0  0  0  0  0
    0.1411   21.7761  -16.8425 C   0  0  0  0  0  0  0  0  0  0  0  0
   -3.6261   22.5266  -28.8895 C   0  0  0  0  0  0  0  0  0  0  0  0
   -2.3638   23.1246  -28.5416 N   0  0  0  0  0  0  0  0  0  0  0  0
   -1.9296   23.8019  -29.1929 H   0  0  0  0  0  0  0  0  0  0  0  0
   -3.8650   21.4970  -24.1200 C   0  0  0  0  0  0  0  0  0  0  0  0
   -4.5281   22.6322  -23.4017 C   0  0  0  0  0  0  0  0  0  0  0  0
   -5.4747   23.4005  -24.3022 C   0  0  0  0  0  0  0  0  0  0  0  0
   -4.8258   24.5440  -24.9045 N   0  0  0  0  0  0  0  0  0  0  0  0
   -5.2391   25.7226  -24.2243 C   0  0  0  0  0  0  0  0  0  0  0  0
   -5.8062   26.7759  -25.1723 C   0  0  0  0  0  0  0  0  0  0  0  0
   -4.7723   27.0113  -26.2288 C   0  0  0  0  0  0  0  0  0  0  0  0
   -4.6153   25.7462  -27.0345 C   0  0  0  0  0  0  0  0  0  0  0  0
   -5.1311   24.5327  -26.3119 C   0  0  0  0  0  0  0  0  0  0  0  0
   -5.4271   25.9068  -28.2351 N   0  0  0  0  0  0  0  0  0  0  0  0
   -4.7972   25.9453  -29.5061 C   0  0  0  0  0  0  0  0  0  0  0  0
   -3.5312   25.8387  -29.6111 O   0  0  0  0  0  0  0  0  0  0  0  0
   -6.4753   25.9930  -28.1491 H   0  0  0  0  0  0  0  0  0  0  0  0
   -5.6100   26.1087  -30.6950 C   0  0  0  0  0  0  0  0  0  0  0  0
   -5.8092   25.2031  -31.6219 C   0  0  0  0  0  0  0  0  0  0  0  0
 23 24  1  0  0  0
 24  1  1  0  0  0
  1  2  2  0  0  0
  2  3  1  0  0  0
  3  4  2  0  0  0
  4  5  1  0  0  0
  5  6  2  0  0  0
  6 12  1  0  0  0
 12 13  2  0  0  0
 13 14  1  0  0  0
 14 19  1  0  0  0
 19 20  1  0  0  0
 14 15  2  0  0  0
 15 16  1  0  0  0
 16 21  1  0  0  0
 21 22  1  0  0  0
 16 17  2  0  0  0
 17 18  1  0  0  0
  6  7  1  0  0  0
  7  8  2  0  0  0
  7  9  1  0  0  0
  9 26  1  0  0  0
 26 27  1  0  0  0
 27 28  1  0  0  0
 28 29  1  0  0  0
 29 30  1  0  0  0
 30 31  1  0  0  0
 31 32  1  0  0  0
 32 33  1  0  0  0
 33 34  1  0  0  0
 33 35  1  0  0  0
 35 36  1  0  0  0
 36 37  2  0  0  0
 36 39  1  0  0  0
 39 40  2  0  0  0
  9 10  1  0  0  0
 10 11  2  0  0  0
 11  1  1  0  0  0
 10  4  1  0  0  0
 17 12  1  0  0  0
 34 29  1  0  0  0
 24 25  1  0  0  0
 35 38  1  0  0  0
M  END
> <minimizedAffinity>
-7.81504

> <CNNscore>
0.5348241329

> <CNNaffinity>
7.8190093040

> <CNN_VS>
4.1817946434

> <CNNaffinity_variance>
0.0865261406

$$$$
[H]C([H])=C([H])C(=O)N([H])[C@]1([H])C([H])([H])N(C([H])([H])C([H])([H])C([H])([H])n2c(=O)c(-c3c([H])c(OC([H])([H])[H])c([H])c(OC([H])([H])[H])c3Cl)c([H])c3c([H])nc(N([H])C([H])([H])[H])nc32)C([H])([H])C([H])([H])C1([H])[H]


 40 43  0  0  0  0  0  0  0  0999 V2000
   -0.6450   22.4023  -25.0496 C   0  0  0  0  0  0  0  0  0  0  0  0
    0.3924   21.5667  -24.8070 N   0  0  0  0  0  0  0  0  0  0  0  0
    0.7168   21.2656  -23.5423 C   0  0  0  0  0  0  0  0  0  0  0  0
    0.0406   21.7688  -22.4544 C   0  0  0  0  0  0  0  0  0  0  0  0
    0.3482   21.4768  -21.1524 C   0  0  0  0  0  0  0  0  0  0  0  0
   -0.3660   22.0080  -20.0839 C   0  0  0  0  0  0  0  0  0  0  0  0
   -1.4101   22.8521  -20.3991 C   0  0  0  0  0  0  0  0  0  0  0  0
   -2.0915   23.3639  -19.4977 O   0  0  0  0  0  0  0  0  0  0  0  0
   -1.7343   23.1562  -21.6826 N   0  0  0  0  0  0  0  0  0  0  0  0
   -1.0254   22.6279  -22.7160 C   0  0  0  0  0  0  0  0  0  0  0  0
   -1.2979   22.8882  -24.0037 N   0  0  0  0  0  0  0  0  0  0  0  0
    0.0020   21.6565  -18.7136 C   0  0  0  0  0  0  0  0  0  0  0  0
   -0.5667   20.6112  -18.0176 C   0  0  0  0  0  0  0  0  0  0  0  0
   -0.2491   20.2609  -16.7323 C   0  0  0  0  0  0  0  0  0  0  0  0
    0.7210   21.0192  -16.0841 C   0  0  0  0  0  0  0  0  0  0  0  0
    1.3251   22.0760  -16.7280 C   0  0  0  0  0  0  0  0  0  0  0  0
    0.9750   22.3997  -18.0319 C   0  0  0  0  0  0  0  0  0  0  0  0
    1.7638   23.7385  -18.7973 Cl  0  0  0  0  0  0  0  0  0  0  0  0
   -0.8271   19.2081  -16.0393 O   0  0  0  0  0  0  0  0  0  0  0  0
   -0.3870   18.9678  -14.7166 C   0  0  0  0  0  0  0  0  0  0  0  0
    2.2952   22.8234  -16.0602 O   0  0  0  0  0  0  0  0  0  0  0  0
    2.2207   22.9884  -14.6579 C   0  0  0  0  0  0  0  0  0  0  0  0
    0.0148   22.5963  -27.4452 C   0  0  0  0  0  0  0  0  0  0  0  0
   -0.9687   22.7010  -26.3994 N   0  0  0  0  0  0  0  0  0  0  0  0
   -1.9301   23.0005  -26.6387 H   0  0  0  0  0  0  0  0  0  0  0  0
   -2.8340   24.0343  -22.0180 C   0  0  0  0  0  0  0  0  0  0  0  0
   -4.1268   23.3181  -21.7728 C   0  0  0  0  0  0  0  0  0  0  0  0
   -5.0038   23.2868  -23.0086 C   0  0  0  0  0  0  0  0  0  0  0  0
   -4.6032   24.2892  -23.9709 N   0  0  0  0  0  0  0  0  0  0  0  0
   -5.3624   25.4716  -23.7514 C   0  0  0  0  0  0  0  0  0  0  0  0
   -6.0766   25.9500  -25.0128 C   0  0  0  0  0  0  0  0  0  0  0  0
   -5.0339   26.0829  -26.0785 C   0  0  0  0  0  0  0  0  0  0  0  0
   -4.4876   24.7114  -26.3865 C   0  0  0  0  0  0  0  0  0  0  0  0
   -4.7545   23.7222  -25.2861 C   0  0  0  0  0  0  0  0  0  0  0  0
   -5.1901   24.2336  -27.5715 N   0  0  0  0  0  0  0  0  0  0  0  0
   -4.4912   23.4630  -28.5366 C   0  0  0  0  0  0  0  0  0  0  0  0
   -3.2579   23.1814  -28.3789 O   0  0  0  0  0  0  0  0  0  0  0  0
   -6.2116   24.4644  -27.7017 H   0  0  0  0  0  0  0  0  0  0  0  0
   -5.1949   22.9942  -29.7138 C   0  0  0  0  0  0  0  0  0  0  0  0
   -5.5812   23.7335  -30.7253 C   0  0  0  0  0  0  0  0  0  0  0  0
 23 24  1  0  0  0
 24  1  1  0  0  0
  1  2  2  0  0  0
  2  3  1  0  0  0
  3  4  2  0  0  0
  4  5  1  0  0  0
  5  6  2  0  0  0
  6 12  1  0  0  0
 12 13  2  0  0  0
 13 14  1  0  0  0
 14 19  1  0  0  0
 19 20  1  0  0  0
 14 15  2  0  0  0
 15 16  1  0  0  0
 16 21  1  0  0  0
 21 22  1  0  0  0
 16 17  2  0  0  0
 17 18  1  0  0  0
  6  7  1  0  0  0
  7  8  2  0  0  0
  7  9  1  0  0  0
  9 26  1  0  0  0
 26 27  1  0  0  0
 27 28  1  0  0  0
 28 29  1  0  0  0
 29 30  1  0  0  0
 30 31  1  0  0  0
 31 32  1  0  0  0
 32 33  1  0  0  0
 33 34  1  0  0  0
 33 35  1  0  0  0
 35 36  1  0  0  0
 36 37  2  0  0  0
 36 39  1  0  0  0
 39 40  2  0  0  0
  9 10  1  0  0  0
 10 11  2  0  0  0
 11  1  1  0  0  0
 10  4  1  0  0  0
 17 12  1  0  0  0
 34 29  1  0  0  0
 24 25  1  0  0  0
 35 38  1  0  0  0
M  END
> <minimizedAffinity>
-7.23250

> <CNNscore>
0.1949814260

> <CNNaffinity>
7.1556634903

> <CNN_VS>
1.3952214718

> <CNNaffinity_variance>
0.1713955849

$$$$
[H]C([H])=C([H])C(=O)N([H])[C@]1([H])C([H])([H])N(C([H])([H])C([H])([H])C([H])([H])n2c(=O)c(-c3c([H])c(OC([H])([H])[H])c([H])c(OC([H])([H])[H])c3Cl)c([H])c3c([H])nc(N([H])C([H])([H])[H])nc32)C([H])([H])C([H])([H])C1([H])[H]


 40 43  0  0  0  0  0  0  0  0999 V2000
   -5.3378   24.7877  -29.1433 C   0  0  0  0  0  0  0  0  0  0  0  0
   -4.6995   23.6594  -29.5344 N   0  0  0  0  0  0  0  0  0  0  0  0
   -3.9061   23.0148  -28.6682 C   0  0  0  0  0  0  0  0  0  0  0  0
   -3.6997   23.4447  -27.3772 C   0  0  0  0  0  0  0  0  0  0  0  0
   -2.8971   22.8054  -26.4704 C   0  0  0  0  0  0  0  0  0  0  0  0
   -2.7204   23.2764  -25.1739 C   0  0  0  0  0  0  0  0  0  0  0  0
   -3.3979   24.4300  -24.8394 C   0  0  0  0  0  0  0  0  0  0  0  0
   -3.2878   24.9093  -23.7006 O   0  0  0  0  0  0  0  0  0  0  0  0
   -4.1997   25.0814  -25.7213 N   0  0  0  0  0  0  0  0  0  0  0  0
   -4.3616   24.6071  -26.9856 C   0  0  0  0  0  0  0  0  0  0  0  0
   -5.1407   25.2038  -27.9006 N   0  0  0  0  0  0  0  0  0  0  0  0
   -1.8568   22.5497  -24.2451 C   0  0  0  0  0  0  0  0  0  0  0  0
   -2.2671   22.1237  -22.9998 C   0  0  0  0  0  0  0  0  0  0  0  0
   -1.4814   21.4475  -22.1048 C   0  0  0  0  0  0  0  0  0  0  0  0
   -0.1716   21.1714  -22.4849 C   0  0  0  0  0  0  0  0  0  0  0  0
    0.2958   21.5715  -23.7169 C   0  0  0  0  0  0  0  0  0  0  0  0
   -0.5325   22.2556  -24.5964 C   0  0  0  0  0  0  0  0  0  0  0  0
    0.1035   22.7374  -26.1339 Cl  0  0  0  0  0  0  0  0  0  0  0  0
   -1.9023   21.0236  -20.8534 O   0  0  0  0  0  0  0  0  0  0  0  0
   -1.6760   21.8848  -19.7542 C   0  0  0  0  0  0  0  0  0  0  0  0
    1.6121   21.2846  -24.0784 O   0  0  0  0  0  0  0  0  0  0  0  0
    2.5843   21.0449  -23.0800 C   0  0  0  0  0  0  0  0  0  0  0  0
   -5.6359   26.3707  -31.0452 C   0  0  0  0  0  0  0  0  0  0  0  0
   -6.1750   25.4481  -30.0809 N   0  0  0  0  0  0  0  0  0  0  0  0
   -7.1936   25.2644  -30.0726 H   0  0  0  0  0  0  0  0  0  0  0  0
   -4.9190   26.2870  -25.3721 C   0  0  0  0  0  0  0  0  0  0  0  0
   -5.9133   25.9717  -24.2968 C   0  0  0  0  0  0  0  0  0  0  0  0
   -7.2112   25.4305  -24.8621 C   0  0  0  0  0  0  0  0  0  0  0  0
   -7.9406   24.6615  -23.8783 N   0  0  0  0  0  0  0  0  0  0  0  0
   -8.6877   25.5500  -23.0568 C   0  0  0  0  0  0  0  0  0  0  0  0
   -8.4025   25.3507  -21.5705 C   0  0  0  0  0  0  0  0  0  0  0  0
   -8.6362   23.9023  -21.2737 C   0  0  0  0  0  0  0  0  0  0  0  0
   -7.6101   23.0892  -22.0221 C   0  0  0  0  0  0  0  0  0  0  0  0
   -6.9913   23.8480  -23.1632 C   0  0  0  0  0  0  0  0  0  0  0  0
   -6.5402   22.7877  -21.0784 N   0  0  0  0  0  0  0  0  0  0  0  0
   -6.5895   21.5864  -20.3246 C   0  0  0  0  0  0  0  0  0  0  0  0
   -7.5560   20.7670  -20.4643 O   0  0  0  0  0  0  0  0  0  0  0  0
   -5.7387   23.4646  -20.9638 H   0  0  0  0  0  0  0  0  0  0  0  0
   -5.5244   21.2948  -19.3858 C   0  0  0  0  0  0  0  0  0  0  0  0
   -5.1548   22.0518  -18.3813 C   0  0  0  0  0  0  0  0  0  0  0  0
 23 24  1  0  0  0
 24  1  1  0  0  0
  1  2  2  0  0  0
  2  3  1  0  0  0
  3  4  2  0  0  0
  4  5  1  0  0  0
  5  6  2  0  0  0
  6 12  1  0  0  0
 12 13  2  0  0  0
 13 14  1  0  0  0
 14 19  1  0  0  0
 19 20  1  0  0  0
 14 15  2  0  0  0
 15 16  1  0  0  0
 16 21  1  0  0  0
 21 22  1  0  0  0
 16 17  2  0  0  0
 17 18  1  0  0  0
  6  7  1  0  0  0
  7  8  2  0  0  0
  7  9  1  0  0  0
  9 26  1  0  0  0
 26 27  1  0  0  0
 27 28  1  0  0  0
 28 29  1  0  0  0
 29 30  1  0  0  0
 30 31  1  0  0  0
 31 32  1  0  0  0
 32 33  1  0  0  0
 33 34  1  0  0  0
 33 35  1  0  0  0
 35 36  1  0  0  0
 36 37  2  0  0  0
 36 39  1  0  0  0
 39 40  2  0  0  0
  9 10  1  0  0  0
 10 11  2  0  0  0
 11  1  1  0  0  0
 10  4  1  0  0  0
 17 12  1  0  0  0
 34 29  1  0  0  0
 24 25  1  0  0  0
 35 38  1  0  0  0
M  END
> <minimizedAffinity>
-8.14934

> <CNNscore>
0.1631424576

> <CNNaffinity>
7.2107567787

> <CNN_VS>
1.1763806343

> <CNNaffinity_variance>
0.3429020941

$$$$
[H]C([H])=C([H])C(=O)N([H])[C@]1([H])C([H])([H])N(C([H])([H])C([H])([H])C([H])([H])n2c(=O)c(-c3c([H])c(OC([H])([H])[H])c([H])c(OC([H])([H])[H])c3Cl)c([H])c3c([H])nc(N([H])C([H])([H])[H])nc32)C([H])([H])C([H])([H])C1([H])[H]


 40 43  0  0  0  0  0  0  0  0999 V2000
   -0.7348   22.3383  -25.1460 C   0  0  0  0  0  0  0  0  0  0  0  0
    0.3631   21.5826  -24.9073 N   0  0  0  0  0  0  0  0  0  0  0  0
    0.7386   21.3432  -23.6436 C   0  0  0  0  0  0  0  0  0  0  0  0
    0.0567   21.8326  -22.5529 C   0  0  0  0  0  0  0  0  0  0  0  0
    0.4158   21.6022  -21.2517 C   0  0  0  0  0  0  0  0  0  0  0  0
   -0.3064   22.1163  -20.1803 C   0  0  0  0  0  0  0  0  0  0  0  0
   -1.4134   22.8777  -20.4916 C   0  0  0  0  0  0  0  0  0  0  0  0
   -2.1056   23.3697  -19.5874 O   0  0  0  0  0  0  0  0  0  0  0  0
   -1.7893   23.1197  -21.7742 N   0  0  0  0  0  0  0  0  0  0  0  0
   -1.0718   22.6091  -22.8105 C   0  0  0  0  0  0  0  0  0  0  0  0
   -1.3933   22.8108  -24.0975 N   0  0  0  0  0  0  0  0  0  0  0  0
    0.1187   21.8328  -18.8108 C   0  0  0  0  0  0  0  0  0  0  0  0
    1.0977   22.5480  -18.1547 C   0  0  0  0  0  0  0  0  0  0  0  0
    1.5227   22.3034  -16.8759 C   0  0  0  0  0  0  0  0  0  0  0  0
    0.9182   21.2537  -16.1910 C   0  0  0  0  0  0  0  0  0  0  0  0
   -0.0663   20.5031  -16.7940 C   0  0  0  0  0  0  0  0  0  0  0  0
   -0.4693   20.7827  -18.0929 C   0  0  0  0  0  0  0  0  0  0  0  0
   -1.7112   19.8087  -18.8066 Cl  0  0  0  0  0  0  0  0  0  0  0  0
    2.5092   23.0276  -16.2239 O   0  0  0  0  0  0  0  0  0  0  0  0
    3.4824   22.3072  -15.4926 C   0  0  0  0  0  0  0  0  0  0  0  0
   -0.6593   19.4553  -16.0899 O   0  0  0  0  0  0  0  0  0  0  0  0
    0.0085   18.2146  -15.9711 C   0  0  0  0  0  0  0  0  0  0  0  0
   -0.1334   22.6029  -27.5502 C   0  0  0  0  0  0  0  0  0  0  0  0
   -1.1116   22.5728  -26.4947 N   0  0  0  0  0  0  0  0  0  0  0  0
   -2.1088   22.7259  -26.7261 H   0  0  0  0  0  0  0  0  0  0  0  0
   -2.9545   23.9106  -22.1053 C   0  0  0  0  0  0  0  0  0  0  0  0
   -4.1838   23.0732  -21.9258 C   0  0  0  0  0  0  0  0  0  0  0  0
   -5.1979   23.3070  -23.0276 C   0  0  0  0  0  0  0  0  0  0  0  0
   -4.7219   24.2729  -23.9929 N   0  0  0  0  0  0  0  0  0  0  0  0
   -5.4018   25.5053  -23.7891 C   0  0  0  0  0  0  0  0  0  0  0  0
   -6.0704   26.0210  -25.0607 C   0  0  0  0  0  0  0  0  0  0  0  0
   -5.0112   26.0755  -26.1170 C   0  0  0  0  0  0  0  0  0  0  0  0
   -4.5554   24.6681  -26.4101 C   0  0  0  0  0  0  0  0  0  0  0  0
   -4.8985   23.7074  -25.3055 C   0  0  0  0  0  0  0  0  0  0  0  0
   -5.2773   24.2295  -27.5986 N   0  0  0  0  0  0  0  0  0  0  0  0
   -4.5900   23.5077  -28.6087 C   0  0  0  0  0  0  0  0  0  0  0  0
   -3.3503   23.2360  -28.4883 O   0  0  0  0  0  0  0  0  0  0  0  0
   -6.3041   24.4522  -27.6979 H   0  0  0  0  0  0  0  0  0  0  0  0
   -5.3130   23.0779  -29.7890 C   0  0  0  0  0  0  0  0  0  0  0  0
   -5.7050   23.8481  -30.7749 C   0  0  0  0  0  0  0  0  0  0  0  0
 23 24  1  0  0  0
 24  1  1  0  0  0
  1  2  2  0  0  0
  2  3  1  0  0  0
  3  4  2  0  0  0
  4  5  1  0  0  0
  5  6  2  0  0  0
  6 12  1  0  0  0
 12 13  2  0  0  0
 13 14  1  0  0  0
 14 19  1  0  0  0
 19 20  1  0  0  0
 14 15  2  0  0  0
 15 16  1  0  0  0
 16 21  1  0  0  0
 21 22  1  0  0  0
 16 17  2  0  0  0
 17 18  1  0  0  0
  6  7  1  0  0  0
  7  8  2  0  0  0
  7  9  1  0  0  0
  9 26  1  0  0  0
 26 27  1  0  0  0
 27 28  1  0  0  0
 28 29  1  0  0  0
 29 30  1  0  0  0
 30 31  1  0  0  0
 31 32  1  0  0  0
 32 33  1  0  0  0
 33 34  1  0  0  0
 33 35  1  0  0  0
 35 36  1  0  0  0
 36 37  2  0  0  0
 36 39  1  0  0  0
 39 40  2  0  0  0
  9 10  1  0  0  0
 10 11  2  0  0  0
 11  1  1  0  0  0
 10  4  1  0  0  0
 17 12  1  0  0  0
 34 29  1  0  0  0
 24 25  1  0  0  0
 35 38  1  0  0  0
M  END
> <minimizedAffinity>
-7.19969

> <CNNscore>
0.1391239166

> <CNNaffinity>
7.1034202576

> <CNN_VS>
0.9882556200

> <CNNaffinity_variance>
0.1663910598

$$$$
[H]C([H])=C([H])C(=O)N([H])[C@]1([H])C([H])([H])N(C([H])([H])C([H])([H])C([H])([H])n2c(=O)c(-c3c([H])c(OC([H])([H])[H])c([H])c(OC([H])([H])[H])c3Cl)c([H])c3c([H])nc(N([H])C([H])([H])[H])nc32)C([H])([H])C([H])([H])C1([H])[H]


 40 43  0  0  0  0  0  0  0  0999 V2000
   -7.6075   25.4173  -23.7638 C   0  0  0  0  0  0  0  0  0  0  0  0
   -6.6956   26.3643  -24.0878 N   0  0  0  0  0  0  0  0  0  0  0  0
   -5.4323   26.0031  -24.3501 C   0  0  0  0  0  0  0  0  0  0  0  0
   -5.0015   24.6967  -24.3075 C   0  0  0  0  0  0  0  0  0  0  0  0
   -3.7184   24.2986  -24.5729 C   0  0  0  0  0  0  0  0  0  0  0  0
   -3.3292   22.9646  -24.5196 C   0  0  0  0  0  0  0  0  0  0  0  0
   -4.3055   22.0504  -24.1833 C   0  0  0  0  0  0  0  0  0  0  0  0
   -4.0313   20.8426  -24.1155 O   0  0  0  0  0  0  0  0  0  0  0  0
   -5.5846   22.4213  -23.9161 N   0  0  0  0  0  0  0  0  0  0  0  0
   -5.9486   23.7304  -23.9728 C   0  0  0  0  0  0  0  0  0  0  0  0
   -7.1952   24.1585  -23.7220 N   0  0  0  0  0  0  0  0  0  0  0  0
   -1.9470   22.5954  -24.8194 C   0  0  0  0  0  0  0  0  0  0  0  0
   -1.4156   22.6058  -26.0914 C   0  0  0  0  0  0  0  0  0  0  0  0
   -0.1284   22.2595  -26.4056 C   0  0  0  0  0  0  0  0  0  0  0  0
    0.7021   21.8688  -25.3597 C   0  0  0  0  0  0  0  0  0  0  0  0
    0.2280   21.8385  -24.0672 C   0  0  0  0  0  0  0  0  0  0  0  0
   -1.0842   22.1969  -23.7895 C   0  0  0  0  0  0  0  0  0  0  0  0
   -1.6321   22.1415  -22.1472 Cl  0  0  0  0  0  0  0  0  0  0  0  0
    0.3976   22.2720  -27.6886 O   0  0  0  0  0  0  0  0  0  0  0  0
   -0.1733   23.1630  -28.6273 C   0  0  0  0  0  0  0  0  0  0  0  0
    1.0771   21.4438  -23.0333 O   0  0  0  0  0  0  0  0  0  0  0  0
    2.4143   21.0805  -23.3149 C   0  0  0  0  0  0  0  0  0  0  0  0
   -9.4206   25.9686  -22.1448 C   0  0  0  0  0  0  0  0  0  0  0  0
   -8.9396   25.8282  -23.4942 N   0  0  0  0  0  0  0  0  0  0  0  0
   -9.5796   26.0313  -24.2819 H   0  0  0  0  0  0  0  0  0  0  0  0
   -6.6138   21.4650  -23.5713 C   0  0  0  0  0  0  0  0  0  0  0  0
   -7.1311   21.7732  -22.1994 C   0  0  0  0  0  0  0  0  0  0  0  0
   -6.0332   21.7364  -21.1553 C   0  0  0  0  0  0  0  0  0  0  0  0
   -6.4992   22.2228  -19.8756 N   0  0  0  0  0  0  0  0  0  0  0  0
   -5.5542   21.8690  -18.8735 C   0  0  0  0  0  0  0  0  0  0  0  0
   -6.1896   21.1051  -17.7147 C   0  0  0  0  0  0  0  0  0  0  0  0
   -7.3260   21.9410  -17.2145 C   0  0  0  0  0  0  0  0  0  0  0  0
   -8.3706   22.0261  -18.2988 C   0  0  0  0  0  0  0  0  0  0  0  0
   -7.8211   21.6938  -19.6584 C   0  0  0  0  0  0  0  0  0  0  0  0
   -9.3829   21.0232  -17.9894 N   0  0  0  0  0  0  0  0  0  0  0  0
  -10.5785   21.4147  -17.3329 C   0  0  0  0  0  0  0  0  0  0  0  0
  -10.7792   22.6323  -17.0128 O   0  0  0  0  0  0  0  0  0  0  0  0
   -9.2184   20.0155  -18.2560 H   0  0  0  0  0  0  0  0  0  0  0  0
  -11.5788   20.4120  -17.0253 C   0  0  0  0  0  0  0  0  0  0  0  0
  -11.3456   19.2102  -16.5562 C   0  0  0  0  0  0  0  0  0  0  0  0
 23 24  1  0  0  0
 24  1  1  0  0  0
  1  2  2  0  0  0
  2  3  1  0  0  0
  3  4  2  0  0  0
  4  5  1  0  0  0
  5  6  2  0  0  0
  6 12  1  0  0  0
 12 13  2  0  0  0
 13 14  1  0  0  0
 14 19  1  0  0  0
 19 20  1  0  0  0
 14 15  2  0  0  0
 15 16  1  0  0  0
 16 21  1  0  0  0
 21 22  1  0  0  0
 16 17  2  0  0  0
 17 18  1  0  0  0
  6  7  1  0  0  0
  7  8  2  0  0  0
  7  9  1  0  0  0
  9 26  1  0  0  0
 26 27  1  0  0  0
 27 28  1  0  0  0
 28 29  1  0  0  0
 29 30  1  0  0  0
 30 31  1  0  0  0
 31 32  1  0  0  0
 32 33  1  0  0  0
 33 34  1  0  0  0
 33 35  1  0  0  0
 35 36  1  0  0  0
 36 37  2  0  0  0
 36 39  1  0  0  0
 39 40  2  0  0  0
  9 10  1  0  0  0
 10 11  2  0  0  0
 11  1  1  0  0  0
 10  4  1  0  0  0
 17 12  1  0  0  0
 34 29  1  0  0  0
 24 25  1  0  0  0
 35 38  1  0  0  0
M  END
> <minimizedAffinity>
-7.75872

> <CNNscore>
0.1366475075

> <CNNaffinity>
6.6045455933

> <CNN_VS>
0.9024946690

> <CNNaffinity_variance>
0.1178619266

$$$$
[H]C([H])=C([H])C(=O)N([H])[C@]1([H])C([H])([H])N(C([H])([H])C([H])([H])C([H])([H])n2c(=O)c(-c3c([H])c(OC([H])([H])[H])c([H])c(OC([H])([H])[H])c3Cl)c([H])c3c([H])nc(N([H])C([H])([H])[H])nc32)C([H])([H])C([H])([H])C1([H])[H]


 40 43  0  0  0  0  0  0  0  0999 V2000
   -7.6375   25.5073  -23.6903 C   0  0  0  0  0  0  0  0  0  0  0  0
   -6.7394   26.4225  -24.1254 N   0  0  0  0  0  0  0  0  0  0  0  0
   -5.4861   26.0384  -24.4030 C   0  0  0  0  0  0  0  0  0  0  0  0
   -5.0523   24.7394  -24.2676 C   0  0  0  0  0  0  0  0  0  0  0  0
   -3.7794   24.3183  -24.5459 C   0  0  0  0  0  0  0  0  0  0  0  0
   -3.3867   22.9927  -24.3960 C   0  0  0  0  0  0  0  0  0  0  0  0
   -4.3488   22.1114  -23.9490 C   0  0  0  0  0  0  0  0  0  0  0  0
   -4.0707   20.9129  -23.7909 O   0  0  0  0  0  0  0  0  0  0  0  0
   -5.6177   22.5055  -23.6668 N   0  0  0  0  0  0  0  0  0  0  0  0
   -5.9852   23.8060  -23.8189 C   0  0  0  0  0  0  0  0  0  0  0  0
   -7.2223   24.2557  -23.5590 N   0  0  0  0  0  0  0  0  0  0  0  0
   -2.0160   22.5973  -24.7145 C   0  0  0  0  0  0  0  0  0  0  0  0
   -1.5170   22.5494  -25.9988 C   0  0  0  0  0  0  0  0  0  0  0  0
   -0.2414   22.1773  -26.3304 C   0  0  0  0  0  0  0  0  0  0  0  0
    0.6118   21.8221  -25.2902 C   0  0  0  0  0  0  0  0  0  0  0  0
    0.1705   21.8504  -23.9861 C   0  0  0  0  0  0  0  0  0  0  0  0
   -1.1309   22.2333  -23.6908 C   0  0  0  0  0  0  0  0  0  0  0  0
   -1.6374   22.2518  -22.0345 Cl  0  0  0  0  0  0  0  0  0  0  0  0
    0.2518   22.1311  -27.6255 O   0  0  0  0  0  0  0  0  0  0  0  0
   -0.1311   23.1624  -28.5148 C   0  0  0  0  0  0  0  0  0  0  0  0
    1.0420   21.4904  -22.9582 O   0  0  0  0  0  0  0  0  0  0  0  0
    2.3595   21.0753  -23.2598 C   0  0  0  0  0  0  0  0  0  0  0  0
   -9.5206   25.8185  -22.0874 C   0  0  0  0  0  0  0  0  0  0  0  0
   -8.9593   25.9417  -23.4071 N   0  0  0  0  0  0  0  0  0  0  0  0
   -9.5328   26.3553  -24.1630 H   0  0  0  0  0  0  0  0  0  0  0  0
   -6.6323   21.5831  -23.2059 C   0  0  0  0  0  0  0  0  0  0  0  0
   -6.7020   21.6366  -21.7103 C   0  0  0  0  0  0  0  0  0  0  0  0
   -8.1307   21.7049  -21.2089 C   0  0  0  0  0  0  0  0  0  0  0  0
   -8.3112   20.9204  -20.0075 N   0  0  0  0  0  0  0  0  0  0  0  0
   -9.2944   21.5437  -19.1907 C   0  0  0  0  0  0  0  0  0  0  0  0
   -8.7947   21.8065  -17.7725 C   0  0  0  0  0  0  0  0  0  0  0  0
   -8.2961   20.5000  -17.2385 C   0  0  0  0  0  0  0  0  0  0  0  0
   -7.0948   20.0800  -18.0477 C   0  0  0  0  0  0  0  0  0  0  0  0
   -7.0234   20.7741  -19.3796 C   0  0  0  0  0  0  0  0  0  0  0  0
   -5.9148   20.4821  -17.2915 N   0  0  0  0  0  0  0  0  0  0  0  0
   -5.0045   19.4933  -16.8361 C   0  0  0  0  0  0  0  0  0  0  0  0
   -5.2046   18.2586  -17.0822 O   0  0  0  0  0  0  0  0  0  0  0  0
   -5.7474   21.5043  -17.0892 H   0  0  0  0  0  0  0  0  0  0  0  0
   -3.8355   19.8999  -16.0819 C   0  0  0  0  0  0  0  0  0  0  0  0
   -3.8020   20.8233  -15.1518 C   0  0  0  0  0  0  0  0  0  0  0  0
 23 24  1  0  0  0
 24  1  1  0  0  0
  1  2  2  0  0  0
  2  3  1  0  0  0
  3  4  2  0  0  0
  4  5  1  0  0  0
  5  6  2  0  0  0
  6 12  1  0  0  0
 12 13  2  0  0  0
 13 14  1  0  0  0
 14 19  1  0  0  0
 19 20  1  0  0  0
 14 15  2  0  0  0
 15 16  1  0  0  0
 16 21  1  0  0  0
 21 22  1  0  0  0
 16 17  2  0  0  0
 17 18  1  0  0  0
  6  7  1  0  0  0
  7  8  2  0  0  0
  7  9  1  0  0  0
  9 26  1  0  0  0
 26 27  1  0  0  0
 27 28  1  0  0  0
 28 29  1  0  0  0
 29 30  1  0  0  0
 30 31  1  0  0  0
 31 32  1  0  0  0
 32 33  1  0  0  0
 33 34  1  0  0  0
 33 35  1  0  0  0
 35 36  1  0  0  0
 36 37  2  0  0  0
 36 39  1  0  0  0
 39 40  2  0  0  0
  9 10  1  0  0  0
 10 11  2  0  0  0
 11  1  1  0  0  0
 10  4  1  0  0  0
 17 12  1  0  0  0
 34 29  1  0  0  0
 24 25  1  0  0  0
 35 38  1  0  0  0
M  END
> <minimizedAffinity>
-7.38257

> <CNNscore>
0.1085751429

> <CNNaffinity>
6.5251245499

> <CNN_VS>
0.7084663510

> <CNNaffinity_variance>
0.1471889764

$$$$
[H]C([H])=C([H])C(=O)N([H])[C@]1([H])C([H])([H])N(C([H])([H])C([H])([H])C([H])([H])n2c(=O)c(-c3c([H])c(OC([H])([H])[H])c([H])c(OC([H])([H])[H])c3Cl)c([H])c3c([H])nc(N([H])C([H])([H])[H])nc32)C([H])([H])C([H])([H])C1([H])[H]


 40 43  0  0  0  0  0  0  0  0999 V2000
   -8.3207   25.4876  -23.1263 C   0  0  0  0  0  0  0  0  0  0  0  0
   -7.4596   26.4112  -23.6151 N   0  0  0  0  0  0  0  0  0  0  0  0
   -6.2155   26.0430  -23.9496 C   0  0  0  0  0  0  0  0  0  0  0  0
   -5.7549   24.7525  -23.8211 C   0  0  0  0  0  0  0  0  0  0  0  0
   -4.4906   24.3477  -24.1568 C   0  0  0  0  0  0  0  0  0  0  0  0
   -4.0701   23.0301  -24.0116 C   0  0  0  0  0  0  0  0  0  0  0  0
   -4.9951   22.1396  -23.5081 C   0  0  0  0  0  0  0  0  0  0  0  0
   -4.6907   20.9475  -23.3506 O   0  0  0  0  0  0  0  0  0  0  0  0
   -6.2548   22.5175  -23.1685 N   0  0  0  0  0  0  0  0  0  0  0  0
   -6.6499   23.8103  -23.3169 C   0  0  0  0  0  0  0  0  0  0  0  0
   -7.8798   24.2441  -23.0016 N   0  0  0  0  0  0  0  0  0  0  0  0
   -2.7105   22.6520  -24.3926 C   0  0  0  0  0  0  0  0  0  0  0  0
   -1.7589   22.2248  -23.4912 C   0  0  0  0  0  0  0  0  0  0  0  0
   -0.4763   21.8703  -23.8149 C   0  0  0  0  0  0  0  0  0  0  0  0
   -0.1103   21.9483  -25.1551 C   0  0  0  0  0  0  0  0  0  0  0  0
   -1.0176   22.3680  -26.1022 C   0  0  0  0  0  0  0  0  0  0  0  0
   -2.3093   22.7192  -25.7336 C   0  0  0  0  0  0  0  0  0  0  0  0
   -3.4125   23.2413  -26.9627 Cl  0  0  0  0  0  0  0  0  0  0  0  0
    0.4749   21.4424  -22.9012 O   0  0  0  0  0  0  0  0  0  0  0  0
    0.0173   20.8735  -21.6896 C   0  0  0  0  0  0  0  0  0  0  0  0
   -0.6304   22.4390  -27.4403 O   0  0  0  0  0  0  0  0  0  0  0  0
    0.6820   22.0726  -27.8181 C   0  0  0  0  0  0  0  0  0  0  0  0
  -10.0593   25.9838  -21.4107 C   0  0  0  0  0  0  0  0  0  0  0  0
   -9.6339   25.9050  -22.7835 N   0  0  0  0  0  0  0  0  0  0  0  0
  -10.3004   26.1580  -23.5339 H   0  0  0  0  0  0  0  0  0  0  0  0
   -7.2309   21.5852  -22.6481 C   0  0  0  0  0  0  0  0  0  0  0  0
   -7.4459   21.8612  -21.1913 C   0  0  0  0  0  0  0  0  0  0  0  0
   -6.2630   21.4274  -20.3489 C   0  0  0  0  0  0  0  0  0  0  0  0
   -6.6293   21.2685  -18.9590 N   0  0  0  0  0  0  0  0  0  0  0  0
   -5.5293   20.7107  -18.2509 C   0  0  0  0  0  0  0  0  0  0  0  0
   -5.9089   19.4474  -17.4827 C   0  0  0  0  0  0  0  0  0  0  0  0
   -7.0771   19.8005  -16.6161 C   0  0  0  0  0  0  0  0  0  0  0  0
   -8.2490   20.1327  -17.5053 C   0  0  0  0  0  0  0  0  0  0  0  0
   -7.8312   20.4767  -18.9081 C   0  0  0  0  0  0  0  0  0  0  0  0
   -9.0715   18.9314  -17.5859 N   0  0  0  0  0  0  0  0  0  0  0  0
  -10.1382   18.7503  -16.6676 C   0  0  0  0  0  0  0  0  0  0  0  0
  -10.3873   19.6258  -15.7752 O   0  0  0  0  0  0  0  0  0  0  0  0
   -8.8672   18.2072  -18.3258 H   0  0  0  0  0  0  0  0  0  0  0  0
  -10.9495   17.5522  -16.7514 C   0  0  0  0  0  0  0  0  0  0  0  0
  -10.5242   16.3554  -17.0767 C   0  0  0  0  0  0  0  0  0  0  0  0
 23 24  1  0  0  0
 24  1  1  0  0  0
  1  2  2  0  0  0
  2  3  1  0  0  0
  3  4  2  0  0  0
  4  5  1  0  0  0
  5  6  2  0  0  0
  6 12  1  0  0  0
 12 13  2  0  0  0
 13 14  1  0  0  0
 14 19  1  0  0  0
 19 20  1  0  0  0
 14 15  2  0  0  0
 15 16  1  0  0  0
 16 21  1  0  0  0
 21 22  1  0  0  0
 16 17  2  0  0  0
 17 18  1  0  0  0
  6  7  1  0  0  0
  7  8  2  0  0  0
  7  9  1  0  0  0
  9 26  1  0  0  0
 26 27  1  0  0  0
 27 28  1  0  0  0
 28 29  1  0  0  0
 29 30  1  0  0  0
 30 31  1  0  0  0
 31 32  1  0  0  0
 32 33  1  0  0  0
 33 34  1  0  0  0
 33 35  1  0  0  0
 35 36  1  0  0  0
 36 37  2  0  0  0
 36 39  1  0  0  0
 39 40  2  0  0  0
  9 10  1  0  0  0
 10 11  2  0  0  0
 11  1  1  0  0  0
 10  4  1  0  0  0
 17 12  1  0  0  0
 34 29  1  0  0  0
 24 25  1  0  0  0
 35 38  1  0  0  0
M  END
> <minimizedAffinity>
-6.90302

> <CNNscore>
0.0763510466

> <CNNaffinity>
6.3952493668

> <CNN_VS>
0.4882839918

> <CNNaffinity_variance>
0.1150633842

$$$$
[H]C([H])=C([H])C(=O)N([H])[C@]1([H])C([H])([H])N(C([H])([H])C([H])([H])C([H])([H])n2c(=O)c(-c3c([H])c(OC([H])([H])[H])c([H])c(OC([H])([H])[H])c3Cl)c([H])c3c([H])nc(N([H])C([H])([H])[H])nc32)C([H])([H])C([H])([H])C1([H])[H]


 40 43  0  0  0  0  0  0  0  0999 V2000
   -5.2582   22.6557  -18.2275 C   0  0  0  0  0  0  0  0  0  0  0  0
   -4.0180   22.8175  -17.7087 N   0  0  0  0  0  0  0  0  0  0  0  0
   -2.9475   22.6971  -18.5054 C   0  0  0  0  0  0  0  0  0  0  0  0
   -3.0403   22.4121  -19.8486 C   0  0  0  0  0  0  0  0  0  0  0  0
   -1.9646   22.2857  -20.6864 C   0  0  0  0  0  0  0  0  0  0  0  0
   -2.1075   21.9989  -22.0397 C   0  0  0  0  0  0  0  0  0  0  0  0
   -3.3968   21.8456  -22.5046 C   0  0  0  0  0  0  0  0  0  0  0  0
   -3.6014   21.5880  -23.7006 O   0  0  0  0  0  0  0  0  0  0  0  0
   -4.4793   21.9666  -21.6930 N   0  0  0  0  0  0  0  0  0  0  0  0
   -4.3218   22.2475  -20.3717 C   0  0  0  0  0  0  0  0  0  0  0  0
   -5.3504   22.3813  -19.5207 N   0  0  0  0  0  0  0  0  0  0  0  0
   -0.9241   21.8818  -22.8896 C   0  0  0  0  0  0  0  0  0  0  0  0
   -0.9420   22.0927  -24.2518 C   0  0  0  0  0  0  0  0  0  0  0  0
    0.1465   21.9845  -25.0758 C   0  0  0  0  0  0  0  0  0  0  0  0
    1.3596   21.6357  -24.4901 C   0  0  0  0  0  0  0  0  0  0  0  0
    1.4401   21.4125  -23.1337 C   0  0  0  0  0  0  0  0  0  0  0  0
    0.3130   21.5320  -22.3319 C   0  0  0  0  0  0  0  0  0  0  0  0
    0.4668   21.2403  -20.6314 Cl  0  0  0  0  0  0  0  0  0  0  0  0
    0.1191   22.1976  -26.4457 O   0  0  0  0  0  0  0  0  0  0  0  0
   -1.1448   22.2856  -27.0748 C   0  0  0  0  0  0  0  0  0  0  0  0
    2.6659   21.0638  -22.5666 O   0  0  0  0  0  0  0  0  0  0  0  0
    3.0964   19.7171  -22.5838 C   0  0  0  0  0  0  0  0  0  0  0  0
   -6.2644   22.5243  -15.9510 C   0  0  0  0  0  0  0  0  0  0  0  0
   -6.3746   22.7925  -17.3609 N   0  0  0  0  0  0  0  0  0  0  0  0
   -7.2870   23.0906  -17.7482 H   0  0  0  0  0  0  0  0  0  0  0  0
   -5.8337   21.8152  -22.1781 C   0  0  0  0  0  0  0  0  0  0  0  0
   -6.4507   23.1703  -22.3436 C   0  0  0  0  0  0  0  0  0  0  0  0
   -6.7694   23.4778  -23.7930 C   0  0  0  0  0  0  0  0  0  0  0  0
   -5.6869   24.1885  -24.4368 N   0  0  0  0  0  0  0  0  0  0  0  0
   -5.6937   25.5406  -23.9961 C   0  0  0  0  0  0  0  0  0  0  0  0
   -5.7344   26.5328  -25.1554 C   0  0  0  0  0  0  0  0  0  0  0  0
   -4.5918   26.1911  -26.0600 C   0  0  0  0  0  0  0  0  0  0  0  0
   -4.8418   24.8267  -26.6516 C   0  0  0  0  0  0  0  0  0  0  0  0
   -5.8390   24.0270  -25.8598 C   0  0  0  0  0  0  0  0  0  0  0  0
   -5.4171   25.0391  -27.9746 N   0  0  0  0  0  0  0  0  0  0  0  0
   -4.6496   24.7350  -29.1288 C   0  0  0  0  0  0  0  0  0  0  0  0
   -3.4649   24.2761  -29.0230 O   0  0  0  0  0  0  0  0  0  0  0  0
   -6.3985   25.4169  -28.0628 H   0  0  0  0  0  0  0  0  0  0  0  0
   -5.2264   24.9519  -30.4406 C   0  0  0  0  0  0  0  0  0  0  0  0
   -4.9635   25.9566  -31.2408 C   0  0  0  0  0  0  0  0  0  0  0  0
 23 24  1  0  0  0
 24  1  1  0  0  0
  1  2  2  0  0  0
  2  3  1  0  0  0
  3  4  2  0  0  0
  4  5  1  0  0  0
  5  6  2  0  0  0
  6 12  1  0  0  0
 12 13  2  0  0  0
 13 14  1  0  0  0
 14 19  1  0  0  0
 19 20  1  0  0  0
 14 15  2  0  0  0
 15 16  1  0  0  0
 16 21  1  0  0  0
 21 22  1  0  0  0
 16 17  2  0  0  0
 17 18  1  0  0  0
  6  7  1  0  0  0
  7  8  2  0  0  0
  7  9  1  0  0  0
  9 26  1  0  0  0
 26 27  1  0  0  0
 27 28  1  0  0  0
 28 29  1  0  0  0
 29 30  1  0  0  0
 30 31  1  0  0  0
 31 32  1  0  0  0
 32 33  1  0  0  0
 33 34  1  0  0  0
 33 35  1  0  0  0
 35 36  1  0  0  0
 36 37  2  0  0  0
 36 39  1  0  0  0
 39 40  2  0  0  0
  9 10  1  0  0  0
 10 11  2  0  0  0
 11  1  1  0  0  0
 10  4  1  0  0  0
 17 12  1  0  0  0
 34 29  1  0  0  0
 24 25  1  0  0  0
 35 38  1  0  0  0
M  END
> <minimizedAffinity>
-7.58771

> <CNNscore>
0.0705710351

> <CNNaffinity>
6.8252220154

> <CNN_VS>
0.4816629887

> <CNNaffinity_variance>
0.4704041481

$$$$
[H]C([H])=C([H])C(=O)N([H])[C@]1([H])C([H])([H])N(C([H])([H])C([H])([H])C([H])([H])n2c(=O)c(-c3c([H])c(OC([H])([H])[H])c([H])c(OC([H])([H])[H])c3Cl)c([H])c3c([H])nc(N([H])C([H])([H])[H])nc32)C([H])([H])C([H])([H])C1([H])[H]


 40 43  0  0  0  0  0  0  0  0999 V2000
   -2.0145   22.8971  -21.5814 C   0  0  0  0  0  0  0  0  0  0  0  0
   -1.0491   22.8235  -22.5280 N   0  0  0  0  0  0  0  0  0  0  0  0
   -1.3738   22.9897  -23.8173 C   0  0  0  0  0  0  0  0  0  0  0  0
   -2.6597   23.2358  -24.2413 C   0  0  0  0  0  0  0  0  0  0  0  0
   -3.0198   23.4120  -25.5507 C   0  0  0  0  0  0  0  0  0  0  0  0
   -4.3337   23.6612  -25.9321 C   0  0  0  0  0  0  0  0  0  0  0  0
   -5.2683   23.7234  -24.9198 C   0  0  0  0  0  0  0  0  0  0  0  0
   -6.4603   23.9416  -25.1848 O   0  0  0  0  0  0  0  0  0  0  0  0
   -4.9351   23.5523  -23.6142 N   0  0  0  0  0  0  0  0  0  0  0  0
   -3.6452   23.3094  -23.2583 C   0  0  0  0  0  0  0  0  0  0  0  0
   -3.2537   23.1340  -21.9870 N   0  0  0  0  0  0  0  0  0  0  0  0
   -4.6604   23.8483  -27.3445 C   0  0  0  0  0  0  0  0  0  0  0  0
   -4.7060   22.8166  -28.2578 C   0  0  0  0  0  0  0  0  0  0  0  0
   -5.0018   22.9597  -29.5873 C   0  0  0  0  0  0  0  0  0  0  0  0
   -5.2767   24.2441  -30.0465 C   0  0  0  0  0  0  0  0  0  0  0  0
   -5.2469   25.3150  -29.1814 C   0  0  0  0  0  0  0  0  0  0  0  0
   -4.9421   25.1286  -27.8397 C   0  0  0  0  0  0  0  0  0  0  0  0
   -4.9171   26.5082  -26.7927 Cl  0  0  0  0  0  0  0  0  0  0  0  0
   -5.0444   21.9161  -30.4994 O   0  0  0  0  0  0  0  0  0  0  0  0
   -5.4940   22.2025  -31.8096 C   0  0  0  0  0  0  0  0  0  0  0  0
   -5.5255   26.5944  -29.6622 O   0  0  0  0  0  0  0  0  0  0  0  0
   -5.7232   26.8030  -31.0466 C   0  0  0  0  0  0  0  0  0  0  0  0
   -1.0628   21.4863  -19.7603 C   0  0  0  0  0  0  0  0  0  0  0  0
   -1.6414   22.7205  -20.2228 N   0  0  0  0  0  0  0  0  0  0  0  0
   -1.7875   23.4930  -19.5496 H   0  0  0  0  0  0  0  0  0  0  0  0
   -5.9106   23.6252  -22.5484 C   0  0  0  0  0  0  0  0  0  0  0  0
   -6.7136   22.3606  -22.5300 C   0  0  0  0  0  0  0  0  0  0  0  0
   -6.8940   21.8209  -21.1253 C   0  0  0  0  0  0  0  0  0  0  0  0
   -5.7604   22.1361  -20.2844 N   0  0  0  0  0  0  0  0  0  0  0  0
   -5.1317   20.9258  -19.8816 C   0  0  0  0  0  0  0  0  0  0  0  0
   -4.9850   20.8200  -18.3659 C   0  0  0  0  0  0  0  0  0  0  0  0
   -4.2762   22.0572  -17.9106 C   0  0  0  0  0  0  0  0  0  0  0  0
   -5.1681   23.2441  -18.1753 C   0  0  0  0  0  0  0  0  0  0  0  0
   -6.2334   22.9507  -19.1950 C   0  0  0  0  0  0  0  0  0  0  0  0
   -5.8476   23.5495  -16.9219 N   0  0  0  0  0  0  0  0  0  0  0  0
   -5.5151   24.7347  -16.2160 C   0  0  0  0  0  0  0  0  0  0  0  0
   -4.6318   25.5365  -16.6655 O   0  0  0  0  0  0  0  0  0  0  0  0
   -6.5805   22.8873  -16.5503 H   0  0  0  0  0  0  0  0  0  0  0  0
   -6.1920   25.0302  -14.9689 C   0  0  0  0  0  0  0  0  0  0  0  0
   -6.2511   24.2456  -13.9202 C   0  0  0  0  0  0  0  0  0  0  0  0
 23 24  1  0  0  0
 24  1  1  0  0  0
  1  2  2  0  0  0
  2  3  1  0  0  0
  3  4  2  0  0  0
  4  5  1  0  0  0
  5  6  2  0  0  0
  6 12  1  0  0  0
 12 13  2  0  0  0
 13 14  1  0  0  0
 14 19  1  0  0  0
 19 20  1  0  0  0
 14 15  2  0  0  0
 15 16  1  0  0  0
 16 21  1  0  0  0
 21 22  1  0  0  0
 16 17  2  0  0  0
 17 18  1  0  0  0
  6  7  1  0  0  0
  7  8  2  0  0  0
  7  9  1  0  0  0
  9 26  1  0  0  0
 26 27  1  0  0  0
 27 28  1  0  0  0
 28 29  1  0  0  0
 29 30  1  0  0  0
 30 31  1  0  0  0
 31 32  1  0  0  0
 32 33  1  0  0  0
 33 34  1  0  0  0
 33 35  1  0  0  0
 35 36  1  0  0  0
 36 37  2  0  0  0
 36 39  1  0  0  0
 39 40  2  0  0  0
  9 10  1  0  0  0
 10 11  2  0  0  0
 11  1  1  0  0  0
 10  4  1  0  0  0
 17 12  1  0  0  0
 34 29  1  0  0  0
 24 25  1  0  0  0
 35 38  1  0  0  0
M  END
> <minimizedAffinity>
-6.63540

> <CNNscore>
0.0634398535

> <CNNaffinity>
6.5729269981

> <CNN_VS>
0.4169855118

> <CNNaffinity_variance>
0.4384108186

$$$$
[H]c1nc(C(=O)N(C([H])([H])[H])C([H])([H])[H])c([H])c([H])c1-c1nc([H])c2c(c1[H])N(C([H])([H])C([H])([H])[H])C(=O)N(c1c(F)c(OC([H])([H])[H])c([H])c(OC([H])([H])[H])c1F)C2([H])[H]


 36 39  0  0  0  0  0  0  0  0999 V2000
   -1.0221   21.4029  -21.5103 N   0  0  0  0  0  0  0  0  0  0  0  0
   -0.0482   21.1017  -20.5538 C   0  0  0  0  0  0  0  0  0  0  0  0
   -0.4254   20.9608  -19.3537 O   0  0  0  0  0  0  0  0  0  0  0  0
    1.3375   20.9451  -20.8547 N   0  0  0  0  0  0  0  0  0  0  0  0
    1.7912   21.0071  -22.2028 C   0  0  0  0  0  0  0  0  0  0  0  0
    0.7426   21.4025  -23.1703 C   0  0  0  0  0  0  0  0  0  0  0  0
    1.0739   21.6164  -24.5060 C   0  0  0  0  0  0  0  0  0  0  0  0
    0.1587   21.9491  -25.4331 N   0  0  0  0  0  0  0  0  0  0  0  0
   -1.1565   22.1055  -25.1572 C   0  0  0  0  0  0  0  0  0  0  0  0
   -1.5063   21.8993  -23.8407 C   0  0  0  0  0  0  0  0  0  0  0  0
   -0.5869   21.5552  -22.8553 C   0  0  0  0  0  0  0  0  0  0  0  0
    2.1936   20.7445  -19.7360 C   0  0  0  0  0  0  0  0  0  0  0  0
    2.5761   19.4619  -19.3414 C   0  0  0  0  0  0  0  0  0  0  0  0
    2.0743   18.4373  -20.0691 F   0  0  0  0  0  0  0  0  0  0  0  0
    3.4184   19.2626  -18.2680 C   0  0  0  0  0  0  0  0  0  0  0  0
    3.8977   20.3457  -17.5628 C   0  0  0  0  0  0  0  0  0  0  0  0
    3.5346   21.6334  -17.9317 C   0  0  0  0  0  0  0  0  0  0  0  0
    2.6776   21.8164  -19.0258 C   0  0  0  0  0  0  0  0  0  0  0  0
    2.3101   23.0559  -19.4074 F   0  0  0  0  0  0  0  0  0  0  0  0
    3.7946   17.9910  -17.8812 O   0  0  0  0  0  0  0  0  0  0  0  0
    2.9937   17.1500  -17.0937 C   0  0  0  0  0  0  0  0  0  0  0  0
    3.9898   22.7560  -17.2570 O   0  0  0  0  0  0  0  0  0  0  0  0
    3.2411   23.4126  -16.2610 C   0  0  0  0  0  0  0  0  0  0  0  0
   -2.1293   22.4699  -26.1728 C   0  0  0  0  0  0  0  0  0  0  0  0
   -3.4403   22.7506  -25.9026 C   0  0  0  0  0  0  0  0  0  0  0  0
   -4.2780   23.0923  -26.9366 C   0  0  0  0  0  0  0  0  0  0  0  0
   -3.8308   23.1639  -28.2631 C   0  0  0  0  0  0  0  0  0  0  0  0
   -2.5348   22.8790  -28.4690 N   0  0  0  0  0  0  0  0  0  0  0  0
   -1.7193   22.5480  -27.4816 C   0  0  0  0  0  0  0  0  0  0  0  0
   -4.7513   23.5346  -29.3264 C   0  0  0  0  0  0  0  0  0  0  0  0
   -5.6635   22.6850  -29.6179 O   0  0  0  0  0  0  0  0  0  0  0  0
   -4.6500   24.7535  -29.9994 N   0  0  0  0  0  0  0  0  0  0  0  0
   -5.6246   25.0162  -31.0728 C   0  0  0  0  0  0  0  0  0  0  0  0
   -3.6865   25.7582  -29.7023 C   0  0  0  0  0  0  0  0  0  0  0  0
   -2.6288   23.0302  -20.8367 C   0  0  0  0  0  0  0  0  0  0  0  0
   -2.4005   21.5613  -21.1140 C   0  0  0  0  0  0  0  0  0  0  0  0
 35 36  1  0  0  0
 36  1  1  0  0  0
  1  2  1  0  0  0
  2  3  2  0  0  0
  2  4  1  0  0  0
  4  5  1  0  0  0
  5  6  1  0  0  0
  6  7  2  0  0  0
  7  8  1  0  0  0
  8  9  2  0  0  0
  9 10  1  0  0  0
 10 11  2  0  0  0
  9 24  1  0  0  0
 24 25  2  0  0  0
 25 26  1  0  0  0
 26 27  2  0  0  0
 27 28  1  0  0  0
 28 29  2  0  0  0
 27 30  1  0  0  0
 30 31  2  0  0  0
 30 32  1  0  0  0
 32 33  1  0  0  0
 32 34  1  0  0  0
  4 12  1  0  0  0
 12 13  2  0  0  0
 13 14  1  0  0  0
 13 15  1  0  0  0
 15 20  1  0  0  0
 20 21  1  0  0  0
 15 16  2  0  0  0
 16 17  1  0  0  0
 17 22  1  0  0  0
 22 23  1  0  0  0
 17 18  2  0  0  0
 18 19  1  0  0  0
 11  1  1  0  0  0
 29 24  1  0  0  0
 18 12  1  0  0  0
 11  6  1  0  0  0
M  END
> <minimizedAffinity>
-7.79673

> <CNNscore>
0.2312537730

> <CNNaffinity>
6.7848486900

> <CNN_VS>
1.5690218210

> <CNNaffinity_variance>
0.1687505692

$$$$
[H]c1nc(C(=O)N(C([H])([H])[H])C([H])([H])[H])c([H])c([H])c1-c1nc([H])c2c(c1[H])N(C([H])([H])C([H])([H])[H])C(=O)N(c1c(F)c(OC([H])([H])[H])c([H])c(OC([H])([H])[H])c1F)C2([H])[H]


 36 39  0  0  0  0  0  0  0  0999 V2000
   -1.0683   21.4267  -21.4631 N   0  0  0  0  0  0  0  0  0  0  0  0
   -0.1000   21.1320  -20.4989 C   0  0  0  0  0  0  0  0  0  0  0  0
   -0.4840   21.0008  -19.2998 O   0  0  0  0  0  0  0  0  0  0  0  0
    1.2872   20.9716  -20.7909 N   0  0  0  0  0  0  0  0  0  0  0  0
    1.7483   21.0226  -22.1369 C   0  0  0  0  0  0  0  0  0  0  0  0
    0.7055   21.4115  -23.1132 C   0  0  0  0  0  0  0  0  0  0  0  0
    1.0446   21.6146  -24.4487 C   0  0  0  0  0  0  0  0  0  0  0  0
    0.1349   21.9410  -25.3834 N   0  0  0  0  0  0  0  0  0  0  0  0
   -1.1817   22.1010  -25.1160 C   0  0  0  0  0  0  0  0  0  0  0  0
   -1.5390   21.9054  -23.7999 C   0  0  0  0  0  0  0  0  0  0  0  0
   -0.6255   21.5680  -22.8068 C   0  0  0  0  0  0  0  0  0  0  0  0
    2.1369   20.7789  -19.6659 C   0  0  0  0  0  0  0  0  0  0  0  0
    2.5853   21.8606  -18.9071 C   0  0  0  0  0  0  0  0  0  0  0  0
    2.1805   23.0860  -19.3143 F   0  0  0  0  0  0  0  0  0  0  0  0
    3.3957   21.6783  -17.8065 C   0  0  0  0  0  0  0  0  0  0  0  0
    3.7773   20.4055  -17.4399 C   0  0  0  0  0  0  0  0  0  0  0  0
    3.3471   19.3101  -18.1753 C   0  0  0  0  0  0  0  0  0  0  0  0
    2.5235   19.5150  -19.2910 C   0  0  0  0  0  0  0  0  0  0  0  0
    2.0893   18.4692  -20.0223 F   0  0  0  0  0  0  0  0  0  0  0  0
    3.8370   22.7524  -17.0581 O   0  0  0  0  0  0  0  0  0  0  0  0
    3.2849   23.1154  -15.8203 C   0  0  0  0  0  0  0  0  0  0  0  0
    3.7009   18.0099  -17.8481 O   0  0  0  0  0  0  0  0  0  0  0  0
    4.7762   17.3290  -18.4512 C   0  0  0  0  0  0  0  0  0  0  0  0
   -2.1484   22.4584  -26.1399 C   0  0  0  0  0  0  0  0  0  0  0  0
   -3.4620   22.7366  -25.8799 C   0  0  0  0  0  0  0  0  0  0  0  0
   -4.2936   23.0717  -26.9211 C   0  0  0  0  0  0  0  0  0  0  0  0
   -3.8374   23.1390  -28.2448 C   0  0  0  0  0  0  0  0  0  0  0  0
   -2.5392   22.8568  -28.4405 N   0  0  0  0  0  0  0  0  0  0  0  0
   -1.7297   22.5322  -27.4461 C   0  0  0  0  0  0  0  0  0  0  0  0
   -4.7515   23.5027  -29.3158 C   0  0  0  0  0  0  0  0  0  0  0  0
   -5.6498   22.6429  -29.6205 O   0  0  0  0  0  0  0  0  0  0  0  0
   -4.6589   24.7258  -29.9825 N   0  0  0  0  0  0  0  0  0  0  0  0
   -5.6257   24.9809  -31.0648 C   0  0  0  0  0  0  0  0  0  0  0  0
   -3.7113   25.7413  -29.6711 C   0  0  0  0  0  0  0  0  0  0  0  0
   -2.6907   23.0671  -20.8628 C   0  0  0  0  0  0  0  0  0  0  0  0
   -2.4487   21.5896  -21.0757 C   0  0  0  0  0  0  0  0  0  0  0  0
 35 36  1  0  0  0
 36  1  1  0  0  0
  1  2  1  0  0  0
  2  3  2  0  0  0
  2  4  1  0  0  0
  4  5  1  0  0  0
  5  6  1  0  0  0
  6  7  2  0  0  0
  7  8  1  0  0  0
  8  9  2  0  0  0
  9 10  1  0  0  0
 10 11  2  0  0  0
  9 24  1  0  0  0
 24 25  2  0  0  0
 25 26  1  0  0  0
 26 27  2  0  0  0
 27 28  1  0  0  0
 28 29  2  0  0  0
 27 30  1  0  0  0
 30 31  2  0  0  0
 30 32  1  0  0  0
 32 33  1  0  0  0
 32 34  1  0  0  0
  4 12  1  0  0  0
 12 13  2  0  0  0
 13 14  1  0  0  0
 13 15  1  0  0  0
 15 20  1  0  0  0
 20 21  1  0  0  0
 15 16  2  0  0  0
 16 17  1  0  0  0
 17 22  1  0  0  0
 22 23  1  0  0  0
 17 18  2  0  0  0
 18 19  1  0  0  0
 11  1  1  0  0  0
 29 24  1  0  0  0
 18 12  1  0  0  0
 11  6  1  0  0  0
M  END
> <minimizedAffinity>
-7.76285

> <CNNscore>
0.2144305855

> <CNNaffinity>
6.7685394287

> <CNN_VS>
1.4513819218

> <CNNaffinity_variance>
0.1941657811

$$$$
[H]c1nc(C(=O)N(C([H])([H])[H])C([H])([H])[H])c([H])c([H])c1-c1nc([H])c2c(c1[H])N(C([H])([H])C([H])([H])[H])C(=O)N(c1c(F)c(OC([H])([H])[H])c([H])c(OC([H])([H])[H])c1F)C2([H])[H]


 36 39  0  0  0  0  0  0  0  0999 V2000
   -4.7875   21.4920  -18.2041 N   0  0  0  0  0  0  0  0  0  0  0  0
   -4.9993   21.4587  -16.8228 C   0  0  0  0  0  0  0  0  0  0  0  0
   -4.2835   20.6720  -16.1363 O   0  0  0  0  0  0  0  0  0  0  0  0
   -5.9707   22.2576  -16.1495 N   0  0  0  0  0  0  0  0  0  0  0  0
   -6.7345   23.2189  -16.8705 C   0  0  0  0  0  0  0  0  0  0  0  0
   -6.5333   23.1667  -18.3364 C   0  0  0  0  0  0  0  0  0  0  0  0
   -7.3039   23.9705  -19.1729 C   0  0  0  0  0  0  0  0  0  0  0  0
   -7.1451   23.9851  -20.5079 N   0  0  0  0  0  0  0  0  0  0  0  0
   -6.2309   23.2274  -21.1565 C   0  0  0  0  0  0  0  0  0  0  0  0
   -5.4580   22.4235  -20.3476 C   0  0  0  0  0  0  0  0  0  0  0  0
   -5.5950   22.3821  -18.9640 C   0  0  0  0  0  0  0  0  0  0  0  0
   -6.1149   22.0107  -14.7556 C   0  0  0  0  0  0  0  0  0  0  0  0
   -7.0050   21.0460  -14.2824 C   0  0  0  0  0  0  0  0  0  0  0  0
   -7.7231   20.3836  -15.2188 F   0  0  0  0  0  0  0  0  0  0  0  0
   -7.1370   20.7914  -12.9336 C   0  0  0  0  0  0  0  0  0  0  0  0
   -6.3793   21.4993  -12.0254 C   0  0  0  0  0  0  0  0  0  0  0  0
   -5.4855   22.4652  -12.4662 C   0  0  0  0  0  0  0  0  0  0  0  0
   -5.3649   22.7100  -13.8412 C   0  0  0  0  0  0  0  0  0  0  0  0
   -4.5034   23.6409  -14.2975 F   0  0  0  0  0  0  0  0  0  0  0  0
   -8.0193   19.8351  -12.4698 O   0  0  0  0  0  0  0  0  0  0  0  0
   -9.3758   20.0884  -12.2152 C   0  0  0  0  0  0  0  0  0  0  0  0
   -4.6996   23.2036  -11.5946 O   0  0  0  0  0  0  0  0  0  0  0  0
   -3.6265   22.6512  -10.8686 C   0  0  0  0  0  0  0  0  0  0  0  0
   -6.0781   23.2542  -22.6010 C   0  0  0  0  0  0  0  0  0  0  0  0
   -6.1118   22.1370  -23.3891 C   0  0  0  0  0  0  0  0  0  0  0  0
   -5.9638   22.2724  -24.7483 C   0  0  0  0  0  0  0  0  0  0  0  0
   -5.7802   23.5225  -25.3551 C   0  0  0  0  0  0  0  0  0  0  0  0
   -5.7562   24.5840  -24.5330 N   0  0  0  0  0  0  0  0  0  0  0  0
   -5.8967   24.4655  -23.2231 C   0  0  0  0  0  0  0  0  0  0  0  0
   -5.6326   23.6202  -26.7987 C   0  0  0  0  0  0  0  0  0  0  0  0
   -6.7077   23.7741  -27.4765 O   0  0  0  0  0  0  0  0  0  0  0  0
   -4.3844   23.5495  -27.4200 N   0  0  0  0  0  0  0  0  0  0  0  0
   -4.3548   23.6407  -28.8903 C   0  0  0  0  0  0  0  0  0  0  0  0
   -3.1479   23.4174  -26.7273 C   0  0  0  0  0  0  0  0  0  0  0  0
   -2.4878   21.3968  -18.8250 C   0  0  0  0  0  0  0  0  0  0  0  0
   -3.7939   20.6351  -18.8044 C   0  0  0  0  0  0  0  0  0  0  0  0
 35 36  1  0  0  0
 36  1  1  0  0  0
  1  2  1  0  0  0
  2  3  2  0  0  0
  2  4  1  0  0  0
  4  5  1  0  0  0
  5  6  1  0  0  0
  6  7  2  0  0  0
  7  8  1  0  0  0
  8  9  2  0  0  0
  9 10  1  0  0  0
 10 11  2  0  0  0
  9 24  1  0  0  0
 24 25  2  0  0  0
 25 26  1  0  0  0
 26 27  2  0  0  0
 27 28  1  0  0  0
 28 29  2  0  0  0
 27 30  1  0  0  0
 30 31  2  0  0  0
 30 32  1  0  0  0
 32 33  1  0  0  0
 32 34  1  0  0  0
  4 12  1  0  0  0
 12 13  2  0  0  0
 13 14  1  0  0  0
 13 15  1  0  0  0
 15 20  1  0  0  0
 20 21  1  0  0  0
 15 16  2  0  0  0
 16 17  1  0  0  0
 17 22  1  0  0  0
 22 23  1  0  0  0
 17 18  2  0  0  0
 18 19  1  0  0  0
 11  1  1  0  0  0
 29 24  1  0  0  0
 18 12  1  0  0  0
 11  6  1  0  0  0
M  END
> <minimizedAffinity>
-5.56218

> <CNNscore>
0.1823500395

> <CNNaffinity>
6.2433600426

> <CNN_VS>
1.1384769678

> <CNNaffinity_variance>
0.4707789421

$$$$
[H]c1nc(C(=O)N(C([H])([H])[H])C([H])([H])[H])c([H])c([H])c1-c1nc([H])c2c(c1[H])N(C([H])([H])C([H])([H])[H])C(=O)N(c1c(F)c(OC([H])([H])[H])c([H])c(OC([H])([H])[H])c1F)C2([H])[H]


 36 39  0  0  0  0  0  0  0  0999 V2000
   -7.2130   22.2680  -20.8828 N   0  0  0  0  0  0  0  0  0  0  0  0
   -6.5590   22.6873  -22.0449 C   0  0  0  0  0  0  0  0  0  0  0  0
   -7.2194   22.6872  -23.1248 O   0  0  0  0  0  0  0  0  0  0  0  0
   -5.1977   23.1128  -22.0795 N   0  0  0  0  0  0  0  0  0  0  0  0
   -4.4457   23.2129  -20.8747 C   0  0  0  0  0  0  0  0  0  0  0  0
   -5.1505   22.6881  -19.6831 C   0  0  0  0  0  0  0  0  0  0  0  0
   -4.4889   22.6160  -18.4597 C   0  0  0  0  0  0  0  0  0  0  0  0
   -5.0875   22.1748  -17.3396 N   0  0  0  0  0  0  0  0  0  0  0  0
   -6.3758   21.7639  -17.2972 C   0  0  0  0  0  0  0  0  0  0  0  0
   -7.0491   21.8262  -18.4975 C   0  0  0  0  0  0  0  0  0  0  0  0
   -6.4620   22.2759  -19.6755 C   0  0  0  0  0  0  0  0  0  0  0  0
   -4.6737   23.4024  -23.3703 C   0  0  0  0  0  0  0  0  0  0  0  0
   -4.9032   24.6354  -23.9818 C   0  0  0  0  0  0  0  0  0  0  0  0
   -5.6586   25.5170  -23.2864 F   0  0  0  0  0  0  0  0  0  0  0  0
   -4.3844   24.9273  -25.2256 C   0  0  0  0  0  0  0  0  0  0  0  0
   -3.6226   23.9886  -25.8877 C   0  0  0  0  0  0  0  0  0  0  0  0
   -3.3773   22.7532  -25.3047 C   0  0  0  0  0  0  0  0  0  0  0  0
   -3.9129   22.4746  -24.0395 C   0  0  0  0  0  0  0  0  0  0  0  0
   -3.6891   21.2838  -23.4489 F   0  0  0  0  0  0  0  0  0  0  0  0
   -4.6141   26.1496  -25.8269 O   0  0  0  0  0  0  0  0  0  0  0  0
   -4.1931   27.3733  -25.2844 C   0  0  0  0  0  0  0  0  0  0  0  0
   -2.6167   21.7754  -25.9276 O   0  0  0  0  0  0  0  0  0  0  0  0
   -1.6341   22.0631  -26.8946 C   0  0  0  0  0  0  0  0  0  0  0  0
   -7.0032   21.2862  -16.0770 C   0  0  0  0  0  0  0  0  0  0  0  0
   -6.3114   20.7421  -15.0302 C   0  0  0  0  0  0  0  0  0  0  0  0
   -7.0008   20.3269  -13.9165 C   0  0  0  0  0  0  0  0  0  0  0  0
   -8.3941   20.4444  -13.8180 C   0  0  0  0  0  0  0  0  0  0  0  0
   -9.0205   20.9863  -14.8749 N   0  0  0  0  0  0  0  0  0  0  0  0
   -8.3674   21.3887  -15.9525 C   0  0  0  0  0  0  0  0  0  0  0  0
   -9.0828   19.9961  -12.6181 C   0  0  0  0  0  0  0  0  0  0  0  0
   -9.3854   18.7534  -12.5603 O   0  0  0  0  0  0  0  0  0  0  0  0
   -9.4015   20.8718  -11.5786 N   0  0  0  0  0  0  0  0  0  0  0  0
  -10.1174   20.3123  -10.4186 C   0  0  0  0  0  0  0  0  0  0  0  0
   -9.0628   22.2542  -11.5598 C   0  0  0  0  0  0  0  0  0  0  0  0
   -9.4553   23.0300  -20.6088 C   0  0  0  0  0  0  0  0  0  0  0  0
   -8.5887   21.8366  -20.9427 C   0  0  0  0  0  0  0  0  0  0  0  0
 35 36  1  0  0  0
 36  1  1  0  0  0
  1  2  1  0  0  0
  2  3  2  0  0  0
  2  4  1  0  0  0
  4  5  1  0  0  0
  5  6  1  0  0  0
  6  7  2  0  0  0
  7  8  1  0  0  0
  8  9  2  0  0  0
  9 10  1  0  0  0
 10 11  2  0  0  0
  9 24  1  0  0  0
 24 25  2  0  0  0
 25 26  1  0  0  0
 26 27  2  0  0  0
 27 28  1  0  0  0
 28 29  2  0  0  0
 27 30  1  0  0  0
 30 31  2  0  0  0
 30 32  1  0  0  0
 32 33  1  0  0  0
 32 34  1  0  0  0
  4 12  1  0  0  0
 12 13  2  0  0  0
 13 14  1  0  0  0
 13 15  1  0  0  0
 15 20  1  0  0  0
 20 21  1  0  0  0
 15 16  2  0  0  0
 16 17  1  0  0  0
 17 22  1  0  0  0
 22 23  1  0  0  0
 17 18  2  0  0  0
 18 19  1  0  0  0
 11  1  1  0  0  0
 29 24  1  0  0  0
 18 12  1  0  0  0
 11  6  1  0  0  0
M  END
> <minimizedAffinity>
-6.16642

> <CNNscore>
0.1420839578

> <CNNaffinity>
6.0143618584

> <CNN_VS>
0.8545443416

> <CNNaffinity_variance>
0.0983307213

$$$$
[H]c1nc(C(=O)N(C([H])([H])[H])C([H])([H])[H])c([H])c([H])c1-c1nc([H])c2c(c1[H])N(C([H])([H])C([H])([H])[H])C(=O)N(c1c(F)c(OC([H])([H])[H])c([H])c(OC([H])([H])[H])c1F)C2([H])[H]


 36 39  0  0  0  0  0  0  0  0999 V2000
   -5.6393   21.7563  -20.8190 N   0  0  0  0  0  0  0  0  0  0  0  0
   -5.4260   22.4769  -21.9976 C   0  0  0  0  0  0  0  0  0  0  0  0
   -6.4422   22.8220  -22.6688 O   0  0  0  0  0  0  0  0  0  0  0  0
   -4.1345   22.8424  -22.4812 N   0  0  0  0  0  0  0  0  0  0  0  0
   -2.9714   22.5522  -21.7131 C   0  0  0  0  0  0  0  0  0  0  0  0
   -3.2359   21.7241  -20.5148 C   0  0  0  0  0  0  0  0  0  0  0  0
   -2.1746   21.2674  -19.7371 C   0  0  0  0  0  0  0  0  0  0  0  0
   -2.3571   20.5363  -18.6236 N   0  0  0  0  0  0  0  0  0  0  0  0
   -3.5769   20.1797  -18.1596 C   0  0  0  0  0  0  0  0  0  0  0  0
   -4.6415   20.6205  -18.9147 C   0  0  0  0  0  0  0  0  0  0  0  0
   -4.4904   21.3775  -20.0718 C   0  0  0  0  0  0  0  0  0  0  0  0
   -4.1092   23.4824  -23.7519 C   0  0  0  0  0  0  0  0  0  0  0  0
   -4.2273   24.8682  -23.8639 C   0  0  0  0  0  0  0  0  0  0  0  0
   -4.3823   25.5512  -22.7059 F   0  0  0  0  0  0  0  0  0  0  0  0
   -4.1872   25.4950  -25.0914 C   0  0  0  0  0  0  0  0  0  0  0  0
   -4.0283   24.7466  -26.2380 C   0  0  0  0  0  0  0  0  0  0  0  0
   -3.9083   23.3663  -26.1581 C   0  0  0  0  0  0  0  0  0  0  0  0
   -3.9511   22.7467  -24.9014 C   0  0  0  0  0  0  0  0  0  0  0  0
   -3.8352   21.4081  -24.7941 F   0  0  0  0  0  0  0  0  0  0  0  0
   -4.3042   26.8674  -25.1973 O   0  0  0  0  0  0  0  0  0  0  0  0
   -5.5034   27.5221  -25.5166 C   0  0  0  0  0  0  0  0  0  0  0  0
   -3.7454   22.5683  -27.2803 O   0  0  0  0  0  0  0  0  0  0  0  0
   -2.7971   22.8376  -28.2862 C   0  0  0  0  0  0  0  0  0  0  0  0
   -3.7527   19.3851  -16.9561 C   0  0  0  0  0  0  0  0  0  0  0  0
   -2.7418   18.6920  -16.3494 C   0  0  0  0  0  0  0  0  0  0  0  0
   -3.0127   17.9755  -15.2087 C   0  0  0  0  0  0  0  0  0  0  0  0
   -4.2951   17.9332  -14.6444 C   0  0  0  0  0  0  0  0  0  0  0  0
   -5.2477   18.6328  -15.2818 N   0  0  0  0  0  0  0  0  0  0  0  0
   -4.9988   19.3252  -16.3809 C   0  0  0  0  0  0  0  0  0  0  0  0
   -4.5360   17.1657  -13.4328 C   0  0  0  0  0  0  0  0  0  0  0  0
   -4.3060   17.7592  -12.3220 O   0  0  0  0  0  0  0  0  0  0  0  0
   -4.9943   15.8475  -13.4723 N   0  0  0  0  0  0  0  0  0  0  0  0
   -5.1855   15.1592  -12.1836 C   0  0  0  0  0  0  0  0  0  0  0  0
   -5.3059   15.1402  -14.6677 C   0  0  0  0  0  0  0  0  0  0  0  0
   -7.4795   22.5181  -19.5088 C   0  0  0  0  0  0  0  0  0  0  0  0
   -6.9811   21.4137  -20.4135 C   0  0  0  0  0  0  0  0  0  0  0  0
 35 36  1  0  0  0
 36  1  1  0  0  0
  1  2  1  0  0  0
  2  3  2  0  0  0
  2  4  1  0  0  0
  4  5  1  0  0  0
  5  6  1  0  0  0
  6  7  2  0  0  0
  7  8  1  0  0  0
  8  9  2  0  0  0
  9 10  1  0  0  0
 10 11  2  0  0  0
  9 24  1  0  0  0
 24 25  2  0  0  0
 25 26  1  0  0  0
 26 27  2  0  0  0
 27 28  1  0  0  0
 28 29  2  0  0  0
 27 30  1  0  0  0
 30 31  2  0  0  0
 30 32  1  0  0  0
 32 33  1  0  0  0
 32 34  1  0  0  0
  4 12  1  0  0  0
 12 13  2  0  0  0
 13 14  1  0  0  0
 13 15  1  0  0  0
 15 20  1  0  0  0
 20 21  1  0  0  0
 15 16  2  0  0  0
 16 17  1  0  0  0
 17 22  1  0  0  0
 22 23  1  0  0  0
 17 18  2  0  0  0
 18 19  1  0  0  0
 11  1  1  0  0  0
 29 24  1  0  0  0
 18 12  1  0  0  0
 11  6  1  0  0  0
M  END
> <minimizedAffinity>
-5.49485

> <CNNscore>
0.1290941983

> <CNNaffinity>
6.0817098618

> <CNN_VS>
0.7851134539

> <CNNaffinity_variance>
0.2837327719

$$$$
[H]c1nc(C(=O)N(C([H])([H])[H])C([H])([H])[H])c([H])c([H])c1-c1nc([H])c2c(c1[H])N(C([H])([H])C([H])([H])[H])C(=O)N(c1c(F)c(OC([H])([H])[H])c([H])c(OC([H])([H])[H])c1F)C2([H])[H]


 36 39  0  0  0  0  0  0  0  0999 V2000
   -3.4856   21.6729  -20.5698 N   0  0  0  0  0  0  0  0  0  0  0  0
   -3.4413   22.2717  -21.8321 C   0  0  0  0  0  0  0  0  0  0  0  0
   -2.3047   22.5705  -22.3025 O   0  0  0  0  0  0  0  0  0  0  0  0
   -4.5990   22.5618  -22.6137 N   0  0  0  0  0  0  0  0  0  0  0  0
   -5.8889   22.1623  -22.1621 C   0  0  0  0  0  0  0  0  0  0  0  0
   -5.8972   21.6027  -20.7915 C   0  0  0  0  0  0  0  0  0  0  0  0
   -7.1059   21.2800  -20.1796 C   0  0  0  0  0  0  0  0  0  0  0  0
   -7.1719   20.7432  -18.9487 N   0  0  0  0  0  0  0  0  0  0  0  0
   -6.0807   20.4695  -18.1972 C   0  0  0  0  0  0  0  0  0  0  0  0
   -4.8737   20.7820  -18.7834 C   0  0  0  0  0  0  0  0  0  0  0  0
   -4.7676   21.3387  -20.0537 C   0  0  0  0  0  0  0  0  0  0  0  0
   -4.3646   23.2687  -23.8261 C   0  0  0  0  0  0  0  0  0  0  0  0
   -4.3989   24.6630  -23.8662 C   0  0  0  0  0  0  0  0  0  0  0  0
   -4.6822   25.2885  -22.7001 F   0  0  0  0  0  0  0  0  0  0  0  0
   -4.1566   25.3536  -25.0349 C   0  0  0  0  0  0  0  0  0  0  0  0
   -3.8743   24.6620  -26.1934 C   0  0  0  0  0  0  0  0  0  0  0  0
   -3.8333   23.2748  -26.1844 C   0  0  0  0  0  0  0  0  0  0  0  0
   -4.0821   22.5901  -24.9868 C   0  0  0  0  0  0  0  0  0  0  0  0
   -4.0470   21.2431  -24.9487 F   0  0  0  0  0  0  0  0  0  0  0  0
   -4.1913   26.7341  -25.0696 O   0  0  0  0  0  0  0  0  0  0  0  0
   -5.2814   27.4714  -25.5565 C   0  0  0  0  0  0  0  0  0  0  0  0
   -3.5529   22.5322  -27.3214 O   0  0  0  0  0  0  0  0  0  0  0  0
   -3.4929   23.0924  -28.6122 C   0  0  0  0  0  0  0  0  0  0  0  0
   -6.1734   19.8933  -16.8668 C   0  0  0  0  0  0  0  0  0  0  0  0
   -5.3504   18.9011  -16.4099 C   0  0  0  0  0  0  0  0  0  0  0  0
   -5.5175   18.4297  -15.1302 C   0  0  0  0  0  0  0  0  0  0  0  0
   -6.5063   18.9352  -14.2750 C   0  0  0  0  0  0  0  0  0  0  0  0
   -7.2842   19.9083  -14.7763 N   0  0  0  0  0  0  0  0  0  0  0  0
   -7.1331   20.3692  -16.0068 C   0  0  0  0  0  0  0  0  0  0  0  0
   -6.6447   18.4101  -12.9259 C   0  0  0  0  0  0  0  0  0  0  0  0
   -5.9129   18.9470  -12.0230 O   0  0  0  0  0  0  0  0  0  0  0  0
   -7.5286   17.3724  -12.6242 N   0  0  0  0  0  0  0  0  0  0  0  0
   -7.5727   16.9064  -11.2271 C   0  0  0  0  0  0  0  0  0  0  0  0
   -8.3973   16.7563  -13.5687 C   0  0  0  0  0  0  0  0  0  0  0  0
   -1.9563   22.6788  -19.0424 C   0  0  0  0  0  0  0  0  0  0  0  0
   -2.2642   21.4318  -19.8404 C   0  0  0  0  0  0  0  0  0  0  0  0
 35 36  1  0  0  0
 36  1  1  0  0  0
  1  2  1  0  0  0
  2  3  2  0  0  0
  2  4  1  0  0  0
  4  5  1  0  0  0
  5  6  1  0  0  0
  6  7  2  0  0  0
  7  8  1  0  0  0
  8  9  2  0  0  0
  9 10  1  0  0  0
 10 11  2  0  0  0
  9 24  1  0  0  0
 24 25  2  0  0  0
 25 26  1  0  0  0
 26 27  2  0  0  0
 27 28  1  0  0  0
 28 29  2  0  0  0
 27 30  1  0  0  0
 30 31  2  0  0  0
 30 32  1  0  0  0
 32 33  1  0  0  0
 32 34  1  0  0  0
  4 12  1  0  0  0
 12 13  2  0  0  0
 13 14  1  0  0  0
 13 15  1  0  0  0
 15 20  1  0  0  0
 20 21  1  0  0  0
 15 16  2  0  0  0
 16 17  1  0  0  0
 17 22  1  0  0  0
 22 23  1  0  0  0
 17 18  2  0  0  0
 18 19  1  0  0  0
 11  1  1  0  0  0
 29 24  1  0  0  0
 18 12  1  0  0  0
 11  6  1  0  0  0
M  END
> <minimizedAffinity>
-5.79868

> <CNNscore>
0.1270743906

> <CNNaffinity>
6.0574502945

> <CNN_VS>
0.7697467804

> <CNNaffinity_variance>
0.1713953912

$$$$
[H]c1nc(C(=O)N(C([H])([H])[H])C([H])([H])[H])c([H])c([H])c1-c1nc([H])c2c(c1[H])N(C([H])([H])C([H])([H])[H])C(=O)N(c1c(F)c(OC([H])([H])[H])c([H])c(OC([H])([H])[H])c1F)C2([H])[H]


 36 39  0  0  0  0  0  0  0  0999 V2000
   -7.3650   21.8736  -20.9529 N   0  0  0  0  0  0  0  0  0  0  0  0
   -6.6714   22.5108  -21.9858 C   0  0  0  0  0  0  0  0  0  0  0  0
   -7.3522   23.0828  -22.8868 O   0  0  0  0  0  0  0  0  0  0  0  0
   -5.2484   22.5516  -22.0787 N   0  0  0  0  0  0  0  0  0  0  0  0
   -4.4448   21.9986  -21.0416 C   0  0  0  0  0  0  0  0  0  0  0  0
   -5.2166   21.2695  -20.0098 C   0  0  0  0  0  0  0  0  0  0  0  0
   -4.5493   20.5794  -19.0008 C   0  0  0  0  0  0  0  0  0  0  0  0
   -5.1985   19.9240  -18.0226 N   0  0  0  0  0  0  0  0  0  0  0  0
   -6.5472   19.8745  -17.9285 C   0  0  0  0  0  0  0  0  0  0  0  0
   -7.2275   20.5503  -18.9178 C   0  0  0  0  0  0  0  0  0  0  0  0
   -6.5895   21.2378  -19.9449 C   0  0  0  0  0  0  0  0  0  0  0  0
   -4.7233   23.1546  -23.2557 C   0  0  0  0  0  0  0  0  0  0  0  0
   -4.2953   22.3792  -24.3339 C   0  0  0  0  0  0  0  0  0  0  0  0
   -4.3941   21.0379  -24.1831 F   0  0  0  0  0  0  0  0  0  0  0  0
   -3.8006   22.9587  -25.4832 C   0  0  0  0  0  0  0  0  0  0  0  0
   -3.7223   24.3315  -25.5792 C   0  0  0  0  0  0  0  0  0  0  0  0
   -4.1404   25.1289  -24.5231 C   0  0  0  0  0  0  0  0  0  0  0  0
   -4.6406   24.5218  -23.3628 C   0  0  0  0  0  0  0  0  0  0  0  0
   -5.0555   25.2718  -22.3225 F   0  0  0  0  0  0  0  0  0  0  0  0
   -3.3783   22.1869  -26.5482 O   0  0  0  0  0  0  0  0  0  0  0  0
   -2.2047   22.4408  -27.2741 C   0  0  0  0  0  0  0  0  0  0  0  0
   -4.0839   26.5136  -24.5696 O   0  0  0  0  0  0  0  0  0  0  0  0
   -4.8706   27.2879  -25.4444 C   0  0  0  0  0  0  0  0  0  0  0  0
   -7.2299   19.1568  -16.8658 C   0  0  0  0  0  0  0  0  0  0  0  0
   -7.1702   19.5153  -15.5473 C   0  0  0  0  0  0  0  0  0  0  0  0
   -7.8599   18.7719  -14.6201 C   0  0  0  0  0  0  0  0  0  0  0  0
   -8.6258   17.6556  -14.9833 C   0  0  0  0  0  0  0  0  0  0  0  0
   -8.6486   17.3509  -16.2909 N   0  0  0  0  0  0  0  0  0  0  0  0
   -7.9880   18.0587  -17.1921 C   0  0  0  0  0  0  0  0  0  0  0  0
   -9.3440   16.9001  -13.9691 C   0  0  0  0  0  0  0  0  0  0  0  0
   -8.6608   16.0557  -13.2912 O   0  0  0  0  0  0  0  0  0  0  0  0
  -10.7094   17.0813  -13.7417 N   0  0  0  0  0  0  0  0  0  0  0  0
  -11.3383   16.2479  -12.7020 C   0  0  0  0  0  0  0  0  0  0  0  0
  -11.5205   18.0269  -14.4304 C   0  0  0  0  0  0  0  0  0  0  0  0
   -9.2670   23.1145  -20.2276 C   0  0  0  0  0  0  0  0  0  0  0  0
   -8.8079   21.8664  -20.9474 C   0  0  0  0  0  0  0  0  0  0  0  0
 35 36  1  0  0  0
 36  1  1  0  0  0
  1  2  1  0  0  0
  2  3  2  0  0  0
  2  4  1  0  0  0
  4  5  1  0  0  0
  5  6  1  0  0  0
  6  7  2  0  0  0
  7  8  1  0  0  0
  8  9  2  0  0  0
  9 10  1  0  0  0
 10 11  2  0  0  0
  9 24  1  0  0  0
 24 25  2  0  0  0
 25 26  1  0  0  0
 26 27  2  0  0  0
 27 28  1  0  0  0
 28 29  2  0  0  0
 27 30  1  0  0  0
 30 31  2  0  0  0
 30 32  1  0  0  0
 32 33  1  0  0  0
 32 34  1  0  0  0
  4 12  1  0  0  0
 12 13  2  0  0  0
 13 14  1  0  0  0
 13 15  1  0  0  0
 15 20  1  0  0  0
 20 21  1  0  0  0
 15 16  2  0  0  0
 16 17  1  0  0  0
 17 22  1  0  0  0
 22 23  1  0  0  0
 17 18  2  0  0  0
 18 19  1  0  0  0
 11  1  1  0  0  0
 29 24  1  0  0  0
 18 12  1  0  0  0
 11  6  1  0  0  0
M  END
> <minimizedAffinity>
-6.17838

> <CNNscore>
0.1245311350

> <CNNaffinity>
5.9200506210

> <CNN_VS>
0.7372305989

> <CNNaffinity_variance>
0.0622130334

$$$$
[H]c1nc(C(=O)N(C([H])([H])[H])C([H])([H])[H])c([H])c([H])c1-c1nc([H])c2c(c1[H])N(C([H])([H])C([H])([H])[H])C(=O)N(c1c(F)c(OC([H])([H])[H])c([H])c(OC([H])([H])[H])c1F)C2([H])[H]


 36 39  0  0  0  0  0  0  0  0999 V2000
   -7.0808   22.1304  -20.8321 N   0  0  0  0  0  0  0  0  0  0  0  0
   -6.3819   22.5712  -21.9596 C   0  0  0  0  0  0  0  0  0  0  0  0
   -6.9832   22.5431  -23.0732 O   0  0  0  0  0  0  0  0  0  0  0  0
   -5.0379   23.0482  -21.9236 N   0  0  0  0  0  0  0  0  0  0  0  0
   -4.3557   23.1800  -20.6808 C   0  0  0  0  0  0  0  0  0  0  0  0
   -5.1028   22.6320  -19.5261 C   0  0  0  0  0  0  0  0  0  0  0  0
   -4.5053   22.5883  -18.2689 C   0  0  0  0  0  0  0  0  0  0  0  0
   -5.1458   22.1277  -17.1802 N   0  0  0  0  0  0  0  0  0  0  0  0
   -6.4180   21.6681  -17.2046 C   0  0  0  0  0  0  0  0  0  0  0  0
   -7.0281   21.7015  -18.4394 C   0  0  0  0  0  0  0  0  0  0  0  0
   -6.3963   22.1702  -19.5865 C   0  0  0  0  0  0  0  0  0  0  0  0
   -4.4570   23.3541  -23.1860 C   0  0  0  0  0  0  0  0  0  0  0  0
   -3.5878   22.4621  -23.8150 C   0  0  0  0  0  0  0  0  0  0  0  0
   -3.3238   21.3137  -23.1495 F   0  0  0  0  0  0  0  0  0  0  0  0
   -3.0347   22.7463  -25.0457 C   0  0  0  0  0  0  0  0  0  0  0  0
   -3.3394   23.9337  -25.6761 C   0  0  0  0  0  0  0  0  0  0  0  0
   -4.2007   24.8407  -25.0749 C   0  0  0  0  0  0  0  0  0  0  0  0
   -4.7535   24.5343  -23.8237 C   0  0  0  0  0  0  0  0  0  0  0  0
   -5.5945   25.3959  -23.2176 F   0  0  0  0  0  0  0  0  0  0  0  0
   -2.1748   21.8599  -25.6648 O   0  0  0  0  0  0  0  0  0  0  0  0
   -0.7791   21.9088  -25.5291 C   0  0  0  0  0  0  0  0  0  0  0  0
   -4.5405   26.0476  -25.6671 O   0  0  0  0  0  0  0  0  0  0  0  0
   -5.2937   26.1386  -26.8536 C   0  0  0  0  0  0  0  0  0  0  0  0
   -7.0912   21.1702  -16.0174 C   0  0  0  0  0  0  0  0  0  0  0  0
   -6.4470   20.5475  -14.9841 C   0  0  0  0  0  0  0  0  0  0  0  0
   -7.1770   20.1195  -13.9016 C   0  0  0  0  0  0  0  0  0  0  0  0
   -8.5644   20.3021  -13.8214 C   0  0  0  0  0  0  0  0  0  0  0  0
   -9.1433   20.9198  -14.8638 N   0  0  0  0  0  0  0  0  0  0  0  0
   -8.4509   21.3353  -15.9114 C   0  0  0  0  0  0  0  0  0  0  0  0
   -9.2971   19.8374  -12.6542 C   0  0  0  0  0  0  0  0  0  0  0  0
   -9.7023   18.6232  -12.6768 O   0  0  0  0  0  0  0  0  0  0  0  0
   -9.5496   20.6687  -11.5614 N   0  0  0  0  0  0  0  0  0  0  0  0
  -10.3181   20.0982  -10.4412 C   0  0  0  0  0  0  0  0  0  0  0  0
   -9.0972   22.0140  -11.4533 C   0  0  0  0  0  0  0  0  0  0  0  0
   -9.3619   22.8023  -20.6626 C   0  0  0  0  0  0  0  0  0  0  0  0
   -8.4340   21.6467  -20.9632 C   0  0  0  0  0  0  0  0  0  0  0  0
 35 36  1  0  0  0
 36  1  1  0  0  0
  1  2  1  0  0  0
  2  3  2  0  0  0
  2  4  1  0  0  0
  4  5  1  0  0  0
  5  6  1  0  0  0
  6  7  2  0  0  0
  7  8  1  0  0  0
  8  9  2  0  0  0
  9 10  1  0  0  0
 10 11  2  0  0  0
  9 24  1  0  0  0
 24 25  2  0  0  0
 25 26  1  0  0  0
 26 27  2  0  0  0
 27 28  1  0  0  0
 28 29  2  0  0  0
 27 30  1  0  0  0
 30 31  2  0  0  0
 30 32  1  0  0  0
 32 33  1  0  0  0
 32 34  1  0  0  0
  4 12  1  0  0  0
 12 13  2  0  0  0
 13 14  1  0  0  0
 13 15  1  0  0  0
 15 20  1  0  0  0
 20 21  1  0  0  0
 15 16  2  0  0  0
 16 17  1  0  0  0
 17 22  1  0  0  0
 22 23  1  0  0  0
 17 18  2  0  0  0
 18 19  1  0  0  0
 11  1  1  0  0  0
 29 24  1  0  0  0
 18 12  1  0  0  0
 11  6  1  0  0  0
M  END
> <minimizedAffinity>
-5.97476

> <CNNscore>
0.1234223172

> <CNNaffinity>
5.8933124542

> <CNN_VS>
0.7273662686

> <CNNaffinity_variance>
0.0997581407

$$$$
[H]c1nc(C(=O)N(C([H])([H])[H])C([H])([H])[H])c([H])c([H])c1-c1nc([H])c2c(c1[H])N(C([H])([H])C([H])([H])[H])C(=O)N(c1c(F)c(OC([H])([H])[H])c([H])c(OC([H])([H])[H])c1F)C2([H])[H]


 36 39  0  0  0  0  0  0  0  0999 V2000
   -7.4740   21.8602  -20.8934 N   0  0  0  0  0  0  0  0  0  0  0  0
   -6.7794   22.5226  -21.9096 C   0  0  0  0  0  0  0  0  0  0  0  0
   -7.4581   23.1513  -22.7736 O   0  0  0  0  0  0  0  0  0  0  0  0
   -5.3574   22.5291  -22.0247 N   0  0  0  0  0  0  0  0  0  0  0  0
   -4.5533   21.9101  -21.0259 C   0  0  0  0  0  0  0  0  0  0  0  0
   -5.3287   21.1581  -20.0135 C   0  0  0  0  0  0  0  0  0  0  0  0
   -4.6650   20.4071  -19.0464 C   0  0  0  0  0  0  0  0  0  0  0  0
   -5.3166   19.7277  -18.0864 N   0  0  0  0  0  0  0  0  0  0  0  0
   -6.6645   19.7105  -17.9718 C   0  0  0  0  0  0  0  0  0  0  0  0
   -7.3413   20.4467  -18.9196 C   0  0  0  0  0  0  0  0  0  0  0  0
   -6.7007   21.1606  -19.9268 C   0  0  0  0  0  0  0  0  0  0  0  0
   -4.8344   23.1681  -23.1834 C   0  0  0  0  0  0  0  0  0  0  0  0
   -4.7108   24.5565  -23.2475 C   0  0  0  0  0  0  0  0  0  0  0  0
   -5.1300   25.2455  -22.1608 F   0  0  0  0  0  0  0  0  0  0  0  0
   -4.1897   25.1800  -24.3616 C   0  0  0  0  0  0  0  0  0  0  0  0
   -3.7800   24.4257  -25.4401 C   0  0  0  0  0  0  0  0  0  0  0  0
   -3.8907   23.0427  -25.4055 C   0  0  0  0  0  0  0  0  0  0  0  0
   -4.4227   22.4266  -24.2642 C   0  0  0  0  0  0  0  0  0  0  0  0
   -4.5400   21.0852  -24.2025 F   0  0  0  0  0  0  0  0  0  0  0  0
   -4.0691   26.5548  -24.4203 O   0  0  0  0  0  0  0  0  0  0  0  0
   -4.4555   27.3215  -25.5302 C   0  0  0  0  0  0  0  0  0  0  0  0
   -3.4921   22.2386  -26.4624 O   0  0  0  0  0  0  0  0  0  0  0  0
   -2.1823   22.2398  -26.9803 C   0  0  0  0  0  0  0  0  0  0  0  0
   -7.3501   18.9661  -16.9295 C   0  0  0  0  0  0  0  0  0  0  0  0
   -7.2814   19.2817  -15.6005 C   0  0  0  0  0  0  0  0  0  0  0  0
   -7.9747   18.5161  -14.6945 C   0  0  0  0  0  0  0  0  0  0  0  0
   -8.7534   17.4195  -15.0896 C   0  0  0  0  0  0  0  0  0  0  0  0
   -8.7846   17.1570  -16.4061 N   0  0  0  0  0  0  0  0  0  0  0  0
   -8.1206   17.8866  -17.2873 C   0  0  0  0  0  0  0  0  0  0  0  0
   -9.4749   16.6392  -14.0968 C   0  0  0  0  0  0  0  0  0  0  0  0
   -8.8287   15.6883  -13.5337 O   0  0  0  0  0  0  0  0  0  0  0  0
  -10.8054   16.9081  -13.7705 N   0  0  0  0  0  0  0  0  0  0  0  0
  -11.4433   16.0412  -12.7642 C   0  0  0  0  0  0  0  0  0  0  0  0
  -11.5710   17.9707  -14.3282 C   0  0  0  0  0  0  0  0  0  0  0  0
   -9.3295   23.1370  -20.1122 C   0  0  0  0  0  0  0  0  0  0  0  0
   -8.9163   21.8917  -20.8638 C   0  0  0  0  0  0  0  0  0  0  0  0
 35 36  1  0  0  0
 36  1  1  0  0  0
  1  2  1  0  0  0
  2  3  2  0  0  0
  2  4  1  0  0  0
  4  5  1  0  0  0
  5  6  1  0  0  0
  6  7  2  0  0  0
  7  8  1  0  0  0
  8  9  2  0  0  0
  9 10  1  0  0  0
 10 11  2  0  0  0
  9 24  1  0  0  0
 24 25  2  0  0  0
 25 26  1  0  0  0
 26 27  2  0  0  0
 27 28  1  0  0  0
 28 29  2  0  0  0
 27 30  1  0  0  0
 30 31  2  0  0  0
 30 32  1  0  0  0
 32 33  1  0  0  0
 32 34  1  0  0  0
  4 12  1  0  0  0
 12 13  2  0  0  0
 13 14  1  0  0  0
 13 15  1  0  0  0
 15 20  1  0  0  0
 20 21  1  0  0  0
 15 16  2  0  0  0
 16 17  1  0  0  0
 17 22  1  0  0  0
 22 23  1  0  0  0
 17 18  2  0  0  0
 18 19  1  0  0  0
 11  1  1  0  0  0
 29 24  1  0  0  0
 18 12  1  0  0  0
 11  6  1  0  0  0
M  END
> <minimizedAffinity>
-6.14899

> <CNNscore>
0.1200168282

> <CNNaffinity>
5.8963575363

> <CNN_VS>
0.7076621056

> <CNNaffinity_variance>
0.0491870381

$$$$
[H]c1nc(-c2c(C([H])([H])[H])nn(C([H])([H])[H])c2[H])c([H])c2c1C([H])([H])N(c1c(F)c(OC([H])([H])[H])c([H])c(OC([H])([H])[H])c1F)C(=O)N2c1c(C([H])([H])[H])nn(C([H])([H])[H])c1[H]


 37 41  0  0  0  0  0  0  0  0999 V2000
   -0.9445   22.3415  -24.0543 N   0  0  0  0  0  0  0  0  0  0  0  0
   -0.5065   22.4391  -25.4104 C   0  0  0  0  0  0  0  0  0  0  0  0
   -1.5585   22.8958  -26.3199 C   0  0  0  0  0  0  0  0  0  0  0  0
   -1.3422   22.7703  -27.6963 C   0  0  0  0  0  0  0  0  0  0  0  0
   -2.2333   23.2192  -28.5871 N   0  0  0  0  0  0  0  0  0  0  0  0
   -3.3841   23.8153  -28.2246 C   0  0  0  0  0  0  0  0  0  0  0  0
   -3.6277   23.9538  -26.8856 C   0  0  0  0  0  0  0  0  0  0  0  0
   -2.7139   23.4914  -25.9203 C   0  0  0  0  0  0  0  0  0  0  0  0
   -3.0630   23.5737  -24.5517 N   0  0  0  0  0  0  0  0  0  0  0  0
   -2.1315   22.9801  -23.6307 C   0  0  0  0  0  0  0  0  0  0  0  0
   -2.4125   23.0468  -22.3919 O   0  0  0  0  0  0  0  0  0  0  0  0
    1.8697   20.8075  -22.2528 C   0  0  0  0  0  0  0  0  0  0  0  0
    1.1985   20.0847  -21.2812 C   0  0  0  0  0  0  0  0  0  0  0  0
   -0.1732   20.0729  -21.1827 C   0  0  0  0  0  0  0  0  0  0  0  0
   -0.8788   20.8356  -22.1217 C   0  0  0  0  0  0  0  0  0  0  0  0
   -2.2248   20.8193  -22.0188 F   0  0  0  0  0  0  0  0  0  0  0  0
   -0.2238   21.5556  -23.0884 C   0  0  0  0  0  0  0  0  0  0  0  0
    1.1538   21.5573  -23.1748 C   0  0  0  0  0  0  0  0  0  0  0  0
    1.8112   22.2680  -24.1298 F   0  0  0  0  0  0  0  0  0  0  0  0
    3.9964   19.6266  -22.2210 C   0  0  0  0  0  0  0  0  0  0  0  0
    3.2584   20.8108  -22.3397 O   0  0  0  0  0  0  0  0  0  0  0  0
   -0.8408   19.3514  -20.2139 O   0  0  0  0  0  0  0  0  0  0  0  0
   -1.0579   19.9372  -18.9524 C   0  0  0  0  0  0  0  0  0  0  0  0
   -4.2610   24.1691  -24.0762 C   0  0  0  0  0  0  0  0  0  0  0  0
   -5.4088   23.4763  -23.6667 C   0  0  0  0  0  0  0  0  0  0  0  0
   -6.3153   24.3805  -23.2689 N   0  0  0  0  0  0  0  0  0  0  0  0
   -7.6557   24.0703  -22.7575 C   0  0  0  0  0  0  0  0  0  0  0  0
   -5.7931   25.5818  -23.4106 N   0  0  0  0  0  0  0  0  0  0  0  0
   -4.5482   25.4983  -23.8966 C   0  0  0  0  0  0  0  0  0  0  0  0
   -3.6380   26.6669  -24.1818 C   0  0  0  0  0  0  0  0  0  0  0  0
   -4.3062   24.2631  -29.2699 C   0  0  0  0  0  0  0  0  0  0  0  0
   -4.6103   25.5355  -29.6831 C   0  0  0  0  0  0  0  0  0  0  0  0
   -5.5174   25.5215  -30.6702 N   0  0  0  0  0  0  0  0  0  0  0  0
   -6.0741   26.6958  -31.3579 C   0  0  0  0  0  0  0  0  0  0  0  0
   -5.7961   24.2518  -30.8918 N   0  0  0  0  0  0  0  0  0  0  0  0
   -5.0924   23.4466  -30.0735 C   0  0  0  0  0  0  0  0  0  0  0  0
   -5.1570   21.9635  -30.0349 C   0  0  0  0  0  0  0  0  0  0  0  0
 20 21  1  0  0  0
 21 12  1  0  0  0
 12 13  2  0  0  0
 13 14  1  0  0  0
 14 22  1  0  0  0
 22 23  1  0  0  0
 14 15  2  0  0  0
 15 16  1  0  0  0
 15 17  1  0  0  0
 17  1  1  0  0  0
  1  2  1  0  0  0
  2  3  1  0  0  0
  3  4  2  0  0  0
  4  5  1  0  0  0
  5  6  2  0  0  0
  6  7  1  0  0  0
  7  8  2  0  0  0
  8  9  1  0  0  0
  9 10  1  0  0  0
 10 11  2  0  0  0
  9 24  1  0  0  0
 24 25  2  0  0  0
 25 26  1  0  0  0
 26 27  1  0  0  0
 26 28  1  0  0  0
 28 29  2  0  0  0
 29 30  1  0  0  0
  6 31  1  0  0  0
 31 32  2  0  0  0
 32 33  1  0  0  0
 33 34  1  0  0  0
 33 35  1  0  0  0
 35 36  2  0  0  0
 36 37  1  0  0  0
 17 18  2  0  0  0
 18 19  1  0  0  0
 18 12  1  0  0  0
 10  1  1  0  0  0
 29 24  1  0  0  0
 36 31  1  0  0  0
  8  3  1  0  0  0
M  END
> <minimizedAffinity>
-8.42062

> <CNNscore>
0.2624010146

> <CNNaffinity>
7.6386137009

> <CNN_VS>
2.0043799877

> <CNNaffinity_variance>
0.3410068452

$$$$
[H]c1nc(-c2c(C([H])([H])[H])nn(C([H])([H])[H])c2[H])c([H])c2c1C([H])([H])N(c1c(F)c(OC([H])([H])[H])c([H])c(OC([H])([H])[H])c1F)C(=O)N2c1c(C([H])([H])[H])nn(C([H])([H])[H])c1[H]


 37 41  0  0  0  0  0  0  0  0999 V2000
   -6.3992   22.6425  -20.2915 N   0  0  0  0  0  0  0  0  0  0  0  0
   -5.2198   23.0537  -19.5983 C   0  0  0  0  0  0  0  0  0  0  0  0
   -5.1639   22.5596  -18.2216 C   0  0  0  0  0  0  0  0  0  0  0  0
   -4.2104   23.1119  -17.3598 C   0  0  0  0  0  0  0  0  0  0  0  0
   -4.0622   22.6693  -16.1063 N   0  0  0  0  0  0  0  0  0  0  0  0
   -4.8108   21.6745  -15.5952 C   0  0  0  0  0  0  0  0  0  0  0  0
   -5.7537   21.1121  -16.4112 C   0  0  0  0  0  0  0  0  0  0  0  0
   -5.9389   21.5539  -17.7345 C   0  0  0  0  0  0  0  0  0  0  0  0
   -6.9934   21.0023  -18.4997 N   0  0  0  0  0  0  0  0  0  0  0  0
   -7.1925   21.5813  -19.8010 C   0  0  0  0  0  0  0  0  0  0  0  0
   -8.1270   21.0999  -20.5172 O   0  0  0  0  0  0  0  0  0  0  0  0
   -8.0900   25.0996  -22.4414 C   0  0  0  0  0  0  0  0  0  0  0  0
   -7.7207   24.6494  -23.6975 C   0  0  0  0  0  0  0  0  0  0  0  0
   -6.9207   23.5462  -23.8829 C   0  0  0  0  0  0  0  0  0  0  0  0
   -6.4853   22.8827  -22.7291 C   0  0  0  0  0  0  0  0  0  0  0  0
   -5.7005   21.8008  -22.9188 F   0  0  0  0  0  0  0  0  0  0  0  0
   -6.8451   23.3202  -21.4797 C   0  0  0  0  0  0  0  0  0  0  0  0
   -7.6491   24.4293  -21.3095 C   0  0  0  0  0  0  0  0  0  0  0  0
   -8.0107   24.8698  -20.0748 F   0  0  0  0  0  0  0  0  0  0  0  0
  -10.2936   26.1272  -22.3615 C   0  0  0  0  0  0  0  0  0  0  0  0
   -8.8993   26.2182  -22.2690 O   0  0  0  0  0  0  0  0  0  0  0  0
   -6.5539   23.0985  -25.1359 O   0  0  0  0  0  0  0  0  0  0  0  0
   -6.5883   23.9955  -26.2202 C   0  0  0  0  0  0  0  0  0  0  0  0
   -7.8442   19.9632  -18.0391 C   0  0  0  0  0  0  0  0  0  0  0  0
   -7.6429   18.5918  -18.2487 C   0  0  0  0  0  0  0  0  0  0  0  0
   -8.6440   17.9324  -17.6482 N   0  0  0  0  0  0  0  0  0  0  0  0
   -8.8049   16.4737  -17.6230 C   0  0  0  0  0  0  0  0  0  0  0  0
   -9.4442   18.8153  -17.0858 N   0  0  0  0  0  0  0  0  0  0  0  0
   -8.9948   20.0587  -17.2985 C   0  0  0  0  0  0  0  0  0  0  0  0
   -9.6464   21.3240  -16.7989 C   0  0  0  0  0  0  0  0  0  0  0  0
   -4.5871   21.2651  -14.2074 C   0  0  0  0  0  0  0  0  0  0  0  0
   -3.8241   20.2396  -13.7091 C   0  0  0  0  0  0  0  0  0  0  0  0
   -3.8896   20.1918  -12.3709 N   0  0  0  0  0  0  0  0  0  0  0  0
   -3.1998   19.2295  -11.4991 C   0  0  0  0  0  0  0  0  0  0  0  0
   -4.6876   21.1773  -12.0091 N   0  0  0  0  0  0  0  0  0  0  0  0
   -5.1384   21.8595  -13.0790 C   0  0  0  0  0  0  0  0  0  0  0  0
   -6.0610   23.0228  -13.0518 C   0  0  0  0  0  0  0  0  0  0  0  0
 20 21  1  0  0  0
 21 12  1  0  0  0
 12 13  2  0  0  0
 13 14  1  0  0  0
 14 22  1  0  0  0
 22 23  1  0  0  0
 14 15  2  0  0  0
 15 16  1  0  0  0
 15 17  1  0  0  0
 17  1  1  0  0  0
  1  2  1  0  0  0
  2  3  1  0  0  0
  3  4  2  0  0  0
  4  5  1  0  0  0
  5  6  2  0  0  0
  6  7  1  0  0  0
  7  8  2  0  0  0
  8  9  1  0  0  0
  9 10  1  0  0  0
 10 11  2  0  0  0
  9 24  1  0  0  0
 24 25  2  0  0  0
 25 26  1  0  0  0
 26 27  1  0  0  0
 26 28  1  0  0  0
 28 29  2  0  0  0
 29 30  1  0  0  0
  6 31  1  0  0  0
 31 32  2  0  0  0
 32 33  1  0  0  0
 33 34  1  0  0  0
 33 35  1  0  0  0
 35 36  2  0  0  0
 36 37  1  0  0  0
 17 18  2  0  0  0
 18 19  1  0  0  0
 18 12  1  0  0  0
 10  1  1  0  0  0
 29 24  1  0  0  0
 36 31  1  0  0  0
  8  3  1  0  0  0
M  END
> <minimizedAffinity>
-5.68076

> <CNNscore>
0.2564986944

> <CNNaffinity>
6.4494414330

> <CNN_VS>
1.6542732716

> <CNNaffinity_variance>
0.0905464143

$$$$
[H]c1nc(-c2c(C([H])([H])[H])nn(C([H])([H])[H])c2[H])c([H])c2c1C([H])([H])N(c1c(F)c(OC([H])([H])[H])c([H])c(OC([H])([H])[H])c1F)C(=O)N2c1c(C([H])([H])[H])nn(C([H])([H])[H])c1[H]


 37 41  0  0  0  0  0  0  0  0999 V2000
   -7.2569   23.5546  -19.7394 N   0  0  0  0  0  0  0  0  0  0  0  0
   -6.2295   24.1484  -18.9441 C   0  0  0  0  0  0  0  0  0  0  0  0
   -6.2839   23.7381  -17.5400 C   0  0  0  0  0  0  0  0  0  0  0  0
   -5.5167   24.4517  -16.6131 C   0  0  0  0  0  0  0  0  0  0  0  0
   -5.4713   24.0977  -15.3240 N   0  0  0  0  0  0  0  0  0  0  0  0
   -6.1518   23.0436  -14.8370 C   0  0  0  0  0  0  0  0  0  0  0  0
   -6.9130   22.3238  -15.7167 C   0  0  0  0  0  0  0  0  0  0  0  0
   -6.9862   22.6686  -17.0792 C   0  0  0  0  0  0  0  0  0  0  0  0
   -7.8648   21.9480  -17.9219 N   0  0  0  0  0  0  0  0  0  0  0  0
   -7.9710   22.4281  -19.2734 C   0  0  0  0  0  0  0  0  0  0  0  0
   -8.7458   21.7948  -20.0587 O   0  0  0  0  0  0  0  0  0  0  0  0
   -7.3439   24.1203  -23.3713 C   0  0  0  0  0  0  0  0  0  0  0  0
   -8.3036   25.1142  -23.4605 C   0  0  0  0  0  0  0  0  0  0  0  0
   -8.9444   25.6259  -22.3565 C   0  0  0  0  0  0  0  0  0  0  0  0
   -8.5815   25.0920  -21.1137 C   0  0  0  0  0  0  0  0  0  0  0  0
   -9.2145   25.5990  -20.0346 F   0  0  0  0  0  0  0  0  0  0  0  0
   -7.6320   24.1070  -21.0138 C   0  0  0  0  0  0  0  0  0  0  0  0
   -6.9971   23.6035  -22.1313 C   0  0  0  0  0  0  0  0  0  0  0  0
   -6.0547   22.6272  -22.0415 F   0  0  0  0  0  0  0  0  0  0  0  0
   -5.5322   24.1954  -24.9932 C   0  0  0  0  0  0  0  0  0  0  0  0
   -6.7044   23.6114  -24.4974 O   0  0  0  0  0  0  0  0  0  0  0  0
   -9.9005   26.6171  -22.4472 O   0  0  0  0  0  0  0  0  0  0  0  0
  -11.2538   26.2524  -22.5785 C   0  0  0  0  0  0  0  0  0  0  0  0
   -8.6345   20.8344  -17.4938 C   0  0  0  0  0  0  0  0  0  0  0  0
   -9.8941   20.9009  -16.8821 C   0  0  0  0  0  0  0  0  0  0  0  0
  -10.3035   19.6463  -16.6456 N   0  0  0  0  0  0  0  0  0  0  0  0
  -11.5784   19.2730  -16.0214 C   0  0  0  0  0  0  0  0  0  0  0  0
   -9.3725   18.8182  -17.0738 N   0  0  0  0  0  0  0  0  0  0  0  0
   -8.3437   19.4978  -17.5960 C   0  0  0  0  0  0  0  0  0  0  0  0
   -7.1005   18.8857  -18.1917 C   0  0  0  0  0  0  0  0  0  0  0  0
   -6.0524   22.7391  -13.4084 C   0  0  0  0  0  0  0  0  0  0  0  0
   -5.1349   21.9699  -12.7388 C   0  0  0  0  0  0  0  0  0  0  0  0
   -5.3984   21.9337  -11.4248 N   0  0  0  0  0  0  0  0  0  0  0  0
   -4.6269   21.2131  -10.4014 C   0  0  0  0  0  0  0  0  0  0  0  0
   -6.4761   22.6728  -11.2482 N   0  0  0  0  0  0  0  0  0  0  0  0
   -6.9145   23.1847  -12.4140 C   0  0  0  0  0  0  0  0  0  0  0  0
   -8.1043   24.0541  -12.5973 C   0  0  0  0  0  0  0  0  0  0  0  0
 20 21  1  0  0  0
 21 12  1  0  0  0
 12 13  2  0  0  0
 13 14  1  0  0  0
 14 22  1  0  0  0
 22 23  1  0  0  0
 14 15  2  0  0  0
 15 16  1  0  0  0
 15 17  1  0  0  0
 17  1  1  0  0  0
  1  2  1  0  0  0
  2  3  1  0  0  0
  3  4  2  0  0  0
  4  5  1  0  0  0
  5  6  2  0  0  0
  6  7  1  0  0  0
  7  8  2  0  0  0
  8  9  1  0  0  0
  9 10  1  0  0  0
 10 11  2  0  0  0
  9 24  1  0  0  0
 24 25  2  0  0  0
 25 26  1  0  0  0
 26 27  1  0  0  0
 26 28  1  0  0  0
 28 29  2  0  0  0
 29 30  1  0  0  0
  6 31  1  0  0  0
 31 32  2  0  0  0
 32 33  1  0  0  0
 33 34  1  0  0  0
 33 35  1  0  0  0
 35 36  2  0  0  0
 36 37  1  0  0  0
 17 18  2  0  0  0
 18 19  1  0  0  0
 18 12  1  0  0  0
 10  1  1  0  0  0
 29 24  1  0  0  0
 36 31  1  0  0  0
  8  3  1  0  0  0
M  END
> <minimizedAffinity>
-5.89466

> <CNNscore>
0.1767555326

> <CNNaffinity>
6.2045402527

> <CNN_VS>
1.0966868401

> <CNNaffinity_variance>
0.0250656195

$$$$
[H]c1nc(-c2c(C([H])([H])[H])nn(C([H])([H])[H])c2[H])c([H])c2c1C([H])([H])N(c1c(F)c(OC([H])([H])[H])c([H])c(OC([H])([H])[H])c1F)C(=O)N2c1c(C([H])([H])[H])nn(C([H])([H])[H])c1[H]


 37 41  0  0  0  0  0  0  0  0999 V2000
   -2.9044   22.2318  -19.1871 N   0  0  0  0  0  0  0  0  0  0  0  0
   -3.3756   22.5375  -20.5005 C   0  0  0  0  0  0  0  0  0  0  0  0
   -4.7904   22.9119  -20.5279 C   0  0  0  0  0  0  0  0  0  0  0  0
   -5.4357   22.9653  -21.7679 C   0  0  0  0  0  0  0  0  0  0  0  0
   -6.7104   23.3557  -21.8757 N   0  0  0  0  0  0  0  0  0  0  0  0
   -7.4499   23.7199  -20.8118 C   0  0  0  0  0  0  0  0  0  0  0  0
   -6.8496   23.6787  -19.5833 C   0  0  0  0  0  0  0  0  0  0  0  0
   -5.5111   23.2709  -19.4320 C   0  0  0  0  0  0  0  0  0  0  0  0
   -4.9735   23.1548  -18.1286 N   0  0  0  0  0  0  0  0  0  0  0  0
   -3.6388   22.6256  -18.0462 C   0  0  0  0  0  0  0  0  0  0  0  0
   -3.1238   22.5184  -16.8880 O   0  0  0  0  0  0  0  0  0  0  0  0
   -0.6858   19.3790  -18.5108 C   0  0  0  0  0  0  0  0  0  0  0  0
    0.5558   19.9876  -18.5820 C   0  0  0  0  0  0  0  0  0  0  0  0
    0.7089   21.3281  -18.8483 C   0  0  0  0  0  0  0  0  0  0  0  0
   -0.4628   22.0684  -19.0487 C   0  0  0  0  0  0  0  0  0  0  0  0
   -0.3048   23.3835  -19.3097 F   0  0  0  0  0  0  0  0  0  0  0  0
   -1.6980   21.4755  -18.9806 C   0  0  0  0  0  0  0  0  0  0  0  0
   -1.8357   20.1286  -18.7121 C   0  0  0  0  0  0  0  0  0  0  0  0
   -3.0561   19.5327  -18.6426 F   0  0  0  0  0  0  0  0  0  0  0  0
    0.1548   17.3169  -17.5313 C   0  0  0  0  0  0  0  0  0  0  0  0
   -0.8254   18.0210  -18.2415 O   0  0  0  0  0  0  0  0  0  0  0  0
    1.9473   21.9334  -18.9184 O   0  0  0  0  0  0  0  0  0  0  0  0
    2.8610   21.5102  -19.9021 C   0  0  0  0  0  0  0  0  0  0  0  0
   -5.6827   23.4991  -16.9477 C   0  0  0  0  0  0  0  0  0  0  0  0
   -5.5185   24.6821  -16.2140 C   0  0  0  0  0  0  0  0  0  0  0  0
   -6.3746   24.6489  -15.1826 N   0  0  0  0  0  0  0  0  0  0  0  0
   -6.5276   25.7026  -14.1722 C   0  0  0  0  0  0  0  0  0  0  0  0
   -7.0505   23.5194  -15.2404 N   0  0  0  0  0  0  0  0  0  0  0  0
   -6.6622   22.7934  -16.2964 C   0  0  0  0  0  0  0  0  0  0  0  0
   -7.2188   21.4471  -16.6873 C   0  0  0  0  0  0  0  0  0  0  0  0
   -8.8420   24.1203  -21.0243 C   0  0  0  0  0  0  0  0  0  0  0  0
   -9.3562   25.1111  -21.8217 C   0  0  0  0  0  0  0  0  0  0  0  0
  -10.6928   25.1632  -21.7301 N   0  0  0  0  0  0  0  0  0  0  0  0
  -11.5789   26.0945  -22.4437 C   0  0  0  0  0  0  0  0  0  0  0  0
  -11.0377   24.2147  -20.8814 N   0  0  0  0  0  0  0  0  0  0  0  0
   -9.9586   23.5522  -20.4233 C   0  0  0  0  0  0  0  0  0  0  0  0
   -9.9663   22.4314  -19.4493 C   0  0  0  0  0  0  0  0  0  0  0  0
 20 21  1  0  0  0
 21 12  1  0  0  0
 12 13  2  0  0  0
 13 14  1  0  0  0
 14 22  1  0  0  0
 22 23  1  0  0  0
 14 15  2  0  0  0
 15 16  1  0  0  0
 15 17  1  0  0  0
 17  1  1  0  0  0
  1  2  1  0  0  0
  2  3  1  0  0  0
  3  4  2  0  0  0
  4  5  1  0  0  0
  5  6  2  0  0  0
  6  7  1  0  0  0
  7  8  2  0  0  0
  8  9  1  0  0  0
  9 10  1  0  0  0
 10 11  2  0  0  0
  9 24  1  0  0  0
 24 25  2  0  0  0
 25 26  1  0  0  0
 26 27  1  0  0  0
 26 28  1  0  0  0
 28 29  2  0  0  0
 29 30  1  0  0  0
  6 31  1  0  0  0
 31 32  2  0  0  0
 32 33  1  0  0  0
 33 34  1  0  0  0
 33 35  1  0  0  0
 35 36  2  0  0  0
 36 37  1  0  0  0
 17 18  2  0  0  0
 18 19  1  0  0  0
 18 12  1  0  0  0
 10  1  1  0  0  0
 29 24  1  0  0  0
 36 31  1  0  0  0
  8  3  1  0  0  0
M  END
> <minimizedAffinity>
-5.98825

> <CNNscore>
0.1649258584

> <CNNaffinity>
6.1480603218

> <CNN_VS>
1.0139740705

> <CNNaffinity_variance>
0.0851042122

$$$$
[H]c1nc(-c2c(C([H])([H])[H])nn(C([H])([H])[H])c2[H])c([H])c2c1C([H])([H])N(c1c(F)c(OC([H])([H])[H])c([H])c(OC([H])([H])[H])c1F)C(=O)N2c1c(C([H])([H])[H])nn(C([H])([H])[H])c1[H]


 37 41  0  0  0  0  0  0  0  0999 V2000
   -6.2293   22.5229  -19.8917 N   0  0  0  0  0  0  0  0  0  0  0  0
   -5.5440   23.4351  -19.0321 C   0  0  0  0  0  0  0  0  0  0  0  0
   -6.1222   23.4995  -17.6889 C   0  0  0  0  0  0  0  0  0  0  0  0
   -5.7227   24.5431  -16.8472 C   0  0  0  0  0  0  0  0  0  0  0  0
   -6.1641   24.6325  -15.5877 N   0  0  0  0  0  0  0  0  0  0  0  0
   -7.0117   23.7354  -15.0509 C   0  0  0  0  0  0  0  0  0  0  0  0
   -7.4230   22.7020  -15.8471 C   0  0  0  0  0  0  0  0  0  0  0  0
   -6.9809   22.5775  -17.1774 C   0  0  0  0  0  0  0  0  0  0  0  0
   -7.5150   21.5443  -17.9829 N   0  0  0  0  0  0  0  0  0  0  0  0
   -7.1030   21.5477  -19.3608 C   0  0  0  0  0  0  0  0  0  0  0  0
   -7.5585   20.6250  -20.1086 O   0  0  0  0  0  0  0  0  0  0  0  0
   -6.8255   23.5389  -23.3746 C   0  0  0  0  0  0  0  0  0  0  0  0
   -5.8800   22.7751  -24.0377 C   0  0  0  0  0  0  0  0  0  0  0  0
   -5.0299   21.9159  -23.3816 C   0  0  0  0  0  0  0  0  0  0  0  0
   -5.1599   21.8422  -21.9893 C   0  0  0  0  0  0  0  0  0  0  0  0
   -4.3220   20.9969  -21.3520 F   0  0  0  0  0  0  0  0  0  0  0  0
   -6.0930   22.5945  -21.3222 C   0  0  0  0  0  0  0  0  0  0  0  0
   -6.9399   23.4524  -21.9946 C   0  0  0  0  0  0  0  0  0  0  0  0
   -7.8678   24.2017  -21.3414 F   0  0  0  0  0  0  0  0  0  0  0  0
   -7.1833   25.5096  -24.7553 C   0  0  0  0  0  0  0  0  0  0  0  0
   -7.6786   24.4049  -24.0516 O   0  0  0  0  0  0  0  0  0  0  0  0
   -4.0883   21.1549  -24.0443 O   0  0  0  0  0  0  0  0  0  0  0  0
   -3.4202   21.7065  -25.1538 C   0  0  0  0  0  0  0  0  0  0  0  0
   -8.4261   20.5638  -17.5092 C   0  0  0  0  0  0  0  0  0  0  0  0
   -8.0746   19.3349  -16.9338 C   0  0  0  0  0  0  0  0  0  0  0  0
   -9.2061   18.6991  -16.5977 N   0  0  0  0  0  0  0  0  0  0  0  0
   -9.2809   17.3797  -15.9589 C   0  0  0  0  0  0  0  0  0  0  0  0
  -10.2264   19.4625  -16.9327 N   0  0  0  0  0  0  0  0  0  0  0  0
   -9.7971   20.6029  -17.4878 C   0  0  0  0  0  0  0  0  0  0  0  0
  -10.6779   21.7211  -17.9870 C   0  0  0  0  0  0  0  0  0  0  0  0
   -7.4521   23.9217  -13.6671 C   0  0  0  0  0  0  0  0  0  0  0  0
   -8.5720   24.5477  -13.1814 C   0  0  0  0  0  0  0  0  0  0  0  0
   -8.6062   24.5108  -11.8416 N   0  0  0  0  0  0  0  0  0  0  0  0
   -9.6561   25.0761  -10.9814 C   0  0  0  0  0  0  0  0  0  0  0  0
   -7.5182   23.8670  -11.4664 N   0  0  0  0  0  0  0  0  0  0  0  0
   -6.7834   23.4876  -12.5291 C   0  0  0  0  0  0  0  0  0  0  0  0
   -5.4942   22.7520  -12.4858 C   0  0  0  0  0  0  0  0  0  0  0  0
 20 21  1  0  0  0
 21 12  1  0  0  0
 12 13  2  0  0  0
 13 14  1  0  0  0
 14 22  1  0  0  0
 22 23  1  0  0  0
 14 15  2  0  0  0
 15 16  1  0  0  0
 15 17  1  0  0  0
 17  1  1  0  0  0
  1  2  1  0  0  0
  2  3  1  0  0  0
  3  4  2  0  0  0
  4  5  1  0  0  0
  5  6  2  0  0  0
  6  7  1  0  0  0
  7  8  2  0  0  0
  8  9  1  0  0  0
  9 10  1  0  0  0
 10 11  2  0  0  0
  9 24  1  0  0  0
 24 25  2  0  0  0
 25 26  1  0  0  0
 26 27  1  0  0  0
 26 28  1  0  0  0
 28 29  2  0  0  0
 29 30  1  0  0  0
  6 31  1  0  0  0
 31 32  2  0  0  0
 32 33  1  0  0  0
 33 34  1  0  0  0
 33 35  1  0  0  0
 35 36  2  0  0  0
 36 37  1  0  0  0
 17 18  2  0  0  0
 18 19  1  0  0  0
 18 12  1  0  0  0
 10  1  1  0  0  0
 29 24  1  0  0  0
 36 31  1  0  0  0
  8  3  1  0  0  0
M  END
> <minimizedAffinity>
-6.28142

> <CNNscore>
0.1578219831

> <CNNaffinity>
6.2169828415

> <CNN_VS>
0.9811765552

> <CNNaffinity_variance>
0.0279804263

$$$$
[H]c1nc(-c2c(C([H])([H])[H])nn(C([H])([H])[H])c2[H])c([H])c2c1C([H])([H])N(c1c(F)c(OC([H])([H])[H])c([H])c(OC([H])([H])[H])c1F)C(=O)N2c1c(C([H])([H])[H])nn(C([H])([H])[H])c1[H]


 37 41  0  0  0  0  0  0  0  0999 V2000
   -6.2603   22.6345  -20.0916 N   0  0  0  0  0  0  0  0  0  0  0  0
   -5.5106   23.5024  -19.2400 C   0  0  0  0  0  0  0  0  0  0  0  0
   -6.0271   23.5469  -17.8711 C   0  0  0  0  0  0  0  0  0  0  0  0
   -5.5596   24.5549  -17.0212 C   0  0  0  0  0  0  0  0  0  0  0  0
   -5.9424   24.6226  -15.7414 N   0  0  0  0  0  0  0  0  0  0  0  0
   -6.7924   23.7363  -15.1907 C   0  0  0  0  0  0  0  0  0  0  0  0
   -7.2695   22.7375  -15.9945 C   0  0  0  0  0  0  0  0  0  0  0  0
   -6.8902   22.6366  -17.3460 C   0  0  0  0  0  0  0  0  0  0  0  0
   -7.4902   21.6419  -18.1535 N   0  0  0  0  0  0  0  0  0  0  0  0
   -7.1390   21.6709  -19.5478 C   0  0  0  0  0  0  0  0  0  0  0  0
   -7.6548   20.7827  -20.2983 O   0  0  0  0  0  0  0  0  0  0  0  0
   -5.1481   22.0536  -23.5476 C   0  0  0  0  0  0  0  0  0  0  0  0
   -5.9957   22.8990  -24.2431 C   0  0  0  0  0  0  0  0  0  0  0  0
   -6.9434   23.6754  -23.6182 C   0  0  0  0  0  0  0  0  0  0  0  0
   -7.0196   23.5757  -22.2234 C   0  0  0  0  0  0  0  0  0  0  0  0
   -7.9521   24.3405  -21.6169 F   0  0  0  0  0  0  0  0  0  0  0  0
   -6.1848   22.7411  -21.5244 C   0  0  0  0  0  0  0  0  0  0  0  0
   -5.2381   21.9680  -22.1658 C   0  0  0  0  0  0  0  0  0  0  0  0
   -4.4066   21.1383  -21.4807 F   0  0  0  0  0  0  0  0  0  0  0  0
   -3.5076   21.7477  -25.3177 C   0  0  0  0  0  0  0  0  0  0  0  0
   -4.1944   21.2730  -24.1935 O   0  0  0  0  0  0  0  0  0  0  0  0
   -7.7872   24.5181  -24.3130 O   0  0  0  0  0  0  0  0  0  0  0  0
   -7.5609   24.7337  -25.6856 C   0  0  0  0  0  0  0  0  0  0  0  0
   -8.4090   20.6758  -17.6652 C   0  0  0  0  0  0  0  0  0  0  0  0
   -8.0698   19.4231  -17.1353 C   0  0  0  0  0  0  0  0  0  0  0  0
   -9.2044   18.8112  -16.7668 N   0  0  0  0  0  0  0  0  0  0  0  0
   -9.2909   17.4787  -16.1575 C   0  0  0  0  0  0  0  0  0  0  0  0
  -10.2150   19.6115  -17.0393 N   0  0  0  0  0  0  0  0  0  0  0  0
   -9.7761   20.7531  -17.5844 C   0  0  0  0  0  0  0  0  0  0  0  0
  -10.6438   21.9081  -18.0183 C   0  0  0  0  0  0  0  0  0  0  0  0
   -7.1659   23.8974  -13.7843 C   0  0  0  0  0  0  0  0  0  0  0  0
   -8.2710   24.4966  -13.2348 C   0  0  0  0  0  0  0  0  0  0  0  0
   -8.2370   24.4426  -11.8957 N   0  0  0  0  0  0  0  0  0  0  0  0
   -9.2521   24.9778  -10.9765 C   0  0  0  0  0  0  0  0  0  0  0  0
   -7.1202   23.8145  -11.5839 N   0  0  0  0  0  0  0  0  0  0  0  0
   -6.4331   23.4619  -12.6871 C   0  0  0  0  0  0  0  0  0  0  0  0
   -5.1304   22.7498  -12.7181 C   0  0  0  0  0  0  0  0  0  0  0  0
 20 21  1  0  0  0
 21 12  1  0  0  0
 12 13  2  0  0  0
 13 14  1  0  0  0
 14 22  1  0  0  0
 22 23  1  0  0  0
 14 15  2  0  0  0
 15 16  1  0  0  0
 15 17  1  0  0  0
 17  1  1  0  0  0
  1  2  1  0  0  0
  2  3  1  0  0  0
  3  4  2  0  0  0
  4  5  1  0  0  0
  5  6  2  0  0  0
  6  7  1  0  0  0
  7  8  2  0  0  0
  8  9  1  0  0  0
  9 10  1  0  0  0
 10 11  2  0  0  0
  9 24  1  0  0  0
 24 25  2  0  0  0
 25 26  1  0  0  0
 26 27  1  0  0  0
 26 28  1  0  0  0
 28 29  2  0  0  0
 29 30  1  0  0  0
  6 31  1  0  0  0
 31 32  2  0  0  0
 32 33  1  0  0  0
 33 34  1  0  0  0
 33 35  1  0  0  0
 35 36  2  0  0  0
 36 37  1  0  0  0
 17 18  2  0  0  0
 18 19  1  0  0  0
 18 12  1  0  0  0
 10  1  1  0  0  0
 29 24  1  0  0  0
 36 31  1  0  0  0
  8  3  1  0  0  0
M  END
> <minimizedAffinity>
-6.45002

> <CNNscore>
0.1416345686

> <CNNaffinity>
6.1974143982

> <CNN_VS>
0.8777680993

> <CNNaffinity_variance>
0.0618284121

$$$$
[H]c1nc(-c2c(C([H])([H])[H])nn(C([H])([H])[H])c2[H])c([H])c2c1C([H])([H])N(c1c(F)c(OC([H])([H])[H])c([H])c(OC([H])([H])[H])c1F)C(=O)N2c1c(C([H])([H])[H])nn(C([H])([H])[H])c1[H]


 37 41  0  0  0  0  0  0  0  0999 V2000
   -0.6632   21.5735  -20.9819 N   0  0  0  0  0  0  0  0  0  0  0  0
    0.1337   21.7941  -22.1468 C   0  0  0  0  0  0  0  0  0  0  0  0
   -0.6655   22.0142  -23.3532 C   0  0  0  0  0  0  0  0  0  0  0  0
   -0.0179   21.9672  -24.5923 C   0  0  0  0  0  0  0  0  0  0  0  0
   -0.6719   22.2163  -25.7321 N   0  0  0  0  0  0  0  0  0  0  0  0
   -1.9812   22.5258  -25.7643 C   0  0  0  0  0  0  0  0  0  0  0  0
   -2.6456   22.5799  -24.5697 C   0  0  0  0  0  0  0  0  0  0  0  0
   -1.9903   22.3214  -23.3513 C   0  0  0  0  0  0  0  0  0  0  0  0
   -2.7488   22.2962  -22.1574 N   0  0  0  0  0  0  0  0  0  0  0  0
   -2.0341   21.9150  -20.9691 C   0  0  0  0  0  0  0  0  0  0  0  0
   -2.6866   21.8924  -19.8774 O   0  0  0  0  0  0  0  0  0  0  0  0
    0.5973   18.9710  -18.7110 C   0  0  0  0  0  0  0  0  0  0  0  0
    0.9262   19.7278  -17.5992 C   0  0  0  0  0  0  0  0  0  0  0  0
    0.7502   21.0910  -17.5531 C   0  0  0  0  0  0  0  0  0  0  0  0
    0.2150   21.6961  -18.6969 C   0  0  0  0  0  0  0  0  0  0  0  0
    0.0451   23.0343  -18.6445 F   0  0  0  0  0  0  0  0  0  0  0  0
   -0.1143   20.9559  -19.8040 C   0  0  0  0  0  0  0  0  0  0  0  0
    0.0679   19.5880  -19.8353 C   0  0  0  0  0  0  0  0  0  0  0  0
   -0.2558   18.8466  -20.9283 F   0  0  0  0  0  0  0  0  0  0  0  0
   -0.2107   16.7156  -18.2884 C   0  0  0  0  0  0  0  0  0  0  0  0
    0.7818   17.5923  -18.7437 O   0  0  0  0  0  0  0  0  0  0  0  0
    1.0781   21.8438  -16.4437 O   0  0  0  0  0  0  0  0  0  0  0  0
    2.3735   22.3854  -16.3429 C   0  0  0  0  0  0  0  0  0  0  0  0
   -4.1361   22.5921  -22.0961 C   0  0  0  0  0  0  0  0  0  0  0  0
   -5.1596   21.6594  -21.8781 C   0  0  0  0  0  0  0  0  0  0  0  0
   -6.3251   22.3220  -21.8684 N   0  0  0  0  0  0  0  0  0  0  0  0
   -7.6452   21.7145  -21.6623 C   0  0  0  0  0  0  0  0  0  0  0  0
   -6.0773   23.6006  -22.0676 N   0  0  0  0  0  0  0  0  0  0  0  0
   -4.7619   23.8073  -22.2097 C   0  0  0  0  0  0  0  0  0  0  0  0
   -4.1048   25.1446  -22.4445 C   0  0  0  0  0  0  0  0  0  0  0  0
   -2.6167   22.7696  -27.0605 C   0  0  0  0  0  0  0  0  0  0  0  0
   -3.9466   22.7722  -27.3972 C   0  0  0  0  0  0  0  0  0  0  0  0
   -4.1167   23.0325  -28.7013 N   0  0  0  0  0  0  0  0  0  0  0  0
   -5.4011   23.1185  -29.4118 C   0  0  0  0  0  0  0  0  0  0  0  0
   -2.9076   23.1964  -29.2015 N   0  0  0  0  0  0  0  0  0  0  0  0
   -1.9622   23.0486  -28.2541 C   0  0  0  0  0  0  0  0  0  0  0  0
   -0.4949   23.1548  -28.4559 C   0  0  0  0  0  0  0  0  0  0  0  0
 20 21  1  0  0  0
 21 12  1  0  0  0
 12 13  2  0  0  0
 13 14  1  0  0  0
 14 22  1  0  0  0
 22 23  1  0  0  0
 14 15  2  0  0  0
 15 16  1  0  0  0
 15 17  1  0  0  0
 17  1  1  0  0  0
  1  2  1  0  0  0
  2  3  1  0  0  0
  3  4  2  0  0  0
  4  5  1  0  0  0
  5  6  2  0  0  0
  6  7  1  0  0  0
  7  8  2  0  0  0
  8  9  1  0  0  0
  9 10  1  0  0  0
 10 11  2  0  0  0
  9 24  1  0  0  0
 24 25  2  0  0  0
 25 26  1  0  0  0
 26 27  1  0  0  0
 26 28  1  0  0  0
 28 29  2  0  0  0
 29 30  1  0  0  0
  6 31  1  0  0  0
 31 32  2  0  0  0
 32 33  1  0  0  0
 33 34  1  0  0  0
 33 35  1  0  0  0
 35 36  2  0  0  0
 36 37  1  0  0  0
 17 18  2  0  0  0
 18 19  1  0  0  0
 18 12  1  0  0  0
 10  1  1  0  0  0
 29 24  1  0  0  0
 36 31  1  0  0  0
  8  3  1  0  0  0
M  END
> <minimizedAffinity>
-7.66746

> <CNNscore>
0.1016379297

> <CNNaffinity>
7.0914916992

> <CNN_VS>
0.7207645178

> <CNNaffinity_variance>
0.0543404818

$$$$
[H]c1nc(-c2c(C([H])([H])[H])nn(C([H])([H])[H])c2[H])c([H])c2c1C([H])([H])N(c1c(F)c(OC([H])([H])[H])c([H])c(OC([H])([H])[H])c1F)C(=O)N2c1c(C([H])([H])[H])nn(C([H])([H])[H])c1[H]


 37 41  0  0  0  0  0  0  0  0999 V2000
   -4.8947   22.6149  -19.1080 N   0  0  0  0  0  0  0  0  0  0  0  0
   -3.5027   22.3027  -19.0332 C   0  0  0  0  0  0  0  0  0  0  0  0
   -2.8580   22.2456  -20.3461 C   0  0  0  0  0  0  0  0  0  0  0  0
   -1.5788   21.6856  -20.4300 C   0  0  0  0  0  0  0  0  0  0  0  0
   -0.9051   21.6527  -21.5850 N   0  0  0  0  0  0  0  0  0  0  0  0
   -1.4055   22.1505  -22.7309 C   0  0  0  0  0  0  0  0  0  0  0  0
   -2.6550   22.7053  -22.6845 C   0  0  0  0  0  0  0  0  0  0  0  0
   -3.3936   22.7550  -21.4875 C   0  0  0  0  0  0  0  0  0  0  0  0
   -4.7179   23.2518  -21.5199 N   0  0  0  0  0  0  0  0  0  0  0  0
   -5.4489   23.1675  -20.2843 C   0  0  0  0  0  0  0  0  0  0  0  0
   -6.6395   23.6153  -20.2787 O   0  0  0  0  0  0  0  0  0  0  0  0
   -7.2087   20.7834  -16.9150 C   0  0  0  0  0  0  0  0  0  0  0  0
   -7.4823   21.7456  -15.9578 C   0  0  0  0  0  0  0  0  0  0  0  0
   -6.9303   23.0048  -15.9950 C   0  0  0  0  0  0  0  0  0  0  0  0
   -6.0636   23.2815  -17.0595 C   0  0  0  0  0  0  0  0  0  0  0  0
   -5.5256   24.5192  -17.0895 F   0  0  0  0  0  0  0  0  0  0  0  0
   -5.7855   22.3355  -18.0133 C   0  0  0  0  0  0  0  0  0  0  0  0
   -6.3475   21.0758  -17.9627 C   0  0  0  0  0  0  0  0  0  0  0  0
   -6.0775   20.1322  -18.9039 F   0  0  0  0  0  0  0  0  0  0  0  0
   -9.1504   19.3229  -17.0371 C   0  0  0  0  0  0  0  0  0  0  0  0
   -7.7739   19.5130  -16.8640 O   0  0  0  0  0  0  0  0  0  0  0  0
   -7.2045   23.9630  -15.0402 O   0  0  0  0  0  0  0  0  0  0  0  0
   -7.8871   23.5856  -13.8683 C   0  0  0  0  0  0  0  0  0  0  0  0
   -5.3353   23.7807  -22.6839 C   0  0  0  0  0  0  0  0  0  0  0  0
   -5.3673   25.1346  -23.0459 C   0  0  0  0  0  0  0  0  0  0  0  0
   -6.0206   25.2333  -24.2125 N   0  0  0  0  0  0  0  0  0  0  0  0
   -6.2686   26.4818  -24.9434 C   0  0  0  0  0  0  0  0  0  0  0  0
   -6.3901   24.0247  -24.5849 N   0  0  0  0  0  0  0  0  0  0  0  0
   -5.9935   23.1148  -23.6863 C   0  0  0  0  0  0  0  0  0  0  0  0
   -6.2306   21.6281  -23.7805 C   0  0  0  0  0  0  0  0  0  0  0  0
   -0.6009   22.0582  -23.9506 C   0  0  0  0  0  0  0  0  0  0  0  0
   -0.9370   22.3591  -25.2462 C   0  0  0  0  0  0  0  0  0  0  0  0
    0.0871   22.1274  -26.0797 N   0  0  0  0  0  0  0  0  0  0  0  0
    0.0908   22.3388  -27.5347 C   0  0  0  0  0  0  0  0  0  0  0  0
    1.0750   21.6809  -25.3289 N   0  0  0  0  0  0  0  0  0  0  0  0
    0.7147   21.6188  -24.0329 C   0  0  0  0  0  0  0  0  0  0  0  0
    1.5660   21.1560  -22.9076 C   0  0  0  0  0  0  0  0  0  0  0  0
 20 21  1  0  0  0
 21 12  1  0  0  0
 12 13  2  0  0  0
 13 14  1  0  0  0
 14 22  1  0  0  0
 22 23  1  0  0  0
 14 15  2  0  0  0
 15 16  1  0  0  0
 15 17  1  0  0  0
 17  1  1  0  0  0
  1  2  1  0  0  0
  2  3  1  0  0  0
  3  4  2  0  0  0
  4  5  1  0  0  0
  5  6  2  0  0  0
  6  7  1  0  0  0
  7  8  2  0  0  0
  8  9  1  0  0  0
  9 10  1  0  0  0
 10 11  2  0  0  0
  9 24  1  0  0  0
 24 25  2  0  0  0
 25 26  1  0  0  0
 26 27  1  0  0  0
 26 28  1  0  0  0
 28 29  2  0  0  0
 29 30  1  0  0  0
  6 31  1  0  0  0
 31 32  2  0  0  0
 32 33  1  0  0  0
 33 34  1  0  0  0
 33 35  1  0  0  0
 35 36  2  0  0  0
 36 37  1  0  0  0
 17 18  2  0  0  0
 18 19  1  0  0  0
 18 12  1  0  0  0
 10  1  1  0  0  0
 29 24  1  0  0  0
 36 31  1  0  0  0
  8  3  1  0  0  0
M  END
> <minimizedAffinity>
-7.46007

> <CNNscore>
0.0992781222

> <CNNaffinity>
6.3102645874

> <CNN_VS>
0.6264712214

> <CNNaffinity_variance>
0.2684121132

$$$$
[H]c1nc(-c2c(C([H])([H])[H])nn(C([H])([H])[H])c2[H])c([H])c2c1C([H])([H])N(c1c(F)c(OC([H])([H])[H])c([H])c(OC([H])([H])[H])c1F)C(=O)N2c1c(C([H])([H])[H])nn(C([H])([H])[H])c1[H]


 37 41  0  0  0  0  0  0  0  0999 V2000
   -0.0460   21.6560  -18.8142 N   0  0  0  0  0  0  0  0  0  0  0  0
    0.1392   22.2324  -20.1081 C   0  0  0  0  0  0  0  0  0  0  0  0
   -1.1225   22.5426  -20.7821 C   0  0  0  0  0  0  0  0  0  0  0  0
   -1.0846   22.8494  -22.1464 C   0  0  0  0  0  0  0  0  0  0  0  0
   -2.1892   23.1996  -22.8145 N   0  0  0  0  0  0  0  0  0  0  0  0
   -3.3973   23.2802  -22.2269 C   0  0  0  0  0  0  0  0  0  0  0  0
   -3.4702   22.9860  -20.8930 C   0  0  0  0  0  0  0  0  0  0  0  0
   -2.3293   22.6118  -20.1589 C   0  0  0  0  0  0  0  0  0  0  0  0
   -2.4812   22.2250  -18.8066 N   0  0  0  0  0  0  0  0  0  0  0  0
   -1.2917   21.7482  -18.1539 C   0  0  0  0  0  0  0  0  0  0  0  0
   -1.3939   21.4021  -16.9341 O   0  0  0  0  0  0  0  0  0  0  0  0
    2.9239   20.9652  -16.7598 C   0  0  0  0  0  0  0  0  0  0  0  0
    3.0257   19.5912  -16.8968 C   0  0  0  0  0  0  0  0  0  0  0  0
    2.1433   18.8552  -17.6525 C   0  0  0  0  0  0  0  0  0  0  0  0
    1.1173   19.5633  -18.2906 C   0  0  0  0  0  0  0  0  0  0  0  0
    0.2550   18.8344  -19.0306 F   0  0  0  0  0  0  0  0  0  0  0  0
    1.0071   20.9246  -18.1616 C   0  0  0  0  0  0  0  0  0  0  0  0
    1.9008   21.6498  -17.3996 C   0  0  0  0  0  0  0  0  0  0  0  0
    1.7991   22.9993  -17.2663 F   0  0  0  0  0  0  0  0  0  0  0  0
    5.0582   22.1056  -16.5102 C   0  0  0  0  0  0  0  0  0  0  0  0
    3.8237   21.6968  -15.9909 O   0  0  0  0  0  0  0  0  0  0  0  0
    2.2465   17.4856  -17.7885 O   0  0  0  0  0  0  0  0  0  0  0  0
    3.5112   16.9150  -18.0264 C   0  0  0  0  0  0  0  0  0  0  0  0
   -3.7170   22.2609  -18.1084 C   0  0  0  0  0  0  0  0  0  0  0  0
   -4.1686   23.3167  -17.3044 C   0  0  0  0  0  0  0  0  0  0  0  0
   -5.3811   22.9879  -16.8362 N   0  0  0  0  0  0  0  0  0  0  0  0
   -6.2078   23.8252  -15.9587 C   0  0  0  0  0  0  0  0  0  0  0  0
   -5.6977   21.7974  -17.3034 N   0  0  0  0  0  0  0  0  0  0  0  0
   -4.7161   21.3215  -18.0800 C   0  0  0  0  0  0  0  0  0  0  0  0
   -4.7284   19.9923  -18.7929 C   0  0  0  0  0  0  0  0  0  0  0  0
   -4.5537   23.6589  -23.0411 C   0  0  0  0  0  0  0  0  0  0  0  0
   -5.1568   24.8820  -23.1902 C   0  0  0  0  0  0  0  0  0  0  0  0
   -6.2024   24.8089  -24.0261 N   0  0  0  0  0  0  0  0  0  0  0  0
   -7.0791   25.9204  -24.4233 C   0  0  0  0  0  0  0  0  0  0  0  0
   -6.2734   23.5502  -24.4127 N   0  0  0  0  0  0  0  0  0  0  0  0
   -5.3007   22.8096  -23.8481 C   0  0  0  0  0  0  0  0  0  0  0  0
   -5.0797   21.3547  -24.0466 C   0  0  0  0  0  0  0  0  0  0  0  0
 20 21  1  0  0  0
 21 12  1  0  0  0
 12 13  2  0  0  0
 13 14  1  0  0  0
 14 22  1  0  0  0
 22 23  1  0  0  0
 14 15  2  0  0  0
 15 16  1  0  0  0
 15 17  1  0  0  0
 17  1  1  0  0  0
  1  2  1  0  0  0
  2  3  1  0  0  0
  3  4  2  0  0  0
  4  5  1  0  0  0
  5  6  2  0  0  0
  6  7  1  0  0  0
  7  8  2  0  0  0
  8  9  1  0  0  0
  9 10  1  0  0  0
 10 11  2  0  0  0
  9 24  1  0  0  0
 24 25  2  0  0  0
 25 26  1  0  0  0
 26 27  1  0  0  0
 26 28  1  0  0  0
 28 29  2  0  0  0
 29 30  1  0  0  0
  6 31  1  0  0  0
 31 32  2  0  0  0
 32 33  1  0  0  0
 33 34  1  0  0  0
 33 35  1  0  0  0
 35 36  2  0  0  0
 36 37  1  0  0  0
 17 18  2  0  0  0
 18 19  1  0  0  0
 18 12  1  0  0  0
 10  1  1  0  0  0
 29 24  1  0  0  0
 36 31  1  0  0  0
  8  3  1  0  0  0
M  END
> <minimizedAffinity>
-5.60051

> <CNNscore>
0.0982684642

> <CNNaffinity>
6.2512636185

> <CNN_VS>
0.6143020988

> <CNNaffinity_variance>
0.0798041075

$$$$
[H]c1nc(-c2c(C([H])([H])[H])nn(C([H])([H])[H])c2[H])c([H])c2c1C([H])([H])N(c1c(F)c(OC([H])([H])[H])c([H])c(OC([H])([H])[H])c1F)C(=O)N2C([H])([H])c1sc(C#N)c([H])c1[H]


 38 42  0  0  0  0  0  0  0  0999 V2000
   -3.8921   21.6855  -18.7606 N   0  0  0  0  0  0  0  0  0  0  0  0
   -4.3246   22.3905  -19.9178 C   0  0  0  0  0  0  0  0  0  0  0  0
   -3.3761   22.2878  -21.0255 C   0  0  0  0  0  0  0  0  0  0  0  0
   -3.7029   22.9297  -22.2272 C   0  0  0  0  0  0  0  0  0  0  0  0
   -2.8874   22.8857  -23.2763 N   0  0  0  0  0  0  0  0  0  0  0  0
   -1.6849   22.2290  -23.2836 C   0  0  0  0  0  0  0  0  0  0  0  0
   -1.3671   21.6002  -22.1045 C   0  0  0  0  0  0  0  0  0  0  0  0
   -2.1960   21.6194  -20.9737 C   0  0  0  0  0  0  0  0  0  0  0  0
   -1.7728   20.9229  -19.7960 N   0  0  0  0  0  0  0  0  0  0  0  0
   -2.6747   20.9896  -18.7029 C   0  0  0  0  0  0  0  0  0  0  0  0
   -2.2969   20.3662  -17.6525 O   0  0  0  0  0  0  0  0  0  0  0  0
   -6.3347   20.6375  -16.1898 C   0  0  0  0  0  0  0  0  0  0  0  0
   -6.2144   21.6725  -15.2919 C   0  0  0  0  0  0  0  0  0  0  0  0
   -5.3277   22.7025  -15.5388 C   0  0  0  0  0  0  0  0  0  0  0  0
   -4.5497   22.7279  -16.6683 C   0  0  0  0  0  0  0  0  0  0  0  0
   -3.6788   23.7492  -16.9019 F   0  0  0  0  0  0  0  0  0  0  0  0
   -4.6940   21.6681  -17.5563 C   0  0  0  0  0  0  0  0  0  0  0  0
   -5.5556   20.6357  -17.3494 C   0  0  0  0  0  0  0  0  0  0  0  0
   -5.6996   19.5981  -18.2187 F   0  0  0  0  0  0  0  0  0  0  0  0
   -8.5273   19.5501  -16.4636 C   0  0  0  0  0  0  0  0  0  0  0  0
   -7.2065   19.6008  -15.9753 O   0  0  0  0  0  0  0  0  0  0  0  0
   -5.2003   23.7620  -14.6307 O   0  0  0  0  0  0  0  0  0  0  0  0
   -6.1139   24.8430  -14.6922 C   0  0  0  0  0  0  0  0  0  0  0  0
   -0.8695   22.2139  -24.4634 C   0  0  0  0  0  0  0  0  0  0  0  0
   -1.3437   22.6057  -25.7126 C   0  0  0  0  0  0  0  0  0  0  0  0
   -0.3625   22.5136  -26.6261 N   0  0  0  0  0  0  0  0  0  0  0  0
   -0.4762   22.8361  -28.0559 C   0  0  0  0  0  0  0  0  0  0  0  0
    0.6962   22.0823  -25.9920 N   0  0  0  0  0  0  0  0  0  0  0  0
    0.4361   21.8884  -24.6845 C   0  0  0  0  0  0  0  0  0  0  0  0
    1.4392   21.4282  -23.7271 C   0  0  0  0  0  0  0  0  0  0  0  0
   -0.5488   20.2089  -19.7044 C   0  0  0  0  0  0  0  0  0  0  0  0
    0.6052   21.1234  -19.3608 C   0  0  0  0  0  0  0  0  0  0  0  0
    1.8579   21.1188  -19.9092 C   0  0  0  0  0  0  0  0  0  0  0  0
    2.7284   22.0498  -19.4573 C   0  0  0  0  0  0  0  0  0  0  0  0
    2.2764   22.9090  -18.4939 C   0  0  0  0  0  0  0  0  0  0  0  0
    0.6713   22.4052  -18.2446 S   0  0  0  0  0  0  0  0  0  0  0  0
    3.0159   23.9948  -17.8552 C   0  0  0  0  0  0  0  0  0  0  0  0
    3.6012   24.8382  -17.3338 N   0  0  0  0  0  0  0  0  0  0  0  0
 20 21  1  0  0  0
 21 12  1  0  0  0
 12 13  2  0  0  0
 13 14  1  0  0  0
 14 22  1  0  0  0
 22 23  1  0  0  0
 14 15  2  0  0  0
 15 16  1  0  0  0
 15 17  1  0  0  0
 17  1  1  0  0  0
  1  2  1  0  0  0
  2  3  1  0  0  0
  3  4  2  0  0  0
  4  5  1  0  0  0
  5  6  2  0  0  0
  6  7  1  0  0  0
  7  8  2  0  0  0
  8  9  1  0  0  0
  9 31  1  0  0  0
 31 32  1  0  0  0
 32 33  2  0  0  0
 33 34  1  0  0  0
 34 35  2  0  0  0
 35 36  1  0  0  0
 35 37  1  0  0  0
 37 38  3  0  0  0
  9 10  1  0  0  0
 10 11  2  0  0  0
  6 24  1  0  0  0
 24 25  2  0  0  0
 25 26  1  0  0  0
 26 27  1  0  0  0
 26 28  1  0  0  0
 28 29  2  0  0  0
 29 30  1  0  0  0
 17 18  2  0  0  0
 18 19  1  0  0  0
 18 12  1  0  0  0
 10  1  1  0  0  0
 29 24  1  0  0  0
  8  3  1  0  0  0
 36 32  1  0  0  0
M  END
> <minimizedAffinity>
-6.48160

> <CNNscore>
0.2100457400

> <CNNaffinity>
6.7947454453

> <CNN_VS>
1.4272073507

> <CNNaffinity_variance>
0.0447925813

$$$$
[H]c1nc(-c2c(C([H])([H])[H])nn(C([H])([H])[H])c2[H])c([H])c2c1C([H])([H])N(c1c(F)c(OC([H])([H])[H])c([H])c(OC([H])([H])[H])c1F)C(=O)N2C([H])([H])c1sc(C#N)c([H])c1[H]


 38 42  0  0  0  0  0  0  0  0999 V2000
   -0.9828   22.0258  -23.4132 N   0  0  0  0  0  0  0  0  0  0  0  0
   -1.0344   21.6968  -24.7960 C   0  0  0  0  0  0  0  0  0  0  0  0
   -1.9888   22.5220  -25.5346 C   0  0  0  0  0  0  0  0  0  0  0  0
   -2.1152   22.3004  -26.9121 C   0  0  0  0  0  0  0  0  0  0  0  0
   -2.9666   23.0074  -27.6490 N   0  0  0  0  0  0  0  0  0  0  0  0
   -3.7785   23.9908  -27.1478 C   0  0  0  0  0  0  0  0  0  0  0  0
   -3.6522   24.2063  -25.7971 C   0  0  0  0  0  0  0  0  0  0  0  0
   -2.7681   23.4858  -24.9815 C   0  0  0  0  0  0  0  0  0  0  0  0
   -2.7089   23.7966  -23.5847 N   0  0  0  0  0  0  0  0  0  0  0  0
   -1.7835   23.0240  -22.8369 C   0  0  0  0  0  0  0  0  0  0  0  0
   -1.7301   23.3031  -21.5904 O   0  0  0  0  0  0  0  0  0  0  0  0
    0.2372   19.9858  -20.5804 C   0  0  0  0  0  0  0  0  0  0  0  0
    1.5924   20.0176  -20.8130 C   0  0  0  0  0  0  0  0  0  0  0  0
    2.0912   20.7058  -21.9019 C   0  0  0  0  0  0  0  0  0  0  0  0
    1.2662   21.3695  -22.7740 C   0  0  0  0  0  0  0  0  0  0  0  0
    1.7692   22.0456  -23.8445 F   0  0  0  0  0  0  0  0  0  0  0  0
   -0.0982   21.3189  -22.5122 C   0  0  0  0  0  0  0  0  0  0  0  0
   -0.6283   20.6526  -21.4512 C   0  0  0  0  0  0  0  0  0  0  0  0
   -1.9638   20.6035  -21.1921 F   0  0  0  0  0  0  0  0  0  0  0  0
   -0.5099   19.8789  -18.2362 C   0  0  0  0  0  0  0  0  0  0  0  0
   -0.2900   19.3133  -19.5078 O   0  0  0  0  0  0  0  0  0  0  0  0
    3.4706   20.7452  -22.1453 O   0  0  0  0  0  0  0  0  0  0  0  0
    4.2243   19.5484  -22.0648 C   0  0  0  0  0  0  0  0  0  0  0  0
   -4.6586   24.7211  -28.0131 C   0  0  0  0  0  0  0  0  0  0  0  0
   -4.3579   24.9830  -29.3474 C   0  0  0  0  0  0  0  0  0  0  0  0
   -5.3667   25.6602  -29.9212 N   0  0  0  0  0  0  0  0  0  0  0  0
   -5.4189   26.1199  -31.3167 C   0  0  0  0  0  0  0  0  0  0  0  0
   -6.2763   25.8259  -28.9970 N   0  0  0  0  0  0  0  0  0  0  0  0
   -5.8912   25.2747  -27.8296 C   0  0  0  0  0  0  0  0  0  0  0  0
   -6.7177   25.2890  -26.6250 C   0  0  0  0  0  0  0  0  0  0  0  0
   -3.5037   24.8001  -22.9703 C   0  0  0  0  0  0  0  0  0  0  0  0
   -4.8713   24.2757  -22.5951 C   0  0  0  0  0  0  0  0  0  0  0  0
   -6.0827   24.8432  -22.8781 C   0  0  0  0  0  0  0  0  0  0  0  0
   -7.1837   24.1803  -22.4571 C   0  0  0  0  0  0  0  0  0  0  0  0
   -6.9842   23.0047  -21.7872 C   0  0  0  0  0  0  0  0  0  0  0  0
   -5.2904   22.8540  -21.7605 S   0  0  0  0  0  0  0  0  0  0  0  0
   -8.0021   22.1098  -21.2425 C   0  0  0  0  0  0  0  0  0  0  0  0
   -8.7908   21.3873  -20.8162 N   0  0  0  0  0  0  0  0  0  0  0  0
 20 21  1  0  0  0
 21 12  1  0  0  0
 12 13  2  0  0  0
 13 14  1  0  0  0
 14 22  1  0  0  0
 22 23  1  0  0  0
 14 15  2  0  0  0
 15 16  1  0  0  0
 15 17  1  0  0  0
 17  1  1  0  0  0
  1  2  1  0  0  0
  2  3  1  0  0  0
  3  4  2  0  0  0
  4  5  1  0  0  0
  5  6  2  0  0  0
  6  7  1  0  0  0
  7  8  2  0  0  0
  8  9  1  0  0  0
  9 31  1  0  0  0
 31 32  1  0  0  0
 32 33  2  0  0  0
 33 34  1  0  0  0
 34 35  2  0  0  0
 35 36  1  0  0  0
 35 37  1  0  0  0
 37 38  3  0  0  0
  9 10  1  0  0  0
 10 11  2  0  0  0
  6 24  1  0  0  0
 24 25  2  0  0  0
 25 26  1  0  0  0
 26 27  1  0  0  0
 26 28  1  0  0  0
 28 29  2  0  0  0
 29 30  1  0  0  0
 17 18  2  0  0  0
 18 19  1  0  0  0
 18 12  1  0  0  0
 10  1  1  0  0  0
 29 24  1  0  0  0
  8  3  1  0  0  0
 36 32  1  0  0  0
M  END
> <minimizedAffinity>
-8.84460

> <CNNscore>
0.1560125649

> <CNNaffinity>
7.2191467285

> <CNN_VS>
1.1262775660

> <CNNaffinity_variance>
0.1671310514

$$$$
[H]c1nc(-c2c(C([H])([H])[H])nn(C([H])([H])[H])c2[H])c([H])c2c1C([H])([H])N(c1c(F)c(OC([H])([H])[H])c([H])c(OC([H])([H])[H])c1F)C(=O)N2C([H])([H])c1sc(C#N)c([H])c1[H]


 38 42  0  0  0  0  0  0  0  0999 V2000
   -0.8918   21.9608  -23.4367 N   0  0  0  0  0  0  0  0  0  0  0  0
   -0.9828   21.6371  -24.8188 C   0  0  0  0  0  0  0  0  0  0  0  0
   -1.9476   22.4744  -25.5297 C   0  0  0  0  0  0  0  0  0  0  0  0
   -2.1120   22.2588  -26.9042 C   0  0  0  0  0  0  0  0  0  0  0  0
   -2.9750   22.9769  -27.6164 N   0  0  0  0  0  0  0  0  0  0  0  0
   -3.7635   23.9667  -27.0911 C   0  0  0  0  0  0  0  0  0  0  0  0
   -3.6000   24.1764  -25.7435 C   0  0  0  0  0  0  0  0  0  0  0  0
   -2.7023   23.4442  -24.9535 C   0  0  0  0  0  0  0  0  0  0  0  0
   -2.6037   23.7496  -23.5577 N   0  0  0  0  0  0  0  0  0  0  0  0
   -1.6670   22.9651  -22.8367 C   0  0  0  0  0  0  0  0  0  0  0  0
   -1.5784   23.2395  -21.5911 O   0  0  0  0  0  0  0  0  0  0  0  0
    2.2020   20.5589  -21.9749 C   0  0  0  0  0  0  0  0  0  0  0  0
    1.6823   19.8565  -20.9127 C   0  0  0  0  0  0  0  0  0  0  0  0
    0.3199   19.8547  -20.6850 C   0  0  0  0  0  0  0  0  0  0  0  0
   -0.5468   20.5420  -21.4964 C   0  0  0  0  0  0  0  0  0  0  0  0
   -1.8890   20.5328  -21.2628 F   0  0  0  0  0  0  0  0  0  0  0  0
    0.0087   21.2420  -22.5613 C   0  0  0  0  0  0  0  0  0  0  0  0
    1.3442   21.2684  -22.8190 C   0  0  0  0  0  0  0  0  0  0  0  0
    1.8897   21.9517  -23.8624 F   0  0  0  0  0  0  0  0  0  0  0  0
    4.4769   19.6522  -21.7149 C   0  0  0  0  0  0  0  0  0  0  0  0
    3.5494   20.5797  -22.2295 O   0  0  0  0  0  0  0  0  0  0  0  0
   -0.2184   19.1402  -19.6066 O   0  0  0  0  0  0  0  0  0  0  0  0
   -0.0565   17.7337  -19.5555 C   0  0  0  0  0  0  0  0  0  0  0  0
   -4.6584   24.7089  -27.9309 C   0  0  0  0  0  0  0  0  0  0  0  0
   -4.3618   25.0260  -29.2540 C   0  0  0  0  0  0  0  0  0  0  0  0
   -5.3846   25.7015  -29.8048 N   0  0  0  0  0  0  0  0  0  0  0  0
   -5.4450   26.2108  -31.1826 C   0  0  0  0  0  0  0  0  0  0  0  0
   -6.2987   25.8134  -28.8770 N   0  0  0  0  0  0  0  0  0  0  0  0
   -5.9031   25.2283  -27.7298 C   0  0  0  0  0  0  0  0  0  0  0  0
   -6.7311   25.1804  -26.5271 C   0  0  0  0  0  0  0  0  0  0  0  0
   -3.3719   24.7590  -22.9196 C   0  0  0  0  0  0  0  0  0  0  0  0
   -4.7513   24.2607  -22.5521 C   0  0  0  0  0  0  0  0  0  0  0  0
   -5.9436   24.9000  -22.7510 C   0  0  0  0  0  0  0  0  0  0  0  0
   -7.0615   24.2489  -22.3574 C   0  0  0  0  0  0  0  0  0  0  0  0
   -6.8968   23.0124  -21.7965 C   0  0  0  0  0  0  0  0  0  0  0  0
   -5.2110   22.7904  -21.8309 S   0  0  0  0  0  0  0  0  0  0  0  0
   -7.9389   22.1162  -21.3018 C   0  0  0  0  0  0  0  0  0  0  0  0
   -8.7447   21.3955  -20.9054 N   0  0  0  0  0  0  0  0  0  0  0  0
 20 21  1  0  0  0
 21 12  1  0  0  0
 12 13  2  0  0  0
 13 14  1  0  0  0
 14 22  1  0  0  0
 22 23  1  0  0  0
 14 15  2  0  0  0
 15 16  1  0  0  0
 15 17  1  0  0  0
 17  1  1  0  0  0
  1  2  1  0  0  0
  2  3  1  0  0  0
  3  4  2  0  0  0
  4  5  1  0  0  0
  5  6  2  0  0  0
  6  7  1  0  0  0
  7  8  2  0  0  0
  8  9  1  0  0  0
  9 31  1  0  0  0
 31 32  1  0  0  0
 32 33  2  0  0  0
 33 34  1  0  0  0
 34 35  2  0  0  0
 35 36  1  0  0  0
 35 37  1  0  0  0
 37 38  3  0  0  0
  9 10  1  0  0  0
 10 11  2  0  0  0
  6 24  1  0  0  0
 24 25  2  0  0  0
 25 26  1  0  0  0
 26 27  1  0  0  0
 26 28  1  0  0  0
 28 29  2  0  0  0
 29 30  1  0  0  0
 17 18  2  0  0  0
 18 19  1  0  0  0
 18 12  1  0  0  0
 10  1  1  0  0  0
 29 24  1  0  0  0
  8  3  1  0  0  0
 36 32  1  0  0  0
M  END
> <minimizedAffinity>
-8.78969

> <CNNscore>
0.1503104120

> <CNNaffinity>
7.2132387161

> <CNN_VS>
1.0842249393

> <CNNaffinity_variance>
0.1427924335

$$$$
[H]c1nc(-c2c(C([H])([H])[H])nn(C([H])([H])[H])c2[H])c([H])c2c1C([H])([H])N(c1c(F)c(OC([H])([H])[H])c([H])c(OC([H])([H])[H])c1F)C(=O)N2C([H])([H])c1sc(C#N)c([H])c1[H]


 38 42  0  0  0  0  0  0  0  0999 V2000
   -0.4886   21.9915  -20.4137 N   0  0  0  0  0  0  0  0  0  0  0  0
    0.1651   21.4178  -21.5392 C   0  0  0  0  0  0  0  0  0  0  0  0
   -0.4440   21.8175  -22.8067 C   0  0  0  0  0  0  0  0  0  0  0  0
    0.1259   21.3269  -23.9888 C   0  0  0  0  0  0  0  0  0  0  0  0
   -0.3764   21.6418  -25.1788 N   0  0  0  0  0  0  0  0  0  0  0  0
   -1.4671   22.4514  -25.3589 C   0  0  0  0  0  0  0  0  0  0  0  0
   -2.0236   22.9313  -24.1984 C   0  0  0  0  0  0  0  0  0  0  0  0
   -1.5276   22.6263  -22.9229 C   0  0  0  0  0  0  0  0  0  0  0  0
   -2.1786   23.1873  -21.7771 N   0  0  0  0  0  0  0  0  0  0  0  0
   -1.6070   22.8316  -20.5283 C   0  0  0  0  0  0  0  0  0  0  0  0
   -2.1877   23.3340  -19.5061 O   0  0  0  0  0  0  0  0  0  0  0  0
    1.3451   22.2383  -17.2120 C   0  0  0  0  0  0  0  0  0  0  0  0
    0.8254   21.1563  -16.5405 C   0  0  0  0  0  0  0  0  0  0  0  0
   -0.1263   20.3588  -17.1458 C   0  0  0  0  0  0  0  0  0  0  0  0
   -0.5786   20.6146  -18.4154 C   0  0  0  0  0  0  0  0  0  0  0  0
   -1.5173   19.8210  -19.0028 F   0  0  0  0  0  0  0  0  0  0  0  0
   -0.0344   21.7150  -19.0679 C   0  0  0  0  0  0  0  0  0  0  0  0
    0.9043   22.5240  -18.5065 C   0  0  0  0  0  0  0  0  0  0  0  0
    1.4396   23.6008  -19.1446 F   0  0  0  0  0  0  0  0  0  0  0  0
    3.6835   22.8465  -16.7355 C   0  0  0  0  0  0  0  0  0  0  0  0
    2.2923   23.0488  -16.6403 O   0  0  0  0  0  0  0  0  0  0  0  0
   -0.6596   19.2533  -16.4700 O   0  0  0  0  0  0  0  0  0  0  0  0
   -1.8249   19.4174  -15.6812 C   0  0  0  0  0  0  0  0  0  0  0  0
   -1.9377   22.7578  -26.6786 C   0  0  0  0  0  0  0  0  0  0  0  0
   -3.2876   22.9230  -26.9782 C   0  0  0  0  0  0  0  0  0  0  0  0
   -3.4357   23.2259  -28.2789 N   0  0  0  0  0  0  0  0  0  0  0  0
   -4.7087   23.4705  -28.9724 C   0  0  0  0  0  0  0  0  0  0  0  0
   -2.2341   23.2549  -28.7929 N   0  0  0  0  0  0  0  0  0  0  0  0
   -1.2992   22.9788  -27.8630 C   0  0  0  0  0  0  0  0  0  0  0  0
    0.1337   22.9606  -28.1474 C   0  0  0  0  0  0  0  0  0  0  0  0
   -3.3105   24.0408  -21.8578 C   0  0  0  0  0  0  0  0  0  0  0  0
   -4.6027   23.2660  -21.7309 C   0  0  0  0  0  0  0  0  0  0  0  0
   -5.1906   22.4742  -22.6782 C   0  0  0  0  0  0  0  0  0  0  0  0
   -6.3435   21.8578  -22.3324 C   0  0  0  0  0  0  0  0  0  0  0  0
   -6.8152   22.0834  -21.0686 C   0  0  0  0  0  0  0  0  0  0  0  0
   -5.6564   23.1346  -20.4020 S   0  0  0  0  0  0  0  0  0  0  0  0
   -8.0245   21.5333  -20.4612 C   0  0  0  0  0  0  0  0  0  0  0  0
   -8.9653   21.0847  -19.9719 N   0  0  0  0  0  0  0  0  0  0  0  0
 20 21  1  0  0  0
 21 12  1  0  0  0
 12 13  2  0  0  0
 13 14  1  0  0  0
 14 22  1  0  0  0
 22 23  1  0  0  0
 14 15  2  0  0  0
 15 16  1  0  0  0
 15 17  1  0  0  0
 17  1  1  0  0  0
  1  2  1  0  0  0
  2  3  1  0  0  0
  3  4  2  0  0  0
  4  5  1  0  0  0
  5  6  2  0  0  0
  6  7  1  0  0  0
  7  8  2  0  0  0
  8  9  1  0  0  0
  9 31  1  0  0  0
 31 32  1  0  0  0
 32 33  2  0  0  0
 33 34  1  0  0  0
 34 35  2  0  0  0
 35 36  1  0  0  0
 35 37  1  0  0  0
 37 38  3  0  0  0
  9 10  1  0  0  0
 10 11  2  0  0  0
  6 24  1  0  0  0
 24 25  2  0  0  0
 25 26  1  0  0  0
 26 27  1  0  0  0
 26 28  1  0  0  0
 28 29  2  0  0  0
 29 30  1  0  0  0
 17 18  2  0  0  0
 18 19  1  0  0  0
 18 12  1  0  0  0
 10  1  1  0  0  0
 29 24  1  0  0  0
  8  3  1  0  0  0
 36 32  1  0  0  0
M  END
> <minimizedAffinity>
-7.51056

> <CNNscore>
0.1047400013

> <CNNaffinity>
6.9356269836

> <CNN_VS>
0.7264375687

> <CNNaffinity_variance>
0.0619099066

$$$$
[H]c1nc(-c2c(C([H])([H])[H])nn(C([H])([H])[H])c2[H])c([H])c2c1C([H])([H])N(c1c(F)c(OC([H])([H])[H])c([H])c(OC([H])([H])[H])c1F)C(=O)N2C([H])([H])c1sc(C#N)c([H])c1[H]


 38 42  0  0  0  0  0  0  0  0999 V2000
   -0.5933   21.9212  -20.2677 N   0  0  0  0  0  0  0  0  0  0  0  0
    0.0775   21.3469  -21.3828 C   0  0  0  0  0  0  0  0  0  0  0  0
   -0.5090   21.7501  -22.6598 C   0  0  0  0  0  0  0  0  0  0  0  0
    0.0793   21.2593  -23.8328 C   0  0  0  0  0  0  0  0  0  0  0  0
   -0.4020   21.5773  -25.0307 N   0  0  0  0  0  0  0  0  0  0  0  0
   -1.4870   22.3905  -25.2281 C   0  0  0  0  0  0  0  0  0  0  0  0
   -2.0615   22.8706  -24.0765 C   0  0  0  0  0  0  0  0  0  0  0  0
   -1.5880   22.5624  -22.7932 C   0  0  0  0  0  0  0  0  0  0  0  0
   -2.2565   23.1238  -21.6577 N   0  0  0  0  0  0  0  0  0  0  0  0
   -1.7071   22.7648  -20.4000 C   0  0  0  0  0  0  0  0  0  0  0  0
   -2.3034   23.2677  -19.3871 O   0  0  0  0  0  0  0  0  0  0  0  0
   -0.3268   20.3636  -16.9245 C   0  0  0  0  0  0  0  0  0  0  0  0
    0.6468   21.1521  -16.3567 C   0  0  0  0  0  0  0  0  0  0  0  0
    1.2092   22.1853  -17.0807 C   0  0  0  0  0  0  0  0  0  0  0  0
    0.8231   22.4557  -18.3690 C   0  0  0  0  0  0  0  0  0  0  0  0
    1.3843   23.4777  -19.0736 F   0  0  0  0  0  0  0  0  0  0  0  0
   -0.1627   21.6415  -18.9148 C   0  0  0  0  0  0  0  0  0  0  0  0
   -0.7410   20.6148  -18.2349 C   0  0  0  0  0  0  0  0  0  0  0  0
   -1.7077   19.8177  -18.7671 F   0  0  0  0  0  0  0  0  0  0  0  0
   -0.4177   18.0100  -16.2056 C   0  0  0  0  0  0  0  0  0  0  0  0
   -0.9064   19.3313  -16.2324 O   0  0  0  0  0  0  0  0  0  0  0  0
    2.2000   22.9948  -16.5095 O   0  0  0  0  0  0  0  0  0  0  0  0
    2.4806   22.8770  -15.1259 C   0  0  0  0  0  0  0  0  0  0  0  0
   -1.9344   22.7000  -26.5551 C   0  0  0  0  0  0  0  0  0  0  0  0
   -3.2803   22.8415  -26.8831 C   0  0  0  0  0  0  0  0  0  0  0  0
   -3.4056   23.1537  -28.1841 N   0  0  0  0  0  0  0  0  0  0  0  0
   -4.6677   23.3799  -28.9034 C   0  0  0  0  0  0  0  0  0  0  0  0
   -2.1938   23.2112  -28.6710 N   0  0  0  0  0  0  0  0  0  0  0  0
   -1.2744   22.9446  -27.7230 C   0  0  0  0  0  0  0  0  0  0  0  0
    0.1645   22.9571  -27.9757 C   0  0  0  0  0  0  0  0  0  0  0  0
   -3.3843   23.9809  -21.7564 C   0  0  0  0  0  0  0  0  0  0  0  0
   -4.6803   23.2146  -21.6173 C   0  0  0  0  0  0  0  0  0  0  0  0
   -5.3062   22.4645  -22.5740 C   0  0  0  0  0  0  0  0  0  0  0  0
   -6.4544   21.8469  -22.2149 C   0  0  0  0  0  0  0  0  0  0  0  0
   -6.8838   22.0299  -20.9292 C   0  0  0  0  0  0  0  0  0  0  0  0
   -5.6932   23.0442  -20.2614 S   0  0  0  0  0  0  0  0  0  0  0  0
   -8.0794   21.4694  -20.3045 C   0  0  0  0  0  0  0  0  0  0  0  0
   -9.0166   21.0079  -19.8205 N   0  0  0  0  0  0  0  0  0  0  0  0
 20 21  1  0  0  0
 21 12  1  0  0  0
 12 13  2  0  0  0
 13 14  1  0  0  0
 14 22  1  0  0  0
 22 23  1  0  0  0
 14 15  2  0  0  0
 15 16  1  0  0  0
 15 17  1  0  0  0
 17  1  1  0  0  0
  1  2  1  0  0  0
  2  3  1  0  0  0
  3  4  2  0  0  0
  4  5  1  0  0  0
  5  6  2  0  0  0
  6  7  1  0  0  0
  7  8  2  0  0  0
  8  9  1  0  0  0
  9 31  1  0  0  0
 31 32  1  0  0  0
 32 33  2  0  0  0
 33 34  1  0  0  0
 34 35  2  0  0  0
 35 36  1  0  0  0
 35 37  1  0  0  0
 37 38  3  0  0  0
  9 10  1  0  0  0
 10 11  2  0  0  0
  6 24  1  0  0  0
 24 25  2  0  0  0
 25 26  1  0  0  0
 26 27  1  0  0  0
 26 28  1  0  0  0
 28 29  2  0  0  0
 29 30  1  0  0  0
 17 18  2  0  0  0
 18 19  1  0  0  0
 18 12  1  0  0  0
 10  1  1  0  0  0
 29 24  1  0  0  0
  8  3  1  0  0  0
 36 32  1  0  0  0
M  END
> <minimizedAffinity>
-7.42610

> <CNNscore>
0.0920561180

> <CNNaffinity>
6.8876051903

> <CNN_VS>
0.6340461969

> <CNNaffinity_variance>
0.0430598855

$$$$
[H]c1nc(-c2c(C([H])([H])[H])nn(C([H])([H])[H])c2[H])c([H])c2c1C([H])([H])N(c1c(F)c(OC([H])([H])[H])c([H])c(OC([H])([H])[H])c1F)C(=O)N2C([H])([H])c1sc(C#N)c([H])c1[H]


 38 42  0  0  0  0  0  0  0  0999 V2000
   -5.9715   22.8165  -20.6667 N   0  0  0  0  0  0  0  0  0  0  0  0
   -5.2515   21.7251  -21.2265 C   0  0  0  0  0  0  0  0  0  0  0  0
   -4.6027   22.0693  -22.4906 C   0  0  0  0  0  0  0  0  0  0  0  0
   -3.8485   21.0765  -23.1295 C   0  0  0  0  0  0  0  0  0  0  0  0
   -3.2345   21.3133  -24.2847 N   0  0  0  0  0  0  0  0  0  0  0  0
   -3.2791   22.5144  -24.9426 C   0  0  0  0  0  0  0  0  0  0  0  0
   -4.0188   23.4861  -24.3139 C   0  0  0  0  0  0  0  0  0  0  0  0
   -4.6822   23.2815  -23.0957 C   0  0  0  0  0  0  0  0  0  0  0  0
   -5.4203   24.3662  -22.5212 N   0  0  0  0  0  0  0  0  0  0  0  0
   -6.0539   24.0732  -21.2862 C   0  0  0  0  0  0  0  0  0  0  0  0
   -6.7111   25.0424  -20.7732 O   0  0  0  0  0  0  0  0  0  0  0  0
   -8.6689   22.1630  -18.2232 C   0  0  0  0  0  0  0  0  0  0  0  0
   -8.0146   22.4416  -17.0458 C   0  0  0  0  0  0  0  0  0  0  0  0
   -6.6913   22.8372  -17.0671 C   0  0  0  0  0  0  0  0  0  0  0  0
   -5.9960   22.9633  -18.2429 C   0  0  0  0  0  0  0  0  0  0  0  0
   -4.6912   23.3548  -18.2520 F   0  0  0  0  0  0  0  0  0  0  0  0
   -6.6846   22.6747  -19.4156 C   0  0  0  0  0  0  0  0  0  0  0  0
   -7.9871   22.2825  -19.4367 C   0  0  0  0  0  0  0  0  0  0  0  0
   -8.6635   22.0014  -20.5841 F   0  0  0  0  0  0  0  0  0  0  0  0
  -10.7032   21.3417  -17.1041 C   0  0  0  0  0  0  0  0  0  0  0  0
   -9.9826   21.7695  -18.2369 O   0  0  0  0  0  0  0  0  0  0  0  0
   -6.0176   23.1251  -15.8727 O   0  0  0  0  0  0  0  0  0  0  0  0
   -5.3700   22.0785  -15.1711 C   0  0  0  0  0  0  0  0  0  0  0  0
   -2.5740   22.6955  -26.1783 C   0  0  0  0  0  0  0  0  0  0  0  0
   -1.1843   22.6731  -26.2636 C   0  0  0  0  0  0  0  0  0  0  0  0
   -0.7995   22.8441  -27.5397 N   0  0  0  0  0  0  0  0  0  0  0  0
    0.5861   22.8825  -28.0295 C   0  0  0  0  0  0  0  0  0  0  0  0
   -1.8936   22.9702  -28.2440 N   0  0  0  0  0  0  0  0  0  0  0  0
   -2.9883   22.8863  -27.4634 C   0  0  0  0  0  0  0  0  0  0  0  0
   -4.3514   22.9721  -27.9821 C   0  0  0  0  0  0  0  0  0  0  0  0
   -5.5230   25.6493  -23.1207 C   0  0  0  0  0  0  0  0  0  0  0  0
   -5.9294   25.5543  -24.5740 C   0  0  0  0  0  0  0  0  0  0  0  0
   -7.0675   24.9910  -25.0811 C   0  0  0  0  0  0  0  0  0  0  0  0
   -7.2307   25.0401  -26.4226 C   0  0  0  0  0  0  0  0  0  0  0  0
   -6.2430   25.6476  -27.1480 C   0  0  0  0  0  0  0  0  0  0  0  0
   -5.1262   26.1288  -25.9591 S   0  0  0  0  0  0  0  0  0  0  0  0
   -6.1904   25.8311  -28.5962 C   0  0  0  0  0  0  0  0  0  0  0  0
   -6.1512   25.9975  -29.7349 N   0  0  0  0  0  0  0  0  0  0  0  0
 20 21  1  0  0  0
 21 12  1  0  0  0
 12 13  2  0  0  0
 13 14  1  0  0  0
 14 22  1  0  0  0
 22 23  1  0  0  0
 14 15  2  0  0  0
 15 16  1  0  0  0
 15 17  1  0  0  0
 17  1  1  0  0  0
  1  2  1  0  0  0
  2  3  1  0  0  0
  3  4  2  0  0  0
  4  5  1  0  0  0
  5  6  2  0  0  0
  6  7  1  0  0  0
  7  8  2  0  0  0
  8  9  1  0  0  0
  9 31  1  0  0  0
 31 32  1  0  0  0
 32 33  2  0  0  0
 33 34  1  0  0  0
 34 35  2  0  0  0
 35 36  1  0  0  0
 35 37  1  0  0  0
 37 38  3  0  0  0
  9 10  1  0  0  0
 10 11  2  0  0  0
  6 24  1  0  0  0
 24 25  2  0  0  0
 25 26  1  0  0  0
 26 27  1  0  0  0
 26 28  1  0  0  0
 28 29  2  0  0  0
 29 30  1  0  0  0
 17 18  2  0  0  0
 18 19  1  0  0  0
 18 12  1  0  0  0
 10  1  1  0  0  0
 29 24  1  0  0  0
  8  3  1  0  0  0
 36 32  1  0  0  0
M  END
> <minimizedAffinity>
-7.17849

> <CNNscore>
0.0901372135

> <CNNaffinity>
6.9979133606

> <CNN_VS>
0.6307724118

> <CNNaffinity_variance>
0.0699592680

$$$$
[H]c1nc(-c2c(C([H])([H])[H])nn(C([H])([H])[H])c2[H])c([H])c2c1C([H])([H])N(c1c(F)c(OC([H])([H])[H])c([H])c(OC([H])([H])[H])c1F)C(=O)N2C([H])([H])c1sc(C#N)c([H])c1[H]


 38 42  0  0  0  0  0  0  0  0999 V2000
   -1.2858   22.2076  -21.8754 N   0  0  0  0  0  0  0  0  0  0  0  0
   -0.9494   21.9378  -23.2309 C   0  0  0  0  0  0  0  0  0  0  0  0
   -1.8986   22.5277  -24.1734 C   0  0  0  0  0  0  0  0  0  0  0  0
   -1.6612   22.3426  -25.5417 C   0  0  0  0  0  0  0  0  0  0  0  0
   -2.4835   22.8441  -26.4582 N   0  0  0  0  0  0  0  0  0  0  0  0
   -3.6087   23.5679  -26.1624 C   0  0  0  0  0  0  0  0  0  0  0  0
   -3.8388   23.7483  -24.8203 C   0  0  0  0  0  0  0  0  0  0  0  0
   -2.9993   23.2385  -23.8196 C   0  0  0  0  0  0  0  0  0  0  0  0
   -3.3270   23.4919  -22.4486 N   0  0  0  0  0  0  0  0  0  0  0  0
   -2.4206   22.9452  -21.5041 C   0  0  0  0  0  0  0  0  0  0  0  0
   -2.7129   23.1733  -20.2806 O   0  0  0  0  0  0  0  0  0  0  0  0
    0.8138   22.0888  -18.8338 C   0  0  0  0  0  0  0  0  0  0  0  0
    1.0939   20.7435  -18.7740 C   0  0  0  0  0  0  0  0  0  0  0  0
    0.5857   19.8881  -19.7322 C   0  0  0  0  0  0  0  0  0  0  0  0
   -0.2028   20.3430  -20.7584 C   0  0  0  0  0  0  0  0  0  0  0  0
   -0.6983   19.4904  -21.6983 F   0  0  0  0  0  0  0  0  0  0  0  0
   -0.4680   21.7073  -20.7916 C   0  0  0  0  0  0  0  0  0  0  0  0
    0.0137   22.5818  -19.8674 C   0  0  0  0  0  0  0  0  0  0  0  0
   -0.2434   23.9183  -19.8994 F   0  0  0  0  0  0  0  0  0  0  0  0
    2.6163   23.4778  -17.8924 C   0  0  0  0  0  0  0  0  0  0  0  0
    1.3041   22.9648  -17.8994 O   0  0  0  0  0  0  0  0  0  0  0  0
    0.8677   18.5166  -19.6803 O   0  0  0  0  0  0  0  0  0  0  0  0
   -0.0058   17.6543  -18.9728 C   0  0  0  0  0  0  0  0  0  0  0  0
   -4.4361   24.0905  -27.2108 C   0  0  0  0  0  0  0  0  0  0  0  0
   -3.9147   24.6607  -28.3693 C   0  0  0  0  0  0  0  0  0  0  0  0
   -4.9136   25.0410  -29.1838 N   0  0  0  0  0  0  0  0  0  0  0  0
   -4.7637   25.6845  -30.4971 C   0  0  0  0  0  0  0  0  0  0  0  0
   -6.0280   24.7284  -28.5762 N   0  0  0  0  0  0  0  0  0  0  0  0
   -5.7875   24.1521  -27.3825 C   0  0  0  0  0  0  0  0  0  0  0  0
   -6.8454   23.6804  -26.4922 C   0  0  0  0  0  0  0  0  0  0  0  0
   -4.4659   24.2345  -22.0389 C   0  0  0  0  0  0  0  0  0  0  0  0
   -5.5918   23.3282  -21.5950 C   0  0  0  0  0  0  0  0  0  0  0  0
   -6.2242   22.3685  -22.3358 C   0  0  0  0  0  0  0  0  0  0  0  0
   -7.1972   21.6601  -21.7191 C   0  0  0  0  0  0  0  0  0  0  0  0
   -7.4593   21.9691  -20.4128 C   0  0  0  0  0  0  0  0  0  0  0  0
   -6.3585   23.2221  -20.0803 S   0  0  0  0  0  0  0  0  0  0  0  0
   -8.4492   21.3491  -19.5355 C   0  0  0  0  0  0  0  0  0  0  0  0
   -9.2160   20.8639  -18.8268 N   0  0  0  0  0  0  0  0  0  0  0  0
 20 21  1  0  0  0
 21 12  1  0  0  0
 12 13  2  0  0  0
 13 14  1  0  0  0
 14 22  1  0  0  0
 22 23  1  0  0  0
 14 15  2  0  0  0
 15 16  1  0  0  0
 15 17  1  0  0  0
 17  1  1  0  0  0
  1  2  1  0  0  0
  2  3  1  0  0  0
  3  4  2  0  0  0
  4  5  1  0  0  0
  5  6  2  0  0  0
  6  7  1  0  0  0
  7  8  2  0  0  0
  8  9  1  0  0  0
  9 31  1  0  0  0
 31 32  1  0  0  0
 32 33  2  0  0  0
 33 34  1  0  0  0
 34 35  2  0  0  0
 35 36  1  0  0  0
 35 37  1  0  0  0
 37 38  3  0  0  0
  9 10  1  0  0  0
 10 11  2  0  0  0
  6 24  1  0  0  0
 24 25  2  0  0  0
 25 26  1  0  0  0
 26 27  1  0  0  0
 26 28  1  0  0  0
 28 29  2  0  0  0
 29 30  1  0  0  0
 17 18  2  0  0  0
 18 19  1  0  0  0
 18 12  1  0  0  0
 10  1  1  0  0  0
 29 24  1  0  0  0
  8  3  1  0  0  0
 36 32  1  0  0  0
M  END
> <minimizedAffinity>
-7.73731

> <CNNscore>
0.0646789372

> <CNNaffinity>
6.9867491722

> <CNN_VS>
0.4518955052

> <CNNaffinity_variance>
0.0872615203

$$$$
[H]c1nc(-c2c(C([H])([H])[H])nn(C([H])([H])[H])c2[H])c([H])c2c1C([H])([H])N(c1c(F)c(OC([H])([H])[H])c([H])c(OC([H])([H])[H])c1F)C(=O)N2C([H])([H])c1sc(C#N)c([H])c1[H]


 38 42  0  0  0  0  0  0  0  0999 V2000
   -5.8828   22.7901  -20.3504 N   0  0  0  0  0  0  0  0  0  0  0  0
   -5.1445   21.7062  -20.9011 C   0  0  0  0  0  0  0  0  0  0  0  0
   -4.5055   22.0491  -22.1705 C   0  0  0  0  0  0  0  0  0  0  0  0
   -3.7350   21.0636  -22.8013 C   0  0  0  0  0  0  0  0  0  0  0  0
   -3.1286   21.2996  -23.9607 N   0  0  0  0  0  0  0  0  0  0  0  0
   -3.1968   22.4928  -24.6308 C   0  0  0  0  0  0  0  0  0  0  0  0
   -3.9524   23.4573  -24.0100 C   0  0  0  0  0  0  0  0  0  0  0  0
   -4.6087   23.2533  -22.7879 C   0  0  0  0  0  0  0  0  0  0  0  0
   -5.3648   24.3303  -22.2224 N   0  0  0  0  0  0  0  0  0  0  0  0
   -5.9896   24.0386  -20.9826 C   0  0  0  0  0  0  0  0  0  0  0  0
   -6.6629   25.0010  -20.4777 O   0  0  0  0  0  0  0  0  0  0  0  0
   -6.6685   22.8871  -16.7384 C   0  0  0  0  0  0  0  0  0  0  0  0
   -7.9326   22.3450  -16.7414 C   0  0  0  0  0  0  0  0  0  0  0  0
   -8.5158   21.9571  -17.9320 C   0  0  0  0  0  0  0  0  0  0  0  0
   -7.8656   22.0973  -19.1317 C   0  0  0  0  0  0  0  0  0  0  0  0
   -8.4503   21.7109  -20.3000 F   0  0  0  0  0  0  0  0  0  0  0  0
   -6.5898   22.6483  -19.0959 C   0  0  0  0  0  0  0  0  0  0  0  0
   -5.9812   23.0423  -17.9447 C   0  0  0  0  0  0  0  0  0  0  0  0
   -4.7312   23.5802  -17.9075 F   0  0  0  0  0  0  0  0  0  0  0  0
   -5.6118   22.4026  -14.5673 C   0  0  0  0  0  0  0  0  0  0  0  0
   -6.0606   23.2807  -15.5737 O   0  0  0  0  0  0  0  0  0  0  0  0
   -9.8022   21.4020  -17.9441 O   0  0  0  0  0  0  0  0  0  0  0  0
  -10.9242   22.2526  -18.1011 C   0  0  0  0  0  0  0  0  0  0  0  0
   -2.4985   22.6739  -25.8703 C   0  0  0  0  0  0  0  0  0  0  0  0
   -1.1091   22.6547  -25.9627 C   0  0  0  0  0  0  0  0  0  0  0  0
   -0.7314   22.8249  -27.2410 N   0  0  0  0  0  0  0  0  0  0  0  0
    0.6517   22.8659  -27.7379 C   0  0  0  0  0  0  0  0  0  0  0  0
   -1.8293   22.9474  -27.9399 N   0  0  0  0  0  0  0  0  0  0  0  0
   -2.9198   22.8620  -27.1535 C   0  0  0  0  0  0  0  0  0  0  0  0
   -4.2857   22.9438  -27.6654 C   0  0  0  0  0  0  0  0  0  0  0  0
   -5.4924   25.6051  -22.8348 C   0  0  0  0  0  0  0  0  0  0  0  0
   -5.9226   25.4885  -24.2796 C   0  0  0  0  0  0  0  0  0  0  0  0
   -7.0481   24.8803  -24.7627 C   0  0  0  0  0  0  0  0  0  0  0  0
   -7.2386   24.9175  -26.1010 C   0  0  0  0  0  0  0  0  0  0  0  0
   -6.2887   25.5588  -26.8474 C   0  0  0  0  0  0  0  0  0  0  0  0
   -5.1685   26.0870  -25.6819 S   0  0  0  0  0  0  0  0  0  0  0  0
   -6.2707   25.7379  -28.2970 C   0  0  0  0  0  0  0  0  0  0  0  0
   -6.2394   25.8651  -29.4409 N   0  0  0  0  0  0  0  0  0  0  0  0
 20 21  1  0  0  0
 21 12  1  0  0  0
 12 13  2  0  0  0
 13 14  1  0  0  0
 14 22  1  0  0  0
 22 23  1  0  0  0
 14 15  2  0  0  0
 15 16  1  0  0  0
 15 17  1  0  0  0
 17  1  1  0  0  0
  1  2  1  0  0  0
  2  3  1  0  0  0
  3  4  2  0  0  0
  4  5  1  0  0  0
  5  6  2  0  0  0
  6  7  1  0  0  0
  7  8  2  0  0  0
  8  9  1  0  0  0
  9 31  1  0  0  0
 31 32  1  0  0  0
 32 33  2  0  0  0
 33 34  1  0  0  0
 34 35  2  0  0  0
 35 36  1  0  0  0
 35 37  1  0  0  0
 37 38  3  0  0  0
  9 10  1  0  0  0
 10 11  2  0  0  0
  6 24  1  0  0  0
 24 25  2  0  0  0
 25 26  1  0  0  0
 26 27  1  0  0  0
 26 28  1  0  0  0
 28 29  2  0  0  0
 29 30  1  0  0  0
 17 18  2  0  0  0
 18 19  1  0  0  0
 18 12  1  0  0  0
 10  1  1  0  0  0
 29 24  1  0  0  0
  8  3  1  0  0  0
 36 32  1  0  0  0
M  END
> <minimizedAffinity>
-7.14176

> <CNNscore>
0.0623391122

> <CNNaffinity>
6.9721970558

> <CNN_VS>
0.4346405864

> <CNNaffinity_variance>
0.0728742480

$$$$
[H]c1nc(-c2c(C([H])([H])[H])nn(C([H])([H])[H])c2[H])c([H])c2c1C([H])([H])N(c1c(F)c(OC([H])([H])[H])c([H])c(OC([H])([H])[H])c1F)C(=O)N2C([H])([H])c1sc(C#N)c([H])c1[H]


 38 42  0  0  0  0  0  0  0  0999 V2000
   -1.7913   22.0705  -22.3281 N   0  0  0  0  0  0  0  0  0  0  0  0
   -1.7263   21.4786  -23.6199 C   0  0  0  0  0  0  0  0  0  0  0  0
   -2.5117   22.2096  -24.6130 C   0  0  0  0  0  0  0  0  0  0  0  0
   -2.5109   21.7292  -25.9290 C   0  0  0  0  0  0  0  0  0  0  0  0
   -3.2060   22.3373  -26.8854 N   0  0  0  0  0  0  0  0  0  0  0  0
   -3.9677   23.4581  -26.6827 C   0  0  0  0  0  0  0  0  0  0  0  0
   -3.9664   23.9272  -25.3918 C   0  0  0  0  0  0  0  0  0  0  0  0
   -3.2485   23.3191  -24.3521 C   0  0  0  0  0  0  0  0  0  0  0  0
   -3.3094   23.8954  -23.0423 N   0  0  0  0  0  0  0  0  0  0  0  0
   -2.5485   23.2199  -22.0537 C   0  0  0  0  0  0  0  0  0  0  0  0
   -2.6020   23.7360  -20.8852 O   0  0  0  0  0  0  0  0  0  0  0  0
   -1.0877   20.5243  -19.0437 C   0  0  0  0  0  0  0  0  0  0  0  0
    0.2837   20.4327  -19.0975 C   0  0  0  0  0  0  0  0  0  0  0  0
    0.9630   20.8762  -20.2155 C   0  0  0  0  0  0  0  0  0  0  0  0
    0.3045   21.4136  -21.2923 C   0  0  0  0  0  0  0  0  0  0  0  0
    0.9848   21.8483  -22.3896 F   0  0  0  0  0  0  0  0  0  0  0  0
   -1.0809   21.4927  -21.2078 C   0  0  0  0  0  0  0  0  0  0  0  0
   -1.7860   21.0673  -20.1249 C   0  0  0  0  0  0  0  0  0  0  0  0
   -3.1424   21.1458  -20.0396 F   0  0  0  0  0  0  0  0  0  0  0  0
   -1.2498   19.3301  -16.8960 C   0  0  0  0  0  0  0  0  0  0  0  0
   -1.7918   20.0948  -17.9480 O   0  0  0  0  0  0  0  0  0  0  0  0
    2.3600   20.7886  -20.2780 O   0  0  0  0  0  0  0  0  0  0  0  0
    3.1016   20.6534  -19.0786 C   0  0  0  0  0  0  0  0  0  0  0  0
   -4.6752   24.0656  -27.7723 C   0  0  0  0  0  0  0  0  0  0  0  0
   -4.8372   23.4424  -29.0070 C   0  0  0  0  0  0  0  0  0  0  0  0
   -5.5579   24.2266  -29.8264 N   0  0  0  0  0  0  0  0  0  0  0  0
   -5.9352   23.9162  -31.2130 C   0  0  0  0  0  0  0  0  0  0  0  0
   -5.8470   25.3062  -29.1483 N   0  0  0  0  0  0  0  0  0  0  0  0
   -5.3348   25.2519  -27.9035 C   0  0  0  0  0  0  0  0  0  0  0  0
   -5.5171   26.3117  -26.9146 C   0  0  0  0  0  0  0  0  0  0  0  0
   -4.0642   25.0571  -22.7310 C   0  0  0  0  0  0  0  0  0  0  0  0
   -5.4467   24.7055  -22.2298 C   0  0  0  0  0  0  0  0  0  0  0  0
   -6.4111   23.9945  -22.8888 C   0  0  0  0  0  0  0  0  0  0  0  0
   -7.5737   23.7829  -22.2312 C   0  0  0  0  0  0  0  0  0  0  0  0
   -7.6779   24.2995  -20.9691 C   0  0  0  0  0  0  0  0  0  0  0  0
   -6.1738   25.0573  -20.7328 S   0  0  0  0  0  0  0  0  0  0  0  0
   -8.8182   24.2018  -20.0615 C   0  0  0  0  0  0  0  0  0  0  0  0
   -9.7305   24.1224  -19.3634 N   0  0  0  0  0  0  0  0  0  0  0  0
 20 21  1  0  0  0
 21 12  1  0  0  0
 12 13  2  0  0  0
 13 14  1  0  0  0
 14 22  1  0  0  0
 22 23  1  0  0  0
 14 15  2  0  0  0
 15 16  1  0  0  0
 15 17  1  0  0  0
 17  1  1  0  0  0
  1  2  1  0  0  0
  2  3  1  0  0  0
  3  4  2  0  0  0
  4  5  1  0  0  0
  5  6  2  0  0  0
  6  7  1  0  0  0
  7  8  2  0  0  0
  8  9  1  0  0  0
  9 31  1  0  0  0
 31 32  1  0  0  0
 32 33  2  0  0  0
 33 34  1  0  0  0
 34 35  2  0  0  0
 35 36  1  0  0  0
 35 37  1  0  0  0
 37 38  3  0  0  0
  9 10  1  0  0  0
 10 11  2  0  0  0
  6 24  1  0  0  0
 24 25  2  0  0  0
 25 26  1  0  0  0
 26 27  1  0  0  0
 26 28  1  0  0  0
 28 29  2  0  0  0
 29 30  1  0  0  0
 17 18  2  0  0  0
 18 19  1  0  0  0
 18 12  1  0  0  0
 10  1  1  0  0  0
 29 24  1  0  0  0
  8  3  1  0  0  0
 36 32  1  0  0  0
M  END
> <minimizedAffinity>
-7.93540

> <CNNscore>
0.0543336198

> <CNNaffinity>
6.7919645309

> <CNN_VS>
0.3690320253

> <CNNaffinity_variance>
0.2131896764

$$$$
[H]/C(C(=O)N1C([H])([H])C([H])([H])C([H])(N2C(=O)N(c3c(F)c(OC([H])([H])[H])c([H])c(OC([H])([H])[H])c3F)C([H])([H])c3c([H])nc(N([H])C4([H])C([H])([H])C([H])([H])N(C([H])([H])[H])C([H])([H])C4([H])[H])nc32)C([H])([H])C1([H])[H])=C(/[H])C([H])([H])N(C([H])([H])[H])C([H])([H])[H]


 46 50  0  0  0  0  0  0  0  0999 V2000
    0.2764   21.0896  -21.7783 N   0  0  0  0  0  0  0  0  0  0  0  0
    0.9446   21.2942  -23.0118 C   0  0  0  0  0  0  0  0  0  0  0  0
    0.0421   21.7724  -24.0621 C   0  0  0  0  0  0  0  0  0  0  0  0
    0.6481   22.0293  -25.3010 C   0  0  0  0  0  0  0  0  0  0  0  0
   -0.1158   22.4546  -26.2970 N   0  0  0  0  0  0  0  0  0  0  0  0
   -1.4283   22.6546  -26.1957 C   0  0  0  0  0  0  0  0  0  0  0  0
   -1.9993   22.4062  -25.0069 N   0  0  0  0  0  0  0  0  0  0  0  0
   -1.3012   21.9796  -23.9668 C   0  0  0  0  0  0  0  0  0  0  0  0
   -1.9522   21.7430  -22.7377 N   0  0  0  0  0  0  0  0  0  0  0  0
   -1.1262   21.2990  -21.6742 C   0  0  0  0  0  0  0  0  0  0  0  0
   -1.6679   21.0658  -20.5346 O   0  0  0  0  0  0  0  0  0  0  0  0
    1.9891   21.1658  -18.4415 C   0  0  0  0  0  0  0  0  0  0  0  0
    2.3646   19.8409  -18.3537 C   0  0  0  0  0  0  0  0  0  0  0  0
    2.0961   18.9173  -19.3134 C   0  0  0  0  0  0  0  0  0  0  0  0
    1.3985   19.3657  -20.4410 C   0  0  0  0  0  0  0  0  0  0  0  0
    1.1321   18.4498  -21.3926 F   0  0  0  0  0  0  0  0  0  0  0  0
    0.9974   20.6755  -20.5850 C   0  0  0  0  0  0  0  0  0  0  0  0
    1.2950   21.5640  -19.5864 C   0  0  0  0  0  0  0  0  0  0  0  0
    0.9119   22.8529  -19.7106 F   0  0  0  0  0  0  0  0  0  0  0  0
    1.7062   22.2041  -16.2052 C   0  0  0  0  0  0  0  0  0  0  0  0
    2.2884   22.0346  -17.4489 O   0  0  0  0  0  0  0  0  0  0  0  0
    2.4881   17.6143  -19.1840 O   0  0  0  0  0  0  0  0  0  0  0  0
    3.6147   16.9660  -19.6243 C   0  0  0  0  0  0  0  0  0  0  0  0
   -3.3559   21.9120  -22.5126 C   0  0  0  0  0  0  0  0  0  0  0  0
   -3.6700   23.2208  -21.7961 C   0  0  0  0  0  0  0  0  0  0  0  0
   -5.1140   23.1968  -21.4002 C   0  0  0  0  0  0  0  0  0  0  0  0
   -5.9409   22.2309  -22.0675 N   0  0  0  0  0  0  0  0  0  0  0  0
   -5.6195   21.5220  -23.2871 C   0  0  0  0  0  0  0  0  0  0  0  0
   -4.2232   21.8703  -23.7141 C   0  0  0  0  0  0  0  0  0  0  0  0
   -7.2283   21.9073  -21.5035 C   0  0  0  0  0  0  0  0  0  0  0  0
   -7.9540   21.0795  -22.0679 O   0  0  0  0  0  0  0  0  0  0  0  0
   -7.6478   22.5582  -20.2861 C   0  0  0  0  0  0  0  0  0  0  0  0
   -8.0460   21.8377  -19.2429 C   0  0  0  0  0  0  0  0  0  0  0  0
   -8.4912   22.3941  -17.9609 C   0  0  0  0  0  0  0  0  0  0  0  0
   -7.7418   21.7714  -16.8890 N   0  0  0  0  0  0  0  0  0  0  0  0
   -6.4486   22.4437  -16.8396 C   0  0  0  0  0  0  0  0  0  0  0  0
   -8.4892   22.0152  -15.6655 C   0  0  0  0  0  0  0  0  0  0  0  0
   -2.2147   23.1245  -27.3132 N   0  0  0  0  0  0  0  0  0  0  0  0
   -1.6764   23.4621  -28.1342 H   0  0  0  0  0  0  0  0  0  0  0  0
   -3.6524   23.1345  -27.3125 C   0  0  0  0  0  0  0  0  0  0  0  0
   -4.2125   24.3693  -26.6502 C   0  0  0  0  0  0  0  0  0  0  0  0
   -5.6941   24.4638  -26.9024 C   0  0  0  0  0  0  0  0  0  0  0  0
   -6.0493   24.4327  -28.2889 N   0  0  0  0  0  0  0  0  0  0  0  0
   -5.6754   25.6107  -29.0085 C   0  0  0  0  0  0  0  0  0  0  0  0
   -5.6092   23.2131  -28.9059 C   0  0  0  0  0  0  0  0  0  0  0  0
   -4.1353   23.0587  -28.7239 C   0  0  0  0  0  0  0  0  0  0  0  0
 20 21  1  0  0  0
 21 12  1  0  0  0
 12 13  2  0  0  0
 13 14  1  0  0  0
 14 22  1  0  0  0
 22 23  1  0  0  0
 14 15  2  0  0  0
 15 16  1  0  0  0
 15 17  1  0  0  0
 17  1  1  0  0  0
  1  2  1  0  0  0
  2  3  1  0  0  0
  3  4  2  0  0  0
  4  5  1  0  0  0
  5  6  2  0  0  0
  6 38  1  0  0  0
 38 40  1  0  0  0
 40 41  1  0  0  0
 41 42  1  0  0  0
 42 43  1  0  0  0
 43 44  1  0  0  0
 43 45  1  0  0  0
 45 46  1  0  0  0
  6  7  1  0  0  0
  7  8  2  0  0  0
  8  9  1  0  0  0
  9 24  1  0  0  0
 24 25  1  0  0  0
 25 26  1  0  0  0
 26 27  1  0  0  0
 27 28  1  0  0  0
 28 29  1  0  0  0
 27 30  1  0  0  0
 30 31  2  0  0  0
 30 32  1  0  0  0
 32 33  2  0  0  0
 33 34  1  0  0  0
 34 35  1  0  0  0
 35 36  1  0  0  0
 35 37  1  0  0  0
  9 10  1  0  0  0
 10 11  2  0  0  0
 17 18  2  0  0  0
 18 19  1  0  0  0
 18 12  1  0  0  0
 10  1  1  0  0  0
  8  3  1  0  0  0
 29 24  1  0  0  0
 46 40  1  0  0  0
 38 39  1  0  0  0
M  END
> <minimizedAffinity>
-8.10674

> <CNNscore>
0.1446735710

> <CNNaffinity>
7.4654626846

> <CNN_VS>
1.0800551176

> <CNNaffinity_variance>
0.0428680107

$$$$
[H]/C(C(=O)N1C([H])([H])C([H])([H])C([H])(N2C(=O)N(c3c(F)c(OC([H])([H])[H])c([H])c(OC([H])([H])[H])c3F)C([H])([H])c3c([H])nc(N([H])C4([H])C([H])([H])C([H])([H])N(C([H])([H])[H])C([H])([H])C4([H])[H])nc32)C([H])([H])C1([H])[H])=C(/[H])C([H])([H])N(C([H])([H])[H])C([H])([H])[H]


 46 50  0  0  0  0  0  0  0  0999 V2000
    0.0220   21.2102  -21.8128 N   0  0  0  0  0  0  0  0  0  0  0  0
    0.7402   21.3905  -23.0216 C   0  0  0  0  0  0  0  0  0  0  0  0
   -0.1232   21.8209  -24.1242 C   0  0  0  0  0  0  0  0  0  0  0  0
    0.5323   22.0522  -25.3428 C   0  0  0  0  0  0  0  0  0  0  0  0
   -0.1941   22.4338  -26.3836 N   0  0  0  0  0  0  0  0  0  0  0  0
   -1.5130   22.6126  -26.3455 C   0  0  0  0  0  0  0  0  0  0  0  0
   -2.1315   22.3889  -25.1756 N   0  0  0  0  0  0  0  0  0  0  0  0
   -1.4727   22.0061  -24.0937 C   0  0  0  0  0  0  0  0  0  0  0  0
   -2.1730   21.7941  -22.8875 N   0  0  0  0  0  0  0  0  0  0  0  0
   -1.3872   21.3969  -21.7761 C   0  0  0  0  0  0  0  0  0  0  0  0
   -1.9745   21.1876  -20.6546 O   0  0  0  0  0  0  0  0  0  0  0  0
    1.8036   19.2225  -19.1767 C   0  0  0  0  0  0  0  0  0  0  0  0
    1.9609   20.2076  -18.2234 C   0  0  0  0  0  0  0  0  0  0  0  0
    1.5238   21.4845  -18.3812 C   0  0  0  0  0  0  0  0  0  0  0  0
    0.8827   21.7856  -19.5885 C   0  0  0  0  0  0  0  0  0  0  0  0
    0.4494   23.0518  -19.7451 F   0  0  0  0  0  0  0  0  0  0  0  0
    0.6967   20.8449  -20.5772 C   0  0  0  0  0  0  0  0  0  0  0  0
    1.1574   19.5729  -20.3645 C   0  0  0  0  0  0  0  0  0  0  0  0
    0.9824   18.6363  -21.3213 F   0  0  0  0  0  0  0  0  0  0  0  0
    1.5957   16.8378  -18.5219 C   0  0  0  0  0  0  0  0  0  0  0  0
    2.2629   17.9696  -18.9559 O   0  0  0  0  0  0  0  0  0  0  0  0
    1.7013   22.4283  -17.4086 O   0  0  0  0  0  0  0  0  0  0  0  0
    2.8220   23.1171  -17.0177 C   0  0  0  0  0  0  0  0  0  0  0  0
   -3.5880   21.9439  -22.7289 C   0  0  0  0  0  0  0  0  0  0  0  0
   -3.9718   23.3542  -22.2943 C   0  0  0  0  0  0  0  0  0  0  0  0
   -5.4245   23.3473  -21.9307 C   0  0  0  0  0  0  0  0  0  0  0  0
   -6.1948   22.2334  -22.4083 N   0  0  0  0  0  0  0  0  0  0  0  0
   -5.8122   21.3110  -23.4552 C   0  0  0  0  0  0  0  0  0  0  0  0
   -4.4187   21.6273  -23.9150 C   0  0  0  0  0  0  0  0  0  0  0  0
   -7.4843   21.9732  -21.8170 C   0  0  0  0  0  0  0  0  0  0  0  0
   -8.1617   21.0195  -22.2194 O   0  0  0  0  0  0  0  0  0  0  0  0
   -7.9625   22.8342  -20.7627 C   0  0  0  0  0  0  0  0  0  0  0  0
   -7.8670   22.4559  -19.4924 C   0  0  0  0  0  0  0  0  0  0  0  0
   -8.3191   23.2501  -18.3451 C   0  0  0  0  0  0  0  0  0  0  0  0
   -7.3012   23.2158  -17.3152 N   0  0  0  0  0  0  0  0  0  0  0  0
   -6.8576   21.8303  -17.2138 C   0  0  0  0  0  0  0  0  0  0  0  0
   -6.2152   24.0653  -17.7780 C   0  0  0  0  0  0  0  0  0  0  0  0
   -2.2574   23.0347  -27.5098 N   0  0  0  0  0  0  0  0  0  0  0  0
   -1.6911   23.2664  -28.3485 H   0  0  0  0  0  0  0  0  0  0  0  0
   -3.6914   23.1361  -27.5308 C   0  0  0  0  0  0  0  0  0  0  0  0
   -4.1775   24.4471  -26.9634 C   0  0  0  0  0  0  0  0  0  0  0  0
   -5.6473   24.6178  -27.2430 C   0  0  0  0  0  0  0  0  0  0  0  0
   -5.9898   24.5127  -28.6291 N   0  0  0  0  0  0  0  0  0  0  0  0
   -5.5336   25.6115  -29.4226 C   0  0  0  0  0  0  0  0  0  0  0  0
   -5.6229   23.2276  -29.1541 C   0  0  0  0  0  0  0  0  0  0  0  0
   -4.1639   22.9929  -28.9405 C   0  0  0  0  0  0  0  0  0  0  0  0
 20 21  1  0  0  0
 21 12  1  0  0  0
 12 13  2  0  0  0
 13 14  1  0  0  0
 14 22  1  0  0  0
 22 23  1  0  0  0
 14 15  2  0  0  0
 15 16  1  0  0  0
 15 17  1  0  0  0
 17  1  1  0  0  0
  1  2  1  0  0  0
  2  3  1  0  0  0
  3  4  2  0  0  0
  4  5  1  0  0  0
  5  6  2  0  0  0
  6 38  1  0  0  0
 38 40  1  0  0  0
 40 41  1  0  0  0
 41 42  1  0  0  0
 42 43  1  0  0  0
 43 44  1  0  0  0
 43 45  1  0  0  0
 45 46  1  0  0  0
  6  7  1  0  0  0
  7  8  2  0  0  0
  8  9  1  0  0  0
  9 24  1  0  0  0
 24 25  1  0  0  0
 25 26  1  0  0  0
 26 27  1  0  0  0
 27 28  1  0  0  0
 28 29  1  0  0  0
 27 30  1  0  0  0
 30 31  2  0  0  0
 30 32  1  0  0  0
 32 33  2  0  0  0
 33 34  1  0  0  0
 34 35  1  0  0  0
 35 36  1  0  0  0
 35 37  1  0  0  0
  9 10  1  0  0  0
 10 11  2  0  0  0
 17 18  2  0  0  0
 18 19  1  0  0  0
 18 12  1  0  0  0
 10  1  1  0  0  0
  8  3  1  0  0  0
 29 24  1  0  0  0
 46 40  1  0  0  0
 38 39  1  0  0  0
M  END
> <minimizedAffinity>
-8.37423

> <CNNscore>
0.1328586340

> <CNNaffinity>
7.5596389771

> <CNN_VS>
1.0043632984

> <CNNaffinity_variance>
0.0529618040

$$$$
[H]/C(C(=O)N1C([H])([H])C([H])([H])C([H])(N2C(=O)N(c3c(F)c(OC([H])([H])[H])c([H])c(OC([H])([H])[H])c3F)C([H])([H])c3c([H])nc(N([H])C4([H])C([H])([H])C([H])([H])N(C([H])([H])[H])C([H])([H])C4([H])[H])nc32)C([H])([H])C1([H])[H])=C(/[H])C([H])([H])N(C([H])([H])[H])C([H])([H])[H]


 46 50  0  0  0  0  0  0  0  0999 V2000
   -0.4037   21.2819  -21.6719 N   0  0  0  0  0  0  0  0  0  0  0  0
    0.3433   21.3426  -22.8752 C   0  0  0  0  0  0  0  0  0  0  0  0
   -0.4485   21.8516  -23.9978 C   0  0  0  0  0  0  0  0  0  0  0  0
    0.2427   21.9705  -25.2129 C   0  0  0  0  0  0  0  0  0  0  0  0
   -0.4200   22.4155  -26.2709 N   0  0  0  0  0  0  0  0  0  0  0  0
   -1.7064   22.7586  -26.2534 C   0  0  0  0  0  0  0  0  0  0  0  0
   -2.3595   22.6415  -25.0869 N   0  0  0  0  0  0  0  0  0  0  0  0
   -1.7645   22.2048  -23.9885 C   0  0  0  0  0  0  0  0  0  0  0  0
   -2.4976   22.1103  -22.7869 N   0  0  0  0  0  0  0  0  0  0  0  0
   -1.7787   21.6441  -21.6571 C   0  0  0  0  0  0  0  0  0  0  0  0
   -2.3985   21.5363  -20.5388 O   0  0  0  0  0  0  0  0  0  0  0  0
    1.0358   19.1434  -18.9464 C   0  0  0  0  0  0  0  0  0  0  0  0
    1.3617   20.1297  -18.0382 C   0  0  0  0  0  0  0  0  0  0  0  0
    1.1437   21.4534  -18.2539 C   0  0  0  0  0  0  0  0  0  0  0  0
    0.5548   21.8036  -19.4744 C   0  0  0  0  0  0  0  0  0  0  0  0
    0.3388   23.1162  -19.6885 F   0  0  0  0  0  0  0  0  0  0  0  0
    0.2078   20.8641  -20.4201 C   0  0  0  0  0  0  0  0  0  0  0  0
    0.4502   19.5438  -20.1497 C   0  0  0  0  0  0  0  0  0  0  0  0
    0.1149   18.6080  -21.0636 F   0  0  0  0  0  0  0  0  0  0  0  0
    2.2879   17.0075  -19.1179 C   0  0  0  0  0  0  0  0  0  0  0  0
    1.2800   17.8422  -18.6688 O   0  0  0  0  0  0  0  0  0  0  0  0
    1.4828   22.3965  -17.3245 O   0  0  0  0  0  0  0  0  0  0  0  0
    2.6739   23.0339  -17.0833 C   0  0  0  0  0  0  0  0  0  0  0  0
   -3.8841   22.4395  -22.6495 C   0  0  0  0  0  0  0  0  0  0  0  0
   -4.1661   23.8973  -22.9964 C   0  0  0  0  0  0  0  0  0  0  0  0
   -5.5778   24.2026  -22.6005 C   0  0  0  0  0  0  0  0  0  0  0  0
   -6.4354   23.0722  -22.3794 N   0  0  0  0  0  0  0  0  0  0  0  0
   -6.1910   21.7123  -22.8085 C   0  0  0  0  0  0  0  0  0  0  0  0
   -4.8341   21.6255  -23.4447 C   0  0  0  0  0  0  0  0  0  0  0  0
   -7.6742   23.2662  -21.6669 C   0  0  0  0  0  0  0  0  0  0  0  0
   -8.4257   22.3032  -21.4709 O   0  0  0  0  0  0  0  0  0  0  0  0
   -8.0157   24.5858  -21.1939 C   0  0  0  0  0  0  0  0  0  0  0  0
   -9.1687   25.1463  -21.5435 C   0  0  0  0  0  0  0  0  0  0  0  0
   -9.6152   26.4782  -21.1213 C   0  0  0  0  0  0  0  0  0  0  0  0
  -10.3890   27.0783  -22.1887 N   0  0  0  0  0  0  0  0  0  0  0  0
  -11.1504   25.9999  -22.8084 C   0  0  0  0  0  0  0  0  0  0  0  0
  -11.2838   28.0383  -21.5620 C   0  0  0  0  0  0  0  0  0  0  0  0
   -2.3806   23.2431  -27.4361 N   0  0  0  0  0  0  0  0  0  0  0  0
   -1.7651   23.5294  -28.2216 H   0  0  0  0  0  0  0  0  0  0  0  0
   -3.8116   23.3331  -27.5430 C   0  0  0  0  0  0  0  0  0  0  0  0
   -4.3300   24.6849  -27.1180 C   0  0  0  0  0  0  0  0  0  0  0  0
   -5.7828   24.8214  -27.4900 C   0  0  0  0  0  0  0  0  0  0  0  0
   -6.0494   24.5950  -28.8783 N   0  0  0  0  0  0  0  0  0  0  0  0
   -5.5528   25.6242  -29.7381 C   0  0  0  0  0  0  0  0  0  0  0  0
   -5.6523   23.2718  -29.2697 C   0  0  0  0  0  0  0  0  0  0  0  0
   -4.2066   23.0658  -28.9584 C   0  0  0  0  0  0  0  0  0  0  0  0
 20 21  1  0  0  0
 21 12  1  0  0  0
 12 13  2  0  0  0
 13 14  1  0  0  0
 14 22  1  0  0  0
 22 23  1  0  0  0
 14 15  2  0  0  0
 15 16  1  0  0  0
 15 17  1  0  0  0
 17  1  1  0  0  0
  1  2  1  0  0  0
  2  3  1  0  0  0
  3  4  2  0  0  0
  4  5  1  0  0  0
  5  6  2  0  0  0
  6 38  1  0  0  0
 38 40  1  0  0  0
 40 41  1  0  0  0
 41 42  1  0  0  0
 42 43  1  0  0  0
 43 44  1  0  0  0
 43 45  1  0  0  0
 45 46  1  0  0  0
  6  7  1  0  0  0
  7  8  2  0  0  0
  8  9  1  0  0  0
  9 24  1  0  0  0
 24 25  1  0  0  0
 25 26  1  0  0  0
 26 27  1  0  0  0
 27 28  1  0  0  0
 28 29  1  0  0  0
 27 30  1  0  0  0
 30 31  2  0  0  0
 30 32  1  0  0  0
 32 33  2  0  0  0
 33 34  1  0  0  0
 34 35  1  0  0  0
 35 36  1  0  0  0
 35 37  1  0  0  0
  9 10  1  0  0  0
 10 11  2  0  0  0
 17 18  2  0  0  0
 18 19  1  0  0  0
 18 12  1  0  0  0
 10  1  1  0  0  0
  8  3  1  0  0  0
 29 24  1  0  0  0
 46 40  1  0  0  0
 38 39  1  0  0  0
M  END
> <minimizedAffinity>
-8.87755

> <CNNscore>
0.1134462059

> <CNNaffinity>
7.8024621010

> <CNN_VS>
0.8851597309

> <CNNaffinity_variance>
0.2708961070

$$$$
[H]/C(C(=O)N1C([H])([H])C([H])([H])C([H])(N2C(=O)N(c3c(F)c(OC([H])([H])[H])c([H])c(OC([H])([H])[H])c3F)C([H])([H])c3c([H])nc(N([H])C4([H])C([H])([H])C([H])([H])N(C([H])([H])[H])C([H])([H])C4([H])[H])nc32)C([H])([H])C1([H])[H])=C(/[H])C([H])([H])N(C([H])([H])[H])C([H])([H])[H]


 46 50  0  0  0  0  0  0  0  0999 V2000
   -0.4420   21.3117  -21.6696 N   0  0  0  0  0  0  0  0  0  0  0  0
    0.3115   21.3568  -22.8695 C   0  0  0  0  0  0  0  0  0  0  0  0
   -0.4718   21.8591  -24.0011 C   0  0  0  0  0  0  0  0  0  0  0  0
    0.2264   21.9626  -25.2136 C   0  0  0  0  0  0  0  0  0  0  0  0
   -0.4284   22.4009  -26.2793 N   0  0  0  0  0  0  0  0  0  0  0  0
   -1.7130   22.7510  -26.2719 C   0  0  0  0  0  0  0  0  0  0  0  0
   -2.3728   22.6486  -25.1077 N   0  0  0  0  0  0  0  0  0  0  0  0
   -1.7858   22.2194  -24.0021 C   0  0  0  0  0  0  0  0  0  0  0  0
   -2.5257   22.1403  -22.8035 N   0  0  0  0  0  0  0  0  0  0  0  0
   -1.8151   21.6812  -21.6655 C   0  0  0  0  0  0  0  0  0  0  0  0
   -2.4414   21.5875  -20.5495 O   0  0  0  0  0  0  0  0  0  0  0  0
    1.0866   21.4256  -18.2456 C   0  0  0  0  0  0  0  0  0  0  0  0
    1.2995   20.0761  -18.0518 C   0  0  0  0  0  0  0  0  0  0  0  0
    0.9767   19.1242  -18.9662 C   0  0  0  0  0  0  0  0  0  0  0  0
    0.3977   19.5692  -20.1603 C   0  0  0  0  0  0  0  0  0  0  0  0
    0.0775   18.6253  -21.0670 F   0  0  0  0  0  0  0  0  0  0  0  0
    0.1606   20.9027  -20.4106 C   0  0  0  0  0  0  0  0  0  0  0  0
    0.5061   21.8192  -19.4535 C   0  0  0  0  0  0  0  0  0  0  0  0
    0.2834   23.1313  -19.6817 F   0  0  0  0  0  0  0  0  0  0  0  0
    2.6017   23.0413  -17.1263 C   0  0  0  0  0  0  0  0  0  0  0  0
    1.4317   22.3219  -17.2931 O   0  0  0  0  0  0  0  0  0  0  0  0
    1.2064   17.7975  -18.7313 O   0  0  0  0  0  0  0  0  0  0  0  0
    2.2580   16.9902  -19.0858 C   0  0  0  0  0  0  0  0  0  0  0  0
   -3.9111   22.4782  -22.6766 C   0  0  0  0  0  0  0  0  0  0  0  0
   -4.1914   23.9197  -23.0872 C   0  0  0  0  0  0  0  0  0  0  0  0
   -5.6012   24.2452  -22.7009 C   0  0  0  0  0  0  0  0  0  0  0  0
   -6.4603   23.1275  -22.4269 N   0  0  0  0  0  0  0  0  0  0  0  0
   -6.2199   21.7494  -22.7958 C   0  0  0  0  0  0  0  0  0  0  0  0
   -4.8652   21.6315  -23.4317 C   0  0  0  0  0  0  0  0  0  0  0  0
   -7.6965   23.3556  -21.7198 C   0  0  0  0  0  0  0  0  0  0  0  0
   -8.4491   22.4039  -21.4788 O   0  0  0  0  0  0  0  0  0  0  0  0
   -8.0338   24.6957  -21.3050 C   0  0  0  0  0  0  0  0  0  0  0  0
   -9.2449   25.1873  -21.5447 C   0  0  0  0  0  0  0  0  0  0  0  0
   -9.6933   26.5320  -21.1677 C   0  0  0  0  0  0  0  0  0  0  0  0
  -10.4810   27.0886  -22.2484 N   0  0  0  0  0  0  0  0  0  0  0  0
  -11.2967   25.9996  -22.7732 C   0  0  0  0  0  0  0  0  0  0  0  0
  -11.3235   28.1173  -21.6593 C   0  0  0  0  0  0  0  0  0  0  0  0
   -2.3784   23.2276  -27.4627 N   0  0  0  0  0  0  0  0  0  0  0  0
   -1.7574   23.5032  -28.2476 H   0  0  0  0  0  0  0  0  0  0  0  0
   -3.8083   23.3241  -27.5780 C   0  0  0  0  0  0  0  0  0  0  0  0
   -4.3193   24.6905  -27.1925 C   0  0  0  0  0  0  0  0  0  0  0  0
   -5.7697   24.8263  -27.5742 C   0  0  0  0  0  0  0  0  0  0  0  0
   -6.0323   24.5635  -28.9568 N   0  0  0  0  0  0  0  0  0  0  0  0
   -5.5254   25.5654  -29.8425 C   0  0  0  0  0  0  0  0  0  0  0  0
   -5.6425   23.2275  -29.3100 C   0  0  0  0  0  0  0  0  0  0  0  0
   -4.1996   23.0206  -28.9871 C   0  0  0  0  0  0  0  0  0  0  0  0
 20 21  1  0  0  0
 21 12  1  0  0  0
 12 13  2  0  0  0
 13 14  1  0  0  0
 14 22  1  0  0  0
 22 23  1  0  0  0
 14 15  2  0  0  0
 15 16  1  0  0  0
 15 17  1  0  0  0
 17  1  1  0  0  0
  1  2  1  0  0  0
  2  3  1  0  0  0
  3  4  2  0  0  0
  4  5  1  0  0  0
  5  6  2  0  0  0
  6 38  1  0  0  0
 38 40  1  0  0  0
 40 41  1  0  0  0
 41 42  1  0  0  0
 42 43  1  0  0  0
 43 44  1  0  0  0
 43 45  1  0  0  0
 45 46  1  0  0  0
  6  7  1  0  0  0
  7  8  2  0  0  0
  8  9  1  0  0  0
  9 24  1  0  0  0
 24 25  1  0  0  0
 25 26  1  0  0  0
 26 27  1  0  0  0
 27 28  1  0  0  0
 28 29  1  0  0  0
 27 30  1  0  0  0
 30 31  2  0  0  0
 30 32  1  0  0  0
 32 33  2  0  0  0
 33 34  1  0  0  0
 34 35  1  0  0  0
 35 36  1  0  0  0
 35 37  1  0  0  0
  9 10  1  0  0  0
 10 11  2  0  0  0
 17 18  2  0  0  0
 18 19  1  0  0  0
 18 12  1  0  0  0
 10  1  1  0  0  0
  8  3  1  0  0  0
 29 24  1  0  0  0
 46 40  1  0  0  0
 38 39  1  0  0  0
M  END
> <minimizedAffinity>
-8.91411

> <CNNscore>
0.1124495342

> <CNNaffinity>
7.8005495071

> <CNN_VS>
0.8771681786

> <CNNaffinity_variance>
0.2815665603

$$$$
[H]/C(C(=O)N1C([H])([H])C([H])([H])C([H])(N2C(=O)N(c3c(F)c(OC([H])([H])[H])c([H])c(OC([H])([H])[H])c3F)C([H])([H])c3c([H])nc(N([H])C4([H])C([H])([H])C([H])([H])N(C([H])([H])[H])C([H])([H])C4([H])[H])nc32)C([H])([H])C1([H])[H])=C(/[H])C([H])([H])N(C([H])([H])[H])C([H])([H])[H]


 46 50  0  0  0  0  0  0  0  0999 V2000
   -2.9215   23.0751  -21.9069 N   0  0  0  0  0  0  0  0  0  0  0  0
   -1.6636   23.3914  -21.3348 C   0  0  0  0  0  0  0  0  0  0  0  0
   -1.5008   22.8200  -19.9956 C   0  0  0  0  0  0  0  0  0  0  0  0
   -0.2613   23.0662  -19.3862 C   0  0  0  0  0  0  0  0  0  0  0  0
   -0.0540   22.5853  -18.1688 N   0  0  0  0  0  0  0  0  0  0  0  0
   -0.9519   21.8796  -17.4842 C   0  0  0  0  0  0  0  0  0  0  0  0
   -2.1347   21.6490  -18.0750 N   0  0  0  0  0  0  0  0  0  0  0  0
   -2.4140   22.0971  -19.2884 C   0  0  0  0  0  0  0  0  0  0  0  0
   -3.6709   21.8172  -19.8647 N   0  0  0  0  0  0  0  0  0  0  0  0
   -3.8806   22.3256  -21.1717 C   0  0  0  0  0  0  0  0  0  0  0  0
   -5.0083   22.1023  -21.7418 O   0  0  0  0  0  0  0  0  0  0  0  0
   -3.1709   23.1863  -25.6484 C   0  0  0  0  0  0  0  0  0  0  0  0
   -3.9433   24.3214  -25.7864 C   0  0  0  0  0  0  0  0  0  0  0  0
   -4.3922   25.0585  -24.7369 C   0  0  0  0  0  0  0  0  0  0  0  0
   -4.0347   24.6158  -23.4581 C   0  0  0  0  0  0  0  0  0  0  0  0
   -4.4800   25.3466  -22.4174 F   0  0  0  0  0  0  0  0  0  0  0  0
   -3.2663   23.4905  -23.2574 C   0  0  0  0  0  0  0  0  0  0  0  0
   -2.8409   22.7855  -24.3517 C   0  0  0  0  0  0  0  0  0  0  0  0
   -2.0848   21.6808  -24.1751 F   0  0  0  0  0  0  0  0  0  0  0  0
   -1.5425   22.5230  -27.3998 C   0  0  0  0  0  0  0  0  0  0  0  0
   -2.7565   22.4978  -26.7364 O   0  0  0  0  0  0  0  0  0  0  0  0
   -5.1554   26.1774  -24.9211 O   0  0  0  0  0  0  0  0  0  0  0  0
   -4.8988   27.3382  -25.6065 C   0  0  0  0  0  0  0  0  0  0  0  0
   -4.7165   21.0799  -19.2223 C   0  0  0  0  0  0  0  0  0  0  0  0
   -4.2308   19.7342  -18.6946 C   0  0  0  0  0  0  0  0  0  0  0  0
   -5.4286   18.9484  -18.2584 C   0  0  0  0  0  0  0  0  0  0  0  0
   -6.6387   19.6940  -18.0534 N   0  0  0  0  0  0  0  0  0  0  0  0
   -6.7477   21.1285  -17.9005 C   0  0  0  0  0  0  0  0  0  0  0  0
   -5.3972   21.7553  -18.0920 C   0  0  0  0  0  0  0  0  0  0  0  0
   -7.8917   18.9832  -17.9830 C   0  0  0  0  0  0  0  0  0  0  0  0
   -8.9428   19.6104  -17.8037 O   0  0  0  0  0  0  0  0  0  0  0  0
   -7.8959   17.5473  -18.1236 C   0  0  0  0  0  0  0  0  0  0  0  0
   -8.4619   16.7839  -17.1948 C   0  0  0  0  0  0  0  0  0  0  0  0
   -8.5235   15.3190  -17.2371 C   0  0  0  0  0  0  0  0  0  0  0  0
   -7.1937   14.7962  -17.4748 N   0  0  0  0  0  0  0  0  0  0  0  0
   -6.6112   14.5278  -16.1651 C   0  0  0  0  0  0  0  0  0  0  0  0
   -7.3626   13.5587  -18.2200 C   0  0  0  0  0  0  0  0  0  0  0  0
   -0.6727   21.3737  -16.1598 N   0  0  0  0  0  0  0  0  0  0  0  0
   -0.6242   22.0852  -15.4054 H   0  0  0  0  0  0  0  0  0  0  0  0
   -0.4704   19.9782  -15.8787 C   0  0  0  0  0  0  0  0  0  0  0  0
   -1.7740   19.2311  -15.7398 C   0  0  0  0  0  0  0  0  0  0  0  0
   -1.5183   17.7474  -15.7083 C   0  0  0  0  0  0  0  0  0  0  0  0
   -0.7791   17.2626  -16.8345 N   0  0  0  0  0  0  0  0  0  0  0  0
   -1.5129   17.2861  -18.0617 C   0  0  0  0  0  0  0  0  0  0  0  0
    0.5074   17.8950  -16.9168 C   0  0  0  0  0  0  0  0  0  0  0  0
    0.3381   19.3770  -16.9813 C   0  0  0  0  0  0  0  0  0  0  0  0
 20 21  1  0  0  0
 21 12  1  0  0  0
 12 13  2  0  0  0
 13 14  1  0  0  0
 14 22  1  0  0  0
 22 23  1  0  0  0
 14 15  2  0  0  0
 15 16  1  0  0  0
 15 17  1  0  0  0
 17  1  1  0  0  0
  1  2  1  0  0  0
  2  3  1  0  0  0
  3  4  2  0  0  0
  4  5  1  0  0  0
  5  6  2  0  0  0
  6 38  1  0  0  0
 38 40  1  0  0  0
 40 41  1  0  0  0
 41 42  1  0  0  0
 42 43  1  0  0  0
 43 44  1  0  0  0
 43 45  1  0  0  0
 45 46  1  0  0  0
  6  7  1  0  0  0
  7  8  2  0  0  0
  8  9  1  0  0  0
  9 24  1  0  0  0
 24 25  1  0  0  0
 25 26  1  0  0  0
 26 27  1  0  0  0
 27 28  1  0  0  0
 28 29  1  0  0  0
 27 30  1  0  0  0
 30 31  2  0  0  0
 30 32  1  0  0  0
 32 33  2  0  0  0
 33 34  1  0  0  0
 34 35  1  0  0  0
 35 36  1  0  0  0
 35 37  1  0  0  0
  9 10  1  0  0  0
 10 11  2  0  0  0
 17 18  2  0  0  0
 18 19  1  0  0  0
 18 12  1  0  0  0
 10  1  1  0  0  0
  8  3  1  0  0  0
 29 24  1  0  0  0
 46 40  1  0  0  0
 38 39  1  0  0  0
M  END
> <minimizedAffinity>
-6.28219

> <CNNscore>
0.0677577481

> <CNNaffinity>
6.2504625320

> <CNN_VS>
0.4235172570

> <CNNaffinity_variance>
0.2014667690

$$$$
[H]/C(C(=O)N1C([H])([H])C([H])([H])C([H])(N2C(=O)N(c3c(F)c(OC([H])([H])[H])c([H])c(OC([H])([H])[H])c3F)C([H])([H])c3c([H])nc(N([H])C4([H])C([H])([H])C([H])([H])N(C([H])([H])[H])C([H])([H])C4([H])[H])nc32)C([H])([H])C1([H])[H])=C(/[H])C([H])([H])N(C([H])([H])[H])C([H])([H])[H]


 46 50  0  0  0  0  0  0  0  0999 V2000
   -5.2194   22.6700  -22.6914 N   0  0  0  0  0  0  0  0  0  0  0  0
   -6.5927   22.3642  -22.5180 C   0  0  0  0  0  0  0  0  0  0  0  0
   -6.8698   21.7666  -21.2094 C   0  0  0  0  0  0  0  0  0  0  0  0
   -8.2185   21.4721  -20.9592 C   0  0  0  0  0  0  0  0  0  0  0  0
   -8.5349   20.9197  -19.7967 N   0  0  0  0  0  0  0  0  0  0  0  0
   -7.6496   20.6255  -18.8467 C   0  0  0  0  0  0  0  0  0  0  0  0
   -6.3619   20.9107  -19.0949 N   0  0  0  0  0  0  0  0  0  0  0  0
   -5.9703   21.4624  -20.2322 C   0  0  0  0  0  0  0  0  0  0  0  0
   -4.6041   21.7490  -20.4359 N   0  0  0  0  0  0  0  0  0  0  0  0
   -4.2752   22.3501  -21.6774 C   0  0  0  0  0  0  0  0  0  0  0  0
   -3.0457   22.6293  -21.9158 O   0  0  0  0  0  0  0  0  0  0  0  0
   -4.2608   25.3225  -25.1651 C   0  0  0  0  0  0  0  0  0  0  0  0
   -3.8129   24.5175  -26.1924 C   0  0  0  0  0  0  0  0  0  0  0  0
   -3.8010   23.1600  -26.1344 C   0  0  0  0  0  0  0  0  0  0  0  0
   -4.2755   22.5762  -24.9541 C   0  0  0  0  0  0  0  0  0  0  0  0
   -4.2636   21.2301  -24.8966 F   0  0  0  0  0  0  0  0  0  0  0  0
   -4.7350   23.3274  -23.8950 C   0  0  0  0  0  0  0  0  0  0  0  0
   -4.7244   24.6921  -24.0080 C   0  0  0  0  0  0  0  0  0  0  0  0
   -5.1730   25.4454  -22.9811 F   0  0  0  0  0  0  0  0  0  0  0  0
   -5.2621   27.5472  -25.6207 C   0  0  0  0  0  0  0  0  0  0  0  0
   -4.2456   26.6695  -25.2878 O   0  0  0  0  0  0  0  0  0  0  0  0
   -3.3480   22.4019  -27.1777 O   0  0  0  0  0  0  0  0  0  0  0  0
   -2.7797   22.7648  -28.3729 C   0  0  0  0  0  0  0  0  0  0  0  0
   -3.5628   21.4687  -19.4943 C   0  0  0  0  0  0  0  0  0  0  0  0
   -3.3864   22.5936  -18.4801 C   0  0  0  0  0  0  0  0  0  0  0  0
   -2.1389   22.3204  -17.6980 C   0  0  0  0  0  0  0  0  0  0  0  0
   -1.6290   20.9794  -17.7614 N   0  0  0  0  0  0  0  0  0  0  0  0
   -2.3480   19.8079  -18.2129 C   0  0  0  0  0  0  0  0  0  0  0  0
   -3.7028   20.2159  -18.7143 C   0  0  0  0  0  0  0  0  0  0  0  0
   -0.2725   20.7290  -17.3400 C   0  0  0  0  0  0  0  0  0  0  0  0
    0.1809   19.5789  -17.3855 O   0  0  0  0  0  0  0  0  0  0  0  0
    0.5340   21.8296  -16.8711 C   0  0  0  0  0  0  0  0  0  0  0  0
    1.8589   21.7288  -16.8488 C   0  0  0  0  0  0  0  0  0  0  0  0
    2.7721   22.7825  -16.3937 C   0  0  0  0  0  0  0  0  0  0  0  0
    3.0761   23.6584  -17.5066 N   0  0  0  0  0  0  0  0  0  0  0  0
    4.0801   24.6031  -17.0312 C   0  0  0  0  0  0  0  0  0  0  0  0
    3.6263   22.8168  -18.5574 C   0  0  0  0  0  0  0  0  0  0  0  0
   -8.0492   20.0273  -17.5935 N   0  0  0  0  0  0  0  0  0  0  0  0
   -7.3542   20.0834  -16.8243 H   0  0  0  0  0  0  0  0  0  0  0  0
   -9.3225   19.3886  -17.3989 C   0  0  0  0  0  0  0  0  0  0  0  0
   -9.1902   18.0558  -16.7040 C   0  0  0  0  0  0  0  0  0  0  0  0
  -10.5478   17.5516  -16.2908 C   0  0  0  0  0  0  0  0  0  0  0  0
  -11.2847   18.4710  -15.4776 N   0  0  0  0  0  0  0  0  0  0  0  0
  -10.7519   18.6340  -14.1605 C   0  0  0  0  0  0  0  0  0  0  0  0
  -11.5047   19.7092  -16.1705 C   0  0  0  0  0  0  0  0  0  0  0  0
  -10.1959   20.2918  -16.5911 C   0  0  0  0  0  0  0  0  0  0  0  0
 20 21  1  0  0  0
 21 12  1  0  0  0
 12 13  2  0  0  0
 13 14  1  0  0  0
 14 22  1  0  0  0
 22 23  1  0  0  0
 14 15  2  0  0  0
 15 16  1  0  0  0
 15 17  1  0  0  0
 17  1  1  0  0  0
  1  2  1  0  0  0
  2  3  1  0  0  0
  3  4  2  0  0  0
  4  5  1  0  0  0
  5  6  2  0  0  0
  6 38  1  0  0  0
 38 40  1  0  0  0
 40 41  1  0  0  0
 41 42  1  0  0  0
 42 43  1  0  0  0
 43 44  1  0  0  0
 43 45  1  0  0  0
 45 46  1  0  0  0
  6  7  1  0  0  0
  7  8  2  0  0  0
  8  9  1  0  0  0
  9 24  1  0  0  0
 24 25  1  0  0  0
 25 26  1  0  0  0
 26 27  1  0  0  0
 27 28  1  0  0  0
 28 29  1  0  0  0
 27 30  1  0  0  0
 30 31  2  0  0  0
 30 32  1  0  0  0
 32 33  2  0  0  0
 33 34  1  0  0  0
 34 35  1  0  0  0
 35 36  1  0  0  0
 35 37  1  0  0  0
  9 10  1  0  0  0
 10 11  2  0  0  0
 17 18  2  0  0  0
 18 19  1  0  0  0
 18 12  1  0  0  0
 10  1  1  0  0  0
  8  3  1  0  0  0
 29 24  1  0  0  0
 46 40  1  0  0  0
 38 39  1  0  0  0
M  END
> <minimizedAffinity>
-7.48386

> <CNNscore>
0.0564820655

> <CNNaffinity>
6.2825384140

> <CNN_VS>
0.3548507392

> <CNNaffinity_variance>
0.2858765125

$$$$
[H]/C(C(=O)N1C([H])([H])C([H])([H])C([H])(N2C(=O)N(c3c(F)c(OC([H])([H])[H])c([H])c(OC([H])([H])[H])c3F)C([H])([H])c3c([H])nc(N([H])C4([H])C([H])([H])C([H])([H])N(C([H])([H])[H])C([H])([H])C4([H])[H])nc32)C([H])([H])C1([H])[H])=C(/[H])C([H])([H])N(C([H])([H])[H])C([H])([H])[H]


 46 50  0  0  0  0  0  0  0  0999 V2000
   -4.9142   22.4539  -22.6857 N   0  0  0  0  0  0  0  0  0  0  0  0
   -6.2569   22.0930  -22.4093 C   0  0  0  0  0  0  0  0  0  0  0  0
   -6.4160   21.5208  -21.0700 C   0  0  0  0  0  0  0  0  0  0  0  0
   -7.7294   21.1744  -20.7190 C   0  0  0  0  0  0  0  0  0  0  0  0
   -7.9397   20.6415  -19.5239 N   0  0  0  0  0  0  0  0  0  0  0  0
   -6.9788   20.4132  -18.6309 C   0  0  0  0  0  0  0  0  0  0  0  0
   -5.7256   20.7477  -18.9754 N   0  0  0  0  0  0  0  0  0  0  0  0
   -5.4386   21.2840  -20.1506 C   0  0  0  0  0  0  0  0  0  0  0  0
   -4.1041   21.6246  -20.4564 N   0  0  0  0  0  0  0  0  0  0  0  0
   -3.8891   22.2044  -21.7324 C   0  0  0  0  0  0  0  0  0  0  0  0
   -2.6929   22.5306  -22.0629 O   0  0  0  0  0  0  0  0  0  0  0  0
   -3.5524   23.0277  -26.1339 C   0  0  0  0  0  0  0  0  0  0  0  0
   -3.8645   24.3641  -26.2770 C   0  0  0  0  0  0  0  0  0  0  0  0
   -4.4931   25.0968  -25.3208 C   0  0  0  0  0  0  0  0  0  0  0  0
   -4.8296   24.4304  -24.1369 C   0  0  0  0  0  0  0  0  0  0  0  0
   -5.4530   25.1569  -23.1887 F   0  0  0  0  0  0  0  0  0  0  0  0
   -4.5442   23.0979  -23.9362 C   0  0  0  0  0  0  0  0  0  0  0  0
   -3.9091   22.4078  -24.9340 C   0  0  0  0  0  0  0  0  0  0  0  0
   -3.6190   21.1012  -24.7549 F   0  0  0  0  0  0  0  0  0  0  0  0
   -1.8090   22.6982  -27.8692 C   0  0  0  0  0  0  0  0  0  0  0  0
   -2.9250   22.3559  -27.1263 O   0  0  0  0  0  0  0  0  0  0  0  0
   -4.7824   26.4198  -25.5061 O   0  0  0  0  0  0  0  0  0  0  0  0
   -4.0954   27.5503  -25.1412 C   0  0  0  0  0  0  0  0  0  0  0  0
   -2.9889   21.4168  -19.5830 C   0  0  0  0  0  0  0  0  0  0  0  0
   -2.7106   22.6331  -18.7064 C   0  0  0  0  0  0  0  0  0  0  0  0
   -1.4037   22.4121  -18.0094 C   0  0  0  0  0  0  0  0  0  0  0  0
   -0.9188   21.0607  -17.9799 N   0  0  0  0  0  0  0  0  0  0  0  0
   -1.6895   19.8660  -18.2480 C   0  0  0  0  0  0  0  0  0  0  0  0
   -3.0772   20.2513  -18.6713 C   0  0  0  0  0  0  0  0  0  0  0  0
    0.4657   20.8241  -17.6520 C   0  0  0  0  0  0  0  0  0  0  0  0
    0.8983   19.6656  -17.6193 O   0  0  0  0  0  0  0  0  0  0  0  0
    1.3241   21.9482  -17.3669 C   0  0  0  0  0  0  0  0  0  0  0  0
    1.9030   22.0653  -16.1765 C   0  0  0  0  0  0  0  0  0  0  0  0
    2.7914   23.1633  -15.7810 C   0  0  0  0  0  0  0  0  0  0  0  0
    3.9089   23.2225  -16.7006 N   0  0  0  0  0  0  0  0  0  0  0  0
    4.3620   24.6086  -16.7171 C   0  0  0  0  0  0  0  0  0  0  0  0
    4.9412   22.3561  -16.1540 C   0  0  0  0  0  0  0  0  0  0  0  0
   -7.2636   19.8335  -17.3383 N   0  0  0  0  0  0  0  0  0  0  0  0
   -6.5875   19.1199  -17.0044 H   0  0  0  0  0  0  0  0  0  0  0  0
   -8.4044   20.2041  -16.5456 C   0  0  0  0  0  0  0  0  0  0  0  0
   -8.7952   21.6471  -16.7507 C   0  0  0  0  0  0  0  0  0  0  0  0
  -10.1326   21.9158  -16.1128 C   0  0  0  0  0  0  0  0  0  0  0  0
  -11.1753   21.0442  -16.5631 N   0  0  0  0  0  0  0  0  0  0  0  0
  -11.5786   21.2753  -17.9156 C   0  0  0  0  0  0  0  0  0  0  0  0
  -10.8581   19.6728  -16.2798 C   0  0  0  0  0  0  0  0  0  0  0  0
   -9.5506   19.3171  -16.9068 C   0  0  0  0  0  0  0  0  0  0  0  0
 20 21  1  0  0  0
 21 12  1  0  0  0
 12 13  2  0  0  0
 13 14  1  0  0  0
 14 22  1  0  0  0
 22 23  1  0  0  0
 14 15  2  0  0  0
 15 16  1  0  0  0
 15 17  1  0  0  0
 17  1  1  0  0  0
  1  2  1  0  0  0
  2  3  1  0  0  0
  3  4  2  0  0  0
  4  5  1  0  0  0
  5  6  2  0  0  0
  6 38  1  0  0  0
 38 40  1  0  0  0
 40 41  1  0  0  0
 41 42  1  0  0  0
 42 43  1  0  0  0
 43 44  1  0  0  0
 43 45  1  0  0  0
 45 46  1  0  0  0
  6  7  1  0  0  0
  7  8  2  0  0  0
  8  9  1  0  0  0
  9 24  1  0  0  0
 24 25  1  0  0  0
 25 26  1  0  0  0
 26 27  1  0  0  0
 27 28  1  0  0  0
 28 29  1  0  0  0
 27 30  1  0  0  0
 30 31  2  0  0  0
 30 32  1  0  0  0
 32 33  2  0  0  0
 33 34  1  0  0  0
 34 35  1  0  0  0
 35 36  1  0  0  0
 35 37  1  0  0  0
  9 10  1  0  0  0
 10 11  2  0  0  0
 17 18  2  0  0  0
 18 19  1  0  0  0
 18 12  1  0  0  0
 10  1  1  0  0  0
  8  3  1  0  0  0
 29 24  1  0  0  0
 46 40  1  0  0  0
 38 39  1  0  0  0
M  END
> <minimizedAffinity>
-7.29493

> <CNNscore>
0.0538619459

> <CNNaffinity>
6.3091416359

> <CNN_VS>
0.3398226500

> <CNNaffinity_variance>
0.2896034718

$$$$
[H]/C(C(=O)N1C([H])([H])C([H])([H])C([H])(N2C(=O)N(c3c(F)c(OC([H])([H])[H])c([H])c(OC([H])([H])[H])c3F)C([H])([H])c3c([H])nc(N([H])C4([H])C([H])([H])C([H])([H])N(C([H])([H])[H])C([H])([H])C4([H])[H])nc32)C([H])([H])C1([H])[H])=C(/[H])C([H])([H])N(C([H])([H])[H])C([H])([H])[H]


 46 50  0  0  0  0  0  0  0  0999 V2000
   -5.3600   22.6229  -22.5016 N   0  0  0  0  0  0  0  0  0  0  0  0
   -6.7581   22.4373  -22.3581 C   0  0  0  0  0  0  0  0  0  0  0  0
   -7.1159   21.8867  -21.0485 C   0  0  0  0  0  0  0  0  0  0  0  0
   -8.4902   21.7115  -20.8277 C   0  0  0  0  0  0  0  0  0  0  0  0
   -8.8798   21.2069  -19.6658 N   0  0  0  0  0  0  0  0  0  0  0  0
   -8.0454   20.8542  -18.6900 C   0  0  0  0  0  0  0  0  0  0  0  0
   -6.7326   21.0253  -18.9100 N   0  0  0  0  0  0  0  0  0  0  0  0
   -6.2688   21.5234  -20.0449 C   0  0  0  0  0  0  0  0  0  0  0  0
   -4.8787   21.6899  -20.2187 N   0  0  0  0  0  0  0  0  0  0  0  0
   -4.4707   22.2407  -21.4600 C   0  0  0  0  0  0  0  0  0  0  0  0
   -3.2166   22.4108  -21.6716 O   0  0  0  0  0  0  0  0  0  0  0  0
   -3.7219   23.0153  -25.8537 C   0  0  0  0  0  0  0  0  0  0  0  0
   -3.7320   24.3920  -25.9466 C   0  0  0  0  0  0  0  0  0  0  0  0
   -4.2398   25.2075  -24.9857 C   0  0  0  0  0  0  0  0  0  0  0  0
   -4.7750   24.5865  -23.8514 C   0  0  0  0  0  0  0  0  0  0  0  0
   -5.2787   25.3951  -22.8986 F   0  0  0  0  0  0  0  0  0  0  0  0
   -4.7933   23.2173  -23.7020 C   0  0  0  0  0  0  0  0  0  0  0  0
   -4.2677   22.4434  -24.7021 C   0  0  0  0  0  0  0  0  0  0  0  0
   -4.2746   21.0993  -24.5728 F   0  0  0  0  0  0  0  0  0  0  0  0
   -1.9768   22.3497  -27.4879 C   0  0  0  0  0  0  0  0  0  0  0  0
   -3.2002   22.2608  -26.8478 O   0  0  0  0  0  0  0  0  0  0  0  0
   -4.2282   26.5677  -25.1204 O   0  0  0  0  0  0  0  0  0  0  0  0
   -5.1925   27.4354  -25.5681 C   0  0  0  0  0  0  0  0  0  0  0  0
   -3.8875   21.3377  -19.2475 C   0  0  0  0  0  0  0  0  0  0  0  0
   -3.7664   22.3833  -18.1443 C   0  0  0  0  0  0  0  0  0  0  0  0
   -2.5609   22.0497  -17.3207 C   0  0  0  0  0  0  0  0  0  0  0  0
   -2.0460   20.7162  -17.4574 N   0  0  0  0  0  0  0  0  0  0  0  0
   -2.7383   19.5833  -18.0322 C   0  0  0  0  0  0  0  0  0  0  0  0
   -4.0658   20.0304  -18.5718 C   0  0  0  0  0  0  0  0  0  0  0  0
   -0.7129   20.4322  -16.9857 C   0  0  0  0  0  0  0  0  0  0  0  0
   -0.2557   19.2877  -17.0932 O   0  0  0  0  0  0  0  0  0  0  0  0
    0.0660   21.4929  -16.3942 C   0  0  0  0  0  0  0  0  0  0  0  0
    1.3122   21.7156  -16.7982 C   0  0  0  0  0  0  0  0  0  0  0  0
    2.1907   22.7636  -16.2677 C   0  0  0  0  0  0  0  0  0  0  0  0
    3.1071   23.1841  -17.3076 N   0  0  0  0  0  0  0  0  0  0  0  0
    2.2888   23.6651  -18.4146 C   0  0  0  0  0  0  0  0  0  0  0  0
    3.8968   24.2701  -16.7489 C   0  0  0  0  0  0  0  0  0  0  0  0
   -8.5238   20.3125  -17.4387 N   0  0  0  0  0  0  0  0  0  0  0  0
   -8.5239   20.9676  -16.6334 H   0  0  0  0  0  0  0  0  0  0  0  0
   -8.9759   18.9555  -17.2923 C   0  0  0  0  0  0  0  0  0  0  0  0
   -8.0964   17.9795  -18.0345 C   0  0  0  0  0  0  0  0  0  0  0  0
   -8.4468   16.5680  -17.6439 C   0  0  0  0  0  0  0  0  0  0  0  0
   -8.3882   16.3251  -16.2342 N   0  0  0  0  0  0  0  0  0  0  0  0
   -7.0611   16.3282  -15.7013 C   0  0  0  0  0  0  0  0  0  0  0  0
   -9.2985   17.1805  -15.5262 C   0  0  0  0  0  0  0  0  0  0  0  0
   -8.9965   18.6087  -15.8396 C   0  0  0  0  0  0  0  0  0  0  0  0
 20 21  1  0  0  0
 21 12  1  0  0  0
 12 13  2  0  0  0
 13 14  1  0  0  0
 14 22  1  0  0  0
 22 23  1  0  0  0
 14 15  2  0  0  0
 15 16  1  0  0  0
 15 17  1  0  0  0
 17  1  1  0  0  0
  1  2  1  0  0  0
  2  3  1  0  0  0
  3  4  2  0  0  0
  4  5  1  0  0  0
  5  6  2  0  0  0
  6 38  1  0  0  0
 38 40  1  0  0  0
 40 41  1  0  0  0
 41 42  1  0  0  0
 42 43  1  0  0  0
 43 44  1  0  0  0
 43 45  1  0  0  0
 45 46  1  0  0  0
  6  7  1  0  0  0
  7  8  2  0  0  0
  8  9  1  0  0  0
  9 24  1  0  0  0
 24 25  1  0  0  0
 25 26  1  0  0  0
 26 27  1  0  0  0
 27 28  1  0  0  0
 28 29  1  0  0  0
 27 30  1  0  0  0
 30 31  2  0  0  0
 30 32  1  0  0  0
 32 33  2  0  0  0
 33 34  1  0  0  0
 34 35  1  0  0  0
 35 36  1  0  0  0
 35 37  1  0  0  0
  9 10  1  0  0  0
 10 11  2  0  0  0
 17 18  2  0  0  0
 18 19  1  0  0  0
 18 12  1  0  0  0
 10  1  1  0  0  0
  8  3  1  0  0  0
 29 24  1  0  0  0
 46 40  1  0  0  0
 38 39  1  0  0  0
M  END
> <minimizedAffinity>
-7.24446

> <CNNscore>
0.0515318178

> <CNNaffinity>
6.1310491562

> <CNN_VS>
0.3159441054

> <CNNaffinity_variance>
0.4870790839

$$$$
[H]/C(C(=O)N1C([H])([H])C([H])([H])C([H])(N2C(=O)N(c3c(F)c(OC([H])([H])[H])c([H])c(OC([H])([H])[H])c3F)C([H])([H])c3c([H])nc(N([H])C4([H])C([H])([H])C([H])([H])N(C([H])([H])[H])C([H])([H])C4([H])[H])nc32)C([H])([H])C1([H])[H])=C(/[H])C([H])([H])N(C([H])([H])[H])C([H])([H])[H]


 46 50  0  0  0  0  0  0  0  0999 V2000
   -3.0601   22.9069  -22.8700 N   0  0  0  0  0  0  0  0  0  0  0  0
   -1.7093   22.5588  -22.6176 C   0  0  0  0  0  0  0  0  0  0  0  0
   -1.5328   21.9215  -21.3102 C   0  0  0  0  0  0  0  0  0  0  0  0
   -0.2222   21.5192  -21.0123 C   0  0  0  0  0  0  0  0  0  0  0  0
    0.0068   20.9453  -19.8399 N   0  0  0  0  0  0  0  0  0  0  0  0
   -0.9328   20.7252  -18.9225 C   0  0  0  0  0  0  0  0  0  0  0  0
   -2.1834   21.1135  -19.2161 N   0  0  0  0  0  0  0  0  0  0  0  0
   -2.4883   21.6927  -20.3662 C   0  0  0  0  0  0  0  0  0  0  0  0
   -3.8220   22.0724  -20.6256 N   0  0  0  0  0  0  0  0  0  0  0  0
   -4.0608   22.6754  -21.8865 C   0  0  0  0  0  0  0  0  0  0  0  0
   -5.2564   23.0427  -22.1729 O   0  0  0  0  0  0  0  0  0  0  0  0
   -3.9925   23.2986  -26.4826 C   0  0  0  0  0  0  0  0  0  0  0  0
   -4.2371   24.6565  -26.5034 C   0  0  0  0  0  0  0  0  0  0  0  0
   -4.1187   25.4594  -25.4136 C   0  0  0  0  0  0  0  0  0  0  0  0
   -3.7256   24.8451  -24.2190 C   0  0  0  0  0  0  0  0  0  0  0  0
   -3.6083   25.6412  -23.1383 F   0  0  0  0  0  0  0  0  0  0  0  0
   -3.4678   23.4946  -24.1364 C   0  0  0  0  0  0  0  0  0  0  0  0
   -3.6028   22.7329  -25.2664 C   0  0  0  0  0  0  0  0  0  0  0  0
   -3.3524   21.4074  -25.2056 F   0  0  0  0  0  0  0  0  0  0  0  0
   -4.2717   22.9494  -28.9237 C   0  0  0  0  0  0  0  0  0  0  0  0
   -4.1293   22.5560  -27.6048 O   0  0  0  0  0  0  0  0  0  0  0  0
   -4.3712   26.8010  -25.4809 O   0  0  0  0  0  0  0  0  0  0  0  0
   -5.5554   27.4943  -25.4838 C   0  0  0  0  0  0  0  0  0  0  0  0
   -4.9118   21.8969  -19.7139 C   0  0  0  0  0  0  0  0  0  0  0  0
   -4.9178   20.5077  -19.0853 C   0  0  0  0  0  0  0  0  0  0  0  0
   -6.2070   20.3417  -18.3416 C   0  0  0  0  0  0  0  0  0  0  0  0
   -6.9303   21.5463  -18.0452 N   0  0  0  0  0  0  0  0  0  0  0  0
   -6.4070   22.8944  -18.0876 C   0  0  0  0  0  0  0  0  0  0  0  0
   -4.9947   22.8663  -18.5955 C   0  0  0  0  0  0  0  0  0  0  0  0
   -8.3168   21.4496  -17.6596 C   0  0  0  0  0  0  0  0  0  0  0  0
   -8.9532   22.4776  -17.3980 O   0  0  0  0  0  0  0  0  0  0  0  0
   -8.9384   20.1496  -17.5858 C   0  0  0  0  0  0  0  0  0  0  0  0
   -9.9347   19.9298  -16.7343 C   0  0  0  0  0  0  0  0  0  0  0  0
  -10.6363   18.6513  -16.5774 C   0  0  0  0  0  0  0  0  0  0  0  0
   -9.6671   17.5749  -16.5908 N   0  0  0  0  0  0  0  0  0  0  0  0
   -9.3599   17.2734  -15.1975 C   0  0  0  0  0  0  0  0  0  0  0  0
  -10.3181   16.4398  -17.2256 C   0  0  0  0  0  0  0  0  0  0  0  0
   -0.6297   20.0905  -17.6602 N   0  0  0  0  0  0  0  0  0  0  0  0
   -0.1923   20.6992  -16.9420 H   0  0  0  0  0  0  0  0  0  0  0  0
   -0.9061   18.7054  -17.3915 C   0  0  0  0  0  0  0  0  0  0  0  0
   -2.1176   18.5276  -16.5097 C   0  0  0  0  0  0  0  0  0  0  0  0
   -2.5199   17.0770  -16.4708 C   0  0  0  0  0  0  0  0  0  0  0  0
   -2.7506   16.5045  -17.7626 N   0  0  0  0  0  0  0  0  0  0  0  0
   -3.9280   16.9937  -18.4102 C   0  0  0  0  0  0  0  0  0  0  0  0
   -1.5697   16.5770  -18.5761 C   0  0  0  0  0  0  0  0  0  0  0  0
   -1.1205   17.9965  -18.6885 C   0  0  0  0  0  0  0  0  0  0  0  0
 20 21  1  0  0  0
 21 12  1  0  0  0
 12 13  2  0  0  0
 13 14  1  0  0  0
 14 22  1  0  0  0
 22 23  1  0  0  0
 14 15  2  0  0  0
 15 16  1  0  0  0
 15 17  1  0  0  0
 17  1  1  0  0  0
  1  2  1  0  0  0
  2  3  1  0  0  0
  3  4  2  0  0  0
  4  5  1  0  0  0
  5  6  2  0  0  0
  6 38  1  0  0  0
 38 40  1  0  0  0
 40 41  1  0  0  0
 41 42  1  0  0  0
 42 43  1  0  0  0
 43 44  1  0  0  0
 43 45  1  0  0  0
 45 46  1  0  0  0
  6  7  1  0  0  0
  7  8  2  0  0  0
  8  9  1  0  0  0
  9 24  1  0  0  0
 24 25  1  0  0  0
 25 26  1  0  0  0
 26 27  1  0  0  0
 27 28  1  0  0  0
 28 29  1  0  0  0
 27 30  1  0  0  0
 30 31  2  0  0  0
 30 32  1  0  0  0
 32 33  2  0  0  0
 33 34  1  0  0  0
 34 35  1  0  0  0
 35 36  1  0  0  0
 35 37  1  0  0  0
  9 10  1  0  0  0
 10 11  2  0  0  0
 17 18  2  0  0  0
 18 19  1  0  0  0
 18 12  1  0  0  0
 10  1  1  0  0  0
  8  3  1  0  0  0
 29 24  1  0  0  0
 46 40  1  0  0  0
 38 39  1  0  0  0
M  END
> <minimizedAffinity>
-6.52660

> <CNNscore>
0.0473215133

> <CNNaffinity>
6.3382291794

> <CNN_VS>
0.2999345958

> <CNNaffinity_variance>
0.2110681087

$$$$
[H]c1nc(-c2c([H])nc3c(nnn3-c3c([H])c([H])c(OC([H])([H])C([H])([H])N4C([H])([H])C([H])([H])N([H])C([H])([H])C4([H])[H])c([H])c3[H])c2[H])oc1[H]


 30 34  0  0  0  0  0  0  0  0999 V2000
    0.4450   20.9640  -21.7414 C   0  0  0  0  0  0  0  0  0  0  0  0
    1.5195   21.2852  -22.5479 C   0  0  0  0  0  0  0  0  0  0  0  0
    1.3264   21.6656  -23.8494 C   0  0  0  0  0  0  0  0  0  0  0  0
    0.0603   21.7482  -24.4211 C   0  0  0  0  0  0  0  0  0  0  0  0
   -0.9996   21.4187  -23.5854 C   0  0  0  0  0  0  0  0  0  0  0  0
   -0.8187   21.0322  -22.2678 C   0  0  0  0  0  0  0  0  0  0  0  0
   -0.0952   22.1642  -25.7659 N   0  0  0  0  0  0  0  0  0  0  0  0
    0.8578   22.1593  -26.6914 N   0  0  0  0  0  0  0  0  0  0  0  0
    0.3753   22.5893  -27.8385 N   0  0  0  0  0  0  0  0  0  0  0  0
   -0.9455   22.8874  -27.6642 C   0  0  0  0  0  0  0  0  0  0  0  0
   -1.8912   23.3650  -28.5554 C   0  0  0  0  0  0  0  0  0  0  0  0
   -3.1797   23.5798  -28.1155 C   0  0  0  0  0  0  0  0  0  0  0  0
   -3.4441   23.3014  -26.7958 C   0  0  0  0  0  0  0  0  0  0  0  0
   -2.4907   22.8346  -25.9498 N   0  0  0  0  0  0  0  0  0  0  0  0
   -1.2192   22.6130  -26.3501 C   0  0  0  0  0  0  0  0  0  0  0  0
   -4.2170   24.0615  -29.0429 C   0  0  0  0  0  0  0  0  0  0  0  0
   -4.8615   23.3374  -29.9533 N   0  0  0  0  0  0  0  0  0  0  0  0
   -5.7398   24.1676  -30.6015 C   0  0  0  0  0  0  0  0  0  0  0  0
   -5.5920   25.4075  -30.0415 C   0  0  0  0  0  0  0  0  0  0  0  0
   -4.6819   25.2843  -29.1293 O   0  0  0  0  0  0  0  0  0  0  0  0
    0.6678   20.5838  -20.4211 O   0  0  0  0  0  0  0  0  0  0  0  0
    0.3246   19.3361  -19.9267 C   0  0  0  0  0  0  0  0  0  0  0  0
    1.3500   18.2948  -20.2708 C   0  0  0  0  0  0  0  0  0  0  0  0
    2.4752   18.2421  -19.3966 N   0  0  0  0  0  0  0  0  0  0  0  0
    3.6692   18.8340  -20.0035 C   0  0  0  0  0  0  0  0  0  0  0  0
    4.1280   18.1660  -21.2462 C   0  0  0  0  0  0  0  0  0  0  0  0
    3.8510   16.7908  -21.3572 N   0  0  0  0  0  0  0  0  0  0  0  0
    3.3272   16.0936  -20.2484 C   0  0  0  0  0  0  0  0  0  0  0  0
    2.9146   16.8907  -19.0573 C   0  0  0  0  0  0  0  0  0  0  0  0
    3.5877   16.4440  -22.3038 H   0  0  0  0  0  0  0  0  0  0  0  0
 22 23  1  0  0  0
 23 24  1  0  0  0
 24 25  1  0  0  0
 25 26  1  0  0  0
 26 27  1  0  0  0
 27 28  1  0  0  0
 28 29  1  0  0  0
 22 21  1  0  0  0
 21  1  1  0  0  0
  1  2  2  0  0  0
  2  3  1  0  0  0
  3  4  2  0  0  0
  4  5  1  0  0  0
  5  6  2  0  0  0
  4  7  1  0  0  0
  7  8  1  0  0  0
  8  9  2  0  0  0
  9 10  1  0  0  0
 10 11  2  0  0  0
 11 12  1  0  0  0
 12 13  2  0  0  0
 13 14  1  0  0  0
 14 15  2  0  0  0
 12 16  1  0  0  0
 16 17  2  0  0  0
 17 18  1  0  0  0
 18 19  2  0  0  0
 19 20  1  0  0  0
 29 24  1  0  0  0
  6  1  1  0  0  0
 15  7  1  0  0  0
 20 16  1  0  0  0
 15 10  1  0  0  0
 27 30  1  0  0  0
M  END
> <minimizedAffinity>
-7.13901

> <CNNscore>
0.9297367334

> <CNNaffinity>
6.8251228333

> <CNN_VS>
6.3455672264

> <CNNaffinity_variance>
0.1972205341

$$$$
[H]c1nc(-c2c([H])nc3c(nnn3-c3c([H])c([H])c(OC([H])([H])C([H])([H])N4C([H])([H])C([H])([H])N([H])C([H])([H])C4([H])[H])c([H])c3[H])c2[H])oc1[H]


 30 34  0  0  0  0  0  0  0  0999 V2000
    0.6271   21.0059  -21.9915 C   0  0  0  0  0  0  0  0  0  0  0  0
    1.6618   21.0978  -22.9021 C   0  0  0  0  0  0  0  0  0  0  0  0
    1.4230   21.4876  -24.1932 C   0  0  0  0  0  0  0  0  0  0  0  0
    0.1482   21.8071  -24.6509 C   0  0  0  0  0  0  0  0  0  0  0  0
   -0.8710   21.7047  -23.7123 C   0  0  0  0  0  0  0  0  0  0  0  0
   -0.6438   21.3115  -22.4039 C   0  0  0  0  0  0  0  0  0  0  0  0
   -0.0511   22.2238  -25.9897 N   0  0  0  0  0  0  0  0  0  0  0  0
    0.8693   22.2130  -26.9476 N   0  0  0  0  0  0  0  0  0  0  0  0
    0.3501   22.6458  -28.0774 N   0  0  0  0  0  0  0  0  0  0  0  0
   -0.9620   22.9519  -27.8577 C   0  0  0  0  0  0  0  0  0  0  0  0
   -1.9351   23.4351  -28.7159 C   0  0  0  0  0  0  0  0  0  0  0  0
   -3.2063   23.6577  -28.2319 C   0  0  0  0  0  0  0  0  0  0  0  0
   -3.4266   23.3812  -26.9037 C   0  0  0  0  0  0  0  0  0  0  0  0
   -2.4474   22.9087  -26.0910 N   0  0  0  0  0  0  0  0  0  0  0  0
   -1.1919   22.6793  -26.5349 C   0  0  0  0  0  0  0  0  0  0  0  0
   -4.2720   24.1456  -29.1231 C   0  0  0  0  0  0  0  0  0  0  0  0
   -4.6954   25.4012  -29.2356 N   0  0  0  0  0  0  0  0  0  0  0  0
   -5.6971   25.4217  -30.1720 C   0  0  0  0  0  0  0  0  0  0  0  0
   -5.8501   24.1340  -30.6095 C   0  0  0  0  0  0  0  0  0  0  0  0
   -4.9843   23.4269  -29.9568 O   0  0  0  0  0  0  0  0  0  0  0  0
    0.8968   20.6107  -20.6845 O   0  0  0  0  0  0  0  0  0  0  0  0
    0.1349   19.6727  -20.0070 C   0  0  0  0  0  0  0  0  0  0  0  0
   -0.9193   20.3168  -19.1538 C   0  0  0  0  0  0  0  0  0  0  0  0
   -0.4373   20.9433  -17.9671 N   0  0  0  0  0  0  0  0  0  0  0  0
   -1.5281   21.3311  -17.0703 C   0  0  0  0  0  0  0  0  0  0  0  0
   -2.4865   22.3060  -17.6464 C   0  0  0  0  0  0  0  0  0  0  0  0
   -1.9729   23.1960  -18.6080 N   0  0  0  0  0  0  0  0  0  0  0  0
   -0.5831   23.2403  -18.8448 C   0  0  0  0  0  0  0  0  0  0  0  0
    0.2671   22.2033  -18.1918 C   0  0  0  0  0  0  0  0  0  0  0  0
   -2.5986   23.4283  -19.4082 H   0  0  0  0  0  0  0  0  0  0  0  0
 22 23  1  0  0  0
 23 24  1  0  0  0
 24 25  1  0  0  0
 25 26  1  0  0  0
 26 27  1  0  0  0
 27 28  1  0  0  0
 28 29  1  0  0  0
 22 21  1  0  0  0
 21  1  1  0  0  0
  1  2  2  0  0  0
  2  3  1  0  0  0
  3  4  2  0  0  0
  4  5  1  0  0  0
  5  6  2  0  0  0
  4  7  1  0  0  0
  7  8  1  0  0  0
  8  9  2  0  0  0
  9 10  1  0  0  0
 10 11  2  0  0  0
 11 12  1  0  0  0
 12 13  2  0  0  0
 13 14  1  0  0  0
 14 15  2  0  0  0
 12 16  1  0  0  0
 16 17  2  0  0  0
 17 18  1  0  0  0
 18 19  2  0  0  0
 19 20  1  0  0  0
 29 24  1  0  0  0
  6  1  1  0  0  0
 15  7  1  0  0  0
 20 16  1  0  0  0
 15 10  1  0  0  0
 27 30  1  0  0  0
M  END
> <minimizedAffinity>
-7.89538

> <CNNscore>
0.9277359247

> <CNNaffinity>
6.7932229042

> <CNN_VS>
6.3023171425

> <CNNaffinity_variance>
0.0464689061

$$$$
[H]c1nc(-c2c([H])nc3c(nnn3-c3c([H])c([H])c(OC([H])([H])C([H])([H])N4C([H])([H])C([H])([H])N([H])C([H])([H])C4([H])[H])c([H])c3[H])c2[H])oc1[H]


 30 34  0  0  0  0  0  0  0  0999 V2000
    0.2390   20.9465  -21.7632 C   0  0  0  0  0  0  0  0  0  0  0  0
    1.3366   21.1061  -22.5867 C   0  0  0  0  0  0  0  0  0  0  0  0
    1.1818   21.5124  -23.8855 C   0  0  0  0  0  0  0  0  0  0  0  0
   -0.0668   21.7824  -24.4375 C   0  0  0  0  0  0  0  0  0  0  0  0
   -1.1507   21.6124  -23.5851 C   0  0  0  0  0  0  0  0  0  0  0  0
   -1.0087   21.2017  -22.2701 C   0  0  0  0  0  0  0  0  0  0  0  0
   -0.1798   22.2185  -25.7802 N   0  0  0  0  0  0  0  0  0  0  0  0
    0.8195   22.3052  -26.6512 N   0  0  0  0  0  0  0  0  0  0  0  0
    0.3691   22.7268  -27.8144 N   0  0  0  0  0  0  0  0  0  0  0  0
   -0.9775   22.9239  -27.7077 C   0  0  0  0  0  0  0  0  0  0  0  0
   -1.9064   23.3530  -28.6403 C   0  0  0  0  0  0  0  0  0  0  0  0
   -3.2291   23.4630  -28.2685 C   0  0  0  0  0  0  0  0  0  0  0  0
   -3.5430   23.1343  -26.9714 C   0  0  0  0  0  0  0  0  0  0  0  0
   -2.6049   22.7174  -26.0833 N   0  0  0  0  0  0  0  0  0  0  0  0
   -1.3007   22.5985  -26.4167 C   0  0  0  0  0  0  0  0  0  0  0  0
   -4.2476   23.8905  -29.2422 C   0  0  0  0  0  0  0  0  0  0  0  0
   -4.4875   25.1367  -29.6395 N   0  0  0  0  0  0  0  0  0  0  0  0
   -5.5126   25.0946  -30.5495 C   0  0  0  0  0  0  0  0  0  0  0  0
   -5.8694   23.7794  -30.6764 C   0  0  0  0  0  0  0  0  0  0  0  0
   -5.0902   23.1170  -29.8829 O   0  0  0  0  0  0  0  0  0  0  0  0
    0.4235   20.5359  -20.4462 O   0  0  0  0  0  0  0  0  0  0  0  0
    0.0184   21.2896  -19.3567 C   0  0  0  0  0  0  0  0  0  0  0  0
    1.1129   22.1886  -18.8585 C   0  0  0  0  0  0  0  0  0  0  0  0
    1.9418   21.6268  -17.8435 N   0  0  0  0  0  0  0  0  0  0  0  0
    2.3045   22.6132  -16.8238 C   0  0  0  0  0  0  0  0  0  0  0  0
    3.0712   23.7768  -17.3328 C   0  0  0  0  0  0  0  0  0  0  0  0
    3.8861   23.5469  -18.4568 N   0  0  0  0  0  0  0  0  0  0  0  0
    4.0707   22.2296  -18.9262 C   0  0  0  0  0  0  0  0  0  0  0  0
    3.2395   21.1514  -18.3170 C   0  0  0  0  0  0  0  0  0  0  0  0
    3.9343   24.3132  -19.1613 H   0  0  0  0  0  0  0  0  0  0  0  0
 22 23  1  0  0  0
 23 24  1  0  0  0
 24 25  1  0  0  0
 25 26  1  0  0  0
 26 27  1  0  0  0
 27 28  1  0  0  0
 28 29  1  0  0  0
 22 21  1  0  0  0
 21  1  1  0  0  0
  1  2  2  0  0  0
  2  3  1  0  0  0
  3  4  2  0  0  0
  4  5  1  0  0  0
  5  6  2  0  0  0
  4  7  1  0  0  0
  7  8  1  0  0  0
  8  9  2  0  0  0
  9 10  1  0  0  0
 10 11  2  0  0  0
 11 12  1  0  0  0
 12 13  2  0  0  0
 13 14  1  0  0  0
 14 15  2  0  0  0
 12 16  1  0  0  0
 16 17  2  0  0  0
 17 18  1  0  0  0
 18 19  2  0  0  0
 19 20  1  0  0  0
 29 24  1  0  0  0
  6  1  1  0  0  0
 15  7  1  0  0  0
 20 16  1  0  0  0
 15 10  1  0  0  0
 27 30  1  0  0  0
M  END
> <minimizedAffinity>
-8.02533

> <CNNscore>
0.9133648872

> <CNNaffinity>
6.6414079666

> <CNN_VS>
6.0660290718

> <CNNaffinity_variance>
0.1763705611

$$$$
[H]c1nc(-c2c([H])nc3c(nnn3-c3c([H])c([H])c(OC([H])([H])C([H])([H])N4C([H])([H])C([H])([H])N([H])C([H])([H])C4([H])[H])c([H])c3[H])c2[H])oc1[H]


 30 34  0  0  0  0  0  0  0  0999 V2000
    0.4247   21.3197  -23.0241 C   0  0  0  0  0  0  0  0  0  0  0  0
   -0.7891   21.1605  -22.3841 C   0  0  0  0  0  0  0  0  0  0  0  0
   -1.9594   21.4900  -23.0148 C   0  0  0  0  0  0  0  0  0  0  0  0
   -1.9901   21.9941  -24.3116 C   0  0  0  0  0  0  0  0  0  0  0  0
   -0.7541   22.1433  -24.9283 C   0  0  0  0  0  0  0  0  0  0  0  0
    0.4367   21.8145  -24.3023 C   0  0  0  0  0  0  0  0  0  0  0  0
   -3.2244   22.3044  -24.9329 N   0  0  0  0  0  0  0  0  0  0  0  0
   -4.4254   22.1469  -24.3872 N   0  0  0  0  0  0  0  0  0  0  0  0
   -5.3581   22.5493  -25.2248 N   0  0  0  0  0  0  0  0  0  0  0  0
   -4.7503   22.9904  -26.3648 C   0  0  0  0  0  0  0  0  0  0  0  0
   -5.2831   23.5127  -27.5310 C   0  0  0  0  0  0  0  0  0  0  0  0
   -4.4319   23.8925  -28.5465 C   0  0  0  0  0  0  0  0  0  0  0  0
   -3.0854   23.7228  -28.3296 C   0  0  0  0  0  0  0  0  0  0  0  0
   -2.5985   23.2063  -27.1726 N   0  0  0  0  0  0  0  0  0  0  0  0
   -3.4060   22.8252  -26.1584 C   0  0  0  0  0  0  0  0  0  0  0  0
   -4.9630   24.4766  -29.7895 C   0  0  0  0  0  0  0  0  0  0  0  0
   -4.8461   25.7419  -30.1813 N   0  0  0  0  0  0  0  0  0  0  0  0
   -5.4807   25.8647  -31.3908 C   0  0  0  0  0  0  0  0  0  0  0  0
   -5.9759   24.6270  -31.7002 C   0  0  0  0  0  0  0  0  0  0  0  0
   -5.6402   23.8500  -30.7209 O   0  0  0  0  0  0  0  0  0  0  0  0
    1.5994   20.9741  -22.3625 O   0  0  0  0  0  0  0  0  0  0  0  0
    2.8375   20.9528  -22.9839 C   0  0  0  0  0  0  0  0  0  0  0  0
    3.7103   19.8503  -22.4577 C   0  0  0  0  0  0  0  0  0  0  0  0
    3.0962   19.0028  -21.4893 N   0  0  0  0  0  0  0  0  0  0  0  0
    3.7114   19.1447  -20.1680 C   0  0  0  0  0  0  0  0  0  0  0  0
    5.1517   18.7931  -20.1146 C   0  0  0  0  0  0  0  0  0  0  0  0
    5.5938   17.8214  -21.0316 N   0  0  0  0  0  0  0  0  0  0  0  0
    4.6514   17.1202  -21.8125 C   0  0  0  0  0  0  0  0  0  0  0  0
    3.2315   17.5742  -21.7631 C   0  0  0  0  0  0  0  0  0  0  0  0
    6.5386   17.9682  -21.4457 H   0  0  0  0  0  0  0  0  0  0  0  0
 22 23  1  0  0  0
 23 24  1  0  0  0
 24 25  1  0  0  0
 25 26  1  0  0  0
 26 27  1  0  0  0
 27 28  1  0  0  0
 28 29  1  0  0  0
 22 21  1  0  0  0
 21  1  1  0  0  0
  1  2  2  0  0  0
  2  3  1  0  0  0
  3  4  2  0  0  0
  4  5  1  0  0  0
  5  6  2  0  0  0
  4  7  1  0  0  0
  7  8  1  0  0  0
  8  9  2  0  0  0
  9 10  1  0  0  0
 10 11  2  0  0  0
 11 12  1  0  0  0
 12 13  2  0  0  0
 13 14  1  0  0  0
 14 15  2  0  0  0
 12 16  1  0  0  0
 16 17  2  0  0  0
 17 18  1  0  0  0
 18 19  2  0  0  0
 19 20  1  0  0  0
 29 24  1  0  0  0
  6  1  1  0  0  0
 15  7  1  0  0  0
 20 16  1  0  0  0
 15 10  1  0  0  0
 27 30  1  0  0  0
M  END
> <minimizedAffinity>
-7.48574

> <CNNscore>
0.7446539998

> <CNNaffinity>
6.6806540489

> <CNN_VS>
4.9747757912

> <CNNaffinity_variance>
0.2240069211

$$$$
[H]c1nc(-c2c([H])nc3c(nnn3-c3c([H])c([H])c(OC([H])([H])C([H])([H])N4C([H])([H])C([H])([H])N([H])C([H])([H])C4([H])[H])c([H])c3[H])c2[H])oc1[H]


 30 34  0  0  0  0  0  0  0  0999 V2000
   -1.7133   22.2926  -20.9000 C   0  0  0  0  0  0  0  0  0  0  0  0
   -1.0656   21.3137  -21.6284 C   0  0  0  0  0  0  0  0  0  0  0  0
   -0.9899   21.3945  -22.9936 C   0  0  0  0  0  0  0  0  0  0  0  0
   -1.5507   22.4480  -23.7095 C   0  0  0  0  0  0  0  0  0  0  0  0
   -2.1953   23.4159  -22.9493 C   0  0  0  0  0  0  0  0  0  0  0  0
   -2.2797   23.3465  -21.5687 C   0  0  0  0  0  0  0  0  0  0  0  0
   -1.4327   22.5017  -25.1198 N   0  0  0  0  0  0  0  0  0  0  0  0
   -0.4208   22.0150  -25.8297 N   0  0  0  0  0  0  0  0  0  0  0  0
   -0.6331   22.2142  -27.1137 N   0  0  0  0  0  0  0  0  0  0  0  0
   -1.8303   22.8545  -27.2568 C   0  0  0  0  0  0  0  0  0  0  0  0
   -2.5001   23.2789  -28.3916 C   0  0  0  0  0  0  0  0  0  0  0  0
   -3.7195   23.9072  -28.2557 C   0  0  0  0  0  0  0  0  0  0  0  0
   -4.1971   24.0747  -26.9779 C   0  0  0  0  0  0  0  0  0  0  0  0
   -3.5119   23.6460  -25.8874 N   0  0  0  0  0  0  0  0  0  0  0  0
   -2.3152   23.0264  -25.9870 C   0  0  0  0  0  0  0  0  0  0  0  0
   -4.4715   24.3473  -29.4427 C   0  0  0  0  0  0  0  0  0  0  0  0
   -5.4401   23.6758  -30.0586 N   0  0  0  0  0  0  0  0  0  0  0  0
   -5.8700   24.4380  -31.1146 C   0  0  0  0  0  0  0  0  0  0  0  0
   -5.1217   25.5837  -31.1003 C   0  0  0  0  0  0  0  0  0  0  0  0
   -4.3152   25.4744  -30.0939 O   0  0  0  0  0  0  0  0  0  0  0  0
   -1.7732   22.1889  -19.5133 O   0  0  0  0  0  0  0  0  0  0  0  0
   -2.9057   21.7669  -18.8361 C   0  0  0  0  0  0  0  0  0  0  0  0
   -3.4400   22.8295  -17.9199 C   0  0  0  0  0  0  0  0  0  0  0  0
   -4.5396   22.4288  -17.1054 N   0  0  0  0  0  0  0  0  0  0  0  0
   -5.7981   22.4106  -17.8539 C   0  0  0  0  0  0  0  0  0  0  0  0
   -6.2046   23.7229  -18.4138 C   0  0  0  0  0  0  0  0  0  0  0  0
   -5.7880   24.8636  -17.7028 N   0  0  0  0  0  0  0  0  0  0  0  0
   -5.1770   24.7133  -16.4403 C   0  0  0  0  0  0  0  0  0  0  0  0
   -4.8307   23.3326  -15.9951 C   0  0  0  0  0  0  0  0  0  0  0  0
   -5.5050   25.6892  -18.2720 H   0  0  0  0  0  0  0  0  0  0  0  0
 22 23  1  0  0  0
 23 24  1  0  0  0
 24 25  1  0  0  0
 25 26  1  0  0  0
 26 27  1  0  0  0
 27 28  1  0  0  0
 28 29  1  0  0  0
 22 21  1  0  0  0
 21  1  1  0  0  0
  1  2  2  0  0  0
  2  3  1  0  0  0
  3  4  2  0  0  0
  4  5  1  0  0  0
  5  6  2  0  0  0
  4  7  1  0  0  0
  7  8  1  0  0  0
  8  9  2  0  0  0
  9 10  1  0  0  0
 10 11  2  0  0  0
 11 12  1  0  0  0
 12 13  2  0  0  0
 13 14  1  0  0  0
 14 15  2  0  0  0
 12 16  1  0  0  0
 16 17  2  0  0  0
 17 18  1  0  0  0
 18 19  2  0  0  0
 19 20  1  0  0  0
 29 24  1  0  0  0
  6  1  1  0  0  0
 15  7  1  0  0  0
 20 16  1  0  0  0
 15 10  1  0  0  0
 27 30  1  0  0  0
M  END
> <minimizedAffinity>
-7.66266

> <CNNscore>
0.4929884374

> <CNNaffinity>
6.3737401962

> <CNN_VS>
3.1421802044

> <CNNaffinity_variance>
0.3227193058

$$$$
[H]c1nc(-c2c([H])nc3c(nnn3-c3c([H])c([H])c(OC([H])([H])C([H])([H])N4C([H])([H])C([H])([H])N([H])C([H])([H])C4([H])[H])c([H])c3[H])c2[H])oc1[H]


 30 34  0  0  0  0  0  0  0  0999 V2000
   -5.9006   23.6347  -24.1215 C   0  0  0  0  0  0  0  0  0  0  0  0
   -4.8435   24.2824  -23.5122 C   0  0  0  0  0  0  0  0  0  0  0  0
   -3.5508   23.9436  -23.8121 C   0  0  0  0  0  0  0  0  0  0  0  0
   -3.2362   22.9465  -24.7305 C   0  0  0  0  0  0  0  0  0  0  0  0
   -4.3202   22.3134  -25.3258 C   0  0  0  0  0  0  0  0  0  0  0  0
   -5.6321   22.6456  -25.0317 C   0  0  0  0  0  0  0  0  0  0  0  0
   -1.8849   22.6409  -25.0248 N   0  0  0  0  0  0  0  0  0  0  0  0
   -1.2875   22.8296  -26.1963 N   0  0  0  0  0  0  0  0  0  0  0  0
   -0.0265   22.4580  -26.1249 N   0  0  0  0  0  0  0  0  0  0  0  0
    0.2181   22.0092  -24.8591 C   0  0  0  0  0  0  0  0  0  0  0  0
    1.3762   21.5190  -24.2801 C   0  0  0  0  0  0  0  0  0  0  0  0
    1.3534   21.1318  -22.9575 C   0  0  0  0  0  0  0  0  0  0  0  0
    0.1590   21.2595  -22.2894 C   0  0  0  0  0  0  0  0  0  0  0  0
   -0.9576   21.7441  -22.8900 N   0  0  0  0  0  0  0  0  0  0  0  0
   -0.9679   22.1326  -24.1843 C   0  0  0  0  0  0  0  0  0  0  0  0
    2.5735   20.6312  -22.3027 C   0  0  0  0  0  0  0  0  0  0  0  0
    3.4470   19.7679  -22.8127 N   0  0  0  0  0  0  0  0  0  0  0  0
    4.4327   19.5711  -21.8798 C   0  0  0  0  0  0  0  0  0  0  0  0
    4.1112   20.3492  -20.8008 C   0  0  0  0  0  0  0  0  0  0  0  0
    3.0067   20.9506  -21.1072 O   0  0  0  0  0  0  0  0  0  0  0  0
   -7.2050   24.0002  -23.8020 O   0  0  0  0  0  0  0  0  0  0  0  0
   -7.6293   25.3181  -23.7532 C   0  0  0  0  0  0  0  0  0  0  0  0
   -8.6954   25.5261  -22.7167 C   0  0  0  0  0  0  0  0  0  0  0  0
   -8.3573   26.4409  -21.6766 N   0  0  0  0  0  0  0  0  0  0  0  0
   -7.4420   25.8466  -20.7001 C   0  0  0  0  0  0  0  0  0  0  0  0
   -7.9773   24.6568  -19.9939 C   0  0  0  0  0  0  0  0  0  0  0  0
   -9.3728   24.6070  -19.8195 N   0  0  0  0  0  0  0  0  0  0  0  0
  -10.1574   25.7310  -20.1524 C   0  0  0  0  0  0  0  0  0  0  0  0
   -9.4870   26.8644  -20.8527 C   0  0  0  0  0  0  0  0  0  0  0  0
   -9.8204   23.6707  -19.9136 H   0  0  0  0  0  0  0  0  0  0  0  0
 22 23  1  0  0  0
 23 24  1  0  0  0
 24 25  1  0  0  0
 25 26  1  0  0  0
 26 27  1  0  0  0
 27 28  1  0  0  0
 28 29  1  0  0  0
 22 21  1  0  0  0
 21  1  1  0  0  0
  1  2  2  0  0  0
  2  3  1  0  0  0
  3  4  2  0  0  0
  4  5  1  0  0  0
  5  6  2  0  0  0
  4  7  1  0  0  0
  7  8  1  0  0  0
  8  9  2  0  0  0
  9 10  1  0  0  0
 10 11  2  0  0  0
 11 12  1  0  0  0
 12 13  2  0  0  0
 13 14  1  0  0  0
 14 15  2  0  0  0
 12 16  1  0  0  0
 16 17  2  0  0  0
 17 18  1  0  0  0
 18 19  2  0  0  0
 19 20  1  0  0  0
 29 24  1  0  0  0
  6  1  1  0  0  0
 15  7  1  0  0  0
 20 16  1  0  0  0
 15 10  1  0  0  0
 27 30  1  0  0  0
M  END
> <minimizedAffinity>
-7.26605

> <CNNscore>
0.4772379994

> <CNNaffinity>
5.9690728188

> <CNN_VS>
2.8486683369

> <CNNaffinity_variance>
0.1702031195

$$$$
[H]c1nc(-c2c([H])nc3c(nnn3-c3c([H])c([H])c(OC([H])([H])C([H])([H])N4C([H])([H])C([H])([H])N([H])C([H])([H])C4([H])[H])c([H])c3[H])c2[H])oc1[H]


 30 34  0  0  0  0  0  0  0  0999 V2000
   -6.1810   24.6841  -25.7115 C   0  0  0  0  0  0  0  0  0  0  0  0
   -5.0401   25.4534  -25.5894 C   0  0  0  0  0  0  0  0  0  0  0  0
   -3.8005   24.8949  -25.7555 C   0  0  0  0  0  0  0  0  0  0  0  0
   -3.6248   23.5465  -26.0512 C   0  0  0  0  0  0  0  0  0  0  0  0
   -4.7904   22.7993  -26.1670 C   0  0  0  0  0  0  0  0  0  0  0  0
   -6.0499   23.3509  -26.0012 C   0  0  0  0  0  0  0  0  0  0  0  0
   -2.3250   23.0141  -26.2333 N   0  0  0  0  0  0  0  0  0  0  0  0
   -1.7083   22.8634  -27.4002 N   0  0  0  0  0  0  0  0  0  0  0  0
   -0.5065   22.3590  -27.2137 N   0  0  0  0  0  0  0  0  0  0  0  0
   -0.3225   22.1715  -25.8741 C   0  0  0  0  0  0  0  0  0  0  0  0
    0.7618   21.6768  -25.1696 C   0  0  0  0  0  0  0  0  0  0  0  0
    0.6888   21.5955  -23.7955 C   0  0  0  0  0  0  0  0  0  0  0  0
   -0.4786   22.0178  -23.2057 C   0  0  0  0  0  0  0  0  0  0  0  0
   -1.5225   22.4971  -23.9289 N   0  0  0  0  0  0  0  0  0  0  0  0
   -1.4821   22.5901  -25.2764 C   0  0  0  0  0  0  0  0  0  0  0  0
    1.8332   21.0995  -23.0130 C   0  0  0  0  0  0  0  0  0  0  0  0
    3.0195   20.7354  -23.4911 N   0  0  0  0  0  0  0  0  0  0  0  0
    3.7928   20.3378  -22.4306 C   0  0  0  0  0  0  0  0  0  0  0  0
    3.0218   20.4804  -21.3090 C   0  0  0  0  0  0  0  0  0  0  0  0
    1.8783   20.9326  -21.7134 O   0  0  0  0  0  0  0  0  0  0  0  0
   -7.4289   25.2764  -25.5415 O   0  0  0  0  0  0  0  0  0  0  0  0
   -8.3027   24.9183  -24.5278 C   0  0  0  0  0  0  0  0  0  0  0  0
   -7.7688   25.2819  -23.1725 C   0  0  0  0  0  0  0  0  0  0  0  0
   -7.6193   24.1894  -22.2684 N   0  0  0  0  0  0  0  0  0  0  0  0
   -7.7822   24.6057  -20.8740 C   0  0  0  0  0  0  0  0  0  0  0  0
   -6.7980   25.6141  -20.4098 C   0  0  0  0  0  0  0  0  0  0  0  0
   -5.5331   25.5850  -21.0260 N   0  0  0  0  0  0  0  0  0  0  0  0
   -5.2073   24.5259  -21.8988 C   0  0  0  0  0  0  0  0  0  0  0  0
   -6.2935   23.5757  -22.2755 C   0  0  0  0  0  0  0  0  0  0  0  0
   -5.0834   26.5069  -21.2093 H   0  0  0  0  0  0  0  0  0  0  0  0
 22 23  1  0  0  0
 23 24  1  0  0  0
 24 25  1  0  0  0
 25 26  1  0  0  0
 26 27  1  0  0  0
 27 28  1  0  0  0
 28 29  1  0  0  0
 22 21  1  0  0  0
 21  1  1  0  0  0
  1  2  2  0  0  0
  2  3  1  0  0  0
  3  4  2  0  0  0
  4  5  1  0  0  0
  5  6  2  0  0  0
  4  7  1  0  0  0
  7  8  1  0  0  0
  8  9  2  0  0  0
  9 10  1  0  0  0
 10 11  2  0  0  0
 11 12  1  0  0  0
 12 13  2  0  0  0
 13 14  1  0  0  0
 14 15  2  0  0  0
 12 16  1  0  0  0
 16 17  2  0  0  0
 17 18  1  0  0  0
 18 19  2  0  0  0
 19 20  1  0  0  0
 29 24  1  0  0  0
  6  1  1  0  0  0
 15  7  1  0  0  0
 20 16  1  0  0  0
 15 10  1  0  0  0
 27 30  1  0  0  0
M  END
> <minimizedAffinity>
-7.72471

> <CNNscore>
0.4449921846

> <CNNaffinity>
6.4239997864

> <CNN_VS>
2.8586297035

> <CNNaffinity_variance>
0.1723877639

$$$$
[H]c1nc(-c2c([H])nc3c(nnn3-c3c([H])c([H])c(OC([H])([H])C([H])([H])N4C([H])([H])C([H])([H])N([H])C([H])([H])C4([H])[H])c([H])c3[H])c2[H])oc1[H]


 30 34  0  0  0  0  0  0  0  0999 V2000
    0.7923   21.3683  -23.1839 C   0  0  0  0  0  0  0  0  0  0  0  0
   -0.3860   21.2190  -22.4785 C   0  0  0  0  0  0  0  0  0  0  0  0
   -1.5873   21.5480  -23.0484 C   0  0  0  0  0  0  0  0  0  0  0  0
   -1.6857   22.0416  -24.3458 C   0  0  0  0  0  0  0  0  0  0  0  0
   -0.4840   22.1809  -25.0291 C   0  0  0  0  0  0  0  0  0  0  0  0
    0.7375   21.8525  -24.4650 C   0  0  0  0  0  0  0  0  0  0  0  0
   -2.9504   22.3517  -24.9027 N   0  0  0  0  0  0  0  0  0  0  0  0
   -4.1163   22.2573  -24.2728 N   0  0  0  0  0  0  0  0  0  0  0  0
   -5.0921   22.6392  -25.0698 N   0  0  0  0  0  0  0  0  0  0  0  0
   -4.5503   23.0008  -26.2695 C   0  0  0  0  0  0  0  0  0  0  0  0
   -5.1461   23.4734  -27.4264 C   0  0  0  0  0  0  0  0  0  0  0  0
   -4.3547   23.7739  -28.5143 C   0  0  0  0  0  0  0  0  0  0  0  0
   -3.0013   23.5790  -28.3754 C   0  0  0  0  0  0  0  0  0  0  0  0
   -2.4518   23.1129  -27.2251 N   0  0  0  0  0  0  0  0  0  0  0  0
   -3.1997   22.8099  -26.1412 C   0  0  0  0  0  0  0  0  0  0  0  0
   -4.9523   24.3040  -29.7512 C   0  0  0  0  0  0  0  0  0  0  0  0
   -4.9087   25.5643  -30.1732 N   0  0  0  0  0  0  0  0  0  0  0  0
   -5.5864   25.6296  -31.3637 C   0  0  0  0  0  0  0  0  0  0  0  0
   -6.0313   24.3632  -31.6305 C   0  0  0  0  0  0  0  0  0  0  0  0
   -5.6279   23.6252  -30.6466 O   0  0  0  0  0  0  0  0  0  0  0  0
    1.9996   21.0234  -22.5833 O   0  0  0  0  0  0  0  0  0  0  0  0
    2.0875   20.5409  -21.2876 C   0  0  0  0  0  0  0  0  0  0  0  0
    3.0518   21.3370  -20.4568 C   0  0  0  0  0  0  0  0  0  0  0  0
    3.1294   20.9527  -19.0859 N   0  0  0  0  0  0  0  0  0  0  0  0
    2.0935   21.5976  -18.2764 C   0  0  0  0  0  0  0  0  0  0  0  0
    2.1578   23.0796  -18.2547 C   0  0  0  0  0  0  0  0  0  0  0  0
    3.4330   23.6538  -18.4111 N   0  0  0  0  0  0  0  0  0  0  0  0
    4.5755   22.8265  -18.4038 C   0  0  0  0  0  0  0  0  0  0  0  0
    4.3652   21.3500  -18.4155 C   0  0  0  0  0  0  0  0  0  0  0  0
    3.4836   24.5283  -18.9753 H   0  0  0  0  0  0  0  0  0  0  0  0
 22 23  1  0  0  0
 23 24  1  0  0  0
 24 25  1  0  0  0
 25 26  1  0  0  0
 26 27  1  0  0  0
 27 28  1  0  0  0
 28 29  1  0  0  0
 22 21  1  0  0  0
 21  1  1  0  0  0
  1  2  2  0  0  0
  2  3  1  0  0  0
  3  4  2  0  0  0
  4  5  1  0  0  0
  5  6  2  0  0  0
  4  7  1  0  0  0
  7  8  1  0  0  0
  8  9  2  0  0  0
  9 10  1  0  0  0
 10 11  2  0  0  0
 11 12  1  0  0  0
 12 13  2  0  0  0
 13 14  1  0  0  0
 14 15  2  0  0  0
 12 16  1  0  0  0
 16 17  2  0  0  0
 17 18  1  0  0  0
 18 19  2  0  0  0
 19 20  1  0  0  0
 29 24  1  0  0  0
  6  1  1  0  0  0
 15  7  1  0  0  0
 20 16  1  0  0  0
 15 10  1  0  0  0
 27 30  1  0  0  0
M  END
> <minimizedAffinity>
-7.74812

> <CNNscore>
0.4416982234

> <CNNaffinity>
6.2935357094

> <CNN_VS>
2.7798435688

> <CNNaffinity_variance>
0.2936665714

$$$$
[H]c1nc(-c2c([H])nc3c(nnn3-c3c([H])c([H])c(OC([H])([H])C([H])([H])N4C([H])([H])C([H])([H])N([H])C([H])([H])C4([H])[H])c([H])c3[H])c2[H])oc1[H]


 30 34  0  0  0  0  0  0  0  0999 V2000
    0.6137   20.8037  -21.7908 C   0  0  0  0  0  0  0  0  0  0  0  0
   -0.5972   21.0243  -21.1635 C   0  0  0  0  0  0  0  0  0  0  0  0
   -1.5556   21.8064  -21.7513 C   0  0  0  0  0  0  0  0  0  0  0  0
   -1.3664   22.4111  -22.9904 C   0  0  0  0  0  0  0  0  0  0  0  0
   -0.1391   22.1710  -23.5956 C   0  0  0  0  0  0  0  0  0  0  0  0
    0.8390   21.3827  -23.0125 C   0  0  0  0  0  0  0  0  0  0  0  0
   -2.3919   23.1971  -23.5705 N   0  0  0  0  0  0  0  0  0  0  0  0
   -3.1194   24.1092  -22.9352 N   0  0  0  0  0  0  0  0  0  0  0  0
   -3.9700   24.6693  -23.7695 N   0  0  0  0  0  0  0  0  0  0  0  0
   -3.7963   24.1075  -25.0015 C   0  0  0  0  0  0  0  0  0  0  0  0
   -4.4347   24.3507  -26.2057 C   0  0  0  0  0  0  0  0  0  0  0  0
   -4.0579   23.6346  -27.3216 C   0  0  0  0  0  0  0  0  0  0  0  0
   -3.0554   22.7083  -27.1606 C   0  0  0  0  0  0  0  0  0  0  0  0
   -2.4520   22.4959  -25.9634 N   0  0  0  0  0  0  0  0  0  0  0  0
   -2.7977   23.1816  -24.8515 C   0  0  0  0  0  0  0  0  0  0  0  0
   -4.6971   23.8865  -28.6240 C   0  0  0  0  0  0  0  0  0  0  0  0
   -5.0052   25.0741  -29.1368 N   0  0  0  0  0  0  0  0  0  0  0  0
   -5.5839   24.8624  -30.3619 C   0  0  0  0  0  0  0  0  0  0  0  0
   -5.6061   23.5078  -30.5552 C   0  0  0  0  0  0  0  0  0  0  0  0
   -5.0708   22.9847  -29.4991 O   0  0  0  0  0  0  0  0  0  0  0  0
    1.5697   20.0020  -21.1739 O   0  0  0  0  0  0  0  0  0  0  0  0
    2.6742   19.4962  -21.8397 C   0  0  0  0  0  0  0  0  0  0  0  0
    3.1891   18.2400  -21.1985 C   0  0  0  0  0  0  0  0  0  0  0  0
    2.7330   17.0269  -21.7930 N   0  0  0  0  0  0  0  0  0  0  0  0
    1.7398   16.3472  -20.9588 C   0  0  0  0  0  0  0  0  0  0  0  0
    2.2284   15.9466  -19.6166 C   0  0  0  0  0  0  0  0  0  0  0  0
    3.6012   15.6557  -19.5107 N   0  0  0  0  0  0  0  0  0  0  0  0
    4.3911   15.5870  -20.6773 C   0  0  0  0  0  0  0  0  0  0  0  0
    3.7687   16.0109  -21.9647 C   0  0  0  0  0  0  0  0  0  0  0  0
    4.0749   15.9592  -18.6336 H   0  0  0  0  0  0  0  0  0  0  0  0
 22 23  1  0  0  0
 23 24  1  0  0  0
 24 25  1  0  0  0
 25 26  1  0  0  0
 26 27  1  0  0  0
 27 28  1  0  0  0
 28 29  1  0  0  0
 22 21  1  0  0  0
 21  1  1  0  0  0
  1  2  2  0  0  0
  2  3  1  0  0  0
  3  4  2  0  0  0
  4  5  1  0  0  0
  5  6  2  0  0  0
  4  7  1  0  0  0
  7  8  1  0  0  0
  8  9  2  0  0  0
  9 10  1  0  0  0
 10 11  2  0  0  0
 11 12  1  0  0  0
 12 13  2  0  0  0
 13 14  1  0  0  0
 14 15  2  0  0  0
 12 16  1  0  0  0
 16 17  2  0  0  0
 17 18  1  0  0  0
 18 19  2  0  0  0
 19 20  1  0  0  0
 29 24  1  0  0  0
  6  1  1  0  0  0
 15  7  1  0  0  0
 20 16  1  0  0  0
 15 10  1  0  0  0
 27 30  1  0  0  0
M  END
> <minimizedAffinity>
-6.63227

> <CNNscore>
0.2875365615

> <CNNaffinity>
5.9921388626

> <CNN_VS>
1.7229590416

> <CNNaffinity_variance>
0.2381034195

$$$$
[H]C([H])=C([H])C(=O)N1C([H])([H])C([H])([H])N(C([H])([H])C([H])([H])C([H])([H])n2c(=O)c(-c3c(Cl)c(OC([H])([H])[H])c([H])c(OC([H])([H])[H])c3Cl)c([H])c3c([H])nc(N([H])C([H])([H])C([H])([H])N(C([H])([H])[H])C([H])([H])[H])nc32)C([H])([H])C1([H])[H]


 43 46  0  0  0  0  0  0  0  0999 V2000
   -1.1633   21.7799  -22.4148 C   0  0  0  0  0  0  0  0  0  0  0  0
   -0.3981   20.6474  -22.2470 C   0  0  0  0  0  0  0  0  0  0  0  0
    0.3153   20.4337  -21.0694 C   0  0  0  0  0  0  0  0  0  0  0  0
    1.0786   19.3176  -20.8752 C   0  0  0  0  0  0  0  0  0  0  0  0
    1.7251   19.1972  -19.7095 N   0  0  0  0  0  0  0  0  0  0  0  0
    1.6849   20.0882  -18.7101 C   0  0  0  0  0  0  0  0  0  0  0  0
    0.9250   21.2011  -18.9027 N   0  0  0  0  0  0  0  0  0  0  0  0
    0.2565   21.3676  -20.0571 C   0  0  0  0  0  0  0  0  0  0  0  0
   -0.4880   22.4685  -20.2232 N   0  0  0  0  0  0  0  0  0  0  0  0
   -1.1911   22.6846  -21.3757 C   0  0  0  0  0  0  0  0  0  0  0  0
   -1.8709   23.7321  -21.4743 O   0  0  0  0  0  0  0  0  0  0  0  0
   -2.0273   22.6271  -25.9666 C   0  0  0  0  0  0  0  0  0  0  0  0
   -3.3959   22.4669  -25.9468 C   0  0  0  0  0  0  0  0  0  0  0  0
   -4.0624   22.0826  -24.7883 C   0  0  0  0  0  0  0  0  0  0  0  0
   -3.2984   21.8691  -23.6625 C   0  0  0  0  0  0  0  0  0  0  0  0
   -4.1003   21.3780  -22.1639 Cl  0  0  0  0  0  0  0  0  0  0  0  0
   -1.9171   22.0202  -23.6420 C   0  0  0  0  0  0  0  0  0  0  0  0
   -1.3014   22.4020  -24.8137 C   0  0  0  0  0  0  0  0  0  0  0  0
    0.4572   22.5953  -24.7922 Cl  0  0  0  0  0  0  0  0  0  0  0  0
   -2.0686   23.0909  -28.3176 C   0  0  0  0  0  0  0  0  0  0  0  0
   -1.3391   23.0090  -27.1073 O   0  0  0  0  0  0  0  0  0  0  0  0
   -5.4403   21.9244  -24.7812 O   0  0  0  0  0  0  0  0  0  0  0  0
   -6.2528   23.0484  -25.0522 C   0  0  0  0  0  0  0  0  0  0  0  0
    2.3932   19.9023  -17.4796 N   0  0  0  0  0  0  0  0  0  0  0  0
    2.6918   18.9227  -17.2252 H   0  0  0  0  0  0  0  0  0  0  0  0
    2.7113   20.9877  -16.5854 C   0  0  0  0  0  0  0  0  0  0  0  0
    3.9716   21.6904  -16.9502 C   0  0  0  0  0  0  0  0  0  0  0  0
    4.0175   23.0588  -16.4705 N   0  0  0  0  0  0  0  0  0  0  0  0
    3.5476   23.1407  -15.1059 C   0  0  0  0  0  0  0  0  0  0  0  0
    3.2750   23.9574  -17.3170 C   0  0  0  0  0  0  0  0  0  0  0  0
   -0.5445   23.4640  -19.1733 C   0  0  0  0  0  0  0  0  0  0  0  0
   -1.2645   22.8422  -17.9744 C   0  0  0  0  0  0  0  0  0  0  0  0
   -2.7100   22.5964  -18.3379 C   0  0  0  0  0  0  0  0  0  0  0  0
   -3.1838   21.4556  -17.5864 N   0  0  0  0  0  0  0  0  0  0  0  0
   -2.1277   20.5167  -17.3033 C   0  0  0  0  0  0  0  0  0  0  0  0
   -2.2071   19.2122  -18.0115 C   0  0  0  0  0  0  0  0  0  0  0  0
   -3.5189   18.6097  -17.9860 N   0  0  0  0  0  0  0  0  0  0  0  0
   -4.6514   19.4642  -17.6974 C   0  0  0  0  0  0  0  0  0  0  0  0
   -4.3483   20.8448  -18.1673 C   0  0  0  0  0  0  0  0  0  0  0  0
   -3.6791   17.2235  -18.2377 C   0  0  0  0  0  0  0  0  0  0  0  0
   -4.8144   16.6699  -18.2190 O   0  0  0  0  0  0  0  0  0  0  0  0
   -2.5131   16.4039  -18.5274 C   0  0  0  0  0  0  0  0  0  0  0  0
   -2.5413   15.4824  -19.4835 C   0  0  0  0  0  0  0  0  0  0  0  0
 20 21  1  0  0  0
 21 12  1  0  0  0
 12 13  2  0  0  0
 13 14  1  0  0  0
 14 22  1  0  0  0
 22 23  1  0  0  0
 14 15  2  0  0  0
 15 16  1  0  0  0
 15 17  1  0  0  0
 17 18  2  0  0  0
 18 19  1  0  0  0
 17  1  1  0  0  0
  1  2  2  0  0  0
  2  3  1  0  0  0
  3  4  2  0  0  0
  4  5  1  0  0  0
  5  6  2  0  0  0
  6 24  1  0  0  0
 24 26  1  0  0  0
 26 27  1  0  0  0
 27 28  1  0  0  0
 28 29  1  0  0  0
 28 30  1  0  0  0
  6  7  1  0  0  0
  7  8  2  0  0  0
  8  9  1  0  0  0
  9 31  1  0  0  0
 31 32  1  0  0  0
 32 33  1  0  0  0
 33 34  1  0  0  0
 34 35  1  0  0  0
 35 36  1  0  0  0
 36 37  1  0  0  0
 37 38  1  0  0  0
 38 39  1  0  0  0
 37 40  1  0  0  0
 40 41  2  0  0  0
 40 42  1  0  0  0
 42 43  2  0  0  0
  9 10  1  0  0  0
 10 11  2  0  0  0
 18 12  1  0  0  0
 10  1  1  0  0  0
  8  3  1  0  0  0
 39 34  1  0  0  0
 24 25  1  0  0  0
M  END
> <minimizedAffinity>
-6.29234

> <CNNscore>
0.1037574857

> <CNNaffinity>
6.3922023773

> <CNN_VS>
0.6632388234

> <CNNaffinity_variance>
0.5389027596

$$$$
[H]C([H])=C([H])C(=O)N1C([H])([H])C([H])([H])N(C([H])([H])C([H])([H])C([H])([H])n2c(=O)c(-c3c(Cl)c(OC([H])([H])[H])c([H])c(OC([H])([H])[H])c3Cl)c([H])c3c([H])nc(N([H])C([H])([H])C([H])([H])N(C([H])([H])[H])C([H])([H])[H])nc32)C([H])([H])C1([H])[H]


 43 46  0  0  0  0  0  0  0  0999 V2000
   -4.7066   23.3808  -23.9538 C   0  0  0  0  0  0  0  0  0  0  0  0
   -5.2241   24.6550  -23.8838 C   0  0  0  0  0  0  0  0  0  0  0  0
   -6.4261   24.9041  -23.2246 C   0  0  0  0  0  0  0  0  0  0  0  0
   -6.9597   26.1585  -23.1368 C   0  0  0  0  0  0  0  0  0  0  0  0
   -8.1171   26.3012  -22.4799 N   0  0  0  0  0  0  0  0  0  0  0  0
   -8.8004   25.3072  -21.8973 C   0  0  0  0  0  0  0  0  0  0  0  0
   -8.2699   24.0566  -21.9845 N   0  0  0  0  0  0  0  0  0  0  0  0
   -7.1090   23.8622  -22.6342 C   0  0  0  0  0  0  0  0  0  0  0  0
   -6.6038   22.6238  -22.7043 N   0  0  0  0  0  0  0  0  0  0  0  0
   -5.4247   22.3721  -23.3488 C   0  0  0  0  0  0  0  0  0  0  0  0
   -5.0004   21.1938  -23.3816 O   0  0  0  0  0  0  0  0  0  0  0  0
   -1.0759   22.7096  -24.6218 C   0  0  0  0  0  0  0  0  0  0  0  0
   -1.0845   22.5727  -25.9930 C   0  0  0  0  0  0  0  0  0  0  0  0
   -2.2610   22.6940  -26.7246 C   0  0  0  0  0  0  0  0  0  0  0  0
   -3.4161   22.9565  -26.0222 C   0  0  0  0  0  0  0  0  0  0  0  0
   -4.9389   23.1188  -26.9081 Cl  0  0  0  0  0  0  0  0  0  0  0  0
   -3.4487   23.1015  -24.6404 C   0  0  0  0  0  0  0  0  0  0  0  0
   -2.2584   22.9725  -23.9590 C   0  0  0  0  0  0  0  0  0  0  0  0
   -2.2952   23.1561  -22.1996 Cl  0  0  0  0  0  0  0  0  0  0  0  0
    0.9836   21.5557  -24.2079 C   0  0  0  0  0  0  0  0  0  0  0  0
    0.0822   22.5934  -23.8695 O   0  0  0  0  0  0  0  0  0  0  0  0
   -2.2567   22.5539  -28.1044 O   0  0  0  0  0  0  0  0  0  0  0  0
   -1.3127   23.2881  -28.8572 C   0  0  0  0  0  0  0  0  0  0  0  0
  -10.0328   25.5211  -21.2003 N   0  0  0  0  0  0  0  0  0  0  0  0
  -10.2656   24.8746  -20.3995 H   0  0  0  0  0  0  0  0  0  0  0  0
  -10.9572   26.5726  -21.5451 C   0  0  0  0  0  0  0  0  0  0  0  0
  -10.8855   27.7356  -20.6190 C   0  0  0  0  0  0  0  0  0  0  0  0
  -10.7412   29.0030  -21.3099 N   0  0  0  0  0  0  0  0  0  0  0  0
  -10.8456   30.1077  -20.3834 C   0  0  0  0  0  0  0  0  0  0  0  0
  -11.6918   29.1495  -22.3824 C   0  0  0  0  0  0  0  0  0  0  0  0
   -7.3203   21.5193  -22.1017 C   0  0  0  0  0  0  0  0  0  0  0  0
   -6.9518   21.4741  -20.6170 C   0  0  0  0  0  0  0  0  0  0  0  0
   -8.1630   21.0520  -19.8188 C   0  0  0  0  0  0  0  0  0  0  0  0
   -7.7120   20.4783  -18.5706 N   0  0  0  0  0  0  0  0  0  0  0  0
   -7.0064   19.2373  -18.7683 C   0  0  0  0  0  0  0  0  0  0  0  0
   -7.6954   18.0112  -18.2869 C   0  0  0  0  0  0  0  0  0  0  0  0
   -8.2574   18.1355  -16.9628 N   0  0  0  0  0  0  0  0  0  0  0  0
   -8.4842   19.4685  -16.4455 C   0  0  0  0  0  0  0  0  0  0  0  0
   -8.7540   20.3902  -17.5841 C   0  0  0  0  0  0  0  0  0  0  0  0
   -8.5730   16.9802  -16.2037 C   0  0  0  0  0  0  0  0  0  0  0  0
   -9.0628   17.0598  -15.0420 O   0  0  0  0  0  0  0  0  0  0  0  0
   -8.3319   15.6605  -16.7653 C   0  0  0  0  0  0  0  0  0  0  0  0
   -9.1602   14.6502  -16.5261 C   0  0  0  0  0  0  0  0  0  0  0  0
 20 21  1  0  0  0
 21 12  1  0  0  0
 12 13  2  0  0  0
 13 14  1  0  0  0
 14 22  1  0  0  0
 22 23  1  0  0  0
 14 15  2  0  0  0
 15 16  1  0  0  0
 15 17  1  0  0  0
 17 18  2  0  0  0
 18 19  1  0  0  0
 17  1  1  0  0  0
  1  2  2  0  0  0
  2  3  1  0  0  0
  3  4  2  0  0  0
  4  5  1  0  0  0
  5  6  2  0  0  0
  6 24  1  0  0  0
 24 26  1  0  0  0
 26 27  1  0  0  0
 27 28  1  0  0  0
 28 29  1  0  0  0
 28 30  1  0  0  0
  6  7  1  0  0  0
  7  8  2  0  0  0
  8  9  1  0  0  0
  9 31  1  0  0  0
 31 32  1  0  0  0
 32 33  1  0  0  0
 33 34  1  0  0  0
 34 35  1  0  0  0
 35 36  1  0  0  0
 36 37  1  0  0  0
 37 38  1  0  0  0
 38 39  1  0  0  0
 37 40  1  0  0  0
 40 41  2  0  0  0
 40 42  1  0  0  0
 42 43  2  0  0  0
  9 10  1  0  0  0
 10 11  2  0  0  0
 18 12  1  0  0  0
 10  1  1  0  0  0
  8  3  1  0  0  0
 39 34  1  0  0  0
 24 25  1  0  0  0
M  END
> <minimizedAffinity>
-6.61738

> <CNNscore>
0.1009404212

> <CNNaffinity>
6.6750192642

> <CNN_VS>
0.6737792492

> <CNNaffinity_variance>
0.1835134923

$$$$
[H]C([H])=C([H])C(=O)N1C([H])([H])C([H])([H])N(C([H])([H])C([H])([H])C([H])([H])n2c(=O)c(-c3c(Cl)c(OC([H])([H])[H])c([H])c(OC([H])([H])[H])c3Cl)c([H])c3c([H])nc(N([H])C([H])([H])C([H])([H])N(C([H])([H])[H])C([H])([H])[H])nc32)C([H])([H])C1([H])[H]


 43 46  0  0  0  0  0  0  0  0999 V2000
   -0.2450   21.0476  -21.1022 C   0  0  0  0  0  0  0  0  0  0  0  0
    0.6202   21.2070  -22.1616 C   0  0  0  0  0  0  0  0  0  0  0  0
    0.1509   21.5836  -23.4184 C   0  0  0  0  0  0  0  0  0  0  0  0
    0.9872   21.7527  -24.4851 C   0  0  0  0  0  0  0  0  0  0  0  0
    0.4454   22.1198  -25.6526 N   0  0  0  0  0  0  0  0  0  0  0  0
   -0.8597   22.3365  -25.8624 C   0  0  0  0  0  0  0  0  0  0  0  0
   -1.6942   22.1679  -24.8003 N   0  0  0  0  0  0  0  0  0  0  0  0
   -1.1976   21.7996  -23.6065 C   0  0  0  0  0  0  0  0  0  0  0  0
   -2.0369   21.6433  -22.5745 N   0  0  0  0  0  0  0  0  0  0  0  0
   -1.5835   21.2745  -21.3385 C   0  0  0  0  0  0  0  0  0  0  0  0
   -2.4149   21.1443  -20.4105 O   0  0  0  0  0  0  0  0  0  0  0  0
    0.9308   18.9799  -18.2003 C   0  0  0  0  0  0  0  0  0  0  0  0
    1.1269   19.9561  -17.2476 C   0  0  0  0  0  0  0  0  0  0  0  0
    0.8838   21.2970  -17.5254 C   0  0  0  0  0  0  0  0  0  0  0  0
    0.4393   21.6082  -18.7911 C   0  0  0  0  0  0  0  0  0  0  0  0
    0.1165   23.3006  -19.1933 Cl  0  0  0  0  0  0  0  0  0  0  0  0
    0.2292   20.6533  -19.7787 C   0  0  0  0  0  0  0  0  0  0  0  0
    0.4840   19.3383  -19.4567 C   0  0  0  0  0  0  0  0  0  0  0  0
    0.2182   18.1192  -20.7111 Cl  0  0  0  0  0  0  0  0  0  0  0  0
    0.1993   16.9321  -17.1925 C   0  0  0  0  0  0  0  0  0  0  0  0
    1.1656   17.6373  -17.9494 O   0  0  0  0  0  0  0  0  0  0  0  0
    1.0852   22.2703  -16.5581 O   0  0  0  0  0  0  0  0  0  0  0  0
    2.4004   22.7317  -16.3245 C   0  0  0  0  0  0  0  0  0  0  0  0
   -1.3824   22.7356  -27.1344 N   0  0  0  0  0  0  0  0  0  0  0  0
   -0.7211   23.1918  -27.8186 H   0  0  0  0  0  0  0  0  0  0  0  0
   -2.7600   22.5409  -27.5130 C   0  0  0  0  0  0  0  0  0  0  0  0
   -3.3004   23.6590  -28.3335 C   0  0  0  0  0  0  0  0  0  0  0  0
   -4.7144   23.8942  -28.1108 N   0  0  0  0  0  0  0  0  0  0  0  0
   -5.1126   23.4285  -26.8015 C   0  0  0  0  0  0  0  0  0  0  0  0
   -5.5335   23.2942  -29.1328 C   0  0  0  0  0  0  0  0  0  0  0  0
   -3.4571   21.8518  -22.7641 C   0  0  0  0  0  0  0  0  0  0  0  0
   -3.7601   23.3221  -22.4667 C   0  0  0  0  0  0  0  0  0  0  0  0
   -5.2568   23.5145  -22.3946 C   0  0  0  0  0  0  0  0  0  0  0  0
   -5.7899   22.5968  -21.4127 N   0  0  0  0  0  0  0  0  0  0  0  0
   -7.0777   22.0776  -21.7992 C   0  0  0  0  0  0  0  0  0  0  0  0
   -8.2361   22.5358  -20.9881 C   0  0  0  0  0  0  0  0  0  0  0  0
   -8.0118   22.4834  -19.5629 N   0  0  0  0  0  0  0  0  0  0  0  0
   -6.6430   22.4312  -19.0940 C   0  0  0  0  0  0  0  0  0  0  0  0
   -5.7676   23.1281  -20.0771 C   0  0  0  0  0  0  0  0  0  0  0  0
   -9.1064   22.4841  -18.6616 C   0  0  0  0  0  0  0  0  0  0  0  0
   -8.9393   22.4361  -17.4105 O   0  0  0  0  0  0  0  0  0  0  0  0
  -10.4650   22.5416  -19.1776 C   0  0  0  0  0  0  0  0  0  0  0  0
  -11.4531   23.0570  -18.4551 C   0  0  0  0  0  0  0  0  0  0  0  0
 20 21  1  0  0  0
 21 12  1  0  0  0
 12 13  2  0  0  0
 13 14  1  0  0  0
 14 22  1  0  0  0
 22 23  1  0  0  0
 14 15  2  0  0  0
 15 16  1  0  0  0
 15 17  1  0  0  0
 17 18  2  0  0  0
 18 19  1  0  0  0
 17  1  1  0  0  0
  1  2  2  0  0  0
  2  3  1  0  0  0
  3  4  2  0  0  0
  4  5  1  0  0  0
  5  6  2  0  0  0
  6 24  1  0  0  0
 24 26  1  0  0  0
 26 27  1  0  0  0
 27 28  1  0  0  0
 28 29  1  0  0  0
 28 30  1  0  0  0
  6  7  1  0  0  0
  7  8  2  0  0  0
  8  9  1  0  0  0
  9 31  1  0  0  0
 31 32  1  0  0  0
 32 33  1  0  0  0
 33 34  1  0  0  0
 34 35  1  0  0  0
 35 36  1  0  0  0
 36 37  1  0  0  0
 37 38  1  0  0  0
 38 39  1  0  0  0
 37 40  1  0  0  0
 40 41  2  0  0  0
 40 42  1  0  0  0
 42 43  2  0  0  0
  9 10  1  0  0  0
 10 11  2  0  0  0
 18 12  1  0  0  0
 10  1  1  0  0  0
  8  3  1  0  0  0
 39 34  1  0  0  0
 24 25  1  0  0  0
M  END
> <minimizedAffinity>
-6.52003

> <CNNscore>
0.0871376693

> <CNNaffinity>
7.0074081421

> <CNN_VS>
0.6106092334

> <CNNaffinity_variance>
0.2683568895

$$$$
[H]C([H])=C([H])C(=O)N1C([H])([H])C([H])([H])N(C([H])([H])C([H])([H])C([H])([H])n2c(=O)c(-c3c(Cl)c(OC([H])([H])[H])c([H])c(OC([H])([H])[H])c3Cl)c([H])c3c([H])nc(N([H])C([H])([H])C([H])([H])N(C([H])([H])[H])C([H])([H])[H])nc32)C([H])([H])C1([H])[H]


 43 46  0  0  0  0  0  0  0  0999 V2000
   -0.4764   21.1787  -21.3169 C   0  0  0  0  0  0  0  0  0  0  0  0
    0.3445   21.3318  -22.4120 C   0  0  0  0  0  0  0  0  0  0  0  0
   -0.1768   21.6956  -23.6519 C   0  0  0  0  0  0  0  0  0  0  0  0
    0.6149   21.8582  -24.7531 C   0  0  0  0  0  0  0  0  0  0  0  0
    0.0248   22.2130  -25.9008 N   0  0  0  0  0  0  0  0  0  0  0  0
   -1.2886   22.4233  -26.0593 C   0  0  0  0  0  0  0  0  0  0  0  0
   -2.0787   22.2612  -24.9628 N   0  0  0  0  0  0  0  0  0  0  0  0
   -1.5326   21.9052  -23.7870 C   0  0  0  0  0  0  0  0  0  0  0  0
   -2.3288   21.7551  -22.7205 N   0  0  0  0  0  0  0  0  0  0  0  0
   -1.8242   21.3988  -21.5007 C   0  0  0  0  0  0  0  0  0  0  0  0
   -2.6168   21.2739  -20.5387 O   0  0  0  0  0  0  0  0  0  0  0  0
    0.7466   21.3443  -17.7735 C   0  0  0  0  0  0  0  0  0  0  0  0
    1.0632   20.0226  -17.5454 C   0  0  0  0  0  0  0  0  0  0  0  0
    0.8870   19.0564  -18.5301 C   0  0  0  0  0  0  0  0  0  0  0  0
    0.3835   19.4751  -19.7415 C   0  0  0  0  0  0  0  0  0  0  0  0
    0.1408   18.2830  -21.0261 Cl  0  0  0  0  0  0  0  0  0  0  0  0
    0.0526   20.7978  -20.0104 C   0  0  0  0  0  0  0  0  0  0  0  0
    0.2441   21.7188  -19.0040 C   0  0  0  0  0  0  0  0  0  0  0  0
   -0.1761   23.4039  -19.3418 Cl  0  0  0  0  0  0  0  0  0  0  0  0
    2.2331   22.6250  -16.3972 C   0  0  0  0  0  0  0  0  0  0  0  0
    0.9124   22.3263  -16.8098 O   0  0  0  0  0  0  0  0  0  0  0  0
    1.2092   17.7292  -18.2882 O   0  0  0  0  0  0  0  0  0  0  0  0
    0.2772   16.9202  -17.5998 C   0  0  0  0  0  0  0  0  0  0  0  0
   -1.8640   22.8093  -27.3125 N   0  0  0  0  0  0  0  0  0  0  0  0
   -1.2156   22.9344  -28.1356 H   0  0  0  0  0  0  0  0  0  0  0  0
   -3.2773   23.0308  -27.4922 C   0  0  0  0  0  0  0  0  0  0  0  0
   -3.5974   23.7386  -28.7617 C   0  0  0  0  0  0  0  0  0  0  0  0
   -4.2246   25.0293  -28.5491 N   0  0  0  0  0  0  0  0  0  0  0  0
   -5.1976   24.9581  -27.4824 C   0  0  0  0  0  0  0  0  0  0  0  0
   -4.8274   25.5461  -29.7511 C   0  0  0  0  0  0  0  0  0  0  0  0
   -3.7563   21.9569  -22.8541 C   0  0  0  0  0  0  0  0  0  0  0  0
   -4.0297   23.4595  -22.7565 C   0  0  0  0  0  0  0  0  0  0  0  0
   -5.3084   23.7792  -23.4948 C   0  0  0  0  0  0  0  0  0  0  0  0
   -6.2720   24.2869  -22.5437 N   0  0  0  0  0  0  0  0  0  0  0  0
   -5.6452   24.7443  -21.3292 C   0  0  0  0  0  0  0  0  0  0  0  0
   -5.9058   23.9295  -20.1136 C   0  0  0  0  0  0  0  0  0  0  0  0
   -7.2931   23.5731  -19.9324 N   0  0  0  0  0  0  0  0  0  0  0  0
   -8.1660   23.6406  -21.0855 C   0  0  0  0  0  0  0  0  0  0  0  0
   -7.3653   23.3821  -22.3146 C   0  0  0  0  0  0  0  0  0  0  0  0
   -7.7726   23.1712  -18.6600 C   0  0  0  0  0  0  0  0  0  0  0  0
   -8.9816   22.8567  -18.4726 O   0  0  0  0  0  0  0  0  0  0  0  0
   -6.8586   23.1141  -17.5302 C   0  0  0  0  0  0  0  0  0  0  0  0
   -6.7327   22.0097  -16.8033 C   0  0  0  0  0  0  0  0  0  0  0  0
 20 21  1  0  0  0
 21 12  1  0  0  0
 12 13  2  0  0  0
 13 14  1  0  0  0
 14 22  1  0  0  0
 22 23  1  0  0  0
 14 15  2  0  0  0
 15 16  1  0  0  0
 15 17  1  0  0  0
 17 18  2  0  0  0
 18 19  1  0  0  0
 17  1  1  0  0  0
  1  2  2  0  0  0
  2  3  1  0  0  0
  3  4  2  0  0  0
  4  5  1  0  0  0
  5  6  2  0  0  0
  6 24  1  0  0  0
 24 26  1  0  0  0
 26 27  1  0  0  0
 27 28  1  0  0  0
 28 29  1  0  0  0
 28 30  1  0  0  0
  6  7  1  0  0  0
  7  8  2  0  0  0
  8  9  1  0  0  0
  9 31  1  0  0  0
 31 32  1  0  0  0
 32 33  1  0  0  0
 33 34  1  0  0  0
 34 35  1  0  0  0
 35 36  1  0  0  0
 36 37  1  0  0  0
 37 38  1  0  0  0
 38 39  1  0  0  0
 37 40  1  0  0  0
 40 41  2  0  0  0
 40 42  1  0  0  0
 42 43  2  0  0  0
  9 10  1  0  0  0
 10 11  2  0  0  0
 18 12  1  0  0  0
 10  1  1  0  0  0
  8  3  1  0  0  0
 39 34  1  0  0  0
 24 25  1  0  0  0
M  END
> <minimizedAffinity>
-6.62572

> <CNNscore>
0.0727366805

> <CNNaffinity>
7.1598420143

> <CNN_VS>
0.5207831264

> <CNNaffinity_variance>
0.3003721833

$$$$
[H]C([H])=C([H])C(=O)N1C([H])([H])C([H])([H])N(C([H])([H])C([H])([H])C([H])([H])n2c(=O)c(-c3c(Cl)c(OC([H])([H])[H])c([H])c(OC([H])([H])[H])c3Cl)c([H])c3c([H])nc(N([H])C([H])([H])C([H])([H])N(C([H])([H])[H])C([H])([H])[H])nc32)C([H])([H])C1([H])[H]


 43 46  0  0  0  0  0  0  0  0999 V2000
   -1.2316   21.7109  -22.3437 C   0  0  0  0  0  0  0  0  0  0  0  0
   -0.5183   20.5426  -22.1933 C   0  0  0  0  0  0  0  0  0  0  0  0
    0.1739   20.2734  -21.0144 C   0  0  0  0  0  0  0  0  0  0  0  0
    0.8857   19.1210  -20.8373 C   0  0  0  0  0  0  0  0  0  0  0  0
    1.5152   18.9481  -19.6688 N   0  0  0  0  0  0  0  0  0  0  0  0
    1.5044   19.8191  -18.6512 C   0  0  0  0  0  0  0  0  0  0  0  0
    0.7958   20.9680  -18.8266 N   0  0  0  0  0  0  0  0  0  0  0  0
    0.1463   21.1877  -19.9831 C   0  0  0  0  0  0  0  0  0  0  0  0
   -0.5478   22.3234  -20.1321 N   0  0  0  0  0  0  0  0  0  0  0  0
   -1.2297   22.5941  -21.2858 C   0  0  0  0  0  0  0  0  0  0  0  0
   -1.8622   23.6723  -21.3681 O   0  0  0  0  0  0  0  0  0  0  0  0
   -2.0247   22.6811  -25.8804 C   0  0  0  0  0  0  0  0  0  0  0  0
   -3.3981   22.5680  -25.8796 C   0  0  0  0  0  0  0  0  0  0  0  0
   -4.0909   22.1765  -24.7389 C   0  0  0  0  0  0  0  0  0  0  0  0
   -3.3478   21.9070  -23.6112 C   0  0  0  0  0  0  0  0  0  0  0  0
   -4.1834   21.4046  -22.1349 Cl  0  0  0  0  0  0  0  0  0  0  0  0
   -1.9624   22.0096  -23.5719 C   0  0  0  0  0  0  0  0  0  0  0  0
   -1.3203   22.4005  -24.7263 C   0  0  0  0  0  0  0  0  0  0  0  0
    0.4435   22.5321  -24.6809 Cl  0  0  0  0  0  0  0  0  0  0  0  0
   -1.9885   23.0663  -28.2457 C   0  0  0  0  0  0  0  0  0  0  0  0
   -1.3106   23.0689  -27.0030 O   0  0  0  0  0  0  0  0  0  0  0  0
   -5.4734   22.0662  -24.7508 O   0  0  0  0  0  0  0  0  0  0  0  0
   -6.2437   23.2260  -24.9923 C   0  0  0  0  0  0  0  0  0  0  0  0
    2.1922   19.5767  -17.4189 N   0  0  0  0  0  0  0  0  0  0  0  0
    2.7131   18.6648  -17.3155 H   0  0  0  0  0  0  0  0  0  0  0  0
    2.2013   20.5180  -16.3268 C   0  0  0  0  0  0  0  0  0  0  0  0
    3.3211   21.4949  -16.4115 C   0  0  0  0  0  0  0  0  0  0  0  0
    2.8718   22.8742  -16.4131 N   0  0  0  0  0  0  0  0  0  0  0  0
    3.1455   23.5020  -17.6862 C   0  0  0  0  0  0  0  0  0  0  0  0
    3.4516   23.6368  -15.3372 C   0  0  0  0  0  0  0  0  0  0  0  0
   -0.5708   23.2984  -19.0619 C   0  0  0  0  0  0  0  0  0  0  0  0
   -1.9647   23.2705  -18.4306 C   0  0  0  0  0  0  0  0  0  0  0  0
   -2.0083   22.1915  -17.3741 C   0  0  0  0  0  0  0  0  0  0  0  0
   -3.3809   22.0158  -16.9549 N   0  0  0  0  0  0  0  0  0  0  0  0
   -3.9967   20.8733  -17.5814 C   0  0  0  0  0  0  0  0  0  0  0  0
   -5.0619   21.1693  -18.5751 C   0  0  0  0  0  0  0  0  0  0  0  0
   -6.0202   22.1541  -18.1322 N   0  0  0  0  0  0  0  0  0  0  0  0
   -5.6385   23.0291  -17.0437 C   0  0  0  0  0  0  0  0  0  0  0  0
   -4.1612   23.2177  -17.0694 C   0  0  0  0  0  0  0  0  0  0  0  0
   -7.2915   22.2509  -18.7526 C   0  0  0  0  0  0  0  0  0  0  0  0
   -8.1498   23.1011  -18.3835 O   0  0  0  0  0  0  0  0  0  0  0  0
   -7.6305   21.3535  -19.8456 C   0  0  0  0  0  0  0  0  0  0  0  0
   -8.0576   21.8225  -21.0125 C   0  0  0  0  0  0  0  0  0  0  0  0
 20 21  1  0  0  0
 21 12  1  0  0  0
 12 13  2  0  0  0
 13 14  1  0  0  0
 14 22  1  0  0  0
 22 23  1  0  0  0
 14 15  2  0  0  0
 15 16  1  0  0  0
 15 17  1  0  0  0
 17 18  2  0  0  0
 18 19  1  0  0  0
 17  1  1  0  0  0
  1  2  2  0  0  0
  2  3  1  0  0  0
  3  4  2  0  0  0
  4  5  1  0  0  0
  5  6  2  0  0  0
  6 24  1  0  0  0
 24 26  1  0  0  0
 26 27  1  0  0  0
 27 28  1  0  0  0
 28 29  1  0  0  0
 28 30  1  0  0  0
  6  7  1  0  0  0
  7  8  2  0  0  0
  8  9  1  0  0  0
  9 31  1  0  0  0
 31 32  1  0  0  0
 32 33  1  0  0  0
 33 34  1  0  0  0
 34 35  1  0  0  0
 35 36  1  0  0  0
 36 37  1  0  0  0
 37 38  1  0  0  0
 38 39  1  0  0  0
 37 40  1  0  0  0
 40 41  2  0  0  0
 40 42  1  0  0  0
 42 43  2  0  0  0
  9 10  1  0  0  0
 10 11  2  0  0  0
 18 12  1  0  0  0
 10  1  1  0  0  0
  8  3  1  0  0  0
 39 34  1  0  0  0
 24 25  1  0  0  0
M  END
> <minimizedAffinity>
-6.49512

> <CNNscore>
0.0703484640

> <CNNaffinity>
6.5519800186

> <CNN_VS>
0.4609217346

> <CNNaffinity_variance>
0.4957111478

$$$$
[H]C([H])=C([H])C(=O)N1C([H])([H])C([H])([H])N(C([H])([H])C([H])([H])C([H])([H])n2c(=O)c(-c3c(Cl)c(OC([H])([H])[H])c([H])c(OC([H])([H])[H])c3Cl)c([H])c3c([H])nc(N([H])C([H])([H])C([H])([H])N(C([H])([H])[H])C([H])([H])[H])nc32)C([H])([H])C1([H])[H]


 43 46  0  0  0  0  0  0  0  0999 V2000
   -0.9024   21.5145  -22.4707 C   0  0  0  0  0  0  0  0  0  0  0  0
   -0.4003   20.2648  -22.1837 C   0  0  0  0  0  0  0  0  0  0  0  0
    0.0037   19.9353  -20.8915 C   0  0  0  0  0  0  0  0  0  0  0  0
    0.5014   18.7023  -20.5786 C   0  0  0  0  0  0  0  0  0  0  0  0
    0.8598   18.4764  -19.3090 N   0  0  0  0  0  0  0  0  0  0  0  0
    0.7699   19.3671  -18.3125 C   0  0  0  0  0  0  0  0  0  0  0  0
    0.2745   20.5963  -18.6233 N   0  0  0  0  0  0  0  0  0  0  0  0
   -0.0993   20.8716  -19.8850 C   0  0  0  0  0  0  0  0  0  0  0  0
   -0.5875   22.0864  -20.1670 N   0  0  0  0  0  0  0  0  0  0  0  0
   -0.9863   22.4166  -21.4324 C   0  0  0  0  0  0  0  0  0  0  0  0
   -1.4357   23.5679  -21.6368 O   0  0  0  0  0  0  0  0  0  0  0  0
   -3.0461   22.2076  -25.4713 C   0  0  0  0  0  0  0  0  0  0  0  0
   -2.0908   22.5728  -26.3949 C   0  0  0  0  0  0  0  0  0  0  0  0
   -0.7400   22.6020  -26.0653 C   0  0  0  0  0  0  0  0  0  0  0  0
   -0.3972   22.2511  -24.7785 C   0  0  0  0  0  0  0  0  0  0  0  0
    1.3089   22.2734  -24.3105 Cl  0  0  0  0  0  0  0  0  0  0  0  0
   -1.3302   21.8771  -23.8188 C   0  0  0  0  0  0  0  0  0  0  0  0
   -2.6562   21.8635  -24.1921 C   0  0  0  0  0  0  0  0  0  0  0  0
   -3.8477   21.3882  -22.9734 Cl  0  0  0  0  0  0  0  0  0  0  0  0
   -4.9579   23.2993  -26.4187 C   0  0  0  0  0  0  0  0  0  0  0  0
   -4.3981   22.1703  -25.7739 O   0  0  0  0  0  0  0  0  0  0  0  0
    0.2120   22.9715  -27.0038 O   0  0  0  0  0  0  0  0  0  0  0  0
   -0.1739   23.0645  -28.3601 C   0  0  0  0  0  0  0  0  0  0  0  0
    1.1629   19.0661  -16.9688 N   0  0  0  0  0  0  0  0  0  0  0  0
    0.4534   18.6041  -16.3389 H   0  0  0  0  0  0  0  0  0  0  0  0
    2.4740   19.3653  -16.4488 C   0  0  0  0  0  0  0  0  0  0  0  0
    2.5678   20.7289  -15.8597 C   0  0  0  0  0  0  0  0  0  0  0  0
    3.3228   21.6528  -16.6848 N   0  0  0  0  0  0  0  0  0  0  0  0
    4.5858   21.9820  -16.0633 C   0  0  0  0  0  0  0  0  0  0  0  0
    2.5780   22.8491  -16.9837 C   0  0  0  0  0  0  0  0  0  0  0  0
   -0.6852   23.0831  -19.1212 C   0  0  0  0  0  0  0  0  0  0  0  0
   -2.1519   23.1730  -18.6933 C   0  0  0  0  0  0  0  0  0  0  0  0
   -2.3842   22.2452  -17.5239 C   0  0  0  0  0  0  0  0  0  0  0  0
   -3.8082   22.0438  -17.3746 N   0  0  0  0  0  0  0  0  0  0  0  0
   -4.3490   21.2066  -18.4156 C   0  0  0  0  0  0  0  0  0  0  0  0
   -5.2442   21.8782  -19.3939 C   0  0  0  0  0  0  0  0  0  0  0  0
   -6.2349   22.7370  -18.7894 N   0  0  0  0  0  0  0  0  0  0  0  0
   -6.0017   23.1912  -17.4346 C   0  0  0  0  0  0  0  0  0  0  0  0
   -4.5335   23.2723  -17.1972 C   0  0  0  0  0  0  0  0  0  0  0  0
   -7.3951   23.1163  -19.5109 C   0  0  0  0  0  0  0  0  0  0  0  0
   -8.2790   23.8641  -19.0057 O   0  0  0  0  0  0  0  0  0  0  0  0
   -7.5860   22.6393  -20.8715 C   0  0  0  0  0  0  0  0  0  0  0  0
   -7.4923   23.4640  -21.9083 C   0  0  0  0  0  0  0  0  0  0  0  0
 20 21  1  0  0  0
 21 12  1  0  0  0
 12 13  2  0  0  0
 13 14  1  0  0  0
 14 22  1  0  0  0
 22 23  1  0  0  0
 14 15  2  0  0  0
 15 16  1  0  0  0
 15 17  1  0  0  0
 17 18  2  0  0  0
 18 19  1  0  0  0
 17  1  1  0  0  0
  1  2  2  0  0  0
  2  3  1  0  0  0
  3  4  2  0  0  0
  4  5  1  0  0  0
  5  6  2  0  0  0
  6 24  1  0  0  0
 24 26  1  0  0  0
 26 27  1  0  0  0
 27 28  1  0  0  0
 28 29  1  0  0  0
 28 30  1  0  0  0
  6  7  1  0  0  0
  7  8  2  0  0  0
  8  9  1  0  0  0
  9 31  1  0  0  0
 31 32  1  0  0  0
 32 33  1  0  0  0
 33 34  1  0  0  0
 34 35  1  0  0  0
 35 36  1  0  0  0
 36 37  1  0  0  0
 37 38  1  0  0  0
 38 39  1  0  0  0
 37 40  1  0  0  0
 40 41  2  0  0  0
 40 42  1  0  0  0
 42 43  2  0  0  0
  9 10  1  0  0  0
 10 11  2  0  0  0
 18 12  1  0  0  0
 10  1  1  0  0  0
  8  3  1  0  0  0
 39 34  1  0  0  0
 24 25  1  0  0  0
M  END
> <minimizedAffinity>
-6.29653

> <CNNscore>
0.0663679689

> <CNNaffinity>
6.5526876450

> <CNN_VS>
0.4348885715

> <CNNaffinity_variance>
0.3897304237

$$$$
[H]C([H])=C([H])C(=O)N1C([H])([H])C([H])([H])N(C([H])([H])C([H])([H])C([H])([H])n2c(=O)c(-c3c(Cl)c(OC([H])([H])[H])c([H])c(OC([H])([H])[H])c3Cl)c([H])c3c([H])nc(N([H])C([H])([H])C([H])([H])N(C([H])([H])[H])C([H])([H])[H])nc32)C([H])([H])C1([H])[H]


 43 46  0  0  0  0  0  0  0  0999 V2000
   -5.6350   22.9562  -22.6514 C   0  0  0  0  0  0  0  0  0  0  0  0
   -6.8992   22.4588  -22.4264 C   0  0  0  0  0  0  0  0  0  0  0  0
   -7.2802   22.0182  -21.1607 C   0  0  0  0  0  0  0  0  0  0  0  0
   -8.5287   21.5241  -20.9091 C   0  0  0  0  0  0  0  0  0  0  0  0
   -8.8048   21.1286  -19.6606 N   0  0  0  0  0  0  0  0  0  0  0  0
   -7.9508   21.1777  -18.6298 C   0  0  0  0  0  0  0  0  0  0  0  0
   -6.7063   21.6694  -18.8794 N   0  0  0  0  0  0  0  0  0  0  0  0
   -6.3809   22.0795  -20.1177 C   0  0  0  0  0  0  0  0  0  0  0  0
   -5.1518   22.5633  -20.3393 N   0  0  0  0  0  0  0  0  0  0  0  0
   -4.7712   22.9979  -21.5785 C   0  0  0  0  0  0  0  0  0  0  0  0
   -3.6089   23.4411  -21.7262 O   0  0  0  0  0  0  0  0  0  0  0  0
   -4.1119   23.0782  -26.0784 C   0  0  0  0  0  0  0  0  0  0  0  0
   -4.4496   24.3562  -26.4679 C   0  0  0  0  0  0  0  0  0  0  0  0
   -5.1743   25.1992  -25.6324 C   0  0  0  0  0  0  0  0  0  0  0  0
   -5.5400   24.7042  -24.4005 C   0  0  0  0  0  0  0  0  0  0  0  0
   -6.4638   25.7385  -23.3018 Cl  0  0  0  0  0  0  0  0  0  0  0  0
   -5.2187   23.4221  -23.9710 C   0  0  0  0  0  0  0  0  0  0  0  0
   -4.5001   22.6237  -24.8335 C   0  0  0  0  0  0  0  0  0  0  0  0
   -4.0890   20.9905  -24.2911 Cl  0  0  0  0  0  0  0  0  0  0  0  0
   -2.0006   22.4504  -27.0230 C   0  0  0  0  0  0  0  0  0  0  0  0
   -3.3908   22.2183  -26.8915 O   0  0  0  0  0  0  0  0  0  0  0  0
   -5.5083   26.4834  -26.0361 O   0  0  0  0  0  0  0  0  0  0  0  0
   -4.6449   27.5480  -25.6922 C   0  0  0  0  0  0  0  0  0  0  0  0
   -8.3050   20.7462  -17.3112 N   0  0  0  0  0  0  0  0  0  0  0  0
   -7.6698   21.0211  -16.5147 H   0  0  0  0  0  0  0  0  0  0  0  0
   -9.4814   19.9607  -17.0320 C   0  0  0  0  0  0  0  0  0  0  0  0
   -9.2482   18.9112  -16.0026 C   0  0  0  0  0  0  0  0  0  0  0  0
  -10.1384   17.7741  -16.1399 N   0  0  0  0  0  0  0  0  0  0  0  0
   -9.6453   16.8536  -17.1396 C   0  0  0  0  0  0  0  0  0  0  0  0
  -11.4892   18.1737  -16.4413 C   0  0  0  0  0  0  0  0  0  0  0  0
   -4.1936   22.6176  -19.2551 C   0  0  0  0  0  0  0  0  0  0  0  0
   -3.2381   21.4325  -19.4125 C   0  0  0  0  0  0  0  0  0  0  0  0
   -2.7737   20.9860  -18.0460 C   0  0  0  0  0  0  0  0  0  0  0  0
   -1.4040   20.5350  -18.1523 N   0  0  0  0  0  0  0  0  0  0  0  0
   -0.6297   20.8747  -16.9852 C   0  0  0  0  0  0  0  0  0  0  0  0
    0.4211   21.9084  -17.1775 C   0  0  0  0  0  0  0  0  0  0  0  0
    1.2333   21.7076  -18.3541 N   0  0  0  0  0  0  0  0  0  0  0  0
    0.7100   20.8556  -19.4012 C   0  0  0  0  0  0  0  0  0  0  0  0
   -0.7777   20.9273  -19.3854 C   0  0  0  0  0  0  0  0  0  0  0  0
    2.5016   22.3312  -18.4681 C   0  0  0  0  0  0  0  0  0  0  0  0
    3.2339   22.1707  -19.4848 O   0  0  0  0  0  0  0  0  0  0  0  0
    2.9856   23.1825  -17.3928 C   0  0  0  0  0  0  0  0  0  0  0  0
    3.2289   24.4725  -17.5941 C   0  0  0  0  0  0  0  0  0  0  0  0
 20 21  1  0  0  0
 21 12  1  0  0  0
 12 13  2  0  0  0
 13 14  1  0  0  0
 14 22  1  0  0  0
 22 23  1  0  0  0
 14 15  2  0  0  0
 15 16  1  0  0  0
 15 17  1  0  0  0
 17 18  2  0  0  0
 18 19  1  0  0  0
 17  1  1  0  0  0
  1  2  2  0  0  0
  2  3  1  0  0  0
  3  4  2  0  0  0
  4  5  1  0  0  0
  5  6  2  0  0  0
  6 24  1  0  0  0
 24 26  1  0  0  0
 26 27  1  0  0  0
 27 28  1  0  0  0
 28 29  1  0  0  0
 28 30  1  0  0  0
  6  7  1  0  0  0
  7  8  2  0  0  0
  8  9  1  0  0  0
  9 31  1  0  0  0
 31 32  1  0  0  0
 32 33  1  0  0  0
 33 34  1  0  0  0
 34 35  1  0  0  0
 35 36  1  0  0  0
 36 37  1  0  0  0
 37 38  1  0  0  0
 38 39  1  0  0  0
 37 40  1  0  0  0
 40 41  2  0  0  0
 40 42  1  0  0  0
 42 43  2  0  0  0
  9 10  1  0  0  0
 10 11  2  0  0  0
 18 12  1  0  0  0
 10  1  1  0  0  0
  8  3  1  0  0  0
 39 34  1  0  0  0
 24 25  1  0  0  0
M  END
> <minimizedAffinity>
-6.40227

> <CNNscore>
0.0518830605

> <CNNaffinity>
6.2794737816

> <CNN_VS>
0.3257983327

> <CNNaffinity_variance>
0.3493334353

$$$$
[H]C([H])=C([H])C(=O)N1C([H])([H])C([H])([H])N(C([H])([H])C([H])([H])C([H])([H])n2c(=O)c(-c3c(Cl)c(OC([H])([H])[H])c([H])c(OC([H])([H])[H])c3Cl)c([H])c3c([H])nc(N([H])C([H])([H])C([H])([H])N(C([H])([H])[H])C([H])([H])[H])nc32)C([H])([H])C1([H])[H]


 43 46  0  0  0  0  0  0  0  0999 V2000
   -4.9879   23.4272  -23.8984 C   0  0  0  0  0  0  0  0  0  0  0  0
   -5.4976   24.6994  -23.7644 C   0  0  0  0  0  0  0  0  0  0  0  0
   -6.6483   24.9341  -23.0146 C   0  0  0  0  0  0  0  0  0  0  0  0
   -7.1729   26.1861  -22.8620 C   0  0  0  0  0  0  0  0  0  0  0  0
   -8.2793   26.3145  -22.1199 N   0  0  0  0  0  0  0  0  0  0  0  0
   -8.9194   25.3082  -21.5100 C   0  0  0  0  0  0  0  0  0  0  0  0
   -8.3979   24.0600  -21.6617 N   0  0  0  0  0  0  0  0  0  0  0  0
   -7.2876   23.8798  -22.3979 C   0  0  0  0  0  0  0  0  0  0  0  0
   -6.7900   22.6434  -22.5303 N   0  0  0  0  0  0  0  0  0  0  0  0
   -5.6611   22.4057  -23.2640 C   0  0  0  0  0  0  0  0  0  0  0  0
   -5.2415   21.2286  -23.3521 O   0  0  0  0  0  0  0  0  0  0  0  0
   -2.6682   22.7949  -26.7790 C   0  0  0  0  0  0  0  0  0  0  0  0
   -1.4658   22.6578  -26.1197 C   0  0  0  0  0  0  0  0  0  0  0  0
   -1.3833   22.7675  -24.7357 C   0  0  0  0  0  0  0  0  0  0  0  0
   -2.5522   23.0185  -24.0522 C   0  0  0  0  0  0  0  0  0  0  0  0
   -2.4986   23.1673  -22.2901 Cl  0  0  0  0  0  0  0  0  0  0  0  0
   -3.7835   23.1629  -24.6802 C   0  0  0  0  0  0  0  0  0  0  0  0
   -3.8152   23.0464  -26.0525 C   0  0  0  0  0  0  0  0  0  0  0  0
   -5.3808   23.2298  -26.8563 Cl  0  0  0  0  0  0  0  0  0  0  0  0
   -1.8008   23.3450  -28.9445 C   0  0  0  0  0  0  0  0  0  0  0  0
   -2.7778   22.6903  -28.1566 O   0  0  0  0  0  0  0  0  0  0  0  0
   -0.1671   22.6276  -24.0837 O   0  0  0  0  0  0  0  0  0  0  0  0
    0.7781   21.7135  -24.6014 C   0  0  0  0  0  0  0  0  0  0  0  0
  -10.0978   25.5069  -20.7211 N   0  0  0  0  0  0  0  0  0  0  0  0
  -10.1095   25.1106  -19.7431 H   0  0  0  0  0  0  0  0  0  0  0  0
  -11.2548   26.2188  -21.2040 C   0  0  0  0  0  0  0  0  0  0  0  0
  -11.3817   27.5832  -20.6228 C   0  0  0  0  0  0  0  0  0  0  0  0
  -10.9969   28.6321  -21.5481 N   0  0  0  0  0  0  0  0  0  0  0  0
  -11.2693   29.9365  -20.9878 C   0  0  0  0  0  0  0  0  0  0  0  0
  -11.6365   28.4879  -22.8308 C   0  0  0  0  0  0  0  0  0  0  0  0
   -7.4620   21.5261  -21.9004 C   0  0  0  0  0  0  0  0  0  0  0  0
   -6.9635   21.4313  -20.4566 C   0  0  0  0  0  0  0  0  0  0  0  0
   -8.1179   21.0541  -19.5580 C   0  0  0  0  0  0  0  0  0  0  0  0
   -8.1518   21.9757  -18.4444 N   0  0  0  0  0  0  0  0  0  0  0  0
   -6.9718   22.8012  -18.3882 C   0  0  0  0  0  0  0  0  0  0  0  0
   -6.0475   22.5418  -17.2532 C   0  0  0  0  0  0  0  0  0  0  0  0
   -6.7081   22.4149  -15.9758 N   0  0  0  0  0  0  0  0  0  0  0  0
   -8.1252   22.1185  -15.9724 C   0  0  0  0  0  0  0  0  0  0  0  0
   -8.4589   21.3351  -17.1946 C   0  0  0  0  0  0  0  0  0  0  0  0
   -5.9802   22.5774  -14.7699 C   0  0  0  0  0  0  0  0  0  0  0  0
   -6.5332   22.4745  -13.6389 O   0  0  0  0  0  0  0  0  0  0  0  0
   -4.5566   22.8705  -14.8211 C   0  0  0  0  0  0  0  0  0  0  0  0
   -3.7343   22.4535  -13.8650 C   0  0  0  0  0  0  0  0  0  0  0  0
 20 21  1  0  0  0
 21 12  1  0  0  0
 12 13  2  0  0  0
 13 14  1  0  0  0
 14 22  1  0  0  0
 22 23  1  0  0  0
 14 15  2  0  0  0
 15 16  1  0  0  0
 15 17  1  0  0  0
 17 18  2  0  0  0
 18 19  1  0  0  0
 17  1  1  0  0  0
  1  2  2  0  0  0
  2  3  1  0  0  0
  3  4  2  0  0  0
  4  5  1  0  0  0
  5  6  2  0  0  0
  6 24  1  0  0  0
 24 26  1  0  0  0
 26 27  1  0  0  0
 27 28  1  0  0  0
 28 29  1  0  0  0
 28 30  1  0  0  0
  6  7  1  0  0  0
  7  8  2  0  0  0
  8  9  1  0  0  0
  9 31  1  0  0  0
 31 32  1  0  0  0
 32 33  1  0  0  0
 33 34  1  0  0  0
 34 35  1  0  0  0
 35 36  1  0  0  0
 36 37  1  0  0  0
 37 38  1  0  0  0
 38 39  1  0  0  0
 37 40  1  0  0  0
 40 41  2  0  0  0
 40 42  1  0  0  0
 42 43  2  0  0  0
  9 10  1  0  0  0
 10 11  2  0  0  0
 18 12  1  0  0  0
 10  1  1  0  0  0
  8  3  1  0  0  0
 39 34  1  0  0  0
 24 25  1  0  0  0
M  END
> <minimizedAffinity>
-6.78009

> <CNNscore>
0.0512401722

> <CNNaffinity>
6.5714392662

> <CNN_VS>
0.3367216885

> <CNNaffinity_variance>
0.2163448781

$$$$
[H]C([H])=C([H])C(=O)N1C([H])([H])C([H])([H])N(C([H])([H])C([H])([H])C([H])([H])n2c(=O)c(-c3c(Cl)c(OC([H])([H])[H])c([H])c(OC([H])([H])[H])c3Cl)c([H])c3c([H])nc(N([H])C([H])([H])C([H])([H])N(C([H])([H])[H])C([H])([H])[H])nc32)C([H])([H])C1([H])[H]


 43 46  0  0  0  0  0  0  0  0999 V2000
   -0.2002   21.2029  -21.0854 C   0  0  0  0  0  0  0  0  0  0  0  0
    0.5104   21.3273  -22.2584 C   0  0  0  0  0  0  0  0  0  0  0  0
   -0.1151   21.7370  -23.4341 C   0  0  0  0  0  0  0  0  0  0  0  0
    0.5666   21.8725  -24.6101 C   0  0  0  0  0  0  0  0  0  0  0  0
   -0.1182   22.2756  -25.6871 N   0  0  0  0  0  0  0  0  0  0  0  0
   -1.4272   22.5592  -25.7065 C   0  0  0  0  0  0  0  0  0  0  0  0
   -2.1077   22.4241  -24.5353 N   0  0  0  0  0  0  0  0  0  0  0  0
   -1.4638   22.0218  -23.4258 C   0  0  0  0  0  0  0  0  0  0  0  0
   -2.1528   21.8995  -22.2837 N   0  0  0  0  0  0  0  0  0  0  0  0
   -1.5456   21.4986  -21.1263 C   0  0  0  0  0  0  0  0  0  0  0  0
   -2.2404   21.4027  -20.0883 O   0  0  0  0  0  0  0  0  0  0  0  0
    1.4060   21.2520  -17.6947 C   0  0  0  0  0  0  0  0  0  0  0  0
    1.6529   19.9096  -17.5043 C   0  0  0  0  0  0  0  0  0  0  0  0
    1.3051   18.9667  -18.4656 C   0  0  0  0  0  0  0  0  0  0  0  0
    0.7042   19.4300  -19.6149 C   0  0  0  0  0  0  0  0  0  0  0  0
    0.2423   18.2691  -20.8675 Cl  0  0  0  0  0  0  0  0  0  0  0  0
    0.4387   20.7748  -19.8443 C   0  0  0  0  0  0  0  0  0  0  0  0
    0.8011   21.6712  -18.8631 C   0  0  0  0  0  0  0  0  0  0  0  0
    0.4647   23.3843  -19.1509 Cl  0  0  0  0  0  0  0  0  0  0  0  0
    3.0924   22.6341  -16.6998 C   0  0  0  0  0  0  0  0  0  0  0  0
    1.7424   22.2115  -16.7531 O   0  0  0  0  0  0  0  0  0  0  0  0
    1.5586   17.6185  -18.2621 O   0  0  0  0  0  0  0  0  0  0  0  0
    0.6266   16.8580  -17.5204 C   0  0  0  0  0  0  0  0  0  0  0  0
   -2.1065   22.9942  -26.8896 N   0  0  0  0  0  0  0  0  0  0  0  0
   -1.5250   23.3965  -27.6728 H   0  0  0  0  0  0  0  0  0  0  0  0
   -3.5365   22.9050  -27.0513 C   0  0  0  0  0  0  0  0  0  0  0  0
   -4.1799   24.2291  -27.2703 C   0  0  0  0  0  0  0  0  0  0  0  0
   -4.6519   24.4127  -28.6297 N   0  0  0  0  0  0  0  0  0  0  0  0
   -5.4330   25.6238  -28.7430 C   0  0  0  0  0  0  0  0  0  0  0  0
   -5.4040   23.2786  -29.1025 C   0  0  0  0  0  0  0  0  0  0  0  0
   -3.5731   22.1804  -22.2666 C   0  0  0  0  0  0  0  0  0  0  0  0
   -3.7567   23.6511  -21.8849 C   0  0  0  0  0  0  0  0  0  0  0  0
   -4.9402   24.2137  -22.6367 C   0  0  0  0  0  0  0  0  0  0  0  0
   -6.1136   24.0929  -21.8006 N   0  0  0  0  0  0  0  0  0  0  0  0
   -7.2900   23.7583  -22.5630 C   0  0  0  0  0  0  0  0  0  0  0  0
   -8.3225   24.8222  -22.6701 C   0  0  0  0  0  0  0  0  0  0  0  0
   -8.6285   25.4713  -21.4173 N   0  0  0  0  0  0  0  0  0  0  0  0
   -7.6635   25.3605  -20.3437 C   0  0  0  0  0  0  0  0  0  0  0  0
   -6.3012   25.2211  -20.9297 C   0  0  0  0  0  0  0  0  0  0  0  0
   -9.8392   26.1915  -21.2568 C   0  0  0  0  0  0  0  0  0  0  0  0
  -10.1334   26.7664  -20.1711 O   0  0  0  0  0  0  0  0  0  0  0  0
  -10.7778   26.2798  -22.3642 C   0  0  0  0  0  0  0  0  0  0  0  0
  -11.9539   25.6643  -22.3189 C   0  0  0  0  0  0  0  0  0  0  0  0
 20 21  1  0  0  0
 21 12  1  0  0  0
 12 13  2  0  0  0
 13 14  1  0  0  0
 14 22  1  0  0  0
 22 23  1  0  0  0
 14 15  2  0  0  0
 15 16  1  0  0  0
 15 17  1  0  0  0
 17 18  2  0  0  0
 18 19  1  0  0  0
 17  1  1  0  0  0
  1  2  2  0  0  0
  2  3  1  0  0  0
  3  4  2  0  0  0
  4  5  1  0  0  0
  5  6  2  0  0  0
  6 24  1  0  0  0
 24 26  1  0  0  0
 26 27  1  0  0  0
 27 28  1  0  0  0
 28 29  1  0  0  0
 28 30  1  0  0  0
  6  7  1  0  0  0
  7  8  2  0  0  0
  8  9  1  0  0  0
  9 31  1  0  0  0
 31 32  1  0  0  0
 32 33  1  0  0  0
 33 34  1  0  0  0
 34 35  1  0  0  0
 35 36  1  0  0  0
 36 37  1  0  0  0
 37 38  1  0  0  0
 38 39  1  0  0  0
 37 40  1  0  0  0
 40 41  2  0  0  0
 40 42  1  0  0  0
 42 43  2  0  0  0
  9 10  1  0  0  0
 10 11  2  0  0  0
 18 12  1  0  0  0
 10  1  1  0  0  0
  8  3  1  0  0  0
 39 34  1  0  0  0
 24 25  1  0  0  0
M  END
> <minimizedAffinity>
-6.97182

> <CNNscore>
0.0505685769

> <CNNaffinity>
7.1123199463

> <CNN_VS>
0.3596599102

> <CNNaffinity_variance>
0.2647909522

$$$$
[H]c1nc(N([H])[H])c(-c2c([H])c3c([H])c(-c4c([H])c([H])c([H])c([H])c4Cl)c([H])nc3n2[H])c(N2C([H])([H])C([H])([H])C([H])([H])C([H])([H])C2([H])[H])n1


 32 36  0  0  0  0  0  0  0  0999 V2000
   -2.8086   22.9061  -25.1940 C   0  0  0  0  0  0  0  0  0  0  0  0
   -2.7735   23.6784  -24.0548 C   0  0  0  0  0  0  0  0  0  0  0  0
   -3.5792   23.1253  -23.0491 C   0  0  0  0  0  0  0  0  0  0  0  0
   -3.8618   23.5256  -21.7560 C   0  0  0  0  0  0  0  0  0  0  0  0
   -4.7083   22.7534  -20.9998 C   0  0  0  0  0  0  0  0  0  0  0  0
   -5.2309   21.6111  -21.5863 C   0  0  0  0  0  0  0  0  0  0  0  0
   -4.9287   21.2575  -22.8513 N   0  0  0  0  0  0  0  0  0  0  0  0
   -4.1019   21.9972  -23.6124 C   0  0  0  0  0  0  0  0  0  0  0  0
   -3.6317   21.8870  -24.8858 N   0  0  0  0  0  0  0  0  0  0  0  0
   -3.9564   21.0899  -25.4693 H   0  0  0  0  0  0  0  0  0  0  0  0
   -0.0772   22.2112  -25.3520 N   0  0  0  0  0  0  0  0  0  0  0  0
   -0.7507   22.5966  -26.5616 C   0  0  0  0  0  0  0  0  0  0  0  0
   -0.0917   22.5915  -27.7194 N   0  0  0  0  0  0  0  0  0  0  0  0
   -0.6881   22.9999  -28.8422 C   0  0  0  0  0  0  0  0  0  0  0  0
   -1.9339   23.4133  -28.8251 N   0  0  0  0  0  0  0  0  0  0  0  0
   -2.6487   23.4287  -27.6298 C   0  0  0  0  0  0  0  0  0  0  0  0
   -2.0849   23.0202  -26.4521 C   0  0  0  0  0  0  0  0  0  0  0  0
   -0.0327   22.8417  -24.5242 H   0  0  0  0  0  0  0  0  0  0  0  0
    0.3612   21.2528  -25.3712 H   0  0  0  0  0  0  0  0  0  0  0  0
   -3.9856   23.8820  -27.7222 N   0  0  0  0  0  0  0  0  0  0  0  0
   -4.3396   25.1984  -27.2419 C   0  0  0  0  0  0  0  0  0  0  0  0
   -5.4437   25.7922  -28.0918 C   0  0  0  0  0  0  0  0  0  0  0  0
   -5.4657   25.2676  -29.5036 C   0  0  0  0  0  0  0  0  0  0  0  0
   -5.5295   23.7690  -29.6095 C   0  0  0  0  0  0  0  0  0  0  0  0
   -5.0247   23.0948  -28.3391 C   0  0  0  0  0  0  0  0  0  0  0  0
   -5.0499   23.0986  -19.6358 C   0  0  0  0  0  0  0  0  0  0  0  0
   -6.1130   23.9736  -19.4476 C   0  0  0  0  0  0  0  0  0  0  0  0
   -6.4666   24.3357  -18.1661 C   0  0  0  0  0  0  0  0  0  0  0  0
   -5.7447   23.8103  -17.1123 C   0  0  0  0  0  0  0  0  0  0  0  0
   -4.6830   22.9359  -17.3082 C   0  0  0  0  0  0  0  0  0  0  0  0
   -4.3352   22.5779  -18.5988 C   0  0  0  0  0  0  0  0  0  0  0  0
   -3.0053   21.4712  -18.8006 Cl  0  0  0  0  0  0  0  0  0  0  0  0
 11 12  1  0  0  0
 12 13  2  0  0  0
 13 14  1  0  0  0
 14 15  2  0  0  0
 15 16  1  0  0  0
 16 20  1  0  0  0
 20 21  1  0  0  0
 21 22  1  0  0  0
 22 23  1  0  0  0
 23 24  1  0  0  0
 24 25  1  0  0  0
 16 17  2  0  0  0
 17  1  1  0  0  0
  1  2  2  0  0  0
  2  3  1  0  0  0
  3  4  2  0  0  0
  4  5  1  0  0  0
  5  6  2  0  0  0
  6  7  1  0  0  0
  7  8  2  0  0  0
  8  9  1  0  0  0
  5 26  1  0  0  0
 26 27  2  0  0  0
 27 28  1  0  0  0
 28 29  2  0  0  0
 29 30  1  0  0  0
 30 31  2  0  0  0
 31 32  1  0  0  0
 17 12  1  0  0  0
  9  1  1  0  0  0
 31 26  1  0  0  0
 25 20  1  0  0  0
  8  3  1  0  0  0
 11 18  1  0  0  0
 11 19  1  0  0  0
  9 10  1  0  0  0
M  END
> <minimizedAffinity>
-7.72580

> <CNNscore>
0.2374970466

> <CNNaffinity>
6.9226331711

> <CNN_VS>
1.6441049576

> <CNNaffinity_variance>
0.2354036123

$$$$
[H]c1nc(N([H])[H])c(-c2c([H])c3c([H])c(-c4c([H])c([H])c([H])c([H])c4Cl)c([H])nc3n2[H])c(N2C([H])([H])C([H])([H])C([H])([H])C([H])([H])C2([H])[H])n1


 32 36  0  0  0  0  0  0  0  0999 V2000
   -1.3591   22.4759  -23.5536 C   0  0  0  0  0  0  0  0  0  0  0  0
   -1.2268   21.3476  -22.7759 C   0  0  0  0  0  0  0  0  0  0  0  0
   -1.1276   21.6834  -21.4180 C   0  0  0  0  0  0  0  0  0  0  0  0
   -0.9843   20.9163  -20.2764 C   0  0  0  0  0  0  0  0  0  0  0  0
   -0.9153   21.5527  -19.0620 C   0  0  0  0  0  0  0  0  0  0  0  0
   -0.9940   22.9369  -19.0575 C   0  0  0  0  0  0  0  0  0  0  0  0
   -1.1335   23.6463  -20.1950 N   0  0  0  0  0  0  0  0  0  0  0  0
   -1.2037   23.0461  -21.3969 C   0  0  0  0  0  0  0  0  0  0  0  0
   -1.3402   23.4954  -22.6753 N   0  0  0  0  0  0  0  0  0  0  0  0
   -1.3859   24.5211  -22.8405 H   0  0  0  0  0  0  0  0  0  0  0  0
    0.7380   22.0226  -25.3881 N   0  0  0  0  0  0  0  0  0  0  0  0
   -0.5659   22.3282  -25.9095 C   0  0  0  0  0  0  0  0  0  0  0  0
   -0.7632   22.3633  -27.2265 N   0  0  0  0  0  0  0  0  0  0  0  0
   -1.9551   22.6999  -27.7260 C   0  0  0  0  0  0  0  0  0  0  0  0
   -2.9530   23.0018  -26.9285 N   0  0  0  0  0  0  0  0  0  0  0  0
   -2.7771   22.9725  -25.5471 C   0  0  0  0  0  0  0  0  0  0  0  0
   -1.5770   22.6338  -24.9843 C   0  0  0  0  0  0  0  0  0  0  0  0
    1.2333   22.6674  -24.7373 H   0  0  0  0  0  0  0  0  0  0  0  0
    1.1453   21.1065  -25.7135 H   0  0  0  0  0  0  0  0  0  0  0  0
   -3.9171   23.3045  -24.7781 N   0  0  0  0  0  0  0  0  0  0  0  0
   -4.2723   24.6898  -24.5689 C   0  0  0  0  0  0  0  0  0  0  0  0
   -5.7772   24.8446  -24.4949 C   0  0  0  0  0  0  0  0  0  0  0  0
   -6.5301   23.7837  -25.2543 C   0  0  0  0  0  0  0  0  0  0  0  0
   -6.1716   22.3737  -24.8741 C   0  0  0  0  0  0  0  0  0  0  0  0
   -4.7935   22.3002  -24.2272 C   0  0  0  0  0  0  0  0  0  0  0  0
   -0.7724   20.8230  -17.8197 C   0  0  0  0  0  0  0  0  0  0  0  0
   -1.9388   20.4511  -17.1619 C   0  0  0  0  0  0  0  0  0  0  0  0
   -1.8488   19.7627  -15.9718 C   0  0  0  0  0  0  0  0  0  0  0  0
   -0.5935   19.4677  -15.4770 C   0  0  0  0  0  0  0  0  0  0  0  0
    0.5682   19.8427  -16.1402 C   0  0  0  0  0  0  0  0  0  0  0  0
    0.4679   20.5337  -17.3349 C   0  0  0  0  0  0  0  0  0  0  0  0
    1.9479   20.9761  -18.1400 Cl  0  0  0  0  0  0  0  0  0  0  0  0
 11 12  1  0  0  0
 12 13  2  0  0  0
 13 14  1  0  0  0
 14 15  2  0  0  0
 15 16  1  0  0  0
 16 20  1  0  0  0
 20 21  1  0  0  0
 21 22  1  0  0  0
 22 23  1  0  0  0
 23 24  1  0  0  0
 24 25  1  0  0  0
 16 17  2  0  0  0
 17  1  1  0  0  0
  1  2  2  0  0  0
  2  3  1  0  0  0
  3  4  2  0  0  0
  4  5  1  0  0  0
  5  6  2  0  0  0
  6  7  1  0  0  0
  7  8  2  0  0  0
  8  9  1  0  0  0
  5 26  1  0  0  0
 26 27  2  0  0  0
 27 28  1  0  0  0
 28 29  2  0  0  0
 29 30  1  0  0  0
 30 31  2  0  0  0
 31 32  1  0  0  0
 17 12  1  0  0  0
  9  1  1  0  0  0
 31 26  1  0  0  0
 25 20  1  0  0  0
  8  3  1  0  0  0
 11 18  1  0  0  0
 11 19  1  0  0  0
  9 10  1  0  0  0
M  END
> <minimizedAffinity>
-7.67760

> <CNNscore>
0.2212593257

> <CNNaffinity>
6.5693426132

> <CNN_VS>
1.4535282850

> <CNNaffinity_variance>
0.1833654940

$$$$
[H]c1nc(N([H])[H])c(-c2c([H])c3c([H])c(-c4c([H])c([H])c([H])c([H])c4Cl)c([H])nc3n2[H])c(N2C([H])([H])C([H])([H])C([H])([H])C([H])([H])C2([H])[H])n1


 32 36  0  0  0  0  0  0  0  0999 V2000
    0.1166   20.9118  -21.1383 C   0  0  0  0  0  0  0  0  0  0  0  0
    0.4350   21.3615  -22.4000 C   0  0  0  0  0  0  0  0  0  0  0  0
   -0.7215   21.5637  -23.1669 C   0  0  0  0  0  0  0  0  0  0  0  0
   -0.9143   21.9992  -24.4651 C   0  0  0  0  0  0  0  0  0  0  0  0
   -2.1983   22.0956  -24.9414 C   0  0  0  0  0  0  0  0  0  0  0  0
   -3.2292   21.7467  -24.0826 C   0  0  0  0  0  0  0  0  0  0  0  0
   -2.9963   21.3266  -22.8233 N   0  0  0  0  0  0  0  0  0  0  0  0
   -1.7475   21.2238  -22.3333 C   0  0  0  0  0  0  0  0  0  0  0  0
   -1.2272   20.8393  -21.1349 N   0  0  0  0  0  0  0  0  0  0  0  0
   -1.8777   20.5204  -20.3889 H   0  0  0  0  0  0  0  0  0  0  0  0
    0.3980   22.8394  -19.0954 N   0  0  0  0  0  0  0  0  0  0  0  0
    1.0307   21.5617  -18.9151 C   0  0  0  0  0  0  0  0  0  0  0  0
    1.7031   21.3058  -17.7938 N   0  0  0  0  0  0  0  0  0  0  0  0
    2.3425   20.1442  -17.6354 C   0  0  0  0  0  0  0  0  0  0  0  0
    2.3199   19.2343  -18.5812 N   0  0  0  0  0  0  0  0  0  0  0  0
    1.6242   19.4730  -19.7640 C   0  0  0  0  0  0  0  0  0  0  0  0
    0.9522   20.6456  -19.9763 C   0  0  0  0  0  0  0  0  0  0  0  0
    0.6098   23.4455  -19.9155 H   0  0  0  0  0  0  0  0  0  0  0  0
   -0.2875   23.1083  -18.3412 H   0  0  0  0  0  0  0  0  0  0  0  0
    1.6544   18.4248  -20.7137 N   0  0  0  0  0  0  0  0  0  0  0  0
    2.7636   18.3112  -21.6332 C   0  0  0  0  0  0  0  0  0  0  0  0
    3.0508   16.8557  -21.9381 C   0  0  0  0  0  0  0  0  0  0  0  0
    2.6440   15.9168  -20.8327 C   0  0  0  0  0  0  0  0  0  0  0  0
    1.2084   16.0450  -20.4043 C   0  0  0  0  0  0  0  0  0  0  0  0
    0.6331   17.4080  -20.7708 C   0  0  0  0  0  0  0  0  0  0  0  0
   -2.4865   22.5493  -26.2858 C   0  0  0  0  0  0  0  0  0  0  0  0
   -3.8050   22.8770  -26.5783 C   0  0  0  0  0  0  0  0  0  0  0  0
   -4.1252   23.3050  -27.8482 C   0  0  0  0  0  0  0  0  0  0  0  0
   -3.1151   23.3919  -28.7862 C   0  0  0  0  0  0  0  0  0  0  0  0
   -1.7992   23.0626  -28.4865 C   0  0  0  0  0  0  0  0  0  0  0  0
   -1.4870   22.6338  -27.2084 C   0  0  0  0  0  0  0  0  0  0  0  0
    0.1761   22.2409  -26.8707 Cl  0  0  0  0  0  0  0  0  0  0  0  0
 11 12  1  0  0  0
 12 13  2  0  0  0
 13 14  1  0  0  0
 14 15  2  0  0  0
 15 16  1  0  0  0
 16 20  1  0  0  0
 20 21  1  0  0  0
 21 22  1  0  0  0
 22 23  1  0  0  0
 23 24  1  0  0  0
 24 25  1  0  0  0
 16 17  2  0  0  0
 17  1  1  0  0  0
  1  2  2  0  0  0
  2  3  1  0  0  0
  3  4  2  0  0  0
  4  5  1  0  0  0
  5  6  2  0  0  0
  6  7  1  0  0  0
  7  8  2  0  0  0
  8  9  1  0  0  0
  5 26  1  0  0  0
 26 27  2  0  0  0
 27 28  1  0  0  0
 28 29  2  0  0  0
 29 30  1  0  0  0
 30 31  2  0  0  0
 31 32  1  0  0  0
 17 12  1  0  0  0
  9  1  1  0  0  0
 31 26  1  0  0  0
 25 20  1  0  0  0
  8  3  1  0  0  0
 11 18  1  0  0  0
 11 19  1  0  0  0
  9 10  1  0  0  0
M  END
> <minimizedAffinity>
-8.46588

> <CNNscore>
0.0901380852

> <CNNaffinity>
5.8407044411

> <CNN_VS>
0.5264698863

> <CNNaffinity_variance>
0.1054383293

$$$$
[H]c1nc(N([H])[H])c(-c2c([H])c3c([H])c(-c4c([H])c([H])c([H])c([H])c4Cl)c([H])nc3n2[H])c(N2C([H])([H])C([H])([H])C([H])([H])C([H])([H])C2([H])[H])n1


 32 36  0  0  0  0  0  0  0  0999 V2000
    0.5745   20.8843  -19.5847 C   0  0  0  0  0  0  0  0  0  0  0  0
    0.7843   20.4977  -20.8893 C   0  0  0  0  0  0  0  0  0  0  0  0
    0.0999   21.3394  -21.7779 C   0  0  0  0  0  0  0  0  0  0  0  0
    0.0029   21.3568  -23.1572 C   0  0  0  0  0  0  0  0  0  0  0  0
   -0.7619   22.3310  -23.7494 C   0  0  0  0  0  0  0  0  0  0  0  0
   -1.3943   23.2436  -22.9191 C   0  0  0  0  0  0  0  0  0  0  0  0
   -1.2726   23.1900  -21.5779 N   0  0  0  0  0  0  0  0  0  0  0  0
   -0.5291   22.2455  -20.9739 C   0  0  0  0  0  0  0  0  0  0  0  0
   -0.2342   21.9561  -19.6761 N   0  0  0  0  0  0  0  0  0  0  0  0
   -0.6587   22.5392  -18.9270 H   0  0  0  0  0  0  0  0  0  0  0  0
   -0.4921   18.5773  -18.3565 N   0  0  0  0  0  0  0  0  0  0  0  0
    0.6635   19.1903  -17.7617 C   0  0  0  0  0  0  0  0  0  0  0  0
    1.2170   18.6511  -16.6765 N   0  0  0  0  0  0  0  0  0  0  0  0
    2.2569   19.2399  -16.0805 C   0  0  0  0  0  0  0  0  0  0  0  0
    2.7521   20.3599  -16.5532 N   0  0  0  0  0  0  0  0  0  0  0  0
    2.1952   20.9465  -17.6870 C   0  0  0  0  0  0  0  0  0  0  0  0
    1.1299   20.3840  -18.3355 C   0  0  0  0  0  0  0  0  0  0  0  0
   -1.3789   19.1039  -18.5016 H   0  0  0  0  0  0  0  0  0  0  0  0
   -0.3703   17.5665  -18.6297 H   0  0  0  0  0  0  0  0  0  0  0  0
    2.8090   22.1454  -18.1197 N   0  0  0  0  0  0  0  0  0  0  0  0
    2.4569   23.4040  -17.5027 C   0  0  0  0  0  0  0  0  0  0  0  0
    3.6577   24.3261  -17.4594 C   0  0  0  0  0  0  0  0  0  0  0  0
    4.9758   23.5978  -17.4273 C   0  0  0  0  0  0  0  0  0  0  0  0
    5.1677   22.6091  -18.5438 C   0  0  0  0  0  0  0  0  0  0  0  0
    3.8349   22.1629  -19.1334 C   0  0  0  0  0  0  0  0  0  0  0  0
   -0.9098   22.4232  -25.1867 C   0  0  0  0  0  0  0  0  0  0  0  0
    0.1950   22.8488  -25.9145 C   0  0  0  0  0  0  0  0  0  0  0  0
    0.0956   22.9592  -27.2842 C   0  0  0  0  0  0  0  0  0  0  0  0
   -1.1073   22.6398  -27.8832 C   0  0  0  0  0  0  0  0  0  0  0  0
   -2.2076   22.2149  -27.1491 C   0  0  0  0  0  0  0  0  0  0  0  0
   -2.0982   22.1070  -25.7739 C   0  0  0  0  0  0  0  0  0  0  0  0
   -3.4973   21.5607  -24.8917 Cl  0  0  0  0  0  0  0  0  0  0  0  0
 11 12  1  0  0  0
 12 13  2  0  0  0
 13 14  1  0  0  0
 14 15  2  0  0  0
 15 16  1  0  0  0
 16 20  1  0  0  0
 20 21  1  0  0  0
 21 22  1  0  0  0
 22 23  1  0  0  0
 23 24  1  0  0  0
 24 25  1  0  0  0
 16 17  2  0  0  0
 17  1  1  0  0  0
  1  2  2  0  0  0
  2  3  1  0  0  0
  3  4  2  0  0  0
  4  5  1  0  0  0
  5  6  2  0  0  0
  6  7  1  0  0  0
  7  8  2  0  0  0
  8  9  1  0  0  0
  5 26  1  0  0  0
 26 27  2  0  0  0
 27 28  1  0  0  0
 28 29  2  0  0  0
 29 30  1  0  0  0
 30 31  2  0  0  0
 31 32  1  0  0  0
 17 12  1  0  0  0
  9  1  1  0  0  0
 31 26  1  0  0  0
 25 20  1  0  0  0
  8  3  1  0  0  0
 11 18  1  0  0  0
 11 19  1  0  0  0
  9 10  1  0  0  0
M  END
> <minimizedAffinity>
-7.82775

> <CNNscore>
0.0784631148

> <CNNaffinity>
5.5103745461

> <CNN_VS>
0.4323611557

> <CNNaffinity_variance>
0.0741288811

$$$$
[H]c1nc(N([H])[H])c(-c2c([H])c3c([H])c(-c4c([H])c([H])c([H])c([H])c4Cl)c([H])nc3n2[H])c(N2C([H])([H])C([H])([H])C([H])([H])C([H])([H])C2([H])[H])n1


 32 36  0  0  0  0  0  0  0  0999 V2000
   -3.3474   23.2487  -25.8977 C   0  0  0  0  0  0  0  0  0  0  0  0
   -3.9075   24.3564  -25.3020 C   0  0  0  0  0  0  0  0  0  0  0  0
   -5.0213   24.0001  -24.5280 C   0  0  0  0  0  0  0  0  0  0  0  0
   -5.8957   24.7429  -23.7562 C   0  0  0  0  0  0  0  0  0  0  0  0
   -6.9112   24.0904  -23.1023 C   0  0  0  0  0  0  0  0  0  0  0  0
   -6.9963   22.7155  -23.2593 C   0  0  0  0  0  0  0  0  0  0  0  0
   -6.1219   22.0299  -24.0221 N   0  0  0  0  0  0  0  0  0  0  0  0
   -5.1184   22.6463  -24.6725 C   0  0  0  0  0  0  0  0  0  0  0  0
   -4.1153   22.2215  -25.4900 N   0  0  0  0  0  0  0  0  0  0  0  0
   -4.0605   21.2105  -25.7271 H   0  0  0  0  0  0  0  0  0  0  0  0
   -0.8705   22.6044  -24.7066 N   0  0  0  0  0  0  0  0  0  0  0  0
   -0.9312   22.6966  -26.1395 C   0  0  0  0  0  0  0  0  0  0  0  0
    0.1574   22.4527  -26.8676 N   0  0  0  0  0  0  0  0  0  0  0  0
    0.1307   22.5884  -28.1958 C   0  0  0  0  0  0  0  0  0  0  0  0
   -0.9683   22.9642  -28.8073 N   0  0  0  0  0  0  0  0  0  0  0  0
   -2.1225   23.2250  -28.0727 C   0  0  0  0  0  0  0  0  0  0  0  0
   -2.1488   23.1005  -26.7106 C   0  0  0  0  0  0  0  0  0  0  0  0
   -1.1381   23.4028  -24.0938 H   0  0  0  0  0  0  0  0  0  0  0  0
   -0.5381   21.6765  -24.3328 H   0  0  0  0  0  0  0  0  0  0  0  0
   -3.2538   23.6133  -28.8282 N   0  0  0  0  0  0  0  0  0  0  0  0
   -4.2813   22.6472  -29.1441 C   0  0  0  0  0  0  0  0  0  0  0  0
   -5.6409   23.3136  -29.1797 C   0  0  0  0  0  0  0  0  0  0  0  0
   -5.7353   24.5372  -28.3062 C   0  0  0  0  0  0  0  0  0  0  0  0
   -4.6824   25.5764  -28.5752 C   0  0  0  0  0  0  0  0  0  0  0  0
   -3.4613   24.9737  -29.2600 C   0  0  0  0  0  0  0  0  0  0  0  0
   -7.8645   24.7931  -22.2694 C   0  0  0  0  0  0  0  0  0  0  0  0
   -9.0546   25.1952  -22.8638 C   0  0  0  0  0  0  0  0  0  0  0  0
   -9.9864   25.8745  -22.1099 C   0  0  0  0  0  0  0  0  0  0  0  0
   -9.6979   26.1303  -20.7836 C   0  0  0  0  0  0  0  0  0  0  0  0
   -8.5059   25.7252  -20.1961 C   0  0  0  0  0  0  0  0  0  0  0  0
   -7.5761   25.0434  -20.9612 C   0  0  0  0  0  0  0  0  0  0  0  0
   -6.0993   24.5438  -20.1841 Cl  0  0  0  0  0  0  0  0  0  0  0  0
 11 12  1  0  0  0
 12 13  2  0  0  0
 13 14  1  0  0  0
 14 15  2  0  0  0
 15 16  1  0  0  0
 16 20  1  0  0  0
 20 21  1  0  0  0
 21 22  1  0  0  0
 22 23  1  0  0  0
 23 24  1  0  0  0
 24 25  1  0  0  0
 16 17  2  0  0  0
 17  1  1  0  0  0
  1  2  2  0  0  0
  2  3  1  0  0  0
  3  4  2  0  0  0
  4  5  1  0  0  0
  5  6  2  0  0  0
  6  7  1  0  0  0
  7  8  2  0  0  0
  8  9  1  0  0  0
  5 26  1  0  0  0
 26 27  2  0  0  0
 27 28  1  0  0  0
 28 29  2  0  0  0
 29 30  1  0  0  0
 30 31  2  0  0  0
 31 32  1  0  0  0
 17 12  1  0  0  0
  9  1  1  0  0  0
 31 26  1  0  0  0
 25 20  1  0  0  0
  8  3  1  0  0  0
 11 18  1  0  0  0
 11 19  1  0  0  0
  9 10  1  0  0  0
M  END
> <minimizedAffinity>
-8.75197

> <CNNscore>
0.0781817287

> <CNNaffinity>
6.5412597656

> <CNN_VS>
0.5114070177

> <CNNaffinity_variance>
0.1461101770

$$$$
[H]c1nc(N([H])[H])c(-c2c([H])c3c([H])c(-c4c([H])c([H])c([H])c([H])c4Cl)c([H])nc3n2[H])c(N2C([H])([H])C([H])([H])C([H])([H])C([H])([H])C2([H])[H])n1


 32 36  0  0  0  0  0  0  0  0999 V2000
   -3.3728   23.0304  -25.0270 C   0  0  0  0  0  0  0  0  0  0  0  0
   -4.0058   24.2219  -24.7532 C   0  0  0  0  0  0  0  0  0  0  0  0
   -5.1581   24.0118  -23.9820 C   0  0  0  0  0  0  0  0  0  0  0  0
   -6.1053   24.8777  -23.4671 C   0  0  0  0  0  0  0  0  0  0  0  0
   -7.1423   24.3560  -22.7342 C   0  0  0  0  0  0  0  0  0  0  0  0
   -7.1742   22.9815  -22.5558 C   0  0  0  0  0  0  0  0  0  0  0  0
   -6.2293   22.1733  -23.0760 N   0  0  0  0  0  0  0  0  0  0  0  0
   -5.2034   22.6602  -23.7974 C   0  0  0  0  0  0  0  0  0  0  0  0
   -4.1347   22.0976  -24.4266 N   0  0  0  0  0  0  0  0  0  0  0  0
   -4.0328   21.0628  -24.4063 H   0  0  0  0  0  0  0  0  0  0  0  0
   -3.2788   22.8078  -27.8395 N   0  0  0  0  0  0  0  0  0  0  0  0
   -2.0440   22.7182  -27.1098 C   0  0  0  0  0  0  0  0  0  0  0  0
   -0.8948   22.5627  -27.7654 N   0  0  0  0  0  0  0  0  0  0  0  0
    0.2538   22.4223  -27.0988 C   0  0  0  0  0  0  0  0  0  0  0  0
    0.2709   22.4352  -25.7864 N   0  0  0  0  0  0  0  0  0  0  0  0
   -0.9147   22.5974  -25.0737 C   0  0  0  0  0  0  0  0  0  0  0  0
   -2.1178   22.7460  -25.7078 C   0  0  0  0  0  0  0  0  0  0  0  0
   -4.0729   22.1595  -27.6556 H   0  0  0  0  0  0  0  0  0  0  0  0
   -3.3141   23.5720  -28.5647 H   0  0  0  0  0  0  0  0  0  0  0  0
   -0.7852   22.6072  -23.6649 N   0  0  0  0  0  0  0  0  0  0  0  0
   -1.3162   23.7095  -22.8956 C   0  0  0  0  0  0  0  0  0  0  0  0
   -1.8173   23.2234  -21.5515 C   0  0  0  0  0  0  0  0  0  0  0  0
   -2.2541   21.7818  -21.5566 C   0  0  0  0  0  0  0  0  0  0  0  0
   -1.2151   20.8187  -22.0603 C   0  0  0  0  0  0  0  0  0  0  0  0
   -0.1833   21.5157  -22.9394 C   0  0  0  0  0  0  0  0  0  0  0  0
   -8.1710   25.1941  -22.1549 C   0  0  0  0  0  0  0  0  0  0  0  0
   -9.3463   25.3522  -22.8795 C   0  0  0  0  0  0  0  0  0  0  0  0
  -10.3484   26.1483  -22.3692 C   0  0  0  0  0  0  0  0  0  0  0  0
  -10.1428   26.7616  -21.1488 C   0  0  0  0  0  0  0  0  0  0  0  0
   -8.9651   26.5987  -20.4301 C   0  0  0  0  0  0  0  0  0  0  0  0
   -7.9643   25.7972  -20.9504 C   0  0  0  0  0  0  0  0  0  0  0  0
   -6.5080   25.6107  -20.0131 Cl  0  0  0  0  0  0  0  0  0  0  0  0
 11 12  1  0  0  0
 12 13  2  0  0  0
 13 14  1  0  0  0
 14 15  2  0  0  0
 15 16  1  0  0  0
 16 20  1  0  0  0
 20 21  1  0  0  0
 21 22  1  0  0  0
 22 23  1  0  0  0
 23 24  1  0  0  0
 24 25  1  0  0  0
 16 17  2  0  0  0
 17  1  1  0  0  0
  1  2  2  0  0  0
  2  3  1  0  0  0
  3  4  2  0  0  0
  4  5  1  0  0  0
  5  6  2  0  0  0
  6  7  1  0  0  0
  7  8  2  0  0  0
  8  9  1  0  0  0
  5 26  1  0  0  0
 26 27  2  0  0  0
 27 28  1  0  0  0
 28 29  2  0  0  0
 29 30  1  0  0  0
 30 31  2  0  0  0
 31 32  1  0  0  0
 17 12  1  0  0  0
  9  1  1  0  0  0
 31 26  1  0  0  0
 25 20  1  0  0  0
  8  3  1  0  0  0
 11 18  1  0  0  0
 11 19  1  0  0  0
  9 10  1  0  0  0
M  END
> <minimizedAffinity>
-8.51634

> <CNNscore>
0.0639540330

> <CNNaffinity>
6.2424731255

> <CNN_VS>
0.3992313445

> <CNNaffinity_variance>
0.1244289503

$$$$
[H]c1nc(N([H])[H])c(-c2c([H])c3c([H])c(-c4c([H])c([H])c([H])c([H])c4Cl)c([H])nc3n2[H])c(N2C([H])([H])C([H])([H])C([H])([H])C([H])([H])C2([H])[H])n1


 32 36  0  0  0  0  0  0  0  0999 V2000
   -2.5709   22.7477  -24.5320 C   0  0  0  0  0  0  0  0  0  0  0  0
   -2.1918   21.5966  -23.8789 C   0  0  0  0  0  0  0  0  0  0  0  0
   -1.7700   21.8777  -22.5714 C   0  0  0  0  0  0  0  0  0  0  0  0
   -1.3062   21.0713  -21.5482 C   0  0  0  0  0  0  0  0  0  0  0  0
   -0.9647   21.6567  -20.3544 C   0  0  0  0  0  0  0  0  0  0  0  0
   -1.1075   23.0317  -20.2497 C   0  0  0  0  0  0  0  0  0  0  0  0
   -1.5638   23.7806  -21.2732 N   0  0  0  0  0  0  0  0  0  0  0  0
   -1.9052   23.2308  -22.4526 C   0  0  0  0  0  0  0  0  0  0  0  0
   -2.3813   23.7267  -23.6282 N   0  0  0  0  0  0  0  0  0  0  0  0
   -2.5175   24.7539  -23.7167 H   0  0  0  0  0  0  0  0  0  0  0  0
   -0.9183   22.9891  -26.8077 N   0  0  0  0  0  0  0  0  0  0  0  0
   -2.3425   22.9904  -26.9998 C   0  0  0  0  0  0  0  0  0  0  0  0
   -2.8468   23.0756  -28.2299 N   0  0  0  0  0  0  0  0  0  0  0  0
   -4.1673   23.1338  -28.4200 C   0  0  0  0  0  0  0  0  0  0  0  0
   -4.9915   23.1078  -27.3988 N   0  0  0  0  0  0  0  0  0  0  0  0
   -4.4936   23.0179  -26.1011 C   0  0  0  0  0  0  0  0  0  0  0  0
   -3.1499   22.9548  -25.8516 C   0  0  0  0  0  0  0  0  0  0  0  0
   -0.4469   23.6868  -26.1948 H   0  0  0  0  0  0  0  0  0  0  0  0
   -0.3982   22.2355  -27.3301 H   0  0  0  0  0  0  0  0  0  0  0  0
   -5.4656   22.9868  -25.0737 N   0  0  0  0  0  0  0  0  0  0  0  0
   -5.8331   21.7304  -24.4609 C   0  0  0  0  0  0  0  0  0  0  0  0
   -6.1701   21.9339  -22.9984 C   0  0  0  0  0  0  0  0  0  0  0  0
   -5.4718   23.1156  -22.3779 C   0  0  0  0  0  0  0  0  0  0  0  0
   -5.6813   24.4146  -23.1057 C   0  0  0  0  0  0  0  0  0  0  0  0
   -6.0803   24.1856  -24.5588 C   0  0  0  0  0  0  0  0  0  0  0  0
   -0.4776   20.8831  -19.2315 C   0  0  0  0  0  0  0  0  0  0  0  0
   -1.4222   20.3976  -18.3352 C   0  0  0  0  0  0  0  0  0  0  0  0
   -1.0017   19.6638  -17.2476 C   0  0  0  0  0  0  0  0  0  0  0  0
    0.3519   19.4385  -17.0910 C   0  0  0  0  0  0  0  0  0  0  0  0
    1.2905   19.9271  -17.9912 C   0  0  0  0  0  0  0  0  0  0  0  0
    0.8588   20.6629  -19.0806 C   0  0  0  0  0  0  0  0  0  0  0  0
    2.0664   21.2482  -20.1912 Cl  0  0  0  0  0  0  0  0  0  0  0  0
 11 12  1  0  0  0
 12 13  2  0  0  0
 13 14  1  0  0  0
 14 15  2  0  0  0
 15 16  1  0  0  0
 16 20  1  0  0  0
 20 21  1  0  0  0
 21 22  1  0  0  0
 22 23  1  0  0  0
 23 24  1  0  0  0
 24 25  1  0  0  0
 16 17  2  0  0  0
 17  1  1  0  0  0
  1  2  2  0  0  0
  2  3  1  0  0  0
  3  4  2  0  0  0
  4  5  1  0  0  0
  5  6  2  0  0  0
  6  7  1  0  0  0
  7  8  2  0  0  0
  8  9  1  0  0  0
  5 26  1  0  0  0
 26 27  2  0  0  0
 27 28  1  0  0  0
 28 29  2  0  0  0
 29 30  1  0  0  0
 30 31  2  0  0  0
 31 32  1  0  0  0
 17 12  1  0  0  0
  9  1  1  0  0  0
 31 26  1  0  0  0
 25 20  1  0  0  0
  8  3  1  0  0  0
 11 18  1  0  0  0
 11 19  1  0  0  0
  9 10  1  0  0  0
M  END
> <minimizedAffinity>
-7.43040

> <CNNscore>
0.0524636731

> <CNNaffinity>
6.3371744156

> <CNN_VS>
0.3324714601

> <CNNaffinity_variance>
0.2416245937

$$$$
[H]c1nc(N([H])[H])c(-c2c([H])c3c([H])c(-c4c([H])c([H])c([H])c([H])c4Cl)c([H])nc3n2[H])c(N2C([H])([H])C([H])([H])C([H])([H])C([H])([H])C2([H])[H])n1


 32 36  0  0  0  0  0  0  0  0999 V2000
   -2.3357   22.2108  -22.8973 C   0  0  0  0  0  0  0  0  0  0  0  0
   -2.9189   23.4536  -22.7948 C   0  0  0  0  0  0  0  0  0  0  0  0
   -4.2832   23.3436  -22.4898 C   0  0  0  0  0  0  0  0  0  0  0  0
   -5.2727   24.2889  -22.2907 C   0  0  0  0  0  0  0  0  0  0  0  0
   -6.5431   23.8580  -21.9991 C   0  0  0  0  0  0  0  0  0  0  0  0
   -6.7551   22.4901  -21.9225 C   0  0  0  0  0  0  0  0  0  0  0  0
   -5.7610   21.6026  -22.1240 N   0  0  0  0  0  0  0  0  0  0  0  0
   -4.5080   21.9996  -22.4108 C   0  0  0  0  0  0  0  0  0  0  0  0
   -3.3386   21.3463  -22.6567 N   0  0  0  0  0  0  0  0  0  0  0  0
   -3.3406   20.3064  -22.6616 H   0  0  0  0  0  0  0  0  0  0  0  0
   -1.2833   22.0015  -25.5083 N   0  0  0  0  0  0  0  0  0  0  0  0
   -0.3938   21.7925  -24.3991 C   0  0  0  0  0  0  0  0  0  0  0  0
    0.8947   21.5361  -24.6200 N   0  0  0  0  0  0  0  0  0  0  0  0
    1.7215   21.2850  -23.6019 C   0  0  0  0  0  0  0  0  0  0  0  0
    1.2797   21.2865  -22.3659 N   0  0  0  0  0  0  0  0  0  0  0  0
   -0.0622   21.5524  -22.1039 C   0  0  0  0  0  0  0  0  0  0  0  0
   -0.9505   21.8165  -23.1102 C   0  0  0  0  0  0  0  0  0  0  0  0
   -2.1431   21.4281  -25.6375 H   0  0  0  0  0  0  0  0  0  0  0  0
   -0.9984   22.7710  -26.1699 H   0  0  0  0  0  0  0  0  0  0  0  0
   -0.4331   21.5396  -20.7387 N   0  0  0  0  0  0  0  0  0  0  0  0
   -0.5865   20.2833  -20.0408 C   0  0  0  0  0  0  0  0  0  0  0  0
   -0.1731   20.4298  -18.5911 C   0  0  0  0  0  0  0  0  0  0  0  0
    0.8445   21.5165  -18.3615 C   0  0  0  0  0  0  0  0  0  0  0  0
    0.4418   22.8668  -18.8863 C   0  0  0  0  0  0  0  0  0  0  0  0
   -0.6148   22.7519  -19.9788 C   0  0  0  0  0  0  0  0  0  0  0  0
   -7.6337   24.7824  -21.7699 C   0  0  0  0  0  0  0  0  0  0  0  0
   -8.5846   24.9072  -22.7757 C   0  0  0  0  0  0  0  0  0  0  0  0
   -9.6348   25.7821  -22.6029 C   0  0  0  0  0  0  0  0  0  0  0  0
   -9.7005   26.5053  -21.4280 C   0  0  0  0  0  0  0  0  0  0  0  0
   -8.7461   26.3753  -20.4268 C   0  0  0  0  0  0  0  0  0  0  0  0
   -7.6951   25.4940  -20.6093 C   0  0  0  0  0  0  0  0  0  0  0  0
   -6.5259   25.3528  -19.3258 Cl  0  0  0  0  0  0  0  0  0  0  0  0
 11 12  1  0  0  0
 12 13  2  0  0  0
 13 14  1  0  0  0
 14 15  2  0  0  0
 15 16  1  0  0  0
 16 20  1  0  0  0
 20 21  1  0  0  0
 21 22  1  0  0  0
 22 23  1  0  0  0
 23 24  1  0  0  0
 24 25  1  0  0  0
 16 17  2  0  0  0
 17  1  1  0  0  0
  1  2  2  0  0  0
  2  3  1  0  0  0
  3  4  2  0  0  0
  4  5  1  0  0  0
  5  6  2  0  0  0
  6  7  1  0  0  0
  7  8  2  0  0  0
  8  9  1  0  0  0
  5 26  1  0  0  0
 26 27  2  0  0  0
 27 28  1  0  0  0
 28 29  2  0  0  0
 29 30  1  0  0  0
 30 31  2  0  0  0
 31 32  1  0  0  0
 17 12  1  0  0  0
  9  1  1  0  0  0
 31 26  1  0  0  0
 25 20  1  0  0  0
  8  3  1  0  0  0
 11 18  1  0  0  0
 11 19  1  0  0  0
  9 10  1  0  0  0
M  END
> <minimizedAffinity>
-7.37593

> <CNNscore>
0.0522036217

> <CNNaffinity>
5.8319272995

> <CNN_VS>
0.3044477403

> <CNNaffinity_variance>
0.0456766598

$$$$
[H]c1nc(N([H])[H])c(-c2c([H])c3c([H])c(-c4c([H])c([H])c([H])c([H])c4Cl)c([H])nc3n2[H])c(N2C([H])([H])C([H])([H])C([H])([H])C([H])([H])C2([H])[H])n1


 32 36  0  0  0  0  0  0  0  0999 V2000
   -3.7563   23.3878  -25.1505 C   0  0  0  0  0  0  0  0  0  0  0  0
   -4.8681   22.6608  -24.7891 C   0  0  0  0  0  0  0  0  0  0  0  0
   -5.5552   23.2848  -23.7378 C   0  0  0  0  0  0  0  0  0  0  0  0
   -6.7037   22.9477  -23.0454 C   0  0  0  0  0  0  0  0  0  0  0  0
   -7.1356   23.7821  -22.0444 C   0  0  0  0  0  0  0  0  0  0  0  0
   -6.3856   24.9198  -21.7890 C   0  0  0  0  0  0  0  0  0  0  0  0
   -5.2711   25.2105  -22.4889 N   0  0  0  0  0  0  0  0  0  0  0  0
   -4.8275   24.4092  -23.4743 C   0  0  0  0  0  0  0  0  0  0  0  0
   -3.7640   24.4499  -24.3240 N   0  0  0  0  0  0  0  0  0  0  0  0
   -3.0878   25.2352  -24.2382 H   0  0  0  0  0  0  0  0  0  0  0  0
   -1.1639   22.4145  -24.6019 N   0  0  0  0  0  0  0  0  0  0  0  0
   -1.5312   22.6317  -25.9742 C   0  0  0  0  0  0  0  0  0  0  0  0
   -0.6659   22.3476  -26.9464 N   0  0  0  0  0  0  0  0  0  0  0  0
   -0.9721   22.5959  -28.2223 C   0  0  0  0  0  0  0  0  0  0  0  0
   -2.1309   23.1238  -28.5410 N   0  0  0  0  0  0  0  0  0  0  0  0
   -3.0564   23.4303  -27.5463 C   0  0  0  0  0  0  0  0  0  0  0  0
   -2.7927   23.1953  -26.2247 C   0  0  0  0  0  0  0  0  0  0  0  0
   -1.1980   23.1806  -23.8972 H   0  0  0  0  0  0  0  0  0  0  0  0
   -0.8620   21.4314  -24.3710 H   0  0  0  0  0  0  0  0  0  0  0  0
   -4.2771   23.9859  -27.9967 N   0  0  0  0  0  0  0  0  0  0  0  0
   -4.4656   25.4188  -27.9959 C   0  0  0  0  0  0  0  0  0  0  0  0
   -5.3396   25.8379  -29.1596 C   0  0  0  0  0  0  0  0  0  0  0  0
   -5.2701   24.8980  -30.3346 C   0  0  0  0  0  0  0  0  0  0  0  0
   -5.5677   23.4623  -30.0013 C   0  0  0  0  0  0  0  0  0  0  0  0
   -5.3461   23.1723  -28.5214 C   0  0  0  0  0  0  0  0  0  0  0  0
   -8.3316   23.5053  -21.2767 C   0  0  0  0  0  0  0  0  0  0  0  0
   -8.2876   22.4328  -20.3940 C   0  0  0  0  0  0  0  0  0  0  0  0
   -9.4064   22.1286  -19.6497 C   0  0  0  0  0  0  0  0  0  0  0  0
  -10.5350   22.9081  -19.8121 C   0  0  0  0  0  0  0  0  0  0  0  0
  -10.5716   23.9789  -20.6964 C   0  0  0  0  0  0  0  0  0  0  0  0
   -9.4431   24.2768  -21.4396 C   0  0  0  0  0  0  0  0  0  0  0  0
   -9.5269   25.6336  -22.5288 Cl  0  0  0  0  0  0  0  0  0  0  0  0
 11 12  1  0  0  0
 12 13  2  0  0  0
 13 14  1  0  0  0
 14 15  2  0  0  0
 15 16  1  0  0  0
 16 20  1  0  0  0
 20 21  1  0  0  0
 21 22  1  0  0  0
 22 23  1  0  0  0
 23 24  1  0  0  0
 24 25  1  0  0  0
 16 17  2  0  0  0
 17  1  1  0  0  0
  1  2  2  0  0  0
  2  3  1  0  0  0
  3  4  2  0  0  0
  4  5  1  0  0  0
  5  6  2  0  0  0
  6  7  1  0  0  0
  7  8  2  0  0  0
  8  9  1  0  0  0
  5 26  1  0  0  0
 26 27  2  0  0  0
 27 28  1  0  0  0
 28 29  2  0  0  0
 29 30  1  0  0  0
 30 31  2  0  0  0
 31 32  1  0  0  0
 17 12  1  0  0  0
  9  1  1  0  0  0
 31 26  1  0  0  0
 25 20  1  0  0  0
  8  3  1  0  0  0
 11 18  1  0  0  0
 11 19  1  0  0  0
  9 10  1  0  0  0
M  END
> <minimizedAffinity>
-8.99493

> <CNNscore>
0.0520670414

> <CNNaffinity>
6.5036873817

> <CNN_VS>
0.3386277556

> <CNNaffinity_variance>
0.1804762781

$$$$
[H]c1nc(N([H])[H])c(-c2nn(-c3c(Cl)c(OC([H])([H])[H])c([H])c(OC([H])([H])[H])c3Cl)c(=O)c([H])c2[H])nc1-c1c([H])nn(C2([H])C([H])([H])C([H])([H])N([H])C([H])([H])C2([H])[H])c1[H]


 40 44  0  0  0  0  0  0  0  0999 V2000
   -2.3241   22.8082  -26.3294 C   0  0  0  0  0  0  0  0  0  0  0  0
   -1.7422   22.4284  -25.1560 N   0  0  0  0  0  0  0  0  0  0  0  0
   -0.4517   22.1170  -25.0795 C   0  0  0  0  0  0  0  0  0  0  0  0
    0.3071   22.1818  -26.2152 C   0  0  0  0  0  0  0  0  0  0  0  0
   -0.2108   22.5517  -27.4124 N   0  0  0  0  0  0  0  0  0  0  0  0
   -1.5236   22.8582  -27.4403 C   0  0  0  0  0  0  0  0  0  0  0  0
   -2.0820   23.2432  -28.6706 N   0  0  0  0  0  0  0  0  0  0  0  0
   -2.4112   22.4877  -29.3113 H   0  0  0  0  0  0  0  0  0  0  0  0
   -2.1524   24.2433  -28.9076 H   0  0  0  0  0  0  0  0  0  0  0  0
   -5.7528   23.6132  -25.3550 N   0  0  0  0  0  0  0  0  0  0  0  0
   -4.4565   23.3007  -25.2939 N   0  0  0  0  0  0  0  0  0  0  0  0
   -3.7288   23.1482  -26.4135 C   0  0  0  0  0  0  0  0  0  0  0  0
   -4.3486   23.3215  -27.6274 C   0  0  0  0  0  0  0  0  0  0  0  0
   -5.6929   23.6463  -27.7101 C   0  0  0  0  0  0  0  0  0  0  0  0
   -6.3836   23.7883  -26.5243 C   0  0  0  0  0  0  0  0  0  0  0  0
   -7.6028   24.0817  -26.5450 O   0  0  0  0  0  0  0  0  0  0  0  0
   -7.5026   22.7374  -22.1945 C   0  0  0  0  0  0  0  0  0  0  0  0
   -7.7873   23.9911  -21.7134 C   0  0  0  0  0  0  0  0  0  0  0  0
   -7.4125   25.1362  -22.4092 C   0  0  0  0  0  0  0  0  0  0  0  0
   -6.7475   24.9884  -23.5952 C   0  0  0  0  0  0  0  0  0  0  0  0
   -6.2731   26.4251  -24.4749 Cl  0  0  0  0  0  0  0  0  0  0  0  0
   -6.4437   23.7501  -24.1112 C   0  0  0  0  0  0  0  0  0  0  0  0
   -6.8334   22.6262  -23.3888 C   0  0  0  0  0  0  0  0  0  0  0  0
   -6.4594   21.0465  -24.0260 Cl  0  0  0  0  0  0  0  0  0  0  0  0
   -8.6134   21.5529  -20.3136 C   0  0  0  0  0  0  0  0  0  0  0  0
   -7.8826   21.6282  -21.4887 O   0  0  0  0  0  0  0  0  0  0  0  0
   -7.7077   26.3909  -21.9092 O   0  0  0  0  0  0  0  0  0  0  0  0
   -8.4173   26.4851  -20.6951 C   0  0  0  0  0  0  0  0  0  0  0  0
    0.1391   21.7200  -23.8171 C   0  0  0  0  0  0  0  0  0  0  0  0
   -0.5369   21.6253  -22.6027 C   0  0  0  0  0  0  0  0  0  0  0  0
    0.3541   21.2271  -21.6767 N   0  0  0  0  0  0  0  0  0  0  0  0
    1.5535   21.0665  -22.2430 N   0  0  0  0  0  0  0  0  0  0  0  0
    1.4428   21.3606  -23.5400 C   0  0  0  0  0  0  0  0  0  0  0  0
    2.7820   20.6454  -21.5866 C   0  0  0  0  0  0  0  0  0  0  0  0
    3.6027   19.8825  -22.5732 C   0  0  0  0  0  0  0  0  0  0  0  0
    4.0559   18.5318  -22.0690 C   0  0  0  0  0  0  0  0  0  0  0  0
    2.9954   17.7491  -21.5179 N   0  0  0  0  0  0  0  0  0  0  0  0
    2.0245   18.4819  -20.7707 C   0  0  0  0  0  0  0  0  0  0  0  0
    2.4892   19.8451  -20.3365 C   0  0  0  0  0  0  0  0  0  0  0  0
    2.5289   17.1013  -22.1783 H   0  0  0  0  0  0  0  0  0  0  0  0
 25 26  1  0  0  0
 26 17  1  0  0  0
 17 18  2  0  0  0
 18 19  1  0  0  0
 19 27  1  0  0  0
 27 28  1  0  0  0
 19 20  2  0  0  0
 20 21  1  0  0  0
 20 22  1  0  0  0
 22 23  2  0  0  0
 23 24  1  0  0  0
 22 10  1  0  0  0
 10 11  1  0  0  0
 11 12  2  0  0  0
 12 13  1  0  0  0
 13 14  2  0  0  0
 14 15  1  0  0  0
 15 16  2  0  0  0
 12  1  1  0  0  0
  1  2  2  0  0  0
  2  3  1  0  0  0
  3  4  2  0  0  0
  4  5  1  0  0  0
  5  6  2  0  0  0
  6  7  1  0  0  0
  3 29  1  0  0  0
 29 30  1  0  0  0
 30 31  2  0  0  0
 31 32  1  0  0  0
 32 33  1  0  0  0
 32 34  1  0  0  0
 34 35  1  0  0  0
 35 36  1  0  0  0
 36 37  1  0  0  0
 37 38  1  0  0  0
 38 39  1  0  0  0
 23 17  1  0  0  0
 15 10  1  0  0  0
  6  1  1  0  0  0
 33 29  2  0  0  0
 39 34  1  0  0  0
  7  8  1  0  0  0
  7  9  1  0  0  0
 37 40  1  0  0  0
M  END
> <minimizedAffinity>
-9.75548

> <CNNscore>
0.7629292607

> <CNNaffinity>
8.0790271759

> <CNN_VS>
6.1637263298

> <CNNaffinity_variance>
0.1927157193

$$$$
[H]c1nc(N([H])[H])c(-c2nn(-c3c(Cl)c(OC([H])([H])[H])c([H])c(OC([H])([H])[H])c3Cl)c(=O)c([H])c2[H])nc1-c1c([H])nn(C2([H])C([H])([H])C([H])([H])N([H])C([H])([H])C2([H])[H])c1[H]


 40 44  0  0  0  0  0  0  0  0999 V2000
   -2.3520   22.8330  -26.2785 C   0  0  0  0  0  0  0  0  0  0  0  0
   -1.7735   22.4475  -25.1053 N   0  0  0  0  0  0  0  0  0  0  0  0
   -0.4850   22.1280  -25.0281 C   0  0  0  0  0  0  0  0  0  0  0  0
    0.2752   22.1901  -26.1631 C   0  0  0  0  0  0  0  0  0  0  0  0
   -0.2393   22.5654  -27.3601 N   0  0  0  0  0  0  0  0  0  0  0  0
   -1.5502   22.8800  -27.3886 C   0  0  0  0  0  0  0  0  0  0  0  0
   -2.1051   23.2706  -28.6187 N   0  0  0  0  0  0  0  0  0  0  0  0
   -2.4385   22.5184  -29.2610 H   0  0  0  0  0  0  0  0  0  0  0  0
   -2.1691   24.2715  -28.8540 H   0  0  0  0  0  0  0  0  0  0  0  0
   -5.7826   23.6326  -25.3065 N   0  0  0  0  0  0  0  0  0  0  0  0
   -4.4883   23.3123  -25.2448 N   0  0  0  0  0  0  0  0  0  0  0  0
   -3.7545   23.1819  -26.3632 C   0  0  0  0  0  0  0  0  0  0  0  0
   -4.3660   23.3859  -27.5766 C   0  0  0  0  0  0  0  0  0  0  0  0
   -5.7082   23.7191  -27.6598 C   0  0  0  0  0  0  0  0  0  0  0  0
   -6.4054   23.8375  -26.4753 C   0  0  0  0  0  0  0  0  0  0  0  0
   -7.6231   24.1374  -26.4966 O   0  0  0  0  0  0  0  0  0  0  0  0
   -7.4556   25.1218  -22.3399 C   0  0  0  0  0  0  0  0  0  0  0  0
   -7.8178   23.9842  -21.6627 C   0  0  0  0  0  0  0  0  0  0  0  0
   -7.5245   22.7193  -22.1627 C   0  0  0  0  0  0  0  0  0  0  0  0
   -6.8608   22.6290  -23.3551 C   0  0  0  0  0  0  0  0  0  0  0  0
   -6.4893   21.0406  -23.9894 Cl  0  0  0  0  0  0  0  0  0  0  0  0
   -6.4805   23.7446  -24.0641 C   0  0  0  0  0  0  0  0  0  0  0  0
   -6.7902   24.9938  -23.5347 C   0  0  0  0  0  0  0  0  0  0  0  0
   -6.3157   26.4214  -24.4169 Cl  0  0  0  0  0  0  0  0  0  0  0  0
   -8.5682   26.6703  -20.7464 C   0  0  0  0  0  0  0  0  0  0  0  0
   -7.7578   26.3533  -21.8250 O   0  0  0  0  0  0  0  0  0  0  0  0
   -7.8973   21.5844  -21.4667 O   0  0  0  0  0  0  0  0  0  0  0  0
   -8.7322   21.7259  -20.3400 C   0  0  0  0  0  0  0  0  0  0  0  0
    0.1022   21.7251  -23.7660 C   0  0  0  0  0  0  0  0  0  0  0  0
   -0.5741   21.6382  -22.5511 C   0  0  0  0  0  0  0  0  0  0  0  0
    0.3132   21.2308  -21.6255 N   0  0  0  0  0  0  0  0  0  0  0  0
    1.5104   21.0569  -22.1924 N   0  0  0  0  0  0  0  0  0  0  0  0
    1.4021   21.3517  -23.4895 C   0  0  0  0  0  0  0  0  0  0  0  0
    2.7347   20.6228  -21.5366 C   0  0  0  0  0  0  0  0  0  0  0  0
    3.5959   19.9471  -22.5518 C   0  0  0  0  0  0  0  0  0  0  0  0
    4.0723   18.5772  -22.1272 C   0  0  0  0  0  0  0  0  0  0  0  0
    3.0204   17.7343  -21.6539 N   0  0  0  0  0  0  0  0  0  0  0  0
    2.0150   18.3923  -20.8830 C   0  0  0  0  0  0  0  0  0  0  0  0
    2.4352   19.7344  -20.3492 C   0  0  0  0  0  0  0  0  0  0  0  0
    2.5850   17.1208  -22.3663 H   0  0  0  0  0  0  0  0  0  0  0  0
 25 26  1  0  0  0
 26 17  1  0  0  0
 17 18  2  0  0  0
 18 19  1  0  0  0
 19 27  1  0  0  0
 27 28  1  0  0  0
 19 20  2  0  0  0
 20 21  1  0  0  0
 20 22  1  0  0  0
 22 23  2  0  0  0
 23 24  1  0  0  0
 22 10  1  0  0  0
 10 11  1  0  0  0
 11 12  2  0  0  0
 12 13  1  0  0  0
 13 14  2  0  0  0
 14 15  1  0  0  0
 15 16  2  0  0  0
 12  1  1  0  0  0
  1  2  2  0  0  0
  2  3  1  0  0  0
  3  4  2  0  0  0
  4  5  1  0  0  0
  5  6  2  0  0  0
  6  7  1  0  0  0
  3 29  1  0  0  0
 29 30  1  0  0  0
 30 31  2  0  0  0
 31 32  1  0  0  0
 32 33  1  0  0  0
 32 34  1  0  0  0
 34 35  1  0  0  0
 35 36  1  0  0  0
 36 37  1  0  0  0
 37 38  1  0  0  0
 38 39  1  0  0  0
 23 17  1  0  0  0
 15 10  1  0  0  0
  6  1  1  0  0  0
 33 29  2  0  0  0
 39 34  1  0  0  0
  7  8  1  0  0  0
  7  9  1  0  0  0
 37 40  1  0  0  0
M  END
> <minimizedAffinity>
-9.68504

> <CNNscore>
0.7338899970

> <CNNaffinity>
8.0454730988

> <CNN_VS>
5.9044923782

> <CNNaffinity_variance>
0.2014638186

$$$$
[H]c1nc(N([H])[H])c(-c2nn(-c3c(Cl)c(OC([H])([H])[H])c([H])c(OC([H])([H])[H])c3Cl)c(=O)c([H])c2[H])nc1-c1c([H])nn(C2([H])C([H])([H])C([H])([H])N([H])C([H])([H])C2([H])[H])c1[H]


 40 44  0  0  0  0  0  0  0  0999 V2000
   -2.2748   22.7595  -26.2381 C   0  0  0  0  0  0  0  0  0  0  0  0
   -1.7066   22.3961  -25.0528 N   0  0  0  0  0  0  0  0  0  0  0  0
   -0.4172   22.0852  -24.9571 C   0  0  0  0  0  0  0  0  0  0  0  0
    0.3545   22.1335  -26.0849 C   0  0  0  0  0  0  0  0  0  0  0  0
   -0.1494   22.4867  -27.2930 N   0  0  0  0  0  0  0  0  0  0  0  0
   -1.4616   22.7934  -27.3403 C   0  0  0  0  0  0  0  0  0  0  0  0
   -2.0056   23.1610  -28.5823 N   0  0  0  0  0  0  0  0  0  0  0  0
   -2.3280   22.3967  -29.2159 H   0  0  0  0  0  0  0  0  0  0  0  0
   -2.0727   24.1577  -28.8342 H   0  0  0  0  0  0  0  0  0  0  0  0
   -5.7208   23.5510  -25.3151 N   0  0  0  0  0  0  0  0  0  0  0  0
   -4.4254   23.2393  -25.2348 N   0  0  0  0  0  0  0  0  0  0  0  0
   -3.6782   23.0989  -26.3431 C   0  0  0  0  0  0  0  0  0  0  0  0
   -4.2771   23.2838  -27.5657 C   0  0  0  0  0  0  0  0  0  0  0  0
   -5.6202   23.6081  -27.6684 C   0  0  0  0  0  0  0  0  0  0  0  0
   -6.3315   23.7374  -26.4934 C   0  0  0  0  0  0  0  0  0  0  0  0
   -7.5505   24.0297  -26.5322 O   0  0  0  0  0  0  0  0  0  0  0  0
   -7.4094   25.0680  -22.3716 C   0  0  0  0  0  0  0  0  0  0  0  0
   -7.7988   23.9366  -21.6990 C   0  0  0  0  0  0  0  0  0  0  0  0
   -7.5190   22.6670  -22.1948 C   0  0  0  0  0  0  0  0  0  0  0  0
   -6.8409   22.5656  -23.3781 C   0  0  0  0  0  0  0  0  0  0  0  0
   -6.4863   20.9712  -24.0070 Cl  0  0  0  0  0  0  0  0  0  0  0  0
   -6.4333   23.6747  -24.0822 C   0  0  0  0  0  0  0  0  0  0  0  0
   -6.7302   24.9289  -23.5572 C   0  0  0  0  0  0  0  0  0  0  0  0
   -6.2212   26.3484  -24.4333 Cl  0  0  0  0  0  0  0  0  0  0  0  0
   -8.4191   26.6286  -20.7222 C   0  0  0  0  0  0  0  0  0  0  0  0
   -7.6987   26.3044  -21.8610 O   0  0  0  0  0  0  0  0  0  0  0  0
   -7.9191   21.5384  -21.5036 O   0  0  0  0  0  0  0  0  0  0  0  0
   -8.7465   21.6957  -20.3734 C   0  0  0  0  0  0  0  0  0  0  0  0
    0.1589   21.7060  -23.6825 C   0  0  0  0  0  0  0  0  0  0  0  0
    1.4968   21.3850  -23.4637 C   0  0  0  0  0  0  0  0  0  0  0  0
    1.6313   21.0919  -22.1576 N   0  0  0  0  0  0  0  0  0  0  0  0
    0.4507   21.2110  -21.5435 N   0  0  0  0  0  0  0  0  0  0  0  0
   -0.4538   21.5825  -22.4516 C   0  0  0  0  0  0  0  0  0  0  0  0
    0.1704   20.9832  -20.1339 C   0  0  0  0  0  0  0  0  0  0  0  0
   -1.3023   20.7987  -19.9728 C   0  0  0  0  0  0  0  0  0  0  0  0
   -1.9130   21.6909  -18.9168 C   0  0  0  0  0  0  0  0  0  0  0  0
   -1.5455   23.0644  -19.0556 N   0  0  0  0  0  0  0  0  0  0  0  0
   -0.1982   23.2942  -19.4677 C   0  0  0  0  0  0  0  0  0  0  0  0
    0.7090   22.1092  -19.2789 C   0  0  0  0  0  0  0  0  0  0  0  0
   -2.1972   23.6471  -19.6116 H   0  0  0  0  0  0  0  0  0  0  0  0
 25 26  1  0  0  0
 26 17  1  0  0  0
 17 18  2  0  0  0
 18 19  1  0  0  0
 19 27  1  0  0  0
 27 28  1  0  0  0
 19 20  2  0  0  0
 20 21  1  0  0  0
 20 22  1  0  0  0
 22 23  2  0  0  0
 23 24  1  0  0  0
 22 10  1  0  0  0
 10 11  1  0  0  0
 11 12  2  0  0  0
 12 13  1  0  0  0
 13 14  2  0  0  0
 14 15  1  0  0  0
 15 16  2  0  0  0
 12  1  1  0  0  0
  1  2  2  0  0  0
  2  3  1  0  0  0
  3  4  2  0  0  0
  4  5  1  0  0  0
  5  6  2  0  0  0
  6  7  1  0  0  0
  3 29  1  0  0  0
 29 30  1  0  0  0
 30 31  2  0  0  0
 31 32  1  0  0  0
 32 33  1  0  0  0
 32 34  1  0  0  0
 34 35  1  0  0  0
 35 36  1  0  0  0
 36 37  1  0  0  0
 37 38  1  0  0  0
 38 39  1  0  0  0
 23 17  1  0  0  0
 15 10  1  0  0  0
  6  1  1  0  0  0
 33 29  2  0  0  0
 39 34  1  0  0  0
  7  8  1  0  0  0
  7  9  1  0  0  0
 37 40  1  0  0  0
M  END
> <minimizedAffinity>
-9.58089

> <CNNscore>
0.5659273267

> <CNNaffinity>
7.7932825089

> <CNN_VS>
4.4104313850

> <CNNaffinity_variance>
0.2340836525

$$$$
[H]c1nc(N([H])[H])c(-c2nn(-c3c(Cl)c(OC([H])([H])[H])c([H])c(OC([H])([H])[H])c3Cl)c(=O)c([H])c2[H])nc1-c1c([H])nn(C2([H])C([H])([H])C([H])([H])N([H])C([H])([H])C2([H])[H])c1[H]


 40 44  0  0  0  0  0  0  0  0999 V2000
   -2.2656   22.7357  -26.2072 C   0  0  0  0  0  0  0  0  0  0  0  0
   -1.7043   22.3717  -25.0189 N   0  0  0  0  0  0  0  0  0  0  0  0
   -0.4163   22.0568  -24.9166 C   0  0  0  0  0  0  0  0  0  0  0  0
    0.3609   22.1015  -26.0407 C   0  0  0  0  0  0  0  0  0  0  0  0
   -0.1360   22.4550  -27.2516 N   0  0  0  0  0  0  0  0  0  0  0  0
   -1.4470   22.7658  -27.3056 C   0  0  0  0  0  0  0  0  0  0  0  0
   -1.9840   23.1339  -28.5505 N   0  0  0  0  0  0  0  0  0  0  0  0
   -2.3057   22.3699  -29.1848 H   0  0  0  0  0  0  0  0  0  0  0  0
   -2.0467   24.1305  -28.8038 H   0  0  0  0  0  0  0  0  0  0  0  0
   -5.7066   23.5673  -25.3009 N   0  0  0  0  0  0  0  0  0  0  0  0
   -4.4127   23.2511  -25.2141 N   0  0  0  0  0  0  0  0  0  0  0  0
   -3.6675   23.0794  -26.3193 C   0  0  0  0  0  0  0  0  0  0  0  0
   -4.2667   23.2368  -27.5456 C   0  0  0  0  0  0  0  0  0  0  0  0
   -5.6083   23.5651  -27.6550 C   0  0  0  0  0  0  0  0  0  0  0  0
   -6.3177   23.7272  -26.4829 C   0  0  0  0  0  0  0  0  0  0  0  0
   -7.5352   24.0246  -26.5279 O   0  0  0  0  0  0  0  0  0  0  0  0
   -7.5259   22.7449  -22.1654 C   0  0  0  0  0  0  0  0  0  0  0  0
   -7.7990   24.0067  -21.6993 C   0  0  0  0  0  0  0  0  0  0  0  0
   -7.3937   25.1401  -22.3972 C   0  0  0  0  0  0  0  0  0  0  0  0
   -6.7103   24.9722  -23.5699 C   0  0  0  0  0  0  0  0  0  0  0  0
   -6.1975   26.3941  -24.4522 Cl  0  0  0  0  0  0  0  0  0  0  0  0
   -6.4172   23.7252  -24.0708 C   0  0  0  0  0  0  0  0  0  0  0  0
   -6.8375   22.6135  -23.3467 C   0  0  0  0  0  0  0  0  0  0  0  0
   -6.4775   21.0229  -23.9648 Cl  0  0  0  0  0  0  0  0  0  0  0  0
   -8.7394   21.5900  -20.3301 C   0  0  0  0  0  0  0  0  0  0  0  0
   -7.9359   21.6476  -21.4579 O   0  0  0  0  0  0  0  0  0  0  0  0
   -7.6776   26.4033  -21.9124 O   0  0  0  0  0  0  0  0  0  0  0  0
   -8.4942   26.5211  -20.7696 C   0  0  0  0  0  0  0  0  0  0  0  0
    0.1524   21.6771  -23.6389 C   0  0  0  0  0  0  0  0  0  0  0  0
    1.4916   21.3690  -23.4098 C   0  0  0  0  0  0  0  0  0  0  0  0
    1.6177   21.0706  -22.1041 N   0  0  0  0  0  0  0  0  0  0  0  0
    0.4306   21.1743  -21.4999 N   0  0  0  0  0  0  0  0  0  0  0  0
   -0.4698   21.5409  -22.4142 C   0  0  0  0  0  0  0  0  0  0  0  0
    0.1402   20.9363  -20.0940 C   0  0  0  0  0  0  0  0  0  0  0  0
   -1.3422   20.9138  -19.9189 C   0  0  0  0  0  0  0  0  0  0  0  0
   -1.8380   21.8361  -18.8292 C   0  0  0  0  0  0  0  0  0  0  0  0
   -1.3193   23.1633  -18.9325 N   0  0  0  0  0  0  0  0  0  0  0  0
    0.0412   23.2526  -19.3554 C   0  0  0  0  0  0  0  0  0  0  0  0
    0.8107   21.9679  -19.2135 C   0  0  0  0  0  0  0  0  0  0  0  0
   -1.9066   23.8323  -19.4625 H   0  0  0  0  0  0  0  0  0  0  0  0
 25 26  1  0  0  0
 26 17  1  0  0  0
 17 18  2  0  0  0
 18 19  1  0  0  0
 19 27  1  0  0  0
 27 28  1  0  0  0
 19 20  2  0  0  0
 20 21  1  0  0  0
 20 22  1  0  0  0
 22 23  2  0  0  0
 23 24  1  0  0  0
 22 10  1  0  0  0
 10 11  1  0  0  0
 11 12  2  0  0  0
 12 13  1  0  0  0
 13 14  2  0  0  0
 14 15  1  0  0  0
 15 16  2  0  0  0
 12  1  1  0  0  0
  1  2  2  0  0  0
  2  3  1  0  0  0
  3  4  2  0  0  0
  4  5  1  0  0  0
  5  6  2  0  0  0
  6  7  1  0  0  0
  3 29  1  0  0  0
 29 30  1  0  0  0
 30 31  2  0  0  0
 31 32  1  0  0  0
 32 33  1  0  0  0
 32 34  1  0  0  0
 34 35  1  0  0  0
 35 36  1  0  0  0
 36 37  1  0  0  0
 37 38  1  0  0  0
 38 39  1  0  0  0
 23 17  1  0  0  0
 15 10  1  0  0  0
  6  1  1  0  0  0
 33 29  2  0  0  0
 39 34  1  0  0  0
  7  8  1  0  0  0
  7  9  1  0  0  0
 37 40  1  0  0  0
M  END
> <minimizedAffinity>
-9.61407

> <CNNscore>
0.5391401052

> <CNNaffinity>
7.7770600319

> <CNN_VS>
4.1929249763

> <CNNaffinity_variance>
0.2415590733

$$$$
[H]c1nc(N([H])[H])c(-c2nn(-c3c(Cl)c(OC([H])([H])[H])c([H])c(OC([H])([H])[H])c3Cl)c(=O)c([H])c2[H])nc1-c1c([H])nn(C2([H])C([H])([H])C([H])([H])N([H])C([H])([H])C2([H])[H])c1[H]


 40 44  0  0  0  0  0  0  0  0999 V2000
   -0.4380   22.0377  -23.9447 C   0  0  0  0  0  0  0  0  0  0  0  0
   -1.6007   22.4793  -24.5041 N   0  0  0  0  0  0  0  0  0  0  0  0
   -1.7096   22.7117  -25.8089 C   0  0  0  0  0  0  0  0  0  0  0  0
   -0.6191   22.4995  -26.6060 C   0  0  0  0  0  0  0  0  0  0  0  0
    0.5652   22.0615  -26.1122 N   0  0  0  0  0  0  0  0  0  0  0  0
    0.6271   21.8396  -24.7836 C   0  0  0  0  0  0  0  0  0  0  0  0
    1.8450   21.3865  -24.2496 N   0  0  0  0  0  0  0  0  0  0  0  0
    2.5611   22.1033  -23.9988 H   0  0  0  0  0  0  0  0  0  0  0  0
    2.0002   20.3763  -24.1203 H   0  0  0  0  0  0  0  0  0  0  0  0
    0.7157   20.6638  -20.7612 N   0  0  0  0  0  0  0  0  0  0  0  0
    0.5941   20.9094  -22.0676 N   0  0  0  0  0  0  0  0  0  0  0  0
   -0.3187   21.7836  -22.5245 C   0  0  0  0  0  0  0  0  0  0  0  0
   -1.1277   22.4222  -21.6159 C   0  0  0  0  0  0  0  0  0  0  0  0
   -1.0156   22.1800  -20.2564 C   0  0  0  0  0  0  0  0  0  0  0  0
   -0.0591   21.2716  -19.8523 C   0  0  0  0  0  0  0  0  0  0  0  0
    0.0822   21.0173  -18.6324 O   0  0  0  0  0  0  0  0  0  0  0  0
    2.3444   17.4373  -19.8927 C   0  0  0  0  0  0  0  0  0  0  0  0
    3.6167   17.8695  -19.6126 C   0  0  0  0  0  0  0  0  0  0  0  0
    3.9613   19.2144  -19.7044 C   0  0  0  0  0  0  0  0  0  0  0  0
    2.9981   20.1084  -20.0831 C   0  0  0  0  0  0  0  0  0  0  0  0
    3.4256   21.8015  -20.2007 Cl  0  0  0  0  0  0  0  0  0  0  0  0
    1.7120   19.7156  -20.3720 C   0  0  0  0  0  0  0  0  0  0  0  0
    1.4022   18.3626  -20.2701 C   0  0  0  0  0  0  0  0  0  0  0  0
   -0.2233   17.8434  -20.6306 Cl  0  0  0  0  0  0  0  0  0  0  0  0
    1.6195   15.3909  -18.6836 C   0  0  0  0  0  0  0  0  0  0  0  0
    2.0333   16.1081  -19.7950 O   0  0  0  0  0  0  0  0  0  0  0  0
    5.2481   19.6315  -19.4185 O   0  0  0  0  0  0  0  0  0  0  0  0
    6.2310   19.5289  -20.4234 C   0  0  0  0  0  0  0  0  0  0  0  0
   -2.9599   23.1774  -26.3746 C   0  0  0  0  0  0  0  0  0  0  0  0
   -3.5782   22.6551  -27.5085 C   0  0  0  0  0  0  0  0  0  0  0  0
   -4.7112   23.3530  -27.7060 N   0  0  0  0  0  0  0  0  0  0  0  0
   -4.8388   24.2857  -26.7579 N   0  0  0  0  0  0  0  0  0  0  0  0
   -3.7868   24.1946  -25.9419 C   0  0  0  0  0  0  0  0  0  0  0  0
   -5.9231   25.2454  -26.6144 C   0  0  0  0  0  0  0  0  0  0  0  0
   -5.4561   26.3510  -25.7266 C   0  0  0  0  0  0  0  0  0  0  0  0
   -6.3913   26.6398  -24.5751 C   0  0  0  0  0  0  0  0  0  0  0  0
   -6.7649   25.4711  -23.8433 N   0  0  0  0  0  0  0  0  0  0  0  0
   -6.9732   24.3004  -24.6333 C   0  0  0  0  0  0  0  0  0  0  0  0
   -7.1794   24.5798  -26.0969 C   0  0  0  0  0  0  0  0  0  0  0  0
   -6.1740   25.2511  -23.0211 H   0  0  0  0  0  0  0  0  0  0  0  0
 25 26  1  0  0  0
 26 17  1  0  0  0
 17 18  2  0  0  0
 18 19  1  0  0  0
 19 27  1  0  0  0
 27 28  1  0  0  0
 19 20  2  0  0  0
 20 21  1  0  0  0
 20 22  1  0  0  0
 22 23  2  0  0  0
 23 24  1  0  0  0
 22 10  1  0  0  0
 10 11  1  0  0  0
 11 12  2  0  0  0
 12 13  1  0  0  0
 13 14  2  0  0  0
 14 15  1  0  0  0
 15 16  2  0  0  0
 12  1  1  0  0  0
  1  2  2  0  0  0
  2  3  1  0  0  0
  3  4  2  0  0  0
  4  5  1  0  0  0
  5  6  2  0  0  0
  6  7  1  0  0  0
  3 29  1  0  0  0
 29 30  1  0  0  0
 30 31  2  0  0  0
 31 32  1  0  0  0
 32 33  1  0  0  0
 32 34  1  0  0  0
 34 35  1  0  0  0
 35 36  1  0  0  0
 36 37  1  0  0  0
 37 38  1  0  0  0
 38 39  1  0  0  0
 23 17  1  0  0  0
 15 10  1  0  0  0
  6  1  1  0  0  0
 33 29  2  0  0  0
 39 34  1  0  0  0
  7  8  1  0  0  0
  7  9  1  0  0  0
 37 40  1  0  0  0
M  END
> <minimizedAffinity>
-7.76549

> <CNNscore>
0.3798800111

> <CNNaffinity>
7.3620362282

> <CNN_VS>
2.7966904640

> <CNNaffinity_variance>
0.1672598571

$$$$
[H]c1nc(N([H])[H])c(-c2nn(-c3c(Cl)c(OC([H])([H])[H])c([H])c(OC([H])([H])[H])c3Cl)c(=O)c([H])c2[H])nc1-c1c([H])nn(C2([H])C([H])([H])C([H])([H])N([H])C([H])([H])C2([H])[H])c1[H]


 40 44  0  0  0  0  0  0  0  0999 V2000
    0.3246   18.4962  -20.4435 C   0  0  0  0  0  0  0  0  0  0  0  0
   -0.5662   17.5274  -20.0861 N   0  0  0  0  0  0  0  0  0  0  0  0
   -0.1837   16.2795  -19.8316 C   0  0  0  0  0  0  0  0  0  0  0  0
    1.1436   15.9667  -19.9339 C   0  0  0  0  0  0  0  0  0  0  0  0
    2.0790   16.8833  -20.2847 N   0  0  0  0  0  0  0  0  0  0  0  0
    1.6433   18.1350  -20.5328 C   0  0  0  0  0  0  0  0  0  0  0  0
    2.5951   19.1011  -20.8992 N   0  0  0  0  0  0  0  0  0  0  0  0
    2.8560   19.1667  -21.9078 H   0  0  0  0  0  0  0  0  0  0  0  0
    3.0058   19.7111  -20.1778 H   0  0  0  0  0  0  0  0  0  0  0  0
   -0.8470   21.4591  -22.2329 N   0  0  0  0  0  0  0  0  0  0  0  0
   -0.4623   20.2100  -21.9619 N   0  0  0  0  0  0  0  0  0  0  0  0
   -0.0909   19.8552  -20.7200 C   0  0  0  0  0  0  0  0  0  0  0  0
   -0.1156   20.8080  -19.7305 C   0  0  0  0  0  0  0  0  0  0  0  0
   -0.5123   22.1092  -19.9931 C   0  0  0  0  0  0  0  0  0  0  0  0
   -0.8811   22.4091  -21.2882 C   0  0  0  0  0  0  0  0  0  0  0  0
   -1.2481   23.5729  -21.5777 O   0  0  0  0  0  0  0  0  0  0  0  0
   -2.9383   22.0574  -25.2471 C   0  0  0  0  0  0  0  0  0  0  0  0
   -1.9619   22.2758  -26.1867 C   0  0  0  0  0  0  0  0  0  0  0  0
   -0.6121   22.2333  -25.8519 C   0  0  0  0  0  0  0  0  0  0  0  0
   -0.2718   21.9665  -24.5543 C   0  0  0  0  0  0  0  0  0  0  0  0
    1.4245   21.9120  -24.1269 Cl  0  0  0  0  0  0  0  0  0  0  0  0
   -1.2198   21.7418  -23.5835 C   0  0  0  0  0  0  0  0  0  0  0  0
   -2.5605   21.7923  -23.9535 C   0  0  0  0  0  0  0  0  0  0  0  0
   -3.7788   21.5089  -22.7382 Cl  0  0  0  0  0  0  0  0  0  0  0  0
   -4.9596   23.1396  -26.2055 C   0  0  0  0  0  0  0  0  0  0  0  0
   -4.2586   22.1061  -25.6044 O   0  0  0  0  0  0  0  0  0  0  0  0
    0.3578   22.4559  -26.8117 O   0  0  0  0  0  0  0  0  0  0  0  0
   -0.0379   22.9514  -28.0704 C   0  0  0  0  0  0  0  0  0  0  0  0
   -1.1535   15.2724  -19.4505 C   0  0  0  0  0  0  0  0  0  0  0  0
   -0.8834   14.1372  -18.6894 C   0  0  0  0  0  0  0  0  0  0  0  0
   -2.0380   13.4602  -18.5539 N   0  0  0  0  0  0  0  0  0  0  0  0
   -3.0192   14.1080  -19.1884 N   0  0  0  0  0  0  0  0  0  0  0  0
   -2.5023   15.2088  -19.7379 C   0  0  0  0  0  0  0  0  0  0  0  0
   -4.4154   13.7083  -19.2806 C   0  0  0  0  0  0  0  0  0  0  0  0
   -5.1547   14.7596  -20.0401 C   0  0  0  0  0  0  0  0  0  0  0  0
   -6.3894   15.2649  -19.3302 C   0  0  0  0  0  0  0  0  0  0  0  0
   -6.1480   15.6385  -17.9726 N   0  0  0  0  0  0  0  0  0  0  0  0
   -5.2312   14.8026  -17.2663 C   0  0  0  0  0  0  0  0  0  0  0  0
   -5.0067   13.4617  -17.9099 C   0  0  0  0  0  0  0  0  0  0  0  0
   -5.9185   16.6369  -17.8183 H   0  0  0  0  0  0  0  0  0  0  0  0
 25 26  1  0  0  0
 26 17  1  0  0  0
 17 18  2  0  0  0
 18 19  1  0  0  0
 19 27  1  0  0  0
 27 28  1  0  0  0
 19 20  2  0  0  0
 20 21  1  0  0  0
 20 22  1  0  0  0
 22 23  2  0  0  0
 23 24  1  0  0  0
 22 10  1  0  0  0
 10 11  1  0  0  0
 11 12  2  0  0  0
 12 13  1  0  0  0
 13 14  2  0  0  0
 14 15  1  0  0  0
 15 16  2  0  0  0
 12  1  1  0  0  0
  1  2  2  0  0  0
  2  3  1  0  0  0
  3  4  2  0  0  0
  4  5  1  0  0  0
  5  6  2  0  0  0
  6  7  1  0  0  0
  3 29  1  0  0  0
 29 30  1  0  0  0
 30 31  2  0  0  0
 31 32  1  0  0  0
 32 33  1  0  0  0
 32 34  1  0  0  0
 34 35  1  0  0  0
 35 36  1  0  0  0
 36 37  1  0  0  0
 37 38  1  0  0  0
 38 39  1  0  0  0
 23 17  1  0  0  0
 15 10  1  0  0  0
  6  1  1  0  0  0
 33 29  2  0  0  0
 39 34  1  0  0  0
  7  8  1  0  0  0
  7  9  1  0  0  0
 37 40  1  0  0  0
M  END
> <minimizedAffinity>
-7.13977

> <CNNscore>
0.1521333456

> <CNNaffinity>
6.6789884567

> <CNN_VS>
1.0160968304

> <CNNaffinity_variance>
0.0488125123

$$$$
[H]c1nc(N([H])[H])c(-c2nn(-c3c(Cl)c(OC([H])([H])[H])c([H])c(OC([H])([H])[H])c3Cl)c(=O)c([H])c2[H])nc1-c1c([H])nn(C2([H])C([H])([H])C([H])([H])N([H])C([H])([H])C2([H])[H])c1[H]


 40 44  0  0  0  0  0  0  0  0999 V2000
   -0.3762   21.8515  -23.6768 C   0  0  0  0  0  0  0  0  0  0  0  0
   -1.5932   22.3288  -24.0651 N   0  0  0  0  0  0  0  0  0  0  0  0
   -1.8305   22.7162  -25.3149 C   0  0  0  0  0  0  0  0  0  0  0  0
   -0.8192   22.6307  -26.2312 C   0  0  0  0  0  0  0  0  0  0  0  0
    0.4129   22.1655  -25.9091 N   0  0  0  0  0  0  0  0  0  0  0  0
    0.6056   21.7844  -24.6301 C   0  0  0  0  0  0  0  0  0  0  0  0
    1.8752   21.3002  -24.2734 N   0  0  0  0  0  0  0  0  0  0  0  0
    2.6025   21.9987  -24.0039 H   0  0  0  0  0  0  0  0  0  0  0  0
    2.0557   20.2860  -24.2857 H   0  0  0  0  0  0  0  0  0  0  0  0
    1.3861   21.0844  -20.5688 N   0  0  0  0  0  0  0  0  0  0  0  0
    1.1311   21.4716  -21.8206 N   0  0  0  0  0  0  0  0  0  0  0  0
   -0.1173   21.4286  -22.3166 C   0  0  0  0  0  0  0  0  0  0  0  0
   -1.1301   20.9764  -21.5059 C   0  0  0  0  0  0  0  0  0  0  0  0
   -0.8843   20.5708  -20.2042 C   0  0  0  0  0  0  0  0  0  0  0  0
    0.4185   20.6391  -19.7555 C   0  0  0  0  0  0  0  0  0  0  0  0
    0.6935   20.2834  -18.5846 O   0  0  0  0  0  0  0  0  0  0  0  0
    4.9798   20.2541  -20.1077 C   0  0  0  0  0  0  0  0  0  0  0  0
    5.3704   21.2879  -19.2936 C   0  0  0  0  0  0  0  0  0  0  0  0
    4.4713   22.2683  -18.8862 C   0  0  0  0  0  0  0  0  0  0  0  0
    3.1759   22.1824  -19.3164 C   0  0  0  0  0  0  0  0  0  0  0  0
    2.0402   23.4130  -18.8076 Cl  0  0  0  0  0  0  0  0  0  0  0  0
    2.7449   21.1624  -20.1324 C   0  0  0  0  0  0  0  0  0  0  0  0
    3.6711   20.1990  -20.5208 C   0  0  0  0  0  0  0  0  0  0  0  0
    3.1452   18.8962  -21.5542 Cl  0  0  0  0  0  0  0  0  0  0  0  0
    6.2269   18.1189  -19.8607 C   0  0  0  0  0  0  0  0  0  0  0  0
    5.8858   19.3037  -20.4937 O   0  0  0  0  0  0  0  0  0  0  0  0
    4.8826   23.3025  -18.0660 O   0  0  0  0  0  0  0  0  0  0  0  0
    4.9646   23.0728  -16.6778 C   0  0  0  0  0  0  0  0  0  0  0  0
   -3.1356   23.2160  -25.6985 C   0  0  0  0  0  0  0  0  0  0  0  0
   -4.0228   23.8868  -24.8595 C   0  0  0  0  0  0  0  0  0  0  0  0
   -5.1154   24.1848  -25.5857 N   0  0  0  0  0  0  0  0  0  0  0  0
   -4.9632   23.7378  -26.8356 N   0  0  0  0  0  0  0  0  0  0  0  0
   -3.7694   23.1479  -26.9230 C   0  0  0  0  0  0  0  0  0  0  0  0
   -5.9141   23.8590  -27.9303 C   0  0  0  0  0  0  0  0  0  0  0  0
   -5.4074   23.0562  -29.0824 C   0  0  0  0  0  0  0  0  0  0  0  0
   -5.3469   23.8289  -30.3798 C   0  0  0  0  0  0  0  0  0  0  0  0
   -4.6843   25.0886  -30.2572 N   0  0  0  0  0  0  0  0  0  0  0  0
   -4.9339   25.7903  -29.0393 C   0  0  0  0  0  0  0  0  0  0  0  0
   -6.1489   25.3086  -28.2946 C   0  0  0  0  0  0  0  0  0  0  0  0
   -3.6701   25.0822  -30.4686 H   0  0  0  0  0  0  0  0  0  0  0  0
 25 26  1  0  0  0
 26 17  1  0  0  0
 17 18  2  0  0  0
 18 19  1  0  0  0
 19 27  1  0  0  0
 27 28  1  0  0  0
 19 20  2  0  0  0
 20 21  1  0  0  0
 20 22  1  0  0  0
 22 23  2  0  0  0
 23 24  1  0  0  0
 22 10  1  0  0  0
 10 11  1  0  0  0
 11 12  2  0  0  0
 12 13  1  0  0  0
 13 14  2  0  0  0
 14 15  1  0  0  0
 15 16  2  0  0  0
 12  1  1  0  0  0
  1  2  2  0  0  0
  2  3  1  0  0  0
  3  4  2  0  0  0
  4  5  1  0  0  0
  5  6  2  0  0  0
  6  7  1  0  0  0
  3 29  1  0  0  0
 29 30  1  0  0  0
 30 31  2  0  0  0
 31 32  1  0  0  0
 32 33  1  0  0  0
 32 34  1  0  0  0
 34 35  1  0  0  0
 35 36  1  0  0  0
 36 37  1  0  0  0
 37 38  1  0  0  0
 38 39  1  0  0  0
 23 17  1  0  0  0
 15 10  1  0  0  0
  6  1  1  0  0  0
 33 29  2  0  0  0
 39 34  1  0  0  0
  7  8  1  0  0  0
  7  9  1  0  0  0
 37 40  1  0  0  0
M  END
> <minimizedAffinity>
-8.17253

> <CNNscore>
0.1382333338

> <CNNaffinity>
7.1772551537

> <CNN_VS>
0.9921358824

> <CNNaffinity_variance>
0.2219684571

$$$$
[H]c1nc(N([H])[H])c(-c2nn(-c3c(Cl)c(OC([H])([H])[H])c([H])c(OC([H])([H])[H])c3Cl)c(=O)c([H])c2[H])nc1-c1c([H])nn(C2([H])C([H])([H])C([H])([H])N([H])C([H])([H])C2([H])[H])c1[H]


 40 44  0  0  0  0  0  0  0  0999 V2000
    0.3609   18.6361  -20.5740 C   0  0  0  0  0  0  0  0  0  0  0  0
   -0.4669   17.6588  -20.1057 N   0  0  0  0  0  0  0  0  0  0  0  0
   -0.0417   16.4157  -19.8999 C   0  0  0  0  0  0  0  0  0  0  0  0
    1.2653   16.1168  -20.1688 C   0  0  0  0  0  0  0  0  0  0  0  0
    2.1389   17.0424  -20.6362 N   0  0  0  0  0  0  0  0  0  0  0  0
    1.6617   18.2887  -20.8288 C   0  0  0  0  0  0  0  0  0  0  0  0
    2.5489   19.2639  -21.3139 N   0  0  0  0  0  0  0  0  0  0  0  0
    2.6795   19.3296  -22.3475 H   0  0  0  0  0  0  0  0  0  0  0  0
    3.0409   19.8801  -20.6510 H   0  0  0  0  0  0  0  0  0  0  0  0
   -0.9763   21.6056  -22.2314 N   0  0  0  0  0  0  0  0  0  0  0  0
   -0.5480   20.3610  -22.0093 N   0  0  0  0  0  0  0  0  0  0  0  0
   -0.1009   19.9898  -20.7975 C   0  0  0  0  0  0  0  0  0  0  0  0
   -0.0938   20.9210  -19.7873 C   0  0  0  0  0  0  0  0  0  0  0  0
   -0.5348   22.2172  -19.9993 C   0  0  0  0  0  0  0  0  0  0  0  0
   -0.9810   22.5347  -21.2656 C   0  0  0  0  0  0  0  0  0  0  0  0
   -1.3906   23.6948  -21.5089 O   0  0  0  0  0  0  0  0  0  0  0  0
   -0.9409   22.5643  -25.8226 C   0  0  0  0  0  0  0  0  0  0  0  0
   -2.2820   22.5028  -26.1086 C   0  0  0  0  0  0  0  0  0  0  0  0
   -3.2139   22.1472  -25.1385 C   0  0  0  0  0  0  0  0  0  0  0  0
   -2.7642   21.8568  -23.8800 C   0  0  0  0  0  0  0  0  0  0  0  0
   -3.9316   21.4085  -22.6554 Cl  0  0  0  0  0  0  0  0  0  0  0  0
   -1.4291   21.9070  -23.5532 C   0  0  0  0  0  0  0  0  0  0  0  0
   -0.5246   22.2662  -24.5481 C   0  0  0  0  0  0  0  0  0  0  0  0
    1.1729   22.3374  -24.1546 Cl  0  0  0  0  0  0  0  0  0  0  0  0
    0.1581   22.3389  -28.0399 C   0  0  0  0  0  0  0  0  0  0  0  0
   -0.0463   22.9163  -26.7966 O   0  0  0  0  0  0  0  0  0  0  0  0
   -4.5609   22.0904  -25.4448 O   0  0  0  0  0  0  0  0  0  0  0  0
   -5.3084   23.2853  -25.4309 C   0  0  0  0  0  0  0  0  0  0  0  0
   -0.9446   15.3994  -19.3980 C   0  0  0  0  0  0  0  0  0  0  0  0
   -0.5937   14.3582  -18.5414 C   0  0  0  0  0  0  0  0  0  0  0  0
   -1.7052   13.6366  -18.3096 N   0  0  0  0  0  0  0  0  0  0  0  0
   -2.7356   14.1674  -18.9740 N   0  0  0  0  0  0  0  0  0  0  0  0
   -2.2940   15.2366  -19.6393 C   0  0  0  0  0  0  0  0  0  0  0  0
   -4.1090   13.6868  -18.9880 C   0  0  0  0  0  0  0  0  0  0  0  0
   -4.8946   14.5401  -19.9279 C   0  0  0  0  0  0  0  0  0  0  0  0
   -6.1588   15.1044  -19.3218 C   0  0  0  0  0  0  0  0  0  0  0  0
   -5.9471   15.7348  -18.0575 N   0  0  0  0  0  0  0  0  0  0  0  0
   -4.9947   15.0921  -17.2101 C   0  0  0  0  0  0  0  0  0  0  0  0
   -4.6977   13.6684  -17.5944 C   0  0  0  0  0  0  0  0  0  0  0  0
   -5.7695   16.7549  -18.0913 H   0  0  0  0  0  0  0  0  0  0  0  0
 25 26  1  0  0  0
 26 17  1  0  0  0
 17 18  2  0  0  0
 18 19  1  0  0  0
 19 27  1  0  0  0
 27 28  1  0  0  0
 19 20  2  0  0  0
 20 21  1  0  0  0
 20 22  1  0  0  0
 22 23  2  0  0  0
 23 24  1  0  0  0
 22 10  1  0  0  0
 10 11  1  0  0  0
 11 12  2  0  0  0
 12 13  1  0  0  0
 13 14  2  0  0  0
 14 15  1  0  0  0
 15 16  2  0  0  0
 12  1  1  0  0  0
  1  2  2  0  0  0
  2  3  1  0  0  0
  3  4  2  0  0  0
  4  5  1  0  0  0
  5  6  2  0  0  0
  6  7  1  0  0  0
  3 29  1  0  0  0
 29 30  1  0  0  0
 30 31  2  0  0  0
 31 32  1  0  0  0
 32 33  1  0  0  0
 32 34  1  0  0  0
 34 35  1  0  0  0
 35 36  1  0  0  0
 36 37  1  0  0  0
 37 38  1  0  0  0
 38 39  1  0  0  0
 23 17  1  0  0  0
 15 10  1  0  0  0
  6  1  1  0  0  0
 33 29  2  0  0  0
 39 34  1  0  0  0
  7  8  1  0  0  0
  7  9  1  0  0  0
 37 40  1  0  0  0
M  END
> <minimizedAffinity>
-6.82566

> <CNNscore>
0.1370847374

> <CNNaffinity>
6.5213713646

> <CNN_VS>
0.8939805031

> <CNNaffinity_variance>
0.0689868480

$$$$
[H]c1nc(N([H])[H])c(-c2nn(-c3c(Cl)c(OC([H])([H])[H])c([H])c(OC([H])([H])[H])c3Cl)c(=O)c([H])c2[H])nc1-c1c([H])nn(C2([H])C([H])([H])C([H])([H])N([H])C([H])([H])C2([H])[H])c1[H]


 40 44  0  0  0  0  0  0  0  0999 V2000
   -0.4798   22.1086  -23.7900 C   0  0  0  0  0  0  0  0  0  0  0  0
   -1.6711   22.6053  -24.2303 N   0  0  0  0  0  0  0  0  0  0  0  0
   -1.8953   22.8589  -25.5163 C   0  0  0  0  0  0  0  0  0  0  0  0
   -0.8967   22.6118  -26.4171 C   0  0  0  0  0  0  0  0  0  0  0  0
    0.3099   22.1186  -26.0441 N   0  0  0  0  0  0  0  0  0  0  0  0
    0.4901   21.8772  -24.7298 C   0  0  0  0  0  0  0  0  0  0  0  0
    1.7333   21.3670  -24.3202 N   0  0  0  0  0  0  0  0  0  0  0  0
    2.5002   22.0501  -24.1336 H   0  0  0  0  0  0  0  0  0  0  0  0
    1.8571   20.3497  -24.2154 H   0  0  0  0  0  0  0  0  0  0  0  0
    0.8773   20.6101  -20.7460 N   0  0  0  0  0  0  0  0  0  0  0  0
    0.6416   20.8780  -22.0323 N   0  0  0  0  0  0  0  0  0  0  0  0
   -0.2352   21.8315  -22.3903 C   0  0  0  0  0  0  0  0  0  0  0  0
   -0.8867   22.5283  -21.4015 C   0  0  0  0  0  0  0  0  0  0  0  0
   -0.6545   22.2642  -20.0614 C   0  0  0  0  0  0  0  0  0  0  0  0
    0.2570   21.2733  -19.7605 C   0  0  0  0  0  0  0  0  0  0  0  0
    0.5025   20.9960  -18.5622 O   0  0  0  0  0  0  0  0  0  0  0  0
    2.2929   17.2652  -19.9554 C   0  0  0  0  0  0  0  0  0  0  0  0
    3.6310   17.5675  -19.9079 C   0  0  0  0  0  0  0  0  0  0  0  0
    4.0897   18.8614  -20.1341 C   0  0  0  0  0  0  0  0  0  0  0  0
    3.1724   19.8383  -20.4077 C   0  0  0  0  0  0  0  0  0  0  0  0
    3.7433   21.4679  -20.6934 Cl  0  0  0  0  0  0  0  0  0  0  0  0
    1.8233   19.5764  -20.4640 C   0  0  0  0  0  0  0  0  0  0  0  0
    1.3996   18.2710  -20.2330 C   0  0  0  0  0  0  0  0  0  0  0  0
   -0.3069   17.9175  -20.2982 Cl  0  0  0  0  0  0  0  0  0  0  0  0
    1.5502   15.3718  -18.5278 C   0  0  0  0  0  0  0  0  0  0  0  0
    1.8698   15.9835  -19.7297 O   0  0  0  0  0  0  0  0  0  0  0  0
    5.4414   19.1474  -20.0823 O   0  0  0  0  0  0  0  0  0  0  0  0
    6.2333   18.8783  -21.2168 C   0  0  0  0  0  0  0  0  0  0  0  0
   -3.1732   23.3834  -25.9543 C   0  0  0  0  0  0  0  0  0  0  0  0
   -4.0004   24.2221  -25.2105 C   0  0  0  0  0  0  0  0  0  0  0  0
   -5.0855   24.4851  -25.9611 N   0  0  0  0  0  0  0  0  0  0  0  0
   -4.9853   23.8574  -27.1362 N   0  0  0  0  0  0  0  0  0  0  0  0
   -3.8329   23.1846  -27.1505 C   0  0  0  0  0  0  0  0  0  0  0  0
   -5.9472   23.8846  -28.2278 C   0  0  0  0  0  0  0  0  0  0  0  0
   -5.3919   23.0878  -29.3617 C   0  0  0  0  0  0  0  0  0  0  0  0
   -5.3900   23.8282  -30.6791 C   0  0  0  0  0  0  0  0  0  0  0  0
   -4.8143   25.1329  -30.5936 N   0  0  0  0  0  0  0  0  0  0  0  0
   -5.1058   25.8480  -29.3929 C   0  0  0  0  0  0  0  0  0  0  0  0
   -6.2818   25.3046  -28.6284 C   0  0  0  0  0  0  0  0  0  0  0  0
   -3.8030   25.1899  -30.8111 H   0  0  0  0  0  0  0  0  0  0  0  0
 25 26  1  0  0  0
 26 17  1  0  0  0
 17 18  2  0  0  0
 18 19  1  0  0  0
 19 27  1  0  0  0
 27 28  1  0  0  0
 19 20  2  0  0  0
 20 21  1  0  0  0
 20 22  1  0  0  0
 22 23  2  0  0  0
 23 24  1  0  0  0
 22 10  1  0  0  0
 10 11  1  0  0  0
 11 12  2  0  0  0
 12 13  1  0  0  0
 13 14  2  0  0  0
 14 15  1  0  0  0
 15 16  2  0  0  0
 12  1  1  0  0  0
  1  2  2  0  0  0
  2  3  1  0  0  0
  3  4  2  0  0  0
  4  5  1  0  0  0
  5  6  2  0  0  0
  6  7  1  0  0  0
  3 29  1  0  0  0
 29 30  1  0  0  0
 30 31  2  0  0  0
 31 32  1  0  0  0
 32 33  1  0  0  0
 32 34  1  0  0  0
 34 35  1  0  0  0
 35 36  1  0  0  0
 36 37  1  0  0  0
 37 38  1  0  0  0
 38 39  1  0  0  0
 23 17  1  0  0  0
 15 10  1  0  0  0
  6  1  1  0  0  0
 33 29  2  0  0  0
 39 34  1  0  0  0
  7  8  1  0  0  0
  7  9  1  0  0  0
 37 40  1  0  0  0
M  END
> <minimizedAffinity>
-7.84801

> <CNNscore>
0.1346493810

> <CNNaffinity>
7.2376403809

> <CNN_VS>
0.9745438099

> <CNNaffinity_variance>
0.3571820557

$$$$
