[H]c1c([H])c([H])c(N2C([H])([H])C([H])([H])N(C(=O)C([H])([H])Sc3nnc([H])n3-c3c([H])c([H])c([H])c([H])c3C([H])([H])[H])C([H])([H])C2([H])[H])c([H])c1[H]


 28 31  0  0  0  0  0  0  0  0999 V2000
   -1.7159   22.0642  -21.6201 C   0  0  0  0  0  0  0  0  0  0  0  0
   -0.6309   21.1600  -21.1909 C   0  0  0  0  0  0  0  0  0  0  0  0
   -0.4868   20.0590  -21.7668 O   0  0  0  0  0  0  0  0  0  0  0  0
    0.2479   21.5149  -20.1430 N   0  0  0  0  0  0  0  0  0  0  0  0
    0.0729   22.7663  -19.4706 C   0  0  0  0  0  0  0  0  0  0  0  0
    1.1112   23.0089  -18.3921 C   0  0  0  0  0  0  0  0  0  0  0  0
    2.4230   22.5798  -18.8145 N   0  0  0  0  0  0  0  0  0  0  0  0
    2.6008   21.5009  -19.7847 C   0  0  0  0  0  0  0  0  0  0  0  0
    1.3283   20.6435  -19.7321 C   0  0  0  0  0  0  0  0  0  0  0  0
    3.5655   23.2031  -18.2800 C   0  0  0  0  0  0  0  0  0  0  0  0
    3.4458   24.2495  -17.4007 C   0  0  0  0  0  0  0  0  0  0  0  0
    4.5950   24.8466  -16.9005 C   0  0  0  0  0  0  0  0  0  0  0  0
    5.8552   24.4172  -17.2623 C   0  0  0  0  0  0  0  0  0  0  0  0
    5.9793   23.3592  -18.1507 C   0  0  0  0  0  0  0  0  0  0  0  0
    4.8415   22.7673  -18.6467 C   0  0  0  0  0  0  0  0  0  0  0  0
   -2.4646   21.5221  -23.1852 S   0  0  0  0  0  0  0  0  0  0  0  0
   -1.7323   22.8117  -25.5846 N   0  0  0  0  0  0  0  0  0  0  0  0
   -0.6737   22.9184  -26.3929 C   0  0  0  0  0  0  0  0  0  0  0  0
    0.3068   22.1767  -25.8597 N   0  0  0  0  0  0  0  0  0  0  0  0
   -0.1362   21.6335  -24.7618 N   0  0  0  0  0  0  0  0  0  0  0  0
   -1.4048   22.0129  -24.5667 C   0  0  0  0  0  0  0  0  0  0  0  0
   -2.9421   22.4886  -28.0907 C   0  0  0  0  0  0  0  0  0  0  0  0
   -3.5873   23.2931  -27.0123 C   0  0  0  0  0  0  0  0  0  0  0  0
   -4.8044   23.9052  -27.2200 C   0  0  0  0  0  0  0  0  0  0  0  0
   -5.3831   24.6485  -26.1969 C   0  0  0  0  0  0  0  0  0  0  0  0
   -4.7857   24.8027  -24.9660 C   0  0  0  0  0  0  0  0  0  0  0  0
   -3.5690   24.1929  -24.7535 C   0  0  0  0  0  0  0  0  0  0  0  0
   -2.9896   23.4476  -25.7811 C   0  0  0  0  0  0  0  0  0  0  0  0
 22 23  1  0  0  0
 23 24  2  0  0  0
 24 25  1  0  0  0
 25 26  2  0  0  0
 26 27  1  0  0  0
 27 28  2  0  0  0
 28 17  1  0  0  0
 17 18  1  0  0  0
 18 19  2  0  0  0
 19 20  1  0  0  0
 20 21  2  0  0  0
 21 16  1  0  0  0
 16  1  1  0  0  0
  1  2  1  0  0  0
  2  3  2  0  0  0
  2  4  1  0  0  0
  4  5  1  0  0  0
  5  6  1  0  0  0
  6  7  1  0  0  0
  7 10  1  0  0  0
 10 11  2  0  0  0
 11 12  1  0  0  0
 12 13  2  0  0  0
 13 14  1  0  0  0
 14 15  2  0  0  0
  7  8  1  0  0  0
  8  9  1  0  0  0
 28 23  1  0  0  0
 21 17  1  0  0  0
  9  4  1  0  0  0
 15 10  1  0  0  0
M  END
> <minimizedAffinity>
-7.34104

> <CNNscore>
0.2236828208

> <CNNaffinity>
5.5695781708

> <CNN_VS>
1.2458189726

> <CNNaffinity_variance>
0.3518009186

$$$$
[H]c1c([H])c([H])c(N2C([H])([H])C([H])([H])N(C(=O)C([H])([H])Sc3nnc([H])n3-c3c([H])c([H])c([H])c([H])c3C([H])([H])[H])C([H])([H])C2([H])[H])c([H])c1[H]


 28 31  0  0  0  0  0  0  0  0999 V2000
   -5.2466   23.1200  -21.0026 C   0  0  0  0  0  0  0  0  0  0  0  0
   -5.3255   22.1535  -22.1155 C   0  0  0  0  0  0  0  0  0  0  0  0
   -6.3964   21.5400  -22.3196 O   0  0  0  0  0  0  0  0  0  0  0  0
   -4.2153   21.9090  -22.9545 N   0  0  0  0  0  0  0  0  0  0  0  0
   -2.9836   22.5963  -22.7109 C   0  0  0  0  0  0  0  0  0  0  0  0
   -1.9013   22.2446  -23.7133 C   0  0  0  0  0  0  0  0  0  0  0  0
   -2.4325   22.1424  -25.0515 N   0  0  0  0  0  0  0  0  0  0  0  0
   -3.8221   21.7608  -25.2971 C   0  0  0  0  0  0  0  0  0  0  0  0
   -4.2923   20.9798  -24.0618 C   0  0  0  0  0  0  0  0  0  0  0  0
   -1.5992   22.4068  -26.1538 C   0  0  0  0  0  0  0  0  0  0  0  0
   -0.2406   22.2404  -26.0607 C   0  0  0  0  0  0  0  0  0  0  0  0
    0.5517   22.5199  -27.1660 C   0  0  0  0  0  0  0  0  0  0  0  0
    0.0114   22.9601  -28.3566 C   0  0  0  0  0  0  0  0  0  0  0  0
   -1.3619   23.1289  -28.4539 C   0  0  0  0  0  0  0  0  0  0  0  0
   -2.1475   22.8525  -27.3595 C   0  0  0  0  0  0  0  0  0  0  0  0
   -5.4952   24.8273  -21.5746 S   0  0  0  0  0  0  0  0  0  0  0  0
   -7.4275   25.3364  -23.5655 N   0  0  0  0  0  0  0  0  0  0  0  0
   -8.7561   25.3432  -23.7068 C   0  0  0  0  0  0  0  0  0  0  0  0
   -9.2809   24.9943  -22.5242 N   0  0  0  0  0  0  0  0  0  0  0  0
   -8.3068   24.7813  -21.6863 N   0  0  0  0  0  0  0  0  0  0  0  0
   -7.1404   24.9875  -22.3096 C   0  0  0  0  0  0  0  0  0  0  0  0
   -6.8437   23.3130  -25.4131 C   0  0  0  0  0  0  0  0  0  0  0  0
   -6.1945   24.6539  -25.4956 C   0  0  0  0  0  0  0  0  0  0  0  0
   -5.2822   24.9369  -26.4889 C   0  0  0  0  0  0  0  0  0  0  0  0
   -4.6929   26.1955  -26.5422 C   0  0  0  0  0  0  0  0  0  0  0  0
   -4.9846   27.1876  -25.6332 C   0  0  0  0  0  0  0  0  0  0  0  0
   -5.8959   26.9096  -24.6383 C   0  0  0  0  0  0  0  0  0  0  0  0
   -6.4861   25.6463  -24.5860 C   0  0  0  0  0  0  0  0  0  0  0  0
 22 23  1  0  0  0
 23 24  2  0  0  0
 24 25  1  0  0  0
 25 26  2  0  0  0
 26 27  1  0  0  0
 27 28  2  0  0  0
 28 17  1  0  0  0
 17 18  1  0  0  0
 18 19  2  0  0  0
 19 20  1  0  0  0
 20 21  2  0  0  0
 21 16  1  0  0  0
 16  1  1  0  0  0
  1  2  1  0  0  0
  2  3  2  0  0  0
  2  4  1  0  0  0
  4  5  1  0  0  0
  5  6  1  0  0  0
  6  7  1  0  0  0
  7 10  1  0  0  0
 10 11  2  0  0  0
 11 12  1  0  0  0
 12 13  2  0  0  0
 13 14  1  0  0  0
 14 15  2  0  0  0
  7  8  1  0  0  0
  8  9  1  0  0  0
 28 23  1  0  0  0
 21 17  1  0  0  0
  9  4  1  0  0  0
 15 10  1  0  0  0
M  END
> <minimizedAffinity>
-8.24096

> <CNNscore>
0.2173519731

> <CNNaffinity>
5.7271056175

> <CNN_VS>
1.2447977066

> <CNNaffinity_variance>
0.7491781116

$$$$
[H]c1c([H])c([H])c(N2C([H])([H])C([H])([H])N(C(=O)C([H])([H])Sc3nnc([H])n3-c3c([H])c([H])c([H])c([H])c3C([H])([H])[H])C([H])([H])C2([H])[H])c([H])c1[H]


 28 31  0  0  0  0  0  0  0  0999 V2000
   -3.9923   23.3696  -21.6012 C   0  0  0  0  0  0  0  0  0  0  0  0
   -4.7862   24.4545  -22.2107 C   0  0  0  0  0  0  0  0  0  0  0  0
   -4.9593   25.5183  -21.5758 O   0  0  0  0  0  0  0  0  0  0  0  0
   -5.3535   24.3144  -23.4972 N   0  0  0  0  0  0  0  0  0  0  0  0
   -5.1721   23.0908  -24.2172 C   0  0  0  0  0  0  0  0  0  0  0  0
   -5.8178   23.1104  -25.5894 C   0  0  0  0  0  0  0  0  0  0  0  0
   -5.6293   24.3826  -26.2447 N   0  0  0  0  0  0  0  0  0  0  0  0
   -5.4693   25.6203  -25.4835 C   0  0  0  0  0  0  0  0  0  0  0  0
   -6.1138   25.3827  -24.1105 C   0  0  0  0  0  0  0  0  0  0  0  0
   -5.6051   24.4454  -27.6500 C   0  0  0  0  0  0  0  0  0  0  0  0
   -5.7677   25.6424  -28.3005 C   0  0  0  0  0  0  0  0  0  0  0  0
   -5.7475   25.6653  -29.6885 C   0  0  0  0  0  0  0  0  0  0  0  0
   -5.5678   24.5179  -30.4332 C   0  0  0  0  0  0  0  0  0  0  0  0
   -5.4027   23.3063  -29.7782 C   0  0  0  0  0  0  0  0  0  0  0  0
   -5.4228   23.2827  -28.4034 C   0  0  0  0  0  0  0  0  0  0  0  0
   -2.2072   23.6465  -21.8029 S   0  0  0  0  0  0  0  0  0  0  0  0
   -0.8044   21.3364  -22.6107 N   0  0  0  0  0  0  0  0  0  0  0  0
   -0.2453   20.2513  -22.0675 C   0  0  0  0  0  0  0  0  0  0  0  0
   -0.4294   20.3333  -20.7427 N   0  0  0  0  0  0  0  0  0  0  0  0
   -1.0797   21.4315  -20.4828 N   0  0  0  0  0  0  0  0  0  0  0  0
   -1.3263   22.0759  -21.6298 C   0  0  0  0  0  0  0  0  0  0  0  0
    1.6674   21.6440  -23.8928 C   0  0  0  0  0  0  0  0  0  0  0  0
    0.3814   21.7992  -24.6333 C   0  0  0  0  0  0  0  0  0  0  0  0
    0.3727   22.1015  -25.9778 C   0  0  0  0  0  0  0  0  0  0  0  0
   -0.8408   22.2396  -26.6431 C   0  0  0  0  0  0  0  0  0  0  0  0
   -2.0533   22.0853  -26.0092 C   0  0  0  0  0  0  0  0  0  0  0  0
   -2.0499   21.7832  -24.6652 C   0  0  0  0  0  0  0  0  0  0  0  0
   -0.8316   21.6451  -23.9992 C   0  0  0  0  0  0  0  0  0  0  0  0
 22 23  1  0  0  0
 23 24  2  0  0  0
 24 25  1  0  0  0
 25 26  2  0  0  0
 26 27  1  0  0  0
 27 28  2  0  0  0
 28 17  1  0  0  0
 17 18  1  0  0  0
 18 19  2  0  0  0
 19 20  1  0  0  0
 20 21  2  0  0  0
 21 16  1  0  0  0
 16  1  1  0  0  0
  1  2  1  0  0  0
  2  3  2  0  0  0
  2  4  1  0  0  0
  4  5  1  0  0  0
  5  6  1  0  0  0
  6  7  1  0  0  0
  7 10  1  0  0  0
 10 11  2  0  0  0
 11 12  1  0  0  0
 12 13  2  0  0  0
 13 14  1  0  0  0
 14 15  2  0  0  0
  7  8  1  0  0  0
  8  9  1  0  0  0
 28 23  1  0  0  0
 21 17  1  0  0  0
  9  4  1  0  0  0
 15 10  1  0  0  0
M  END
> <minimizedAffinity>
-8.78839

> <CNNscore>
0.2015597522

> <CNNaffinity>
5.9699840546

> <CNN_VS>
1.2033084631

> <CNNaffinity_variance>
0.3372568190

$$$$
[H]c1c([H])c([H])c(N2C([H])([H])C([H])([H])N(C(=O)C([H])([H])Sc3nnc([H])n3-c3c([H])c([H])c([H])c([H])c3C([H])([H])[H])C([H])([H])C2([H])[H])c([H])c1[H]


 28 31  0  0  0  0  0  0  0  0999 V2000
   -6.1053   22.1579  -22.9186 C   0  0  0  0  0  0  0  0  0  0  0  0
   -6.1190   23.5867  -23.2890 C   0  0  0  0  0  0  0  0  0  0  0  0
   -5.9621   24.4520  -22.3994 O   0  0  0  0  0  0  0  0  0  0  0  0
   -6.3051   23.9952  -24.6288 N   0  0  0  0  0  0  0  0  0  0  0  0
   -6.5034   23.0070  -25.6451 C   0  0  0  0  0  0  0  0  0  0  0  0
   -6.6601   23.6055  -27.0298 C   0  0  0  0  0  0  0  0  0  0  0  0
   -5.7436   24.7006  -27.2397 N   0  0  0  0  0  0  0  0  0  0  0  0
   -5.2610   25.5194  -26.1290 C   0  0  0  0  0  0  0  0  0  0  0  0
   -6.2967   25.3936  -25.0028 C   0  0  0  0  0  0  0  0  0  0  0  0
   -5.3036   25.0009  -28.5418 C   0  0  0  0  0  0  0  0  0  0  0  0
   -4.1386   25.6965  -28.7445 C   0  0  0  0  0  0  0  0  0  0  0  0
   -3.7399   25.9833  -30.0431 C   0  0  0  0  0  0  0  0  0  0  0  0
   -4.4822   25.5878  -31.1367 C   0  0  0  0  0  0  0  0  0  0  0  0
   -5.6603   24.8840  -30.9349 C   0  0  0  0  0  0  0  0  0  0  0  0
   -6.0560   24.5997  -29.6490 C   0  0  0  0  0  0  0  0  0  0  0  0
   -4.4785   21.4020  -23.2113 S   0  0  0  0  0  0  0  0  0  0  0  0
   -2.1548   23.0002  -23.2626 N   0  0  0  0  0  0  0  0  0  0  0  0
   -1.4227   23.7471  -22.4310 C   0  0  0  0  0  0  0  0  0  0  0  0
   -2.0107   23.6909  -21.2281 N   0  0  0  0  0  0  0  0  0  0  0  0
   -3.0673   22.9346  -21.3194 N   0  0  0  0  0  0  0  0  0  0  0  0
   -3.1805   22.4909  -22.5771 C   0  0  0  0  0  0  0  0  0  0  0  0
    0.2986   21.8114  -23.9079 C   0  0  0  0  0  0  0  0  0  0  0  0
   -0.6762   22.2089  -24.9652 C   0  0  0  0  0  0  0  0  0  0  0  0
   -0.3953   22.0024  -26.2985 C   0  0  0  0  0  0  0  0  0  0  0  0
   -1.3226   22.3821  -27.2629 C   0  0  0  0  0  0  0  0  0  0  0  0
   -2.5282   22.9640  -26.9408 C   0  0  0  0  0  0  0  0  0  0  0  0
   -2.8137   23.1727  -25.6095 C   0  0  0  0  0  0  0  0  0  0  0  0
   -1.8821   22.7913  -24.6430 C   0  0  0  0  0  0  0  0  0  0  0  0
 22 23  1  0  0  0
 23 24  2  0  0  0
 24 25  1  0  0  0
 25 26  2  0  0  0
 26 27  1  0  0  0
 27 28  2  0  0  0
 28 17  1  0  0  0
 17 18  1  0  0  0
 18 19  2  0  0  0
 19 20  1  0  0  0
 20 21  2  0  0  0
 21 16  1  0  0  0
 16  1  1  0  0  0
  1  2  1  0  0  0
  2  3  2  0  0  0
  2  4  1  0  0  0
  4  5  1  0  0  0
  5  6  1  0  0  0
  6  7  1  0  0  0
  7 10  1  0  0  0
 10 11  2  0  0  0
 11 12  1  0  0  0
 12 13  2  0  0  0
 13 14  1  0  0  0
 14 15  2  0  0  0
  7  8  1  0  0  0
  8  9  1  0  0  0
 28 23  1  0  0  0
 21 17  1  0  0  0
  9  4  1  0  0  0
 15 10  1  0  0  0
M  END
> <minimizedAffinity>
-8.55084

> <CNNscore>
0.1960386932

> <CNNaffinity>
6.2301950455

> <CNN_VS>
1.2213592529

> <CNNaffinity_variance>
0.2548592985

$$$$
[H]c1c([H])c([H])c(N2C([H])([H])C([H])([H])N(C(=O)C([H])([H])Sc3nnc([H])n3-c3c([H])c([H])c([H])c([H])c3C([H])([H])[H])C([H])([H])C2([H])[H])c([H])c1[H]


 28 31  0  0  0  0  0  0  0  0999 V2000
   -5.7815   21.9076  -22.1881 C   0  0  0  0  0  0  0  0  0  0  0  0
   -7.0141   21.8863  -21.3761 C   0  0  0  0  0  0  0  0  0  0  0  0
   -8.0094   21.2515  -21.7896 O   0  0  0  0  0  0  0  0  0  0  0  0
   -7.0904   22.5682  -20.1409 N   0  0  0  0  0  0  0  0  0  0  0  0
   -5.9586   23.3103  -19.6752 C   0  0  0  0  0  0  0  0  0  0  0  0
   -6.1917   23.9596  -18.3246 C   0  0  0  0  0  0  0  0  0  0  0  0
   -6.9115   23.0820  -17.4329 N   0  0  0  0  0  0  0  0  0  0  0  0
   -7.8359   22.0679  -17.9368 C   0  0  0  0  0  0  0  0  0  0  0  0
   -8.2880   22.5326  -19.3285 C   0  0  0  0  0  0  0  0  0  0  0  0
   -6.7323   23.2020  -16.0426 C   0  0  0  0  0  0  0  0  0  0  0  0
   -7.2446   22.2603  -15.1864 C   0  0  0  0  0  0  0  0  0  0  0  0
   -7.0564   22.4160  -13.8197 C   0  0  0  0  0  0  0  0  0  0  0  0
   -6.3678   23.4913  -13.2974 C   0  0  0  0  0  0  0  0  0  0  0  0
   -5.8483   24.4448  -14.1606 C   0  0  0  0  0  0  0  0  0  0  0  0
   -6.0344   24.2914  -15.5144 C   0  0  0  0  0  0  0  0  0  0  0  0
   -6.1295   22.2911  -23.9304 S   0  0  0  0  0  0  0  0  0  0  0  0
   -4.5286   24.4253  -24.8463 N   0  0  0  0  0  0  0  0  0  0  0  0
   -4.5676   25.7588  -24.9214 C   0  0  0  0  0  0  0  0  0  0  0  0
   -5.7364   26.1500  -24.3956 N   0  0  0  0  0  0  0  0  0  0  0  0
   -6.3914   25.0920  -24.0108 N   0  0  0  0  0  0  0  0  0  0  0  0
   -5.6610   24.0031  -24.2800 C   0  0  0  0  0  0  0  0  0  0  0  0
   -4.4699   23.8043  -27.5775 C   0  0  0  0  0  0  0  0  0  0  0  0
   -3.4276   23.2934  -26.6401 C   0  0  0  0  0  0  0  0  0  0  0  0
   -2.4000   22.4950  -27.0938 C   0  0  0  0  0  0  0  0  0  0  0  0
   -1.4416   22.0334  -26.1979 C   0  0  0  0  0  0  0  0  0  0  0  0
   -1.4733   22.3431  -24.8567 C   0  0  0  0  0  0  0  0  0  0  0  0
   -2.4986   23.1407  -24.3982 C   0  0  0  0  0  0  0  0  0  0  0  0
   -3.4594   23.6029  -25.2983 C   0  0  0  0  0  0  0  0  0  0  0  0
 22 23  1  0  0  0
 23 24  2  0  0  0
 24 25  1  0  0  0
 25 26  2  0  0  0
 26 27  1  0  0  0
 27 28  2  0  0  0
 28 17  1  0  0  0
 17 18  1  0  0  0
 18 19  2  0  0  0
 19 20  1  0  0  0
 20 21  2  0  0  0
 21 16  1  0  0  0
 16  1  1  0  0  0
  1  2  1  0  0  0
  2  3  2  0  0  0
  2  4  1  0  0  0
  4  5  1  0  0  0
  5  6  1  0  0  0
  6  7  1  0  0  0
  7 10  1  0  0  0
 10 11  2  0  0  0
 11 12  1  0  0  0
 12 13  2  0  0  0
 13 14  1  0  0  0
 14 15  2  0  0  0
  7  8  1  0  0  0
  8  9  1  0  0  0
 28 23  1  0  0  0
 21 17  1  0  0  0
  9  4  1  0  0  0
 15 10  1  0  0  0
M  END
> <minimizedAffinity>
-6.79665

> <CNNscore>
0.1465494335

> <CNNaffinity>
5.1278824806

> <CNN_VS>
0.7514882684

> <CNNaffinity_variance>
0.2150402069

$$$$
[H]c1c([H])c([H])c(N2C([H])([H])C([H])([H])N(C(=O)C([H])([H])Sc3nnc([H])n3-c3c([H])c([H])c([H])c([H])c3C([H])([H])[H])C([H])([H])C2([H])[H])c([H])c1[H]


 28 31  0  0  0  0  0  0  0  0999 V2000
   -7.0023   22.6977  -22.7353 C   0  0  0  0  0  0  0  0  0  0  0  0
   -7.2332   21.8681  -21.5365 C   0  0  0  0  0  0  0  0  0  0  0  0
   -8.2355   21.1210  -21.4919 O   0  0  0  0  0  0  0  0  0  0  0  0
   -6.3435   21.9013  -20.4393 N   0  0  0  0  0  0  0  0  0  0  0  0
   -5.2063   22.7694  -20.4809 C   0  0  0  0  0  0  0  0  0  0  0  0
   -4.3383   22.6676  -19.2415 C   0  0  0  0  0  0  0  0  0  0  0  0
   -4.2016   21.2994  -18.8023 N   0  0  0  0  0  0  0  0  0  0  0  0
   -5.2390   20.3034  -19.0642 C   0  0  0  0  0  0  0  0  0  0  0  0
   -6.5511   21.0735  -19.2700 C   0  0  0  0  0  0  0  0  0  0  0  0
   -3.0492   20.9058  -18.0975 C   0  0  0  0  0  0  0  0  0  0  0  0
   -2.9278   19.6287  -17.6111 C   0  0  0  0  0  0  0  0  0  0  0  0
   -1.7805   19.2782  -16.9122 C   0  0  0  0  0  0  0  0  0  0  0  0
   -0.7579   20.1780  -16.6930 C   0  0  0  0  0  0  0  0  0  0  0  0
   -0.8777   21.4697  -17.1841 C   0  0  0  0  0  0  0  0  0  0  0  0
   -2.0138   21.8178  -17.8763 C   0  0  0  0  0  0  0  0  0  0  0  0
   -6.0757   21.7939  -24.0114 S   0  0  0  0  0  0  0  0  0  0  0  0
   -4.1848   23.4517  -25.2892 N   0  0  0  0  0  0  0  0  0  0  0  0
   -4.1110   24.2848  -26.3312 C   0  0  0  0  0  0  0  0  0  0  0  0
   -5.3191   24.3002  -26.9110 N   0  0  0  0  0  0  0  0  0  0  0  0
   -6.1067   23.5036  -26.2465 N   0  0  0  0  0  0  0  0  0  0  0  0
   -5.4249   22.9617  -25.2302 C   0  0  0  0  0  0  0  0  0  0  0  0
   -3.9047   25.0774  -23.0248 C   0  0  0  0  0  0  0  0  0  0  0  0
   -2.9747   23.9405  -23.2872 C   0  0  0  0  0  0  0  0  0  0  0  0
   -1.9438   23.6564  -22.4180 C   0  0  0  0  0  0  0  0  0  0  0  0
   -1.0924   22.5901  -22.6870 C   0  0  0  0  0  0  0  0  0  0  0  0
   -1.2354   21.7924  -23.8001 C   0  0  0  0  0  0  0  0  0  0  0  0
   -2.2643   22.0724  -24.6721 C   0  0  0  0  0  0  0  0  0  0  0  0
   -3.1176   23.1427  -24.4009 C   0  0  0  0  0  0  0  0  0  0  0  0
 22 23  1  0  0  0
 23 24  2  0  0  0
 24 25  1  0  0  0
 25 26  2  0  0  0
 26 27  1  0  0  0
 27 28  2  0  0  0
 28 17  1  0  0  0
 17 18  1  0  0  0
 18 19  2  0  0  0
 19 20  1  0  0  0
 20 21  2  0  0  0
 21 16  1  0  0  0
 16  1  1  0  0  0
  1  2  1  0  0  0
  2  3  2  0  0  0
  2  4  1  0  0  0
  4  5  1  0  0  0
  5  6  1  0  0  0
  6  7  1  0  0  0
  7 10  1  0  0  0
 10 11  2  0  0  0
 11 12  1  0  0  0
 12 13  2  0  0  0
 13 14  1  0  0  0
 14 15  2  0  0  0
  7  8  1  0  0  0
  8  9  1  0  0  0
 28 23  1  0  0  0
 21 17  1  0  0  0
  9  4  1  0  0  0
 15 10  1  0  0  0
M  END
> <minimizedAffinity>
-6.47039

> <CNNscore>
0.1385741532

> <CNNaffinity>
5.1804380417

> <CNN_VS>
0.7178748250

> <CNNaffinity_variance>
0.3204903007

$$$$
[H]c1c([H])c([H])c(N2C([H])([H])C([H])([H])N(C(=O)C([H])([H])Sc3nnc([H])n3-c3c([H])c([H])c([H])c([H])c3C([H])([H])[H])C([H])([H])C2([H])[H])c([H])c1[H]


 28 31  0  0  0  0  0  0  0  0999 V2000
   -6.3220   21.9469  -23.8290 C   0  0  0  0  0  0  0  0  0  0  0  0
   -6.4181   22.8347  -22.6538 C   0  0  0  0  0  0  0  0  0  0  0  0
   -7.3712   23.6406  -22.5708 O   0  0  0  0  0  0  0  0  0  0  0  0
   -5.4549   22.7909  -21.6209 N   0  0  0  0  0  0  0  0  0  0  0  0
   -4.3536   21.8825  -21.7233 C   0  0  0  0  0  0  0  0  0  0  0  0
   -3.4268   21.9386  -20.5241 C   0  0  0  0  0  0  0  0  0  0  0  0
   -4.1653   22.0608  -19.2900 N   0  0  0  0  0  0  0  0  0  0  0  0
   -5.4776   22.7030  -19.2427 C   0  0  0  0  0  0  0  0  0  0  0  0
   -5.5552   23.6424  -20.4545 C   0  0  0  0  0  0  0  0  0  0  0  0
   -3.6146   21.5598  -18.0961 C   0  0  0  0  0  0  0  0  0  0  0  0
   -4.3198   20.6801  -17.3145 C   0  0  0  0  0  0  0  0  0  0  0  0
   -3.7487   20.2136  -16.1382 C   0  0  0  0  0  0  0  0  0  0  0  0
   -2.4908   20.6092  -15.7326 C   0  0  0  0  0  0  0  0  0  0  0  0
   -1.7752   21.4982  -16.5211 C   0  0  0  0  0  0  0  0  0  0  0  0
   -2.3402   21.9609  -17.6863 C   0  0  0  0  0  0  0  0  0  0  0  0
   -6.0500   22.8855  -25.3616 S   0  0  0  0  0  0  0  0  0  0  0  0
   -3.7797   23.1270  -27.0181 N   0  0  0  0  0  0  0  0  0  0  0  0
   -2.4711   22.8589  -26.9855 C   0  0  0  0  0  0  0  0  0  0  0  0
   -2.2082   22.3191  -25.7875 N   0  0  0  0  0  0  0  0  0  0  0  0
   -3.3183   22.2581  -25.1089 N   0  0  0  0  0  0  0  0  0  0  0  0
   -4.3138   22.7553  -25.8528 C   0  0  0  0  0  0  0  0  0  0  0  0
   -4.3425   25.8661  -26.8468 C   0  0  0  0  0  0  0  0  0  0  0  0
   -4.7571   25.0584  -28.0308 C   0  0  0  0  0  0  0  0  0  0  0  0
   -5.4344   25.6403  -29.0805 C   0  0  0  0  0  0  0  0  0  0  0  0
   -5.8081   24.8636  -30.1720 C   0  0  0  0  0  0  0  0  0  0  0  0
   -5.5273   23.5181  -30.2528 C   0  0  0  0  0  0  0  0  0  0  0  0
   -4.8507   22.9317  -29.2060 C   0  0  0  0  0  0  0  0  0  0  0  0
   -4.4765   23.7123  -28.1115 C   0  0  0  0  0  0  0  0  0  0  0  0
 22 23  1  0  0  0
 23 24  2  0  0  0
 24 25  1  0  0  0
 25 26  2  0  0  0
 26 27  1  0  0  0
 27 28  2  0  0  0
 28 17  1  0  0  0
 17 18  1  0  0  0
 18 19  2  0  0  0
 19 20  1  0  0  0
 20 21  2  0  0  0
 21 16  1  0  0  0
 16  1  1  0  0  0
  1  2  1  0  0  0
  2  3  2  0  0  0
  2  4  1  0  0  0
  4  5  1  0  0  0
  5  6  1  0  0  0
  6  7  1  0  0  0
  7 10  1  0  0  0
 10 11  2  0  0  0
 11 12  1  0  0  0
 12 13  2  0  0  0
 13 14  1  0  0  0
 14 15  2  0  0  0
  7  8  1  0  0  0
  8  9  1  0  0  0
 28 23  1  0  0  0
 21 17  1  0  0  0
  9  4  1  0  0  0
 15 10  1  0  0  0
M  END
> <minimizedAffinity>
-7.01466

> <CNNscore>
0.1358692497

> <CNNaffinity>
5.5429682732

> <CNN_VS>
0.7531189322

> <CNNaffinity_variance>
0.2362059355

$$$$
[H]c1c([H])c([H])c(N2C([H])([H])C([H])([H])N(C(=O)C([H])([H])Sc3nnc([H])n3-c3c([H])c([H])c([H])c([H])c3C([H])([H])[H])C([H])([H])C2([H])[H])c([H])c1[H]


 28 31  0  0  0  0  0  0  0  0999 V2000
   -6.7390   23.1917  -21.6626 C   0  0  0  0  0  0  0  0  0  0  0  0
   -6.7096   23.5023  -23.1053 C   0  0  0  0  0  0  0  0  0  0  0  0
   -7.5635   24.2824  -23.5817 O   0  0  0  0  0  0  0  0  0  0  0  0
   -5.7353   22.9361  -23.9576 N   0  0  0  0  0  0  0  0  0  0  0  0
   -4.7690   22.0288  -23.4176 C   0  0  0  0  0  0  0  0  0  0  0  0
   -3.7794   21.5322  -24.4540 C   0  0  0  0  0  0  0  0  0  0  0  0
   -3.3734   22.5906  -25.3476 N   0  0  0  0  0  0  0  0  0  0  0  0
   -4.2501   23.7225  -25.6429 C   0  0  0  0  0  0  0  0  0  0  0  0
   -5.6862   23.2541  -25.3690 C   0  0  0  0  0  0  0  0  0  0  0  0
   -2.1083   22.5376  -25.9608 C   0  0  0  0  0  0  0  0  0  0  0  0
   -1.9591   22.8543  -27.2873 C   0  0  0  0  0  0  0  0  0  0  0  0
   -0.6971   22.7819  -27.8615 C   0  0  0  0  0  0  0  0  0  0  0  0
    0.4124   22.4006  -27.1356 C   0  0  0  0  0  0  0  0  0  0  0  0
    0.2647   22.0803  -25.7941 C   0  0  0  0  0  0  0  0  0  0  0  0
   -0.9850   22.1516  -25.2246 C   0  0  0  0  0  0  0  0  0  0  0  0
   -7.9367   21.8789  -21.2807 S   0  0  0  0  0  0  0  0  0  0  0  0
   -7.7605   21.7695  -18.4675 N   0  0  0  0  0  0  0  0  0  0  0  0
   -8.5243   22.0045  -17.3967 C   0  0  0  0  0  0  0  0  0  0  0  0
   -9.7182   22.4155  -17.8455 N   0  0  0  0  0  0  0  0  0  0  0  0
   -9.6872   22.4314  -19.1475 N   0  0  0  0  0  0  0  0  0  0  0  0
   -8.4783   22.0331  -19.5615 C   0  0  0  0  0  0  0  0  0  0  0  0
   -7.3450   18.9995  -18.5212 C   0  0  0  0  0  0  0  0  0  0  0  0
   -6.2025   19.9573  -18.4621 C   0  0  0  0  0  0  0  0  0  0  0  0
   -4.9016   19.5038  -18.4307 C   0  0  0  0  0  0  0  0  0  0  0  0
   -3.8560   20.4192  -18.3765 C   0  0  0  0  0  0  0  0  0  0  0  0
   -4.0650   21.7799  -18.3526 C   0  0  0  0  0  0  0  0  0  0  0  0
   -5.3636   22.2383  -18.3835 C   0  0  0  0  0  0  0  0  0  0  0  0
   -6.4116   21.3186  -18.4378 C   0  0  0  0  0  0  0  0  0  0  0  0
 22 23  1  0  0  0
 23 24  2  0  0  0
 24 25  1  0  0  0
 25 26  2  0  0  0
 26 27  1  0  0  0
 27 28  2  0  0  0
 28 17  1  0  0  0
 17 18  1  0  0  0
 18 19  2  0  0  0
 19 20  1  0  0  0
 20 21  2  0  0  0
 21 16  1  0  0  0
 16  1  1  0  0  0
  1  2  1  0  0  0
  2  3  2  0  0  0
  2  4  1  0  0  0
  4  5  1  0  0  0
  5  6  1  0  0  0
  6  7  1  0  0  0
  7 10  1  0  0  0
 10 11  2  0  0  0
 11 12  1  0  0  0
 12 13  2  0  0  0
 13 14  1  0  0  0
 14 15  2  0  0  0
  7  8  1  0  0  0
  8  9  1  0  0  0
 28 23  1  0  0  0
 21 17  1  0  0  0
  9  4  1  0  0  0
 15 10  1  0  0  0
M  END
> <minimizedAffinity>
-7.05393

> <CNNscore>
0.1164533272

> <CNNaffinity>
5.1661634445

> <CNN_VS>
0.6016169190

> <CNNaffinity_variance>
0.2571947873

$$$$
[H]c1c([H])c([H])c(N2C([H])([H])C([H])([H])N(C(=O)C([H])([H])Sc3nnc([H])n3-c3c([H])c([H])c([H])c([H])c3C([H])([H])[H])C([H])([H])C2([H])[H])c([H])c1[H]


 28 31  0  0  0  0  0  0  0  0999 V2000
   -7.1229   25.0777  -21.7006 C   0  0  0  0  0  0  0  0  0  0  0  0
   -7.3879   23.7973  -21.0157 C   0  0  0  0  0  0  0  0  0  0  0  0
   -7.9617   22.8765  -21.6384 O   0  0  0  0  0  0  0  0  0  0  0  0
   -7.0052   23.5919  -19.6712 N   0  0  0  0  0  0  0  0  0  0  0  0
   -6.3654   24.6509  -18.9516 C   0  0  0  0  0  0  0  0  0  0  0  0
   -5.9946   24.2628  -17.5331 C   0  0  0  0  0  0  0  0  0  0  0  0
   -5.4783   22.9164  -17.4707 N   0  0  0  0  0  0  0  0  0  0  0  0
   -5.8811   21.8958  -18.4367 C   0  0  0  0  0  0  0  0  0  0  0  0
   -7.2412   22.3311  -19.0003 C   0  0  0  0  0  0  0  0  0  0  0  0
   -4.5706   22.5647  -16.4549 C   0  0  0  0  0  0  0  0  0  0  0  0
   -4.8195   22.8972  -15.1473 C   0  0  0  0  0  0  0  0  0  0  0  0
   -3.8970   22.5421  -14.1725 C   0  0  0  0  0  0  0  0  0  0  0  0
   -2.7362   21.8634  -14.4812 C   0  0  0  0  0  0  0  0  0  0  0  0
   -2.4821   21.5255  -15.8023 C   0  0  0  0  0  0  0  0  0  0  0  0
   -3.3953   21.8769  -16.7685 C   0  0  0  0  0  0  0  0  0  0  0  0
   -5.7979   24.9196  -22.9348 S   0  0  0  0  0  0  0  0  0  0  0  0
   -5.9908   23.7817  -25.5087 N   0  0  0  0  0  0  0  0  0  0  0  0
   -6.8293   23.7700  -26.5489 C   0  0  0  0  0  0  0  0  0  0  0  0
   -7.8761   24.5398  -26.2210 N   0  0  0  0  0  0  0  0  0  0  0  0
   -7.6853   25.0077  -25.0205 N   0  0  0  0  0  0  0  0  0  0  0  0
   -6.5172   24.5507  -24.5532 C   0  0  0  0  0  0  0  0  0  0  0  0
   -5.9865   21.3217  -24.1681 C   0  0  0  0  0  0  0  0  0  0  0  0
   -4.7439   21.8781  -24.7786 C   0  0  0  0  0  0  0  0  0  0  0  0
   -3.5503   21.1939  -24.6989 C   0  0  0  0  0  0  0  0  0  0  0  0
   -2.4077   21.7358  -25.2777 C   0  0  0  0  0  0  0  0  0  0  0  0
   -2.4152   22.9442  -25.9375 C   0  0  0  0  0  0  0  0  0  0  0  0
   -3.6057   23.6322  -26.0198 C   0  0  0  0  0  0  0  0  0  0  0  0
   -4.7512   23.0871  -25.4385 C   0  0  0  0  0  0  0  0  0  0  0  0
 22 23  1  0  0  0
 23 24  2  0  0  0
 24 25  1  0  0  0
 25 26  2  0  0  0
 26 27  1  0  0  0
 27 28  2  0  0  0
 28 17  1  0  0  0
 17 18  1  0  0  0
 18 19  2  0  0  0
 19 20  1  0  0  0
 20 21  2  0  0  0
 21 16  1  0  0  0
 16  1  1  0  0  0
  1  2  1  0  0  0
  2  3  2  0  0  0
  2  4  1  0  0  0
  4  5  1  0  0  0
  5  6  1  0  0  0
  6  7  1  0  0  0
  7 10  1  0  0  0
 10 11  2  0  0  0
 11 12  1  0  0  0
 12 13  2  0  0  0
 13 14  1  0  0  0
 14 15  2  0  0  0
  7  8  1  0  0  0
  8  9  1  0  0  0
 28 23  1  0  0  0
 21 17  1  0  0  0
  9  4  1  0  0  0
 15 10  1  0  0  0
M  END
> <minimizedAffinity>
-6.89931

> <CNNscore>
0.1038576290

> <CNNaffinity>
4.9688925743

> <CNN_VS>
0.5160573721

> <CNNaffinity_variance>
0.2884097695

$$$$
[H]OC(C([H])([H])[H])(C([H])([H])[H])C([H])([H])C([H])([H])N([H])S(=O)(=O)c1c([H])c([H])c(C([H])([H])[H])c(-c2c([H])nc(N([H])[H])c(-c3onc(C([H])([H])[H])c3[H])c2[H])c1[H]


 34 36  0  0  0  0  0  0  0  0999 V2000
   -0.9505   22.0229  -23.9009 C   0  0  0  0  0  0  0  0  0  0  0  0
   -2.1720   22.1531  -23.2293 C   0  0  0  0  0  0  0  0  0  0  0  0
   -2.3128   21.7996  -21.9040 C   0  0  0  0  0  0  0  0  0  0  0  0
   -1.2438   21.3047  -21.2019 C   0  0  0  0  0  0  0  0  0  0  0  0
   -0.0303   21.1670  -21.8395 C   0  0  0  0  0  0  0  0  0  0  0  0
    0.1088   21.5296  -23.1928 C   0  0  0  0  0  0  0  0  0  0  0  0
    1.4347   21.3890  -23.8520 C   0  0  0  0  0  0  0  0  0  0  0  0
   -1.8294   23.0138  -27.3827 C   0  0  0  0  0  0  0  0  0  0  0  0
   -1.9675   22.6847  -26.0265 C   0  0  0  0  0  0  0  0  0  0  0  0
   -0.8290   22.3866  -25.3081 C   0  0  0  0  0  0  0  0  0  0  0  0
    0.3889   22.4264  -25.9585 C   0  0  0  0  0  0  0  0  0  0  0  0
    0.5039   22.7424  -27.2529 N   0  0  0  0  0  0  0  0  0  0  0  0
   -0.6125   23.0400  -27.9772 C   0  0  0  0  0  0  0  0  0  0  0  0
   -0.4443   23.3680  -29.3403 N   0  0  0  0  0  0  0  0  0  0  0  0
   -0.4511   22.6587  -30.1092 H   0  0  0  0  0  0  0  0  0  0  0  0
   -0.3051   24.3527  -29.6249 H   0  0  0  0  0  0  0  0  0  0  0  0
   -5.4351   24.9734  -30.3678 C   0  0  0  0  0  0  0  0  0  0  0  0
   -4.6802   24.1477  -29.3773 C   0  0  0  0  0  0  0  0  0  0  0  0
   -3.3244   24.2813  -29.0211 C   0  0  0  0  0  0  0  0  0  0  0  0
   -3.0800   23.3208  -28.0900 C   0  0  0  0  0  0  0  0  0  0  0  0
   -4.2085   22.6515  -27.8954 O   0  0  0  0  0  0  0  0  0  0  0  0
   -5.1283   23.1296  -28.6378 N   0  0  0  0  0  0  0  0  0  0  0  0
   -3.8797   21.9879  -21.1147 S   0  0  0  0  0  0  0  0  0  0  0  0
   -3.8051   23.2555  -20.2948 O   0  0  0  0  0  0  0  0  0  0  0  0
   -4.9452   22.0629  -22.1502 O   0  0  0  0  0  0  0  0  0  0  0  0
   -4.0762   20.6830  -20.0362 N   0  0  0  0  0  0  0  0  0  0  0  0
   -3.1796   20.1147  -20.0712 H   0  0  0  0  0  0  0  0  0  0  0  0
   -4.3296   21.1136  -18.6763 C   0  0  0  0  0  0  0  0  0  0  0  0
   -3.4516   20.4254  -17.6823 C   0  0  0  0  0  0  0  0  0  0  0  0
   -2.2823   21.2453  -17.2500 C   0  0  0  0  0  0  0  0  0  0  0  0
   -2.2483   21.5798  -15.7938 C   0  0  0  0  0  0  0  0  0  0  0  0
   -1.0115   20.5153  -17.6107 C   0  0  0  0  0  0  0  0  0  0  0  0
   -2.2763   22.4448  -17.9646 O   0  0  0  0  0  0  0  0  0  0  0  0
   -1.3694   22.7335  -18.1905 H   0  0  0  0  0  0  0  0  0  0  0  0
 17 18  1  0  0  0
 18 19  1  0  0  0
 19 20  2  0  0  0
 20  8  1  0  0  0
  8  9  2  0  0  0
  9 10  1  0  0  0
 10  1  1  0  0  0
  1  2  2  0  0  0
  2  3  1  0  0  0
  3 23  1  0  0  0
 23 24  2  0  0  0
 23 25  2  0  0  0
 23 26  1  0  0  0
 26 28  1  0  0  0
 28 29  1  0  0  0
 29 30  1  0  0  0
 30 31  1  0  0  0
 30 32  1  0  0  0
 30 33  1  0  0  0
  3  4  2  0  0  0
  4  5  1  0  0  0
  5  6  2  0  0  0
  6  7  1  0  0  0
 10 11  2  0  0  0
 11 12  1  0  0  0
 12 13  2  0  0  0
 13 14  1  0  0  0
 20 21  1  0  0  0
 21 22  1  0  0  0
 22 18  2  0  0  0
 13  8  1  0  0  0
  6  1  1  0  0  0
 26 27  1  0  0  0
 33 34  1  0  0  0
 14 15  1  0  0  0
 14 16  1  0  0  0
M  END
> <minimizedAffinity>
-7.92350

> <CNNscore>
0.9553241730

> <CNNaffinity>
7.2381086349

> <CNN_VS>
6.9147400856

> <CNNaffinity_variance>
0.0952904671

$$$$
[H]OC(C([H])([H])[H])(C([H])([H])[H])C([H])([H])C([H])([H])N([H])S(=O)(=O)c1c([H])c([H])c(C([H])([H])[H])c(-c2c([H])nc(N([H])[H])c(-c3onc(C([H])([H])[H])c3[H])c2[H])c1[H]


 34 36  0  0  0  0  0  0  0  0999 V2000
   -1.1834   22.3497  -23.8721 C   0  0  0  0  0  0  0  0  0  0  0  0
   -2.3647   22.7535  -23.2387 C   0  0  0  0  0  0  0  0  0  0  0  0
   -2.5899   22.5113  -21.9000 C   0  0  0  0  0  0  0  0  0  0  0  0
   -1.6479   21.8594  -21.1462 C   0  0  0  0  0  0  0  0  0  0  0  0
   -0.4763   21.4517  -21.7455 C   0  0  0  0  0  0  0  0  0  0  0  0
   -0.2506   21.7015  -23.1125 C   0  0  0  0  0  0  0  0  0  0  0  0
    1.0309   21.2677  -23.7305 C   0  0  0  0  0  0  0  0  0  0  0  0
   -1.8424   23.0610  -27.4689 C   0  0  0  0  0  0  0  0  0  0  0  0
   -2.0650   22.8401  -26.1020 C   0  0  0  0  0  0  0  0  0  0  0  0
   -0.9741   22.6008  -25.2934 C   0  0  0  0  0  0  0  0  0  0  0  0
    0.2817   22.5899  -25.8687 C   0  0  0  0  0  0  0  0  0  0  0  0
    0.4774   22.8025  -27.1745 N   0  0  0  0  0  0  0  0  0  0  0  0
   -0.5911   23.0409  -27.9875 C   0  0  0  0  0  0  0  0  0  0  0  0
   -0.3382   23.2601  -29.3593 N   0  0  0  0  0  0  0  0  0  0  0  0
   -0.3006   22.4920  -30.0686 H   0  0  0  0  0  0  0  0  0  0  0  0
   -0.1777   24.2192  -29.7118 H   0  0  0  0  0  0  0  0  0  0  0  0
   -5.8052   25.1198  -29.8791 C   0  0  0  0  0  0  0  0  0  0  0  0
   -4.7850   24.1704  -29.3402 C   0  0  0  0  0  0  0  0  0  0  0  0
   -3.6943   24.4825  -28.5060 C   0  0  0  0  0  0  0  0  0  0  0  0
   -3.0459   23.3100  -28.2740 C   0  0  0  0  0  0  0  0  0  0  0  0
   -3.6976   22.3537  -28.9222 O   0  0  0  0  0  0  0  0  0  0  0  0
   -4.6985   22.8519  -29.5353 N   0  0  0  0  0  0  0  0  0  0  0  0
   -4.1002   23.0461  -21.1608 S   0  0  0  0  0  0  0  0  0  0  0  0
   -5.1888   22.1408  -21.6898 O   0  0  0  0  0  0  0  0  0  0  0  0
   -3.9807   22.9579  -19.6806 O   0  0  0  0  0  0  0  0  0  0  0  0
   -4.4200   24.6239  -21.7201 N   0  0  0  0  0  0  0  0  0  0  0  0
   -3.4864   25.0513  -21.9919 H   0  0  0  0  0  0  0  0  0  0  0  0
   -5.3167   24.6439  -22.8579 C   0  0  0  0  0  0  0  0  0  0  0  0
   -4.7059   25.2875  -24.0600 C   0  0  0  0  0  0  0  0  0  0  0  0
   -5.6406   26.1896  -24.7940 C   0  0  0  0  0  0  0  0  0  0  0  0
   -4.9814   27.2401  -25.6279 C   0  0  0  0  0  0  0  0  0  0  0  0
   -6.5330   25.3550  -25.6802 C   0  0  0  0  0  0  0  0  0  0  0  0
   -6.4715   26.8325  -23.8743 O   0  0  0  0  0  0  0  0  0  0  0  0
   -7.3819   26.9416  -24.2150 H   0  0  0  0  0  0  0  0  0  0  0  0
 17 18  1  0  0  0
 18 19  1  0  0  0
 19 20  2  0  0  0
 20  8  1  0  0  0
  8  9  2  0  0  0
  9 10  1  0  0  0
 10  1  1  0  0  0
  1  2  2  0  0  0
  2  3  1  0  0  0
  3 23  1  0  0  0
 23 24  2  0  0  0
 23 25  2  0  0  0
 23 26  1  0  0  0
 26 28  1  0  0  0
 28 29  1  0  0  0
 29 30  1  0  0  0
 30 31  1  0  0  0
 30 32  1  0  0  0
 30 33  1  0  0  0
  3  4  2  0  0  0
  4  5  1  0  0  0
  5  6  2  0  0  0
  6  7  1  0  0  0
 10 11  2  0  0  0
 11 12  1  0  0  0
 12 13  2  0  0  0
 13 14  1  0  0  0
 20 21  1  0  0  0
 21 22  1  0  0  0
 22 18  2  0  0  0
 13  8  1  0  0  0
  6  1  1  0  0  0
 26 27  1  0  0  0
 33 34  1  0  0  0
 14 15  1  0  0  0
 14 16  1  0  0  0
M  END
> <minimizedAffinity>
-9.00866

> <CNNscore>
0.9492229819

> <CNNaffinity>
7.6983499527

> <CNN_VS>
7.3074507713

> <CNNaffinity_variance>
0.1168429404

$$$$
[H]OC(C([H])([H])[H])(C([H])([H])[H])C([H])([H])C([H])([H])N([H])S(=O)(=O)c1c([H])c([H])c(C([H])([H])[H])c(-c2c([H])nc(N([H])[H])c(-c3onc(C([H])([H])[H])c3[H])c2[H])c1[H]


 34 36  0  0  0  0  0  0  0  0999 V2000
   -2.6095   22.2246  -23.8428 C   0  0  0  0  0  0  0  0  0  0  0  0
   -1.7575   22.3471  -22.7387 C   0  0  0  0  0  0  0  0  0  0  0  0
   -2.2005   22.1250  -21.4519 C   0  0  0  0  0  0  0  0  0  0  0  0
   -3.5056   21.7736  -21.2198 C   0  0  0  0  0  0  0  0  0  0  0  0
   -4.3646   21.6460  -22.2892 C   0  0  0  0  0  0  0  0  0  0  0  0
   -3.9077   21.8735  -23.6014 C   0  0  0  0  0  0  0  0  0  0  0  0
   -4.8510   21.7103  -24.7397 C   0  0  0  0  0  0  0  0  0  0  0  0
   -2.5270   23.1305  -27.4552 C   0  0  0  0  0  0  0  0  0  0  0  0
   -3.0120   22.9070  -26.1585 C   0  0  0  0  0  0  0  0  0  0  0  0
   -2.1236   22.4816  -25.1937 C   0  0  0  0  0  0  0  0  0  0  0  0
   -0.8023   22.2965  -25.5515 C   0  0  0  0  0  0  0  0  0  0  0  0
   -0.3552   22.5142  -26.7929 N   0  0  0  0  0  0  0  0  0  0  0  0
   -1.2212   22.9353  -27.7584 C   0  0  0  0  0  0  0  0  0  0  0  0
   -0.7059   23.1527  -29.0550 N   0  0  0  0  0  0  0  0  0  0  0  0
   -0.6579   22.4085  -29.7887 H   0  0  0  0  0  0  0  0  0  0  0  0
   -0.3497   24.0860  -29.3234 H   0  0  0  0  0  0  0  0  0  0  0  0
   -5.3297   25.7832  -30.7506 C   0  0  0  0  0  0  0  0  0  0  0  0
   -4.7709   24.7061  -29.8787 C   0  0  0  0  0  0  0  0  0  0  0  0
   -3.6583   24.8020  -29.0210 C   0  0  0  0  0  0  0  0  0  0  0  0
   -3.5242   23.5824  -28.4349 C   0  0  0  0  0  0  0  0  0  0  0  0
   -4.4880   22.8013  -28.9044 O   0  0  0  0  0  0  0  0  0  0  0  0
   -5.2044   23.4508  -29.7355 N   0  0  0  0  0  0  0  0  0  0  0  0
   -1.0762   22.2958  -20.1027 S   0  0  0  0  0  0  0  0  0  0  0  0
   -0.8661   23.7782  -19.8956 O   0  0  0  0  0  0  0  0  0  0  0  0
   -1.6554   21.6471  -18.8957 O   0  0  0  0  0  0  0  0  0  0  0  0
    0.4141   21.6224  -20.5824 N   0  0  0  0  0  0  0  0  0  0  0  0
    0.9159   22.3600  -21.1589 H   0  0  0  0  0  0  0  0  0  0  0  0
    1.2412   21.2342  -19.4580 C   0  0  0  0  0  0  0  0  0  0  0  0
    2.1595   22.3265  -19.0156 C   0  0  0  0  0  0  0  0  0  0  0  0
    3.5828   21.8963  -18.8913 C   0  0  0  0  0  0  0  0  0  0  0  0
    4.2645   21.5845  -20.1841 C   0  0  0  0  0  0  0  0  0  0  0  0
    4.3611   22.9762  -18.1797 C   0  0  0  0  0  0  0  0  0  0  0  0
    3.6468   20.7560  -18.0881 O   0  0  0  0  0  0  0  0  0  0  0  0
    4.4389   20.7546  -17.5142 H   0  0  0  0  0  0  0  0  0  0  0  0
 17 18  1  0  0  0
 18 19  1  0  0  0
 19 20  2  0  0  0
 20  8  1  0  0  0
  8  9  2  0  0  0
  9 10  1  0  0  0
 10  1  1  0  0  0
  1  2  2  0  0  0
  2  3  1  0  0  0
  3 23  1  0  0  0
 23 24  2  0  0  0
 23 25  2  0  0  0
 23 26  1  0  0  0
 26 28  1  0  0  0
 28 29  1  0  0  0
 29 30  1  0  0  0
 30 31  1  0  0  0
 30 32  1  0  0  0
 30 33  1  0  0  0
  3  4  2  0  0  0
  4  5  1  0  0  0
  5  6  2  0  0  0
  6  7  1  0  0  0
 10 11  2  0  0  0
 11 12  1  0  0  0
 12 13  2  0  0  0
 13 14  1  0  0  0
 20 21  1  0  0  0
 21 22  1  0  0  0
 22 18  2  0  0  0
 13  8  1  0  0  0
  6  1  1  0  0  0
 26 27  1  0  0  0
 33 34  1  0  0  0
 14 15  1  0  0  0
 14 16  1  0  0  0
M  END
> <minimizedAffinity>
-7.80701

> <CNNscore>
0.8019683957

> <CNNaffinity>
7.0666551590

> <CNN_VS>
5.6672339439

> <CNNaffinity_variance>
0.1947713196

$$$$
[H]OC(C([H])([H])[H])(C([H])([H])[H])C([H])([H])C([H])([H])N([H])S(=O)(=O)c1c([H])c([H])c(C([H])([H])[H])c(-c2c([H])nc(N([H])[H])c(-c3onc(C([H])([H])[H])c3[H])c2[H])c1[H]


 34 36  0  0  0  0  0  0  0  0999 V2000
   -1.1392   21.8072  -22.5752 C   0  0  0  0  0  0  0  0  0  0  0  0
   -2.3835   22.1389  -22.0259 C   0  0  0  0  0  0  0  0  0  0  0  0
   -2.6796   21.8974  -20.7010 C   0  0  0  0  0  0  0  0  0  0  0  0
   -1.7484   21.3180  -19.8778 C   0  0  0  0  0  0  0  0  0  0  0  0
   -0.5158   20.9823  -20.3935 C   0  0  0  0  0  0  0  0  0  0  0  0
   -0.2178   21.2311  -21.7469 C   0  0  0  0  0  0  0  0  0  0  0  0
    1.1271   20.8765  -22.2738 C   0  0  0  0  0  0  0  0  0  0  0  0
   -1.5781   22.7037  -26.1642 C   0  0  0  0  0  0  0  0  0  0  0  0
   -1.8699   22.4887  -24.8095 C   0  0  0  0  0  0  0  0  0  0  0  0
   -0.8541   22.0556  -23.9838 C   0  0  0  0  0  0  0  0  0  0  0  0
    0.3983   21.8548  -24.5308 C   0  0  0  0  0  0  0  0  0  0  0  0
    0.6607   22.0646  -25.8253 N   0  0  0  0  0  0  0  0  0  0  0  0
   -0.3331   22.4932  -26.6550 C   0  0  0  0  0  0  0  0  0  0  0  0
   -0.0113   22.7018  -28.0139 N   0  0  0  0  0  0  0  0  0  0  0  0
   -0.0796   21.9554  -28.7438 H   0  0  0  0  0  0  0  0  0  0  0  0
    0.3116   23.6304  -28.3354 H   0  0  0  0  0  0  0  0  0  0  0  0
   -5.2362   23.2180  -29.6434 C   0  0  0  0  0  0  0  0  0  0  0  0
   -4.3105   23.4251  -28.4890 C   0  0  0  0  0  0  0  0  0  0  0  0
   -3.2701   22.5720  -28.0735 C   0  0  0  0  0  0  0  0  0  0  0  0
   -2.7033   23.1646  -26.9887 C   0  0  0  0  0  0  0  0  0  0  0  0
   -3.3545   24.2977  -26.7621 O   0  0  0  0  0  0  0  0  0  0  0  0
   -4.2794   24.4453  -27.6274 N   0  0  0  0  0  0  0  0  0  0  0  0
   -4.2670   22.3390  -20.0695 S   0  0  0  0  0  0  0  0  0  0  0  0
   -5.0471   21.0538  -19.9141 O   0  0  0  0  0  0  0  0  0  0  0  0
   -4.0998   23.0431  -18.7696 O   0  0  0  0  0  0  0  0  0  0  0  0
   -5.0508   23.2821  -21.2530 N   0  0  0  0  0  0  0  0  0  0  0  0
   -4.3113   23.5708  -21.9587 H   0  0  0  0  0  0  0  0  0  0  0  0
   -6.1154   22.5656  -21.9254 C   0  0  0  0  0  0  0  0  0  0  0  0
   -6.7000   23.3389  -23.0624 C   0  0  0  0  0  0  0  0  0  0  0  0
   -5.9234   23.2152  -24.3305 C   0  0  0  0  0  0  0  0  0  0  0  0
   -5.3434   21.8620  -24.5874 C   0  0  0  0  0  0  0  0  0  0  0  0
   -6.8145   23.5900  -25.4896 C   0  0  0  0  0  0  0  0  0  0  0  0
   -4.8729   24.1348  -24.3143 O   0  0  0  0  0  0  0  0  0  0  0  0
   -4.7094   24.5216  -25.1977 H   0  0  0  0  0  0  0  0  0  0  0  0
 17 18  1  0  0  0
 18 19  1  0  0  0
 19 20  2  0  0  0
 20  8  1  0  0  0
  8  9  2  0  0  0
  9 10  1  0  0  0
 10  1  1  0  0  0
  1  2  2  0  0  0
  2  3  1  0  0  0
  3 23  1  0  0  0
 23 24  2  0  0  0
 23 25  2  0  0  0
 23 26  1  0  0  0
 26 28  1  0  0  0
 28 29  1  0  0  0
 29 30  1  0  0  0
 30 31  1  0  0  0
 30 32  1  0  0  0
 30 33  1  0  0  0
  3  4  2  0  0  0
  4  5  1  0  0  0
  5  6  2  0  0  0
  6  7  1  0  0  0
 10 11  2  0  0  0
 11 12  1  0  0  0
 12 13  2  0  0  0
 13 14  1  0  0  0
 20 21  1  0  0  0
 21 22  1  0  0  0
 22 18  2  0  0  0
 13  8  1  0  0  0
  6  1  1  0  0  0
 26 27  1  0  0  0
 33 34  1  0  0  0
 14 15  1  0  0  0
 14 16  1  0  0  0
M  END
> <minimizedAffinity>
-7.94103

> <CNNscore>
0.6664573550

> <CNNaffinity>
6.8917250633

> <CNN_VS>
4.5930409431

> <CNNaffinity_variance>
0.0347994566

$$$$
[H]OC(C([H])([H])[H])(C([H])([H])[H])C([H])([H])C([H])([H])N([H])S(=O)(=O)c1c([H])c([H])c(C([H])([H])[H])c(-c2c([H])nc(N([H])[H])c(-c3onc(C([H])([H])[H])c3[H])c2[H])c1[H]


 34 36  0  0  0  0  0  0  0  0999 V2000
   -0.9423   21.7781  -23.6769 C   0  0  0  0  0  0  0  0  0  0  0  0
    0.4026   21.5086  -23.3967 C   0  0  0  0  0  0  0  0  0  0  0  0
    0.8194   21.1253  -22.1394 C   0  0  0  0  0  0  0  0  0  0  0  0
   -0.0872   20.9970  -21.1185 C   0  0  0  0  0  0  0  0  0  0  0  0
   -1.4171   21.2560  -21.3681 C   0  0  0  0  0  0  0  0  0  0  0  0
   -1.8380   21.6468  -22.6535 C   0  0  0  0  0  0  0  0  0  0  0  0
   -3.2823   21.9019  -22.9008 C   0  0  0  0  0  0  0  0  0  0  0  0
   -3.0486   22.9676  -26.5099 C   0  0  0  0  0  0  0  0  0  0  0  0
   -2.6658   22.5839  -25.2164 C   0  0  0  0  0  0  0  0  0  0  0  0
   -1.3580   22.1992  -25.0099 C   0  0  0  0  0  0  0  0  0  0  0  0
   -0.4911   22.2104  -26.0853 C   0  0  0  0  0  0  0  0  0  0  0  0
   -0.8716   22.5792  -27.3132 N   0  0  0  0  0  0  0  0  0  0  0  0
   -2.1615   22.9626  -27.5338 C   0  0  0  0  0  0  0  0  0  0  0  0
   -2.5194   23.3440  -28.8454 N   0  0  0  0  0  0  0  0  0  0  0  0
   -2.8699   22.6716  -29.5661 H   0  0  0  0  0  0  0  0  0  0  0  0
   -2.4418   24.3328  -29.1389 H   0  0  0  0  0  0  0  0  0  0  0  0
   -7.7865   24.6438  -25.8075 C   0  0  0  0  0  0  0  0  0  0  0  0
   -6.5300   24.0890  -26.3956 C   0  0  0  0  0  0  0  0  0  0  0  0
   -5.3029   23.8862  -25.7354 C   0  0  0  0  0  0  0  0  0  0  0  0
   -4.4545   23.3659  -26.6620 C   0  0  0  0  0  0  0  0  0  0  0  0
   -5.1204   23.2607  -27.8044 O   0  0  0  0  0  0  0  0  0  0  0  0
   -6.3152   23.6777  -27.6482 N   0  0  0  0  0  0  0  0  0  0  0  0
    2.5295   20.8000  -21.8509 S   0  0  0  0  0  0  0  0  0  0  0  0
    3.2522   21.0857  -23.1473 O   0  0  0  0  0  0  0  0  0  0  0  0
    3.0151   21.6696  -20.7458 O   0  0  0  0  0  0  0  0  0  0  0  0
    2.6916   19.1356  -21.5222 N   0  0  0  0  0  0  0  0  0  0  0  0
    2.0048   18.6271  -22.1530 H   0  0  0  0  0  0  0  0  0  0  0  0
    4.0332   18.6450  -21.7638 C   0  0  0  0  0  0  0  0  0  0  0  0
    4.0586   17.4728  -22.6898 C   0  0  0  0  0  0  0  0  0  0  0  0
    3.8223   16.1673  -22.0069 C   0  0  0  0  0  0  0  0  0  0  0  0
    4.2110   16.1286  -20.5644 C   0  0  0  0  0  0  0  0  0  0  0  0
    2.3610   15.8090  -22.1262 C   0  0  0  0  0  0  0  0  0  0  0  0
    4.5388   15.1688  -22.6699 O   0  0  0  0  0  0  0  0  0  0  0  0
    4.0484   14.3230  -22.7000 H   0  0  0  0  0  0  0  0  0  0  0  0
 17 18  1  0  0  0
 18 19  1  0  0  0
 19 20  2  0  0  0
 20  8  1  0  0  0
  8  9  2  0  0  0
  9 10  1  0  0  0
 10  1  1  0  0  0
  1  2  2  0  0  0
  2  3  1  0  0  0
  3 23  1  0  0  0
 23 24  2  0  0  0
 23 25  2  0  0  0
 23 26  1  0  0  0
 26 28  1  0  0  0
 28 29  1  0  0  0
 29 30  1  0  0  0
 30 31  1  0  0  0
 30 32  1  0  0  0
 30 33  1  0  0  0
  3  4  2  0  0  0
  4  5  1  0  0  0
  5  6  2  0  0  0
  6  7  1  0  0  0
 10 11  2  0  0  0
 11 12  1  0  0  0
 12 13  2  0  0  0
 13 14  1  0  0  0
 20 21  1  0  0  0
 21 22  1  0  0  0
 22 18  2  0  0  0
 13  8  1  0  0  0
  6  1  1  0  0  0
 26 27  1  0  0  0
 33 34  1  0  0  0
 14 15  1  0  0  0
 14 16  1  0  0  0
M  END
> <minimizedAffinity>
-7.78228

> <CNNscore>
0.6434452534

> <CNNaffinity>
6.7703828812

> <CNN_VS>
4.3563709259

> <CNNaffinity_variance>
0.3103288710

$$$$
[H]OC(C([H])([H])[H])(C([H])([H])[H])C([H])([H])C([H])([H])N([H])S(=O)(=O)c1c([H])c([H])c(C([H])([H])[H])c(-c2c([H])nc(N([H])[H])c(-c3onc(C([H])([H])[H])c3[H])c2[H])c1[H]


 34 36  0  0  0  0  0  0  0  0999 V2000
   -0.8877   21.8784  -22.5453 C   0  0  0  0  0  0  0  0  0  0  0  0
   -0.4056   20.7367  -21.8940 C   0  0  0  0  0  0  0  0  0  0  0  0
   -0.6177   20.5250  -20.5480 C   0  0  0  0  0  0  0  0  0  0  0  0
   -1.3163   21.4414  -19.8045 C   0  0  0  0  0  0  0  0  0  0  0  0
   -1.8017   22.5734  -20.4216 C   0  0  0  0  0  0  0  0  0  0  0  0
   -1.5830   22.7852  -21.7962 C   0  0  0  0  0  0  0  0  0  0  0  0
   -2.1343   24.0065  -22.4419 C   0  0  0  0  0  0  0  0  0  0  0  0
   -1.4378   22.5141  -26.1744 C   0  0  0  0  0  0  0  0  0  0  0  0
   -1.7005   22.3315  -24.8090 C   0  0  0  0  0  0  0  0  0  0  0  0
   -0.6362   22.0903  -23.9662 C   0  0  0  0  0  0  0  0  0  0  0  0
    0.6337   22.0402  -24.5075 C   0  0  0  0  0  0  0  0  0  0  0  0
    0.8677   22.2166  -25.8123 N   0  0  0  0  0  0  0  0  0  0  0  0
   -0.1741   22.4563  -26.6589 C   0  0  0  0  0  0  0  0  0  0  0  0
    0.1191   22.6365  -28.0284 N   0  0  0  0  0  0  0  0  0  0  0  0
    0.1593   21.8507  -28.7178 H   0  0  0  0  0  0  0  0  0  0  0  0
    0.3085   23.5833  -28.3995 H   0  0  0  0  0  0  0  0  0  0  0  0
   -6.0395   23.6753  -27.9709 C   0  0  0  0  0  0  0  0  0  0  0  0
   -4.6086   23.2656  -27.8394 C   0  0  0  0  0  0  0  0  0  0  0  0
   -3.8580   23.1783  -26.6513 C   0  0  0  0  0  0  0  0  0  0  0  0
   -2.6144   22.7673  -27.0170 C   0  0  0  0  0  0  0  0  0  0  0  0
   -2.6111   22.6160  -28.3347 O   0  0  0  0  0  0  0  0  0  0  0  0
   -3.7606   22.9035  -28.8058 N   0  0  0  0  0  0  0  0  0  0  0  0
    0.0161   19.0651  -19.7862 S   0  0  0  0  0  0  0  0  0  0  0  0
    0.5660   18.1982  -20.8956 O   0  0  0  0  0  0  0  0  0  0  0  0
    1.0703   19.4408  -18.8060 O   0  0  0  0  0  0  0  0  0  0  0  0
   -1.2966   18.2367  -19.0825 N   0  0  0  0  0  0  0  0  0  0  0  0
   -2.0905   18.2588  -19.7877 H   0  0  0  0  0  0  0  0  0  0  0  0
   -0.9778   16.8637  -18.7476 C   0  0  0  0  0  0  0  0  0  0  0  0
   -1.7582   15.8788  -19.5559 C   0  0  0  0  0  0  0  0  0  0  0  0
   -3.1564   15.6841  -19.0726 C   0  0  0  0  0  0  0  0  0  0  0  0
   -4.0144   14.8283  -19.9471 C   0  0  0  0  0  0  0  0  0  0  0  0
   -3.1175   15.0807  -17.6897 C   0  0  0  0  0  0  0  0  0  0  0  0
   -3.7758   16.9298  -18.9528 O   0  0  0  0  0  0  0  0  0  0  0  0
   -4.3716   16.9710  -18.1782 H   0  0  0  0  0  0  0  0  0  0  0  0
 17 18  1  0  0  0
 18 19  1  0  0  0
 19 20  2  0  0  0
 20  8  1  0  0  0
  8  9  2  0  0  0
  9 10  1  0  0  0
 10  1  1  0  0  0
  1  2  2  0  0  0
  2  3  1  0  0  0
  3 23  1  0  0  0
 23 24  2  0  0  0
 23 25  2  0  0  0
 23 26  1  0  0  0
 26 28  1  0  0  0
 28 29  1  0  0  0
 29 30  1  0  0  0
 30 31  1  0  0  0
 30 32  1  0  0  0
 30 33  1  0  0  0
  3  4  2  0  0  0
  4  5  1  0  0  0
  5  6  2  0  0  0
  6  7  1  0  0  0
 10 11  2  0  0  0
 11 12  1  0  0  0
 12 13  2  0  0  0
 13 14  1  0  0  0
 20 21  1  0  0  0
 21 22  1  0  0  0
 22 18  2  0  0  0
 13  8  1  0  0  0
  6  1  1  0  0  0
 26 27  1  0  0  0
 33 34  1  0  0  0
 14 15  1  0  0  0
 14 16  1  0  0  0
M  END
> <minimizedAffinity>
-7.42692

> <CNNscore>
0.6346973181

> <CNNaffinity>
6.3957901001

> <CNN_VS>
4.0593910217

> <CNNaffinity_variance>
0.1718228608

$$$$
[H]OC(C([H])([H])[H])(C([H])([H])[H])C([H])([H])C([H])([H])N([H])S(=O)(=O)c1c([H])c([H])c(C([H])([H])[H])c(-c2c([H])nc(N([H])[H])c(-c3onc(C([H])([H])[H])c3[H])c2[H])c1[H]


 34 36  0  0  0  0  0  0  0  0999 V2000
   -6.5754   24.2408  -24.2125 C   0  0  0  0  0  0  0  0  0  0  0  0
   -6.9907   23.2530  -23.3115 C   0  0  0  0  0  0  0  0  0  0  0  0
   -7.4749   23.5697  -22.0598 C   0  0  0  0  0  0  0  0  0  0  0  0
   -7.5623   24.8792  -21.6620 C   0  0  0  0  0  0  0  0  0  0  0  0
   -7.1604   25.8705  -22.5301 C   0  0  0  0  0  0  0  0  0  0  0  0
   -6.6671   25.5425  -23.8073 C   0  0  0  0  0  0  0  0  0  0  0  0
   -6.2578   26.6329  -24.7323 C   0  0  0  0  0  0  0  0  0  0  0  0
   -4.2193   23.2762  -26.9320 C   0  0  0  0  0  0  0  0  0  0  0  0
   -4.7067   23.6011  -25.6577 C   0  0  0  0  0  0  0  0  0  0  0  0
   -6.0500   23.8818  -25.5248 C   0  0  0  0  0  0  0  0  0  0  0  0
   -6.8479   23.8297  -26.6513 C   0  0  0  0  0  0  0  0  0  0  0  0
   -6.3677   23.5179  -27.8599 N   0  0  0  0  0  0  0  0  0  0  0  0
   -5.0414   23.2375  -28.0079 C   0  0  0  0  0  0  0  0  0  0  0  0
   -4.5779   22.9134  -29.3017 N   0  0  0  0  0  0  0  0  0  0  0  0
   -4.2373   23.6261  -29.9876 H   0  0  0  0  0  0  0  0  0  0  0  0
   -4.5622   21.9283  -29.6170 H   0  0  0  0  0  0  0  0  0  0  0  0
    0.5855   21.9599  -25.9662 C   0  0  0  0  0  0  0  0  0  0  0  0
   -0.6742   22.4229  -26.6229 C   0  0  0  0  0  0  0  0  0  0  0  0
   -1.9490   22.5249  -26.0336 C   0  0  0  0  0  0  0  0  0  0  0  0
   -2.7805   22.9879  -27.0048 C   0  0  0  0  0  0  0  0  0  0  0  0
   -2.0605   23.1550  -28.1062 O   0  0  0  0  0  0  0  0  0  0  0  0
   -0.8480   22.8289  -27.8836 N   0  0  0  0  0  0  0  0  0  0  0  0
   -7.9823   22.2777  -20.9704 S   0  0  0  0  0  0  0  0  0  0  0  0
   -9.2179   22.7720  -20.2539 O   0  0  0  0  0  0  0  0  0  0  0  0
   -8.2583   21.0484  -21.7615 O   0  0  0  0  0  0  0  0  0  0  0  0
   -6.7551   22.0705  -19.8060 N   0  0  0  0  0  0  0  0  0  0  0  0
   -7.0885   21.3174  -19.1354 H   0  0  0  0  0  0  0  0  0  0  0  0
   -5.4886   21.6792  -20.3906 C   0  0  0  0  0  0  0  0  0  0  0  0
   -4.4836   22.7846  -20.3781 C   0  0  0  0  0  0  0  0  0  0  0  0
   -3.5063   22.7159  -21.5035 C   0  0  0  0  0  0  0  0  0  0  0  0
   -3.7938   21.6662  -22.5275 C   0  0  0  0  0  0  0  0  0  0  0  0
   -3.4512   24.0601  -22.1878 C   0  0  0  0  0  0  0  0  0  0  0  0
   -2.2319   22.4725  -20.9875 O   0  0  0  0  0  0  0  0  0  0  0  0
   -1.5377   22.9546  -21.4799 H   0  0  0  0  0  0  0  0  0  0  0  0
 17 18  1  0  0  0
 18 19  1  0  0  0
 19 20  2  0  0  0
 20  8  1  0  0  0
  8  9  2  0  0  0
  9 10  1  0  0  0
 10  1  1  0  0  0
  1  2  2  0  0  0
  2  3  1  0  0  0
  3 23  1  0  0  0
 23 24  2  0  0  0
 23 25  2  0  0  0
 23 26  1  0  0  0
 26 28  1  0  0  0
 28 29  1  0  0  0
 29 30  1  0  0  0
 30 31  1  0  0  0
 30 32  1  0  0  0
 30 33  1  0  0  0
  3  4  2  0  0  0
  4  5  1  0  0  0
  5  6  2  0  0  0
  6  7  1  0  0  0
 10 11  2  0  0  0
 11 12  1  0  0  0
 12 13  2  0  0  0
 13 14  1  0  0  0
 20 21  1  0  0  0
 21 22  1  0  0  0
 22 18  2  0  0  0
 13  8  1  0  0  0
  6  1  1  0  0  0
 26 27  1  0  0  0
 33 34  1  0  0  0
 14 15  1  0  0  0
 14 16  1  0  0  0
M  END
> <minimizedAffinity>
-8.00353

> <CNNscore>
0.5025882125

> <CNNaffinity>
6.8850731850

> <CNN_VS>
3.4603567123

> <CNNaffinity_variance>
0.0734175146

$$$$
[H]OC(C([H])([H])[H])(C([H])([H])[H])C([H])([H])C([H])([H])N([H])S(=O)(=O)c1c([H])c([H])c(C([H])([H])[H])c(-c2c([H])nc(N([H])[H])c(-c3onc(C([H])([H])[H])c3[H])c2[H])c1[H]


 34 36  0  0  0  0  0  0  0  0999 V2000
   -0.7372   21.6678  -23.8459 C   0  0  0  0  0  0  0  0  0  0  0  0
    0.6120   21.3722  -23.6179 C   0  0  0  0  0  0  0  0  0  0  0  0
    1.0624   20.9388  -22.3888 C   0  0  0  0  0  0  0  0  0  0  0  0
    0.1862   20.7848  -21.3451 C   0  0  0  0  0  0  0  0  0  0  0  0
   -1.1472   21.0687  -21.5434 C   0  0  0  0  0  0  0  0  0  0  0  0
   -1.6025   21.5106  -22.8002 C   0  0  0  0  0  0  0  0  0  0  0  0
   -3.0503   21.7919  -22.9928 C   0  0  0  0  0  0  0  0  0  0  0  0
   -2.9225   22.9514  -26.5762 C   0  0  0  0  0  0  0  0  0  0  0  0
   -2.5057   22.5161  -25.3099 C   0  0  0  0  0  0  0  0  0  0  0  0
   -1.1884   22.1418  -25.1493 C   0  0  0  0  0  0  0  0  0  0  0  0
   -0.3461   22.2134  -26.2417 C   0  0  0  0  0  0  0  0  0  0  0  0
   -0.7590   22.6310  -27.4433 N   0  0  0  0  0  0  0  0  0  0  0  0
   -2.0587   23.0049  -27.6183 C   0  0  0  0  0  0  0  0  0  0  0  0
   -2.4510   23.4390  -28.9034 N   0  0  0  0  0  0  0  0  0  0  0  0
   -2.8084   22.7943  -29.6457 H   0  0  0  0  0  0  0  0  0  0  0  0
   -2.3935   24.4410  -29.1540 H   0  0  0  0  0  0  0  0  0  0  0  0
   -7.6353   24.6301  -25.7258 C   0  0  0  0  0  0  0  0  0  0  0  0
   -6.4031   24.0580  -26.3479 C   0  0  0  0  0  0  0  0  0  0  0  0
   -5.1456   23.8893  -25.7372 C   0  0  0  0  0  0  0  0  0  0  0  0
   -4.3368   23.3355  -26.6797 C   0  0  0  0  0  0  0  0  0  0  0  0
   -5.0535   23.1794  -27.7848 O   0  0  0  0  0  0  0  0  0  0  0  0
   -6.2430   23.5962  -27.5910 N   0  0  0  0  0  0  0  0  0  0  0  0
    2.7762   20.5827  -22.1659 S   0  0  0  0  0  0  0  0  0  0  0  0
    2.8624   19.1700  -21.6354 O   0  0  0  0  0  0  0  0  0  0  0  0
    3.4810   20.7266  -23.4681 O   0  0  0  0  0  0  0  0  0  0  0  0
    3.3692   21.6279  -20.9574 N   0  0  0  0  0  0  0  0  0  0  0  0
    2.5807   21.7751  -20.2612 H   0  0  0  0  0  0  0  0  0  0  0  0
    4.5305   21.0939  -20.2755 C   0  0  0  0  0  0  0  0  0  0  0  0
    4.3645   21.0692  -18.7908 C   0  0  0  0  0  0  0  0  0  0  0  0
    4.9382   22.2642  -18.1059 C   0  0  0  0  0  0  0  0  0  0  0  0
    6.0423   22.9478  -18.8456 C   0  0  0  0  0  0  0  0  0  0  0  0
    3.8337   23.2609  -17.8517 C   0  0  0  0  0  0  0  0  0  0  0  0
    5.4326   21.8815  -16.8574 O   0  0  0  0  0  0  0  0  0  0  0  0
    5.2818   22.5673  -16.1764 H   0  0  0  0  0  0  0  0  0  0  0  0
 17 18  1  0  0  0
 18 19  1  0  0  0
 19 20  2  0  0  0
 20  8  1  0  0  0
  8  9  2  0  0  0
  9 10  1  0  0  0
 10  1  1  0  0  0
  1  2  2  0  0  0
  2  3  1  0  0  0
  3 23  1  0  0  0
 23 24  2  0  0  0
 23 25  2  0  0  0
 23 26  1  0  0  0
 26 28  1  0  0  0
 28 29  1  0  0  0
 29 30  1  0  0  0
 30 31  1  0  0  0
 30 32  1  0  0  0
 30 33  1  0  0  0
  3  4  2  0  0  0
  4  5  1  0  0  0
  5  6  2  0  0  0
  6  7  1  0  0  0
 10 11  2  0  0  0
 11 12  1  0  0  0
 12 13  2  0  0  0
 13 14  1  0  0  0
 20 21  1  0  0  0
 21 22  1  0  0  0
 22 18  2  0  0  0
 13  8  1  0  0  0
  6  1  1  0  0  0
 26 27  1  0  0  0
 33 34  1  0  0  0
 14 15  1  0  0  0
 14 16  1  0  0  0
M  END
> <minimizedAffinity>
-7.93073

> <CNNscore>
0.4869023561

> <CNNaffinity>
6.6028604507

> <CNN_VS>
3.2149484158

> <CNNaffinity_variance>
0.4496202469

$$$$
[H]OC(C([H])([H])[H])(C([H])([H])[H])C([H])([H])C([H])([H])N([H])S(=O)(=O)c1c([H])c([H])c(C([H])([H])[H])c(-c2c([H])nc(N([H])[H])c(-c3onc(C([H])([H])[H])c3[H])c2[H])c1[H]


 34 36  0  0  0  0  0  0  0  0999 V2000
   -1.4381   22.4944  -25.4213 C   0  0  0  0  0  0  0  0  0  0  0  0
   -1.6841   22.5490  -24.0442 C   0  0  0  0  0  0  0  0  0  0  0  0
   -0.7100   22.2354  -23.1199 C   0  0  0  0  0  0  0  0  0  0  0  0
    0.5414   21.8569  -23.5340 C   0  0  0  0  0  0  0  0  0  0  0  0
    0.8095   21.7955  -24.8840 C   0  0  0  0  0  0  0  0  0  0  0  0
   -0.1881   22.1169  -25.8240 C   0  0  0  0  0  0  0  0  0  0  0  0
    0.1332   22.0609  -27.2752 C   0  0  0  0  0  0  0  0  0  0  0  0
   -4.7112   23.5421  -26.8588 C   0  0  0  0  0  0  0  0  0  0  0  0
   -3.7092   23.2587  -25.9194 C   0  0  0  0  0  0  0  0  0  0  0  0
   -2.4887   22.8134  -26.3812 C   0  0  0  0  0  0  0  0  0  0  0  0
   -2.3138   22.6683  -27.7438 C   0  0  0  0  0  0  0  0  0  0  0  0
   -3.2796   22.9430  -28.6271 N   0  0  0  0  0  0  0  0  0  0  0  0
   -4.4922   23.3845  -28.1863 C   0  0  0  0  0  0  0  0  0  0  0  0
   -5.4825   23.6624  -29.1537 N   0  0  0  0  0  0  0  0  0  0  0  0
   -6.1617   22.9485  -29.5052 H   0  0  0  0  0  0  0  0  0  0  0  0
   -5.5659   24.6122  -29.5547 H   0  0  0  0  0  0  0  0  0  0  0  0
   -8.4558   25.1773  -23.8496 C   0  0  0  0  0  0  0  0  0  0  0  0
   -7.6458   24.7271  -25.0217 C   0  0  0  0  0  0  0  0  0  0  0  0
   -6.2924   24.3385  -25.0172 C   0  0  0  0  0  0  0  0  0  0  0  0
   -5.9866   24.0124  -26.3014 C   0  0  0  0  0  0  0  0  0  0  0  0
   -7.0782   24.1908  -27.0336 O   0  0  0  0  0  0  0  0  0  0  0  0
   -8.0321   24.6024  -26.2942 N   0  0  0  0  0  0  0  0  0  0  0  0
   -1.0836   22.3240  -21.3977 S   0  0  0  0  0  0  0  0  0  0  0  0
    0.1435   21.8393  -20.6601 O   0  0  0  0  0  0  0  0  0  0  0  0
   -1.4230   23.7277  -21.0405 O   0  0  0  0  0  0  0  0  0  0  0  0
   -2.3461   21.2228  -21.0846 N   0  0  0  0  0  0  0  0  0  0  0  0
   -1.9084   20.3742  -20.6193 H   0  0  0  0  0  0  0  0  0  0  0  0
   -3.3724   21.7769  -20.2251 C   0  0  0  0  0  0  0  0  0  0  0  0
   -4.7528   21.4464  -20.6915 C   0  0  0  0  0  0  0  0  0  0  0  0
   -5.1931   22.2489  -21.8699 C   0  0  0  0  0  0  0  0  0  0  0  0
   -5.1817   21.5174  -23.1730 C   0  0  0  0  0  0  0  0  0  0  0  0
   -6.5874   22.7680  -21.6162 C   0  0  0  0  0  0  0  0  0  0  0  0
   -4.3634   23.3646  -21.9984 O   0  0  0  0  0  0  0  0  0  0  0  0
   -4.8559   24.1568  -22.2928 H   0  0  0  0  0  0  0  0  0  0  0  0
 17 18  1  0  0  0
 18 19  1  0  0  0
 19 20  2  0  0  0
 20  8  1  0  0  0
  8  9  2  0  0  0
  9 10  1  0  0  0
 10  1  1  0  0  0
  1  2  2  0  0  0
  2  3  1  0  0  0
  3 23  1  0  0  0
 23 24  2  0  0  0
 23 25  2  0  0  0
 23 26  1  0  0  0
 26 28  1  0  0  0
 28 29  1  0  0  0
 29 30  1  0  0  0
 30 31  1  0  0  0
 30 32  1  0  0  0
 30 33  1  0  0  0
  3  4  2  0  0  0
  4  5  1  0  0  0
  5  6  2  0  0  0
  6  7  1  0  0  0
 10 11  2  0  0  0
 11 12  1  0  0  0
 12 13  2  0  0  0
 13 14  1  0  0  0
 20 21  1  0  0  0
 21 22  1  0  0  0
 22 18  2  0  0  0
 13  8  1  0  0  0
  6  1  1  0  0  0
 26 27  1  0  0  0
 33 34  1  0  0  0
 14 15  1  0  0  0
 14 16  1  0  0  0
M  END
> <minimizedAffinity>
-9.08184

> <CNNscore>
0.4228443503

> <CNNaffinity>
6.7575659752

> <CNN_VS>
2.8573985100

> <CNNaffinity_variance>
0.5166242123

$$$$
[H]/C(=C(/[H])c1c([H])c(OC([H])([H])[H])c([H])c(OC([H])([H])[H])c1[H])c1c([H])c([H])c(OC([H])([H])C([H])([H])[H])c([H])c1[H]


 21 22  0  0  0  0  0  0  0  0999 V2000
   -2.4697   22.8178  -25.4064 C   0  0  0  0  0  0  0  0  0  0  0  0
   -2.4104   22.9720  -26.7082 C   0  0  0  0  0  0  0  0  0  0  0  0
    0.7882   21.2964  -23.1084 C   0  0  0  0  0  0  0  0  0  0  0  0
    0.9850   21.8539  -24.3501 C   0  0  0  0  0  0  0  0  0  0  0  0
   -0.0884   22.3425  -25.0804 C   0  0  0  0  0  0  0  0  0  0  0  0
   -1.3740   22.2884  -24.5959 C   0  0  0  0  0  0  0  0  0  0  0  0
   -1.5714   21.7320  -23.3561 C   0  0  0  0  0  0  0  0  0  0  0  0
   -0.4951   21.2388  -22.6170 C   0  0  0  0  0  0  0  0  0  0  0  0
    1.8315   20.7937  -22.3394 O   0  0  0  0  0  0  0  0  0  0  0  0
    3.9080   19.6194  -22.0737 C   0  0  0  0  0  0  0  0  0  0  0  0
    3.0540   20.4937  -22.9700 C   0  0  0  0  0  0  0  0  0  0  0  0
   -3.5219   23.5026  -27.4827 C   0  0  0  0  0  0  0  0  0  0  0  0
   -4.8023   23.4172  -26.9277 C   0  0  0  0  0  0  0  0  0  0  0  0
   -5.9256   23.8851  -27.5684 C   0  0  0  0  0  0  0  0  0  0  0  0
   -5.7935   24.4650  -28.8120 C   0  0  0  0  0  0  0  0  0  0  0  0
   -4.5373   24.5504  -29.3599 C   0  0  0  0  0  0  0  0  0  0  0  0
   -3.4050   24.0783  -28.7131 C   0  0  0  0  0  0  0  0  0  0  0  0
   -7.1412   23.7474  -26.9240 O   0  0  0  0  0  0  0  0  0  0  0  0
   -7.6267   24.6183  -25.9390 C   0  0  0  0  0  0  0  0  0  0  0  0
   -4.4275   25.1388  -30.6144 O   0  0  0  0  0  0  0  0  0  0  0  0
   -5.4893   25.7394  -31.2983 C   0  0  0  0  0  0  0  0  0  0  0  0
 10 11  1  0  0  0
 11  9  1  0  0  0
  9  3  1  0  0  0
  3  4  2  0  0  0
  4  5  1  0  0  0
  5  6  2  0  0  0
  6  1  1  0  0  0
  1  2  2  0  0  0
  2 12  1  0  0  0
 12 13  2  0  0  0
 13 14  1  0  0  0
 14 18  1  0  0  0
 18 19  1  0  0  0
 14 15  2  0  0  0
 15 16  1  0  0  0
 16 20  1  0  0  0
 20 21  1  0  0  0
 16 17  2  0  0  0
  6  7  1  0  0  0
  7  8  2  0  0  0
  8  3  1  0  0  0
 17 12  1  0  0  0
M  END
> <minimizedAffinity>
-7.09648

> <CNNscore>
0.5887532234

> <CNNaffinity>
5.8403887749

> <CNN_VS>
3.4385476112

> <CNNaffinity_variance>
0.2679606080

$$$$
[H]/C(=C(/[H])c1c([H])c(OC([H])([H])[H])c([H])c(OC([H])([H])[H])c1[H])c1c([H])c([H])c(OC([H])([H])C([H])([H])[H])c([H])c1[H]


 21 22  0  0  0  0  0  0  0  0999 V2000
   -3.3839   24.0251  -23.7368 C   0  0  0  0  0  0  0  0  0  0  0  0
   -3.0325   22.8102  -24.0868 C   0  0  0  0  0  0  0  0  0  0  0  0
   -7.2846   25.1094  -22.3884 C   0  0  0  0  0  0  0  0  0  0  0  0
   -6.2170   25.0519  -21.5234 C   0  0  0  0  0  0  0  0  0  0  0  0
   -4.9572   24.6970  -21.9829 C   0  0  0  0  0  0  0  0  0  0  0  0
   -4.7314   24.3931  -23.3047 C   0  0  0  0  0  0  0  0  0  0  0  0
   -5.7968   24.4503  -24.1690 C   0  0  0  0  0  0  0  0  0  0  0  0
   -7.0665   24.8067  -23.7122 C   0  0  0  0  0  0  0  0  0  0  0  0
   -8.5650   25.4596  -21.9753 O   0  0  0  0  0  0  0  0  0  0  0  0
  -10.8976   25.9283  -22.2932 C   0  0  0  0  0  0  0  0  0  0  0  0
   -9.6182   25.3967  -22.9077 C   0  0  0  0  0  0  0  0  0  0  0  0
   -1.6806   22.4807  -24.5119 C   0  0  0  0  0  0  0  0  0  0  0  0
   -0.7985   21.9808  -23.5492 C   0  0  0  0  0  0  0  0  0  0  0  0
    0.5014   21.6360  -23.8362 C   0  0  0  0  0  0  0  0  0  0  0  0
    0.9640   21.7862  -25.1262 C   0  0  0  0  0  0  0  0  0  0  0  0
    0.1000   22.2768  -26.0740 C   0  0  0  0  0  0  0  0  0  0  0  0
   -1.2108   22.6244  -25.7837 C   0  0  0  0  0  0  0  0  0  0  0  0
    1.2841   21.1517  -22.8043 O   0  0  0  0  0  0  0  0  0  0  0  0
    0.8226   20.8875  -21.5076 C   0  0  0  0  0  0  0  0  0  0  0  0
    0.5875   22.4199  -27.3679 O   0  0  0  0  0  0  0  0  0  0  0  0
   -0.1046   23.0541  -28.4046 C   0  0  0  0  0  0  0  0  0  0  0  0
 10 11  1  0  0  0
 11  9  1  0  0  0
  9  3  1  0  0  0
  3  4  2  0  0  0
  4  5  1  0  0  0
  5  6  2  0  0  0
  6  1  1  0  0  0
  1  2  2  0  0  0
  2 12  1  0  0  0
 12 13  2  0  0  0
 13 14  1  0  0  0
 14 18  1  0  0  0
 18 19  1  0  0  0
 14 15  2  0  0  0
 15 16  1  0  0  0
 16 20  1  0  0  0
 20 21  1  0  0  0
 16 17  2  0  0  0
  6  7  1  0  0  0
  7  8  2  0  0  0
  8  3  1  0  0  0
 17 12  1  0  0  0
M  END
> <minimizedAffinity>
-5.88411

> <CNNscore>
0.5615807772

> <CNNaffinity>
5.4490137100

> <CNN_VS>
3.0600614548

> <CNNaffinity_variance>
0.3791590035

$$$$
[H]/C(=C(/[H])c1c([H])c(OC([H])([H])[H])c([H])c(OC([H])([H])[H])c1[H])c1c([H])c([H])c(OC([H])([H])C([H])([H])[H])c([H])c1[H]


 21 22  0  0  0  0  0  0  0  0999 V2000
   -3.8304   23.6517  -23.8181 C   0  0  0  0  0  0  0  0  0  0  0  0
   -3.3451   22.8462  -24.7333 C   0  0  0  0  0  0  0  0  0  0  0  0
   -7.9200   24.8590  -23.6546 C   0  0  0  0  0  0  0  0  0  0  0  0
   -7.0422   25.4190  -24.5531 C   0  0  0  0  0  0  0  0  0  0  0  0
   -5.7167   25.0117  -24.5893 C   0  0  0  0  0  0  0  0  0  0  0  0
   -5.2365   24.0445  -23.7383 C   0  0  0  0  0  0  0  0  0  0  0  0
   -6.1122   23.4849  -22.8408 C   0  0  0  0  0  0  0  0  0  0  0  0
   -7.4469   23.8908  -22.8000 C   0  0  0  0  0  0  0  0  0  0  0  0
   -9.2566   25.2340  -23.5805 O   0  0  0  0  0  0  0  0  0  0  0  0
  -11.3362   25.6588  -22.4594 C   0  0  0  0  0  0  0  0  0  0  0  0
   -9.8641   25.3287  -22.3138 C   0  0  0  0  0  0  0  0  0  0  0  0
   -1.9385   22.4771  -24.7816 C   0  0  0  0  0  0  0  0  0  0  0  0
   -1.2789   22.5832  -26.0097 C   0  0  0  0  0  0  0  0  0  0  0  0
    0.0483   22.2624  -26.1737 C   0  0  0  0  0  0  0  0  0  0  0  0
    0.7677   21.8159  -25.0858 C   0  0  0  0  0  0  0  0  0  0  0  0
    0.1227   21.7106  -23.8781 C   0  0  0  0  0  0  0  0  0  0  0  0
   -1.2157   22.0343  -23.7137 C   0  0  0  0  0  0  0  0  0  0  0  0
    0.5965   22.4062  -27.4349 O   0  0  0  0  0  0  0  0  0  0  0  0
   -0.0141   23.0835  -28.4992 C   0  0  0  0  0  0  0  0  0  0  0  0
    0.8673   21.2585  -22.7949 O   0  0  0  0  0  0  0  0  0  0  0  0
    0.3218   20.9061  -21.5563 C   0  0  0  0  0  0  0  0  0  0  0  0
 10 11  1  0  0  0
 11  9  1  0  0  0
  9  3  1  0  0  0
  3  4  2  0  0  0
  4  5  1  0  0  0
  5  6  2  0  0  0
  6  1  1  0  0  0
  1  2  2  0  0  0
  2 12  1  0  0  0
 12 13  2  0  0  0
 13 14  1  0  0  0
 14 18  1  0  0  0
 18 19  1  0  0  0
 14 15  2  0  0  0
 15 16  1  0  0  0
 16 20  1  0  0  0
 20 21  1  0  0  0
 16 17  2  0  0  0
  6  7  1  0  0  0
  7  8  2  0  0  0
  8  3  1  0  0  0
 17 12  1  0  0  0
M  END
> <minimizedAffinity>
-6.16888

> <CNNscore>
0.5166548491

> <CNNaffinity>
5.4843664169

> <CNN_VS>
2.8335244656

> <CNNaffinity_variance>
0.4177872241

$$$$
[H]/C(=C(/[H])c1c([H])c(OC([H])([H])[H])c([H])c(OC([H])([H])[H])c1[H])c1c([H])c([H])c(OC([H])([H])C([H])([H])[H])c([H])c1[H]


 21 22  0  0  0  0  0  0  0  0999 V2000
   -2.4216   22.6524  -25.3793 C   0  0  0  0  0  0  0  0  0  0  0  0
   -2.4758   22.9825  -26.6482 C   0  0  0  0  0  0  0  0  0  0  0  0
    1.1754   21.3537  -23.4863 C   0  0  0  0  0  0  0  0  0  0  0  0
    1.1428   21.6693  -24.8245 C   0  0  0  0  0  0  0  0  0  0  0  0
   -0.0375   22.0895  -25.4199 C   0  0  0  0  0  0  0  0  0  0  0  0
   -1.2051   22.2049  -24.7030 C   0  0  0  0  0  0  0  0  0  0  0  0
   -1.1733   21.8900  -23.3668 C   0  0  0  0  0  0  0  0  0  0  0  0
    0.0114   21.4666  -22.7625 C   0  0  0  0  0  0  0  0  0  0  0  0
    2.3334   20.9284  -22.8452 O   0  0  0  0  0  0  0  0  0  0  0  0
    2.8565   18.9821  -21.5415 C   0  0  0  0  0  0  0  0  0  0  0  0
    2.2269   20.3606  -21.5612 C   0  0  0  0  0  0  0  0  0  0  0  0
   -3.7058   23.4240  -27.2879 C   0  0  0  0  0  0  0  0  0  0  0  0
   -3.6241   23.8951  -28.6017 C   0  0  0  0  0  0  0  0  0  0  0  0
   -4.7199   24.3376  -29.3049 C   0  0  0  0  0  0  0  0  0  0  0  0
   -5.9569   24.3196  -28.6965 C   0  0  0  0  0  0  0  0  0  0  0  0
   -6.0405   23.8574  -27.4062 C   0  0  0  0  0  0  0  0  0  0  0  0
   -4.9348   23.4113  -26.6977 C   0  0  0  0  0  0  0  0  0  0  0  0
   -4.5207   24.7820  -30.5990 O   0  0  0  0  0  0  0  0  0  0  0  0
   -5.1049   25.9316  -31.1480 C   0  0  0  0  0  0  0  0  0  0  0  0
   -7.2973   23.8480  -26.8125 O   0  0  0  0  0  0  0  0  0  0  0  0
   -7.6273   24.5620  -25.6561 C   0  0  0  0  0  0  0  0  0  0  0  0
 10 11  1  0  0  0
 11  9  1  0  0  0
  9  3  1  0  0  0
  3  4  2  0  0  0
  4  5  1  0  0  0
  5  6  2  0  0  0
  6  1  1  0  0  0
  1  2  2  0  0  0
  2 12  1  0  0  0
 12 13  2  0  0  0
 13 14  1  0  0  0
 14 18  1  0  0  0
 18 19  1  0  0  0
 14 15  2  0  0  0
 15 16  1  0  0  0
 16 20  1  0  0  0
 20 21  1  0  0  0
 16 17  2  0  0  0
  6  7  1  0  0  0
  7  8  2  0  0  0
  8  3  1  0  0  0
 17 12  1  0  0  0
M  END
> <minimizedAffinity>
-6.75964

> <CNNscore>
0.4570526779

> <CNNaffinity>
5.7340202332

> <CNN_VS>
2.6207492352

> <CNNaffinity_variance>
0.2550084889

$$$$
[H]/C(=C(/[H])c1c([H])c(OC([H])([H])[H])c([H])c(OC([H])([H])[H])c1[H])c1c([H])c([H])c(OC([H])([H])C([H])([H])[H])c([H])c1[H]


 21 22  0  0  0  0  0  0  0  0999 V2000
   -2.8584   22.6512  -25.6861 C   0  0  0  0  0  0  0  0  0  0  0  0
   -1.5725   22.4111  -25.7898 C   0  0  0  0  0  0  0  0  0  0  0  0
   -5.3907   23.9172  -28.8788 C   0  0  0  0  0  0  0  0  0  0  0  0
   -5.8704   23.7695  -27.5983 C   0  0  0  0  0  0  0  0  0  0  0  0
   -5.0297   23.3567  -26.5751 C   0  0  0  0  0  0  0  0  0  0  0  0
   -3.7011   23.0831  -26.8000 C   0  0  0  0  0  0  0  0  0  0  0  0
   -3.2214   23.2303  -28.0782 C   0  0  0  0  0  0  0  0  0  0  0  0
   -4.0628   23.6453  -29.1116 C   0  0  0  0  0  0  0  0  0  0  0  0
   -6.1939   24.3281  -29.9366 O   0  0  0  0  0  0  0  0  0  0  0  0
   -5.5639   26.3387  -31.0865 C   0  0  0  0  0  0  0  0  0  0  0  0
   -5.5779   24.8232  -31.1018 C   0  0  0  0  0  0  0  0  0  0  0  0
   -0.7648   21.9823  -24.6581 C   0  0  0  0  0  0  0  0  0  0  0  0
   -1.4073   21.8045  -23.4292 C   0  0  0  0  0  0  0  0  0  0  0  0
   -0.7455   21.4021  -22.2929 C   0  0  0  0  0  0  0  0  0  0  0  0
    0.6103   21.1612  -22.3584 C   0  0  0  0  0  0  0  0  0  0  0  0
    1.2443   21.3349  -23.5640 C   0  0  0  0  0  0  0  0  0  0  0  0
    0.5761   21.7407  -24.7095 C   0  0  0  0  0  0  0  0  0  0  0  0
   -1.4833   21.2591  -21.1322 O   0  0  0  0  0  0  0  0  0  0  0  0
   -2.6145   22.0193  -20.8056 C   0  0  0  0  0  0  0  0  0  0  0  0
    2.6112   21.0863  -23.6071 O   0  0  0  0  0  0  0  0  0  0  0  0
    3.3204   20.4091  -22.6100 C   0  0  0  0  0  0  0  0  0  0  0  0
 10 11  1  0  0  0
 11  9  1  0  0  0
  9  3  1  0  0  0
  3  4  2  0  0  0
  4  5  1  0  0  0
  5  6  2  0  0  0
  6  1  1  0  0  0
  1  2  2  0  0  0
  2 12  1  0  0  0
 12 13  2  0  0  0
 13 14  1  0  0  0
 14 18  1  0  0  0
 18 19  1  0  0  0
 14 15  2  0  0  0
 15 16  1  0  0  0
 16 20  1  0  0  0
 20 21  1  0  0  0
 16 17  2  0  0  0
  6  7  1  0  0  0
  7  8  2  0  0  0
  8  3  1  0  0  0
 17 12  1  0  0  0
M  END
> <minimizedAffinity>
-7.29774

> <CNNscore>
0.3958351314

> <CNNaffinity>
5.6437244415

> <CNN_VS>
2.2339844704

> <CNNaffinity_variance>
0.2928736806

$$$$
[H]/C(=C(/[H])c1c([H])c(OC([H])([H])[H])c([H])c(OC([H])([H])[H])c1[H])c1c([H])c([H])c(OC([H])([H])C([H])([H])[H])c([H])c1[H]


 21 22  0  0  0  0  0  0  0  0999 V2000
   -2.1968   22.5167  -24.8938 C   0  0  0  0  0  0  0  0  0  0  0  0
   -2.3460   22.3511  -26.1870 C   0  0  0  0  0  0  0  0  0  0  0  0
    1.0977   21.0596  -22.6064 C   0  0  0  0  0  0  0  0  0  0  0  0
   -0.1822   21.0562  -22.1032 C   0  0  0  0  0  0  0  0  0  0  0  0
   -1.2389   21.5346  -22.8639 C   0  0  0  0  0  0  0  0  0  0  0  0
   -1.0485   22.0243  -24.1345 C   0  0  0  0  0  0  0  0  0  0  0  0
    0.2291   22.0281  -24.6377 C   0  0  0  0  0  0  0  0  0  0  0  0
    1.2960   21.5480  -23.8767 C   0  0  0  0  0  0  0  0  0  0  0  0
    2.1881   20.5909  -21.8826 O   0  0  0  0  0  0  0  0  0  0  0  0
    4.0300   19.0644  -22.0800 C   0  0  0  0  0  0  0  0  0  0  0  0
    3.4002   20.3568  -22.5598 C   0  0  0  0  0  0  0  0  0  0  0  0
   -3.5035   22.8556  -26.9100 C   0  0  0  0  0  0  0  0  0  0  0  0
   -4.7000   23.0043  -26.2020 C   0  0  0  0  0  0  0  0  0  0  0  0
   -5.8563   23.4716  -26.7814 C   0  0  0  0  0  0  0  0  0  0  0  0
   -5.8451   23.8107  -28.1175 C   0  0  0  0  0  0  0  0  0  0  0  0
   -4.6716   23.6659  -28.8157 C   0  0  0  0  0  0  0  0  0  0  0  0
   -3.5059   23.1945  -28.2306 C   0  0  0  0  0  0  0  0  0  0  0  0
   -6.9811   23.5776  -25.9841 O   0  0  0  0  0  0  0  0  0  0  0  0
   -7.5960   24.7851  -25.6263 C   0  0  0  0  0  0  0  0  0  0  0  0
   -4.6832   24.0138  -30.1614 O   0  0  0  0  0  0  0  0  0  0  0  0
   -5.5153   24.9922  -30.7148 C   0  0  0  0  0  0  0  0  0  0  0  0
 10 11  1  0  0  0
 11  9  1  0  0  0
  9  3  1  0  0  0
  3  4  2  0  0  0
  4  5  1  0  0  0
  5  6  2  0  0  0
  6  1  1  0  0  0
  1  2  2  0  0  0
  2 12  1  0  0  0
 12 13  2  0  0  0
 13 14  1  0  0  0
 14 18  1  0  0  0
 18 19  1  0  0  0
 14 15  2  0  0  0
 15 16  1  0  0  0
 16 20  1  0  0  0
 20 21  1  0  0  0
 16 17  2  0  0  0
  6  7  1  0  0  0
  7  8  2  0  0  0
  8  3  1  0  0  0
 17 12  1  0  0  0
M  END
> <minimizedAffinity>
-6.76182

> <CNNscore>
0.3810001910

> <CNNaffinity>
5.3993849754

> <CNN_VS>
2.0571668148

> <CNNaffinity_variance>
0.2481587827

$$$$
[H]/C(=C(/[H])c1c([H])c(OC([H])([H])[H])c([H])c(OC([H])([H])[H])c1[H])c1c([H])c([H])c(OC([H])([H])C([H])([H])[H])c([H])c1[H]


 21 22  0  0  0  0  0  0  0  0999 V2000
   -2.9057   22.4486  -25.6053 C   0  0  0  0  0  0  0  0  0  0  0  0
   -1.5975   22.5513  -25.6200 C   0  0  0  0  0  0  0  0  0  0  0  0
   -5.3737   23.8717  -28.7822 C   0  0  0  0  0  0  0  0  0  0  0  0
   -4.0626   23.5160  -28.9967 C   0  0  0  0  0  0  0  0  0  0  0  0
   -3.2779   23.0557  -27.9495 C   0  0  0  0  0  0  0  0  0  0  0  0
   -3.7755   22.9393  -26.6731 C   0  0  0  0  0  0  0  0  0  0  0  0
   -5.0845   23.2943  -26.4580 C   0  0  0  0  0  0  0  0  0  0  0  0
   -5.8786   23.7581  -27.5079 C   0  0  0  0  0  0  0  0  0  0  0  0
   -6.1990   24.3380  -29.7990 O   0  0  0  0  0  0  0  0  0  0  0  0
   -5.4337   26.1376  -31.1909 C   0  0  0  0  0  0  0  0  0  0  0  0
   -5.6276   24.6411  -31.0496 C   0  0  0  0  0  0  0  0  0  0  0  0
   -0.7631   22.0507  -24.5383 C   0  0  0  0  0  0  0  0  0  0  0  0
   -1.3698   21.8230  -23.2994 C   0  0  0  0  0  0  0  0  0  0  0  0
   -0.6804   21.3514  -22.2069 C   0  0  0  0  0  0  0  0  0  0  0  0
    0.6674   21.0888  -22.3288 C   0  0  0  0  0  0  0  0  0  0  0  0
    1.2662   21.3114  -23.5443 C   0  0  0  0  0  0  0  0  0  0  0  0
    0.5703   21.7871  -24.6456 C   0  0  0  0  0  0  0  0  0  0  0  0
   -1.3837   21.1636  -21.0312 O   0  0  0  0  0  0  0  0  0  0  0  0
   -2.2665   22.0965  -20.4705 C   0  0  0  0  0  0  0  0  0  0  0  0
    2.6257   21.0399  -23.6445 O   0  0  0  0  0  0  0  0  0  0  0  0
    3.3922   20.4691  -22.6235 C   0  0  0  0  0  0  0  0  0  0  0  0
 10 11  1  0  0  0
 11  9  1  0  0  0
  9  3  1  0  0  0
  3  4  2  0  0  0
  4  5  1  0  0  0
  5  6  2  0  0  0
  6  1  1  0  0  0
  1  2  2  0  0  0
  2 12  1  0  0  0
 12 13  2  0  0  0
 13 14  1  0  0  0
 14 18  1  0  0  0
 18 19  1  0  0  0
 14 15  2  0  0  0
 15 16  1  0  0  0
 16 20  1  0  0  0
 20 21  1  0  0  0
 16 17  2  0  0  0
  6  7  1  0  0  0
  7  8  2  0  0  0
  8  3  1  0  0  0
 17 12  1  0  0  0
M  END
> <minimizedAffinity>
-7.26853

> <CNNscore>
0.3766102493

> <CNNaffinity>
5.6316823959

> <CNN_VS>
2.1209492683

> <CNNaffinity_variance>
0.3189108074

$$$$
[H]/C(=C(/[H])c1c([H])c(OC([H])([H])[H])c([H])c(OC([H])([H])[H])c1[H])c1c([H])c([H])c(OC([H])([H])C([H])([H])[H])c([H])c1[H]


 21 22  0  0  0  0  0  0  0  0999 V2000
   -3.0978   22.5219  -25.3617 C   0  0  0  0  0  0  0  0  0  0  0  0
   -1.7931   22.3824  -25.3819 C   0  0  0  0  0  0  0  0  0  0  0  0
   -5.4817   23.8246  -28.6525 C   0  0  0  0  0  0  0  0  0  0  0  0
   -5.9808   23.7983  -27.3712 C   0  0  0  0  0  0  0  0  0  0  0  0
   -5.1885   23.3711  -26.3159 C   0  0  0  0  0  0  0  0  0  0  0  0
   -3.8898   22.9628  -26.5089 C   0  0  0  0  0  0  0  0  0  0  0  0
   -3.3906   22.9888  -27.7878 C   0  0  0  0  0  0  0  0  0  0  0  0
   -4.1833   23.4177  -28.8534 C   0  0  0  0  0  0  0  0  0  0  0  0
   -6.2366   24.2444  -29.7418 O   0  0  0  0  0  0  0  0  0  0  0  0
   -5.4250   26.0148  -31.1448 C   0  0  0  0  0  0  0  0  0  0  0  0
   -5.5788   24.5188  -30.9560 C   0  0  0  0  0  0  0  0  0  0  0  0
   -1.0374   21.9408  -24.2196 C   0  0  0  0  0  0  0  0  0  0  0  0
    0.3536   21.8640  -24.3375 C   0  0  0  0  0  0  0  0  0  0  0  0
    1.1684   21.4601  -23.3060 C   0  0  0  0  0  0  0  0  0  0  0  0
    0.5982   21.1140  -22.0995 C   0  0  0  0  0  0  0  0  0  0  0  0
   -0.7677   21.1884  -21.9804 C   0  0  0  0  0  0  0  0  0  0  0  0
   -1.5887   21.5958  -23.0213 C   0  0  0  0  0  0  0  0  0  0  0  0
    2.5313   21.4222  -23.5363 O   0  0  0  0  0  0  0  0  0  0  0  0
    3.4210   20.5303  -22.9220 C   0  0  0  0  0  0  0  0  0  0  0  0
   -1.3211   20.8349  -20.7553 O   0  0  0  0  0  0  0  0  0  0  0  0
   -2.1431   21.6702  -19.9920 C   0  0  0  0  0  0  0  0  0  0  0  0
 10 11  1  0  0  0
 11  9  1  0  0  0
  9  3  1  0  0  0
  3  4  2  0  0  0
  4  5  1  0  0  0
  5  6  2  0  0  0
  6  1  1  0  0  0
  1  2  2  0  0  0
  2 12  1  0  0  0
 12 13  2  0  0  0
 13 14  1  0  0  0
 14 18  1  0  0  0
 18 19  1  0  0  0
 14 15  2  0  0  0
 15 16  1  0  0  0
 16 20  1  0  0  0
 20 21  1  0  0  0
 16 17  2  0  0  0
  6  7  1  0  0  0
  7  8  2  0  0  0
  8  3  1  0  0  0
 17 12  1  0  0  0
M  END
> <minimizedAffinity>
-7.09970

> <CNNscore>
0.3716063499

> <CNNaffinity>
5.6130819321

> <CNN_VS>
2.0858569145

> <CNNaffinity_variance>
0.5048344135

$$$$
[H]/C(=C(/[H])c1c([H])c(OC([H])([H])[H])c([H])c(OC([H])([H])[H])c1[H])c1c([H])c([H])c(OC([H])([H])C([H])([H])[H])c([H])c1[H]


 21 22  0  0  0  0  0  0  0  0999 V2000
   -5.1975   22.5652  -23.6348 C   0  0  0  0  0  0  0  0  0  0  0  0
   -4.5440   21.7641  -24.4430 C   0  0  0  0  0  0  0  0  0  0  0  0
   -7.1124   21.3109  -20.0336 C   0  0  0  0  0  0  0  0  0  0  0  0
   -7.8375   21.6303  -21.1577 C   0  0  0  0  0  0  0  0  0  0  0  0
   -7.1947   22.0359  -22.3181 C   0  0  0  0  0  0  0  0  0  0  0  0
   -5.8249   22.1326  -22.3870 C   0  0  0  0  0  0  0  0  0  0  0  0
   -5.1002   21.8138  -21.2651 C   0  0  0  0  0  0  0  0  0  0  0  0
   -5.7417   21.4052  -20.0949 C   0  0  0  0  0  0  0  0  0  0  0  0
   -7.7111   20.8996  -18.8482 O   0  0  0  0  0  0  0  0  0  0  0  0
   -7.5989   19.3441  -17.0235 C   0  0  0  0  0  0  0  0  0  0  0  0
   -7.7010   19.5295  -18.5243 C   0  0  0  0  0  0  0  0  0  0  0  0
   -3.9319   22.2306  -25.6777 C   0  0  0  0  0  0  0  0  0  0  0  0
   -2.5769   21.9514  -25.8793 C   0  0  0  0  0  0  0  0  0  0  0  0
   -1.8945   22.3427  -27.0073 C   0  0  0  0  0  0  0  0  0  0  0  0
   -2.5672   23.0409  -27.9874 C   0  0  0  0  0  0  0  0  0  0  0  0
   -3.8982   23.3167  -27.7925 C   0  0  0  0  0  0  0  0  0  0  0  0
   -4.5856   22.9217  -26.6545 C   0  0  0  0  0  0  0  0  0  0  0  0
   -0.5552   22.0114  -27.0995 O   0  0  0  0  0  0  0  0  0  0  0  0
    0.4436   22.4727  -26.2313 C   0  0  0  0  0  0  0  0  0  0  0  0
   -4.5565   24.0216  -28.7934 O   0  0  0  0  0  0  0  0  0  0  0  0
   -5.5399   23.4758  -29.6246 C   0  0  0  0  0  0  0  0  0  0  0  0
 10 11  1  0  0  0
 11  9  1  0  0  0
  9  3  1  0  0  0
  3  4  2  0  0  0
  4  5  1  0  0  0
  5  6  2  0  0  0
  6  1  1  0  0  0
  1  2  2  0  0  0
  2 12  1  0  0  0
 12 13  2  0  0  0
 13 14  1  0  0  0
 14 18  1  0  0  0
 18 19  1  0  0  0
 14 15  2  0  0  0
 15 16  1  0  0  0
 16 20  1  0  0  0
 20 21  1  0  0  0
 16 17  2  0  0  0
  6  7  1  0  0  0
  7  8  2  0  0  0
  8  3  1  0  0  0
 17 12  1  0  0  0
M  END
> <minimizedAffinity>
-5.80892

> <CNNscore>
0.3613902628

> <CNNaffinity>
5.2690973282

> <CNN_VS>
1.9042004347

> <CNNaffinity_variance>
0.1468697637

$$$$
[H]/C(C(=O)N(C([H])([H])[H])C([H])([H])c1sc2c([H])c([H])c([H])c([H])c2c1C([H])([H])[H])=C(/[H])c1c([H])nc2c(c1[H])C([H])([H])N([H])C([H])([H])C([H])([H])N2[H]


 30 33  0  0  0  0  0  0  0  0999 V2000
    1.3973   20.6674  -21.3875 N   0  0  0  0  0  0  0  0  0  0  0  0
    0.0648   20.1551  -21.2172 C   0  0  0  0  0  0  0  0  0  0  0  0
    1.7282   21.1848  -22.7249 C   0  0  0  0  0  0  0  0  0  0  0  0
    2.8889   21.3427  -23.1032 O   0  0  0  0  0  0  0  0  0  0  0  0
    0.6118   21.5703  -23.5800 C   0  0  0  0  0  0  0  0  0  0  0  0
    0.8876   21.6147  -24.8934 C   0  0  0  0  0  0  0  0  0  0  0  0
   -0.1293   21.9996  -25.8897 C   0  0  0  0  0  0  0  0  0  0  0  0
    0.2719   22.3536  -27.1584 C   0  0  0  0  0  0  0  0  0  0  0  0
   -0.5936   22.8751  -28.0914 N   0  0  0  0  0  0  0  0  0  0  0  0
   -1.8778   23.0391  -27.7336 C   0  0  0  0  0  0  0  0  0  0  0  0
   -2.2935   22.6759  -26.4671 C   0  0  0  0  0  0  0  0  0  0  0  0
   -1.4329   22.1569  -25.5333 C   0  0  0  0  0  0  0  0  0  0  0  0
   -3.7104   22.7989  -25.9897 C   0  0  0  0  0  0  0  0  0  0  0  0
   -3.9708   24.2104  -26.0394 N   0  0  0  0  0  0  0  0  0  0  0  0
   -4.4381   24.7348  -27.2566 C   0  0  0  0  0  0  0  0  0  0  0  0
   -3.9697   24.2746  -28.5575 C   0  0  0  0  0  0  0  0  0  0  0  0
   -2.6924   23.6917  -28.7322 N   0  0  0  0  0  0  0  0  0  0  0  0
   -3.1332   24.6895  -25.6312 H   0  0  0  0  0  0  0  0  0  0  0  0
   -2.2462   23.7533  -29.6708 H   0  0  0  0  0  0  0  0  0  0  0  0
    2.4101   20.6581  -20.4657 C   0  0  0  0  0  0  0  0  0  0  0  0
    1.2221   23.0019  -18.6948 C   0  0  0  0  0  0  0  0  0  0  0  0
    2.7213   22.6421  -18.8211 C   0  0  0  0  0  0  0  0  0  0  0  0
    3.0763   21.7749  -19.8018 C   0  0  0  0  0  0  0  0  0  0  0  0
    4.8592   21.8437  -19.6527 S   0  0  0  0  0  0  0  0  0  0  0  0
    4.9749   22.9383  -18.3566 C   0  0  0  0  0  0  0  0  0  0  0  0
    6.0457   23.4540  -17.6062 C   0  0  0  0  0  0  0  0  0  0  0  0
    5.8396   24.2983  -16.5455 C   0  0  0  0  0  0  0  0  0  0  0  0
    4.5159   24.6010  -16.2779 C   0  0  0  0  0  0  0  0  0  0  0  0
    3.4893   24.1132  -16.9868 C   0  0  0  0  0  0  0  0  0  0  0  0
    3.6772   23.2350  -18.0795 C   0  0  0  0  0  0  0  0  0  0  0  0
 21 22  1  0  0  0
 22 23  2  0  0  0
 23 20  1  0  0  0
 20  1  1  0  0  0
  1  2  1  0  0  0
  1  3  1  0  0  0
  3  4  2  0  0  0
  3  5  1  0  0  0
  5  6  2  0  0  0
  6  7  1  0  0  0
  7  8  2  0  0  0
  8  9  1  0  0  0
  9 10  2  0  0  0
 10 11  1  0  0  0
 11 12  2  0  0  0
 11 13  1  0  0  0
 13 14  1  0  0  0
 14 15  1  0  0  0
 15 16  1  0  0  0
 16 17  1  0  0  0
 23 24  1  0  0  0
 24 25  1  0  0  0
 25 26  2  0  0  0
 26 27  1  0  0  0
 27 28  2  0  0  0
 28 29  1  0  0  0
 29 30  2  0  0  0
 30 22  1  0  0  0
 12  7  1  0  0  0
 30 25  1  0  0  0
 17 10  1  0  0  0
 14 18  1  0  0  0
 17 19  1  0  0  0
M  END
> <minimizedAffinity>
-8.81792

> <CNNscore>
0.3872344196

> <CNNaffinity>
6.1068711281

> <CNN_VS>
2.3647906780

> <CNNaffinity_variance>
0.0564492568

$$$$
[H]/C(C(=O)N(C([H])([H])[H])C([H])([H])c1sc2c([H])c([H])c([H])c([H])c2c1C([H])([H])[H])=C(/[H])c1c([H])nc2c(c1[H])C([H])([H])N([H])C([H])([H])C([H])([H])N2[H]


 30 33  0  0  0  0  0  0  0  0999 V2000
   -5.2936   22.5860  -21.8023 N   0  0  0  0  0  0  0  0  0  0  0  0
   -4.2625   22.9735  -20.8783 C   0  0  0  0  0  0  0  0  0  0  0  0
   -6.5156   22.0178  -21.2109 C   0  0  0  0  0  0  0  0  0  0  0  0
   -7.3204   21.3562  -21.8665 O   0  0  0  0  0  0  0  0  0  0  0  0
   -6.7766   22.3242  -19.8094 C   0  0  0  0  0  0  0  0  0  0  0  0
   -7.5465   21.4332  -19.1642 C   0  0  0  0  0  0  0  0  0  0  0  0
   -7.9140   21.6046  -17.7462 C   0  0  0  0  0  0  0  0  0  0  0  0
   -9.1465   21.1692  -17.3133 C   0  0  0  0  0  0  0  0  0  0  0  0
   -9.6254   21.4344  -16.0516 N   0  0  0  0  0  0  0  0  0  0  0  0
   -8.8468   22.1482  -15.2219 C   0  0  0  0  0  0  0  0  0  0  0  0
   -7.6033   22.5796  -15.6422 C   0  0  0  0  0  0  0  0  0  0  0  0
   -7.1229   22.3184  -16.9003 C   0  0  0  0  0  0  0  0  0  0  0  0
   -6.6572   23.3585  -14.7769 C   0  0  0  0  0  0  0  0  0  0  0  0
   -7.3636   24.5785  -14.5027 N   0  0  0  0  0  0  0  0  0  0  0  0
   -8.2282   24.5848  -13.3948 C   0  0  0  0  0  0  0  0  0  0  0  0
   -9.0518   23.4436  -13.0171 C   0  0  0  0  0  0  0  0  0  0  0  0
   -9.4686   22.4740  -13.9595 N   0  0  0  0  0  0  0  0  0  0  0  0
   -7.7843   24.8971  -15.4078 H   0  0  0  0  0  0  0  0  0  0  0  0
  -10.3405   21.9395  -13.7646 H   0  0  0  0  0  0  0  0  0  0  0  0
   -5.2325   22.6196  -23.1700 C   0  0  0  0  0  0  0  0  0  0  0  0
   -4.9115   22.9995  -26.2995 C   0  0  0  0  0  0  0  0  0  0  0  0
   -3.7834   22.5900  -25.3233 C   0  0  0  0  0  0  0  0  0  0  0  0
   -4.1429   22.2378  -24.0638 C   0  0  0  0  0  0  0  0  0  0  0  0
   -2.5624   21.6871  -23.4276 S   0  0  0  0  0  0  0  0  0  0  0  0
   -1.6067   21.9783  -24.8035 C   0  0  0  0  0  0  0  0  0  0  0  0
   -0.2334   21.8647  -25.0808 C   0  0  0  0  0  0  0  0  0  0  0  0
    0.2886   22.2374  -26.2929 C   0  0  0  0  0  0  0  0  0  0  0  0
   -0.6284   22.7233  -27.2086 C   0  0  0  0  0  0  0  0  0  0  0  0
   -1.9384   22.8362  -26.9525 C   0  0  0  0  0  0  0  0  0  0  0  0
   -2.4980   22.4656  -25.7075 C   0  0  0  0  0  0  0  0  0  0  0  0
 21 22  1  0  0  0
 22 23  2  0  0  0
 23 20  1  0  0  0
 20  1  1  0  0  0
  1  2  1  0  0  0
  1  3  1  0  0  0
  3  4  2  0  0  0
  3  5  1  0  0  0
  5  6  2  0  0  0
  6  7  1  0  0  0
  7  8  2  0  0  0
  8  9  1  0  0  0
  9 10  2  0  0  0
 10 11  1  0  0  0
 11 12  2  0  0  0
 11 13  1  0  0  0
 13 14  1  0  0  0
 14 15  1  0  0  0
 15 16  1  0  0  0
 16 17  1  0  0  0
 23 24  1  0  0  0
 24 25  1  0  0  0
 25 26  2  0  0  0
 26 27  1  0  0  0
 27 28  2  0  0  0
 28 29  1  0  0  0
 29 30  2  0  0  0
 30 22  1  0  0  0
 12  7  1  0  0  0
 30 25  1  0  0  0
 17 10  1  0  0  0
 14 18  1  0  0  0
 17 19  1  0  0  0
M  END
> <minimizedAffinity>
-7.36249

> <CNNscore>
0.2584740520

> <CNNaffinity>
5.1123580933

> <CNN_VS>
1.3214119673

> <CNNaffinity_variance>
0.0339253135

$$$$
[H]/C(C(=O)N(C([H])([H])[H])C([H])([H])c1sc2c([H])c([H])c([H])c([H])c2c1C([H])([H])[H])=C(/[H])c1c([H])nc2c(c1[H])C([H])([H])N([H])C([H])([H])C([H])([H])N2[H]


 30 33  0  0  0  0  0  0  0  0999 V2000
   -2.4003   22.0347  -21.0818 N   0  0  0  0  0  0  0  0  0  0  0  0
   -3.4993   22.4578  -20.2569 C   0  0  0  0  0  0  0  0  0  0  0  0
   -1.0529   22.2656  -20.5370 C   0  0  0  0  0  0  0  0  0  0  0  0
   -0.0453   22.2623  -21.2442 O   0  0  0  0  0  0  0  0  0  0  0  0
   -0.9437   22.4397  -19.0934 C   0  0  0  0  0  0  0  0  0  0  0  0
   -0.1295   21.5703  -18.4737 C   0  0  0  0  0  0  0  0  0  0  0  0
    0.0792   21.6042  -17.0141 C   0  0  0  0  0  0  0  0  0  0  0  0
   -0.9883   21.3710  -16.1762 C   0  0  0  0  0  0  0  0  0  0  0  0
   -0.9125   21.5411  -14.8136 N   0  0  0  0  0  0  0  0  0  0  0  0
    0.2571   21.9519  -14.2965 C   0  0  0  0  0  0  0  0  0  0  0  0
    1.3380   22.1772  -15.1270 C   0  0  0  0  0  0  0  0  0  0  0  0
    1.2658   22.0101  -16.4867 C   0  0  0  0  0  0  0  0  0  0  0  0
    2.6875   22.6118  -14.6362 C   0  0  0  0  0  0  0  0  0  0  0  0
    2.4427   23.8968  -14.0434 N   0  0  0  0  0  0  0  0  0  0  0  0
    2.0528   23.9175  -12.6934 C   0  0  0  0  0  0  0  0  0  0  0  0
    1.1634   22.9257  -12.1030 C   0  0  0  0  0  0  0  0  0  0  0  0
    0.2189   22.2098  -12.8758 N   0  0  0  0  0  0  0  0  0  0  0  0
    1.8215   24.4233  -14.7028 H   0  0  0  0  0  0  0  0  0  0  0  0
   -0.6307   21.8419  -12.3997 H   0  0  0  0  0  0  0  0  0  0  0  0
   -2.4696   21.5105  -22.3450 C   0  0  0  0  0  0  0  0  0  0  0  0
   -0.3487   21.8759  -24.6708 C   0  0  0  0  0  0  0  0  0  0  0  0
   -1.8636   22.1688  -24.7817 C   0  0  0  0  0  0  0  0  0  0  0  0
   -2.5824   22.1915  -23.6318 C   0  0  0  0  0  0  0  0  0  0  0  0
   -4.1654   22.7432  -24.2607 S   0  0  0  0  0  0  0  0  0  0  0  0
   -3.7674   22.8663  -25.9093 C   0  0  0  0  0  0  0  0  0  0  0  0
   -4.4968   23.1780  -27.0696 C   0  0  0  0  0  0  0  0  0  0  0  0
   -3.9199   23.1413  -28.3131 C   0  0  0  0  0  0  0  0  0  0  0  0
   -2.5835   22.7824  -28.3357 C   0  0  0  0  0  0  0  0  0  0  0  0
   -1.8810   22.4826  -27.2353 C   0  0  0  0  0  0  0  0  0  0  0  0
   -2.4567   22.5060  -25.9435 C   0  0  0  0  0  0  0  0  0  0  0  0
 21 22  1  0  0  0
 22 23  2  0  0  0
 23 20  1  0  0  0
 20  1  1  0  0  0
  1  2  1  0  0  0
  1  3  1  0  0  0
  3  4  2  0  0  0
  3  5  1  0  0  0
  5  6  2  0  0  0
  6  7  1  0  0  0
  7  8  2  0  0  0
  8  9  1  0  0  0
  9 10  2  0  0  0
 10 11  1  0  0  0
 11 12  2  0  0  0
 11 13  1  0  0  0
 13 14  1  0  0  0
 14 15  1  0  0  0
 15 16  1  0  0  0
 16 17  1  0  0  0
 23 24  1  0  0  0
 24 25  1  0  0  0
 25 26  2  0  0  0
 26 27  1  0  0  0
 27 28  2  0  0  0
 28 29  1  0  0  0
 29 30  2  0  0  0
 30 22  1  0  0  0
 12  7  1  0  0  0
 30 25  1  0  0  0
 17 10  1  0  0  0
 14 18  1  0  0  0
 17 19  1  0  0  0
M  END
> <minimizedAffinity>
-7.20761

> <CNNscore>
0.2391330451

> <CNNaffinity>
5.3089528084

> <CNN_VS>
1.2695460320

> <CNNaffinity_variance>
0.0836281106

$$$$
[H]/C(C(=O)N(C([H])([H])[H])C([H])([H])c1sc2c([H])c([H])c([H])c([H])c2c1C([H])([H])[H])=C(/[H])c1c([H])nc2c(c1[H])C([H])([H])N([H])C([H])([H])C([H])([H])N2[H]


 30 33  0  0  0  0  0  0  0  0999 V2000
    1.6293   20.8630  -21.5312 N   0  0  0  0  0  0  0  0  0  0  0  0
    2.4803   20.7411  -22.6836 C   0  0  0  0  0  0  0  0  0  0  0  0
    0.3047   21.4612  -21.7623 C   0  0  0  0  0  0  0  0  0  0  0  0
   -0.3807   21.9206  -20.8489 O   0  0  0  0  0  0  0  0  0  0  0  0
   -0.2043   21.4340  -23.1285 C   0  0  0  0  0  0  0  0  0  0  0  0
   -1.0619   22.4198  -23.4377 C   0  0  0  0  0  0  0  0  0  0  0  0
   -1.6766   22.5259  -24.7741 C   0  0  0  0  0  0  0  0  0  0  0  0
   -0.9082   22.2786  -25.8897 C   0  0  0  0  0  0  0  0  0  0  0  0
   -1.3603   22.5103  -27.1677 N   0  0  0  0  0  0  0  0  0  0  0  0
   -2.6032   22.9978  -27.3151 C   0  0  0  0  0  0  0  0  0  0  0  0
   -3.3869   23.2382  -26.2029 C   0  0  0  0  0  0  0  0  0  0  0  0
   -2.9390   23.0097  -24.9266 C   0  0  0  0  0  0  0  0  0  0  0  0
   -4.7930   23.7566  -26.2728 C   0  0  0  0  0  0  0  0  0  0  0  0
   -4.6542   25.0528  -26.8755 N   0  0  0  0  0  0  0  0  0  0  0  0
   -4.6658   25.1129  -28.2794 C   0  0  0  0  0  0  0  0  0  0  0  0
   -4.0408   24.1063  -29.1277 C   0  0  0  0  0  0  0  0  0  0  0  0
   -2.9577   23.3141  -28.6792 N   0  0  0  0  0  0  0  0  0  0  0  0
   -3.8413   25.5206  -26.4084 H   0  0  0  0  0  0  0  0  0  0  0  0
   -2.3022   22.9272  -29.3894 H   0  0  0  0  0  0  0  0  0  0  0  0
    1.9443   20.5524  -20.2352 C   0  0  0  0  0  0  0  0  0  0  0  0
    5.1005   20.7211  -20.0087 C   0  0  0  0  0  0  0  0  0  0  0  0
    4.0960   21.6311  -19.2632 C   0  0  0  0  0  0  0  0  0  0  0  0
    2.7890   21.2693  -19.2839 C   0  0  0  0  0  0  0  0  0  0  0  0
    2.1071   22.4875  -18.1629 S   0  0  0  0  0  0  0  0  0  0  0  0
    3.5320   23.3419  -17.8012 C   0  0  0  0  0  0  0  0  0  0  0  0
    3.8171   24.4875  -17.0383 C   0  0  0  0  0  0  0  0  0  0  0  0
    5.0840   25.0075  -16.9678 C   0  0  0  0  0  0  0  0  0  0  0  0
    6.0456   24.3249  -17.6922 C   0  0  0  0  0  0  0  0  0  0  0  0
    5.7828   23.2334  -18.4228 C   0  0  0  0  0  0  0  0  0  0  0  0
    4.4828   22.6839  -18.5167 C   0  0  0  0  0  0  0  0  0  0  0  0
 21 22  1  0  0  0
 22 23  2  0  0  0
 23 20  1  0  0  0
 20  1  1  0  0  0
  1  2  1  0  0  0
  1  3  1  0  0  0
  3  4  2  0  0  0
  3  5  1  0  0  0
  5  6  2  0  0  0
  6  7  1  0  0  0
  7  8  2  0  0  0
  8  9  1  0  0  0
  9 10  2  0  0  0
 10 11  1  0  0  0
 11 12  2  0  0  0
 11 13  1  0  0  0
 13 14  1  0  0  0
 14 15  1  0  0  0
 15 16  1  0  0  0
 16 17  1  0  0  0
 23 24  1  0  0  0
 24 25  1  0  0  0
 25 26  2  0  0  0
 26 27  1  0  0  0
 27 28  2  0  0  0
 28 29  1  0  0  0
 29 30  2  0  0  0
 30 22  1  0  0  0
 12  7  1  0  0  0
 30 25  1  0  0  0
 17 10  1  0  0  0
 14 18  1  0  0  0
 17 19  1  0  0  0
M  END
> <minimizedAffinity>
-7.98048

> <CNNscore>
0.2298258990

> <CNNaffinity>
5.9517216682

> <CNN_VS>
1.3678598404

> <CNNaffinity_variance>
0.2999796271

$$$$
[H]/C(C(=O)N(C([H])([H])[H])C([H])([H])c1sc2c([H])c([H])c([H])c([H])c2c1C([H])([H])[H])=C(/[H])c1c([H])nc2c(c1[H])C([H])([H])N([H])C([H])([H])C([H])([H])N2[H]


 30 33  0  0  0  0  0  0  0  0999 V2000
   -3.7192   22.5911  -22.2147 N   0  0  0  0  0  0  0  0  0  0  0  0
   -4.4951   21.6609  -21.4402 C   0  0  0  0  0  0  0  0  0  0  0  0
   -2.6282   23.2767  -21.5038 C   0  0  0  0  0  0  0  0  0  0  0  0
   -2.1092   24.3087  -21.9289 O   0  0  0  0  0  0  0  0  0  0  0  0
   -2.1314   22.6448  -20.2872 C   0  0  0  0  0  0  0  0  0  0  0  0
   -1.0508   23.2265  -19.7423 C   0  0  0  0  0  0  0  0  0  0  0  0
   -0.4184   22.7014  -18.5178 C   0  0  0  0  0  0  0  0  0  0  0  0
    0.9427   22.8311  -18.3548 C   0  0  0  0  0  0  0  0  0  0  0  0
    1.6265   22.2309  -17.3235 N   0  0  0  0  0  0  0  0  0  0  0  0
    0.9229   21.4920  -16.4500 C   0  0  0  0  0  0  0  0  0  0  0  0
   -0.4450   21.3652  -16.5975 C   0  0  0  0  0  0  0  0  0  0  0  0
   -1.1303   21.9611  -17.6256 C   0  0  0  0  0  0  0  0  0  0  0  0
   -1.3138   20.5829  -15.6572 C   0  0  0  0  0  0  0  0  0  0  0  0
   -0.8336   19.2352  -15.7828 N   0  0  0  0  0  0  0  0  0  0  0  0
    0.2368   18.8551  -14.9553 C   0  0  0  0  0  0  0  0  0  0  0  0
    1.3431   19.7427  -14.6212 C   0  0  0  0  0  0  0  0  0  0  0  0
    1.7303   20.8102  -15.4652 N   0  0  0  0  0  0  0  0  0  0  0  0
   -0.7025   19.0525  -16.8061 H   0  0  0  0  0  0  0  0  0  0  0  0
    2.7153   21.1438  -15.4184 H   0  0  0  0  0  0  0  0  0  0  0  0
   -3.9314   22.9614  -23.5159 C   0  0  0  0  0  0  0  0  0  0  0  0
   -4.6848   23.2933  -26.5759 C   0  0  0  0  0  0  0  0  0  0  0  0
   -3.2795   22.9489  -26.0285 C   0  0  0  0  0  0  0  0  0  0  0  0
   -3.1843   22.6069  -24.7194 C   0  0  0  0  0  0  0  0  0  0  0  0
   -1.4594   22.1335  -24.6423 S   0  0  0  0  0  0  0  0  0  0  0  0
   -1.0286   22.4365  -26.2591 C   0  0  0  0  0  0  0  0  0  0  0  0
    0.1783   22.3735  -26.9767 C   0  0  0  0  0  0  0  0  0  0  0  0
    0.2511   22.7435  -28.2951 C   0  0  0  0  0  0  0  0  0  0  0  0
   -0.9387   23.1737  -28.8561 C   0  0  0  0  0  0  0  0  0  0  0  0
   -2.0930   23.2383  -28.1796 C   0  0  0  0  0  0  0  0  0  0  0  0
   -2.1903   22.8695  -26.8175 C   0  0  0  0  0  0  0  0  0  0  0  0
 21 22  1  0  0  0
 22 23  2  0  0  0
 23 20  1  0  0  0
 20  1  1  0  0  0
  1  2  1  0  0  0
  1  3  1  0  0  0
  3  4  2  0  0  0
  3  5  1  0  0  0
  5  6  2  0  0  0
  6  7  1  0  0  0
  7  8  2  0  0  0
  8  9  1  0  0  0
  9 10  2  0  0  0
 10 11  1  0  0  0
 11 12  2  0  0  0
 11 13  1  0  0  0
 13 14  1  0  0  0
 14 15  1  0  0  0
 15 16  1  0  0  0
 16 17  1  0  0  0
 23 24  1  0  0  0
 24 25  1  0  0  0
 25 26  2  0  0  0
 26 27  1  0  0  0
 27 28  2  0  0  0
 28 29  1  0  0  0
 29 30  2  0  0  0
 30 22  1  0  0  0
 12  7  1  0  0  0
 30 25  1  0  0  0
 17 10  1  0  0  0
 14 18  1  0  0  0
 17 19  1  0  0  0
M  END
> <minimizedAffinity>
-7.14735

> <CNNscore>
0.2287100106

> <CNNaffinity>
5.3951020241

> <CNN_VS>
1.2339138985

> <CNNaffinity_variance>
0.0820301920

$$$$
[H]/C(C(=O)N(C([H])([H])[H])C([H])([H])c1sc2c([H])c([H])c([H])c([H])c2c1C([H])([H])[H])=C(/[H])c1c([H])nc2c(c1[H])C([H])([H])N([H])C([H])([H])C([H])([H])N2[H]


 30 33  0  0  0  0  0  0  0  0999 V2000
   -5.5978   21.8527  -22.2173 N   0  0  0  0  0  0  0  0  0  0  0  0
   -4.3756   22.0520  -21.4868 C   0  0  0  0  0  0  0  0  0  0  0  0
   -6.8285   21.7726  -21.4143 C   0  0  0  0  0  0  0  0  0  0  0  0
   -7.8722   21.2887  -21.8523 O   0  0  0  0  0  0  0  0  0  0  0  0
   -6.7857   22.3542  -20.0779 C   0  0  0  0  0  0  0  0  0  0  0  0
   -7.2311   21.5566  -19.0938 C   0  0  0  0  0  0  0  0  0  0  0  0
   -7.2657   22.0004  -17.6878 C   0  0  0  0  0  0  0  0  0  0  0  0
   -8.4077   21.7968  -16.9459 C   0  0  0  0  0  0  0  0  0  0  0  0
   -8.5764   22.3207  -15.6856 N   0  0  0  0  0  0  0  0  0  0  0  0
   -7.5774   23.0582  -15.1735 C   0  0  0  0  0  0  0  0  0  0  0  0
   -6.4223   23.2586  -15.9046 C   0  0  0  0  0  0  0  0  0  0  0  0
   -6.2510   22.7390  -17.1626 C   0  0  0  0  0  0  0  0  0  0  0  0
   -5.2470   24.0450  -15.4036 C   0  0  0  0  0  0  0  0  0  0  0  0
   -5.7688   25.3710  -15.2251 N   0  0  0  0  0  0  0  0  0  0  0  0
   -6.3683   25.6642  -13.9883 C   0  0  0  0  0  0  0  0  0  0  0  0
   -7.1858   24.7101  -13.2503 C   0  0  0  0  0  0  0  0  0  0  0  0
   -7.8797   23.6592  -13.8952 N   0  0  0  0  0  0  0  0  0  0  0  0
   -6.3467   25.5877  -16.0717 H   0  0  0  0  0  0  0  0  0  0  0  0
   -8.7314   23.2753  -13.4358 H   0  0  0  0  0  0  0  0  0  0  0  0
   -5.7315   21.6562  -23.5659 C   0  0  0  0  0  0  0  0  0  0  0  0
   -2.8736   21.7446  -24.9317 C   0  0  0  0  0  0  0  0  0  0  0  0
   -4.1619   22.3843  -25.5009 C   0  0  0  0  0  0  0  0  0  0  0  0
   -5.2378   22.4624  -24.6787 C   0  0  0  0  0  0  0  0  0  0  0  0
   -6.3507   23.4170  -25.7063 S   0  0  0  0  0  0  0  0  0  0  0  0
   -5.3574   23.6000  -27.0742 C   0  0  0  0  0  0  0  0  0  0  0  0
   -5.5388   24.1771  -28.3430 C   0  0  0  0  0  0  0  0  0  0  0  0
   -4.5603   24.1264  -29.3024 C   0  0  0  0  0  0  0  0  0  0  0  0
   -3.3973   23.4760  -28.9286 C   0  0  0  0  0  0  0  0  0  0  0  0
   -3.2163   22.9221  -27.7225 C   0  0  0  0  0  0  0  0  0  0  0  0
   -4.2138   22.9551  -26.7202 C   0  0  0  0  0  0  0  0  0  0  0  0
 21 22  1  0  0  0
 22 23  2  0  0  0
 23 20  1  0  0  0
 20  1  1  0  0  0
  1  2  1  0  0  0
  1  3  1  0  0  0
  3  4  2  0  0  0
  3  5  1  0  0  0
  5  6  2  0  0  0
  6  7  1  0  0  0
  7  8  2  0  0  0
  8  9  1  0  0  0
  9 10  2  0  0  0
 10 11  1  0  0  0
 11 12  2  0  0  0
 11 13  1  0  0  0
 13 14  1  0  0  0
 14 15  1  0  0  0
 15 16  1  0  0  0
 16 17  1  0  0  0
 23 24  1  0  0  0
 24 25  1  0  0  0
 25 26  2  0  0  0
 26 27  1  0  0  0
 27 28  2  0  0  0
 28 29  1  0  0  0
 29 30  2  0  0  0
 30 22  1  0  0  0
 12  7  1  0  0  0
 30 25  1  0  0  0
 17 10  1  0  0  0
 14 18  1  0  0  0
 17 19  1  0  0  0
M  END
> <minimizedAffinity>
-7.46401

> <CNNscore>
0.2125491351

> <CNNaffinity>
5.2373762131

> <CNN_VS>
1.1131998301

> <CNNaffinity_variance>
0.1083243340

$$$$
[H]/C(C(=O)N(C([H])([H])[H])C([H])([H])c1sc2c([H])c([H])c([H])c([H])c2c1C([H])([H])[H])=C(/[H])c1c([H])nc2c(c1[H])C([H])([H])N([H])C([H])([H])C([H])([H])N2[H]


 30 33  0  0  0  0  0  0  0  0999 V2000
   -0.2449   21.8771  -19.8837 N   0  0  0  0  0  0  0  0  0  0  0  0
   -0.6437   23.1852  -19.4399 C   0  0  0  0  0  0  0  0  0  0  0  0
    0.3602   21.0027  -18.8663 C   0  0  0  0  0  0  0  0  0  0  0  0
    1.0314   20.0136  -19.1606 O   0  0  0  0  0  0  0  0  0  0  0  0
    0.0797   21.3187  -17.4707 C   0  0  0  0  0  0  0  0  0  0  0  0
    1.1624   21.4691  -16.6909 C   0  0  0  0  0  0  0  0  0  0  0  0
    1.0492   21.7774  -15.2531 C   0  0  0  0  0  0  0  0  0  0  0  0
   -0.0775   21.3827  -14.5670 C   0  0  0  0  0  0  0  0  0  0  0  0
   -0.3300   21.7686  -13.2713 N   0  0  0  0  0  0  0  0  0  0  0  0
    0.5689   22.5626  -12.6665 C   0  0  0  0  0  0  0  0  0  0  0  0
    1.7088   22.9546  -13.3418 C   0  0  0  0  0  0  0  0  0  0  0  0
    1.9633   22.5729  -14.6346 C   0  0  0  0  0  0  0  0  0  0  0  0
    2.7775   23.8173  -12.7383 C   0  0  0  0  0  0  0  0  0  0  0  0
    2.1062   25.0561  -12.4602 N   0  0  0  0  0  0  0  0  0  0  0  0
    1.4523   25.1682  -11.2214 C   0  0  0  0  0  0  0  0  0  0  0  0
    0.7325   24.0669  -10.5949 C   0  0  0  0  0  0  0  0  0  0  0  0
    0.1748   23.0085  -11.3503 N   0  0  0  0  0  0  0  0  0  0  0  0
    1.5249   25.2833  -13.3018 H   0  0  0  0  0  0  0  0  0  0  0  0
   -0.6375   22.4930  -10.9524 H   0  0  0  0  0  0  0  0  0  0  0  0
   -0.2990   21.3859  -21.1608 C   0  0  0  0  0  0  0  0  0  0  0  0
    0.9346   21.7218  -24.0602 C   0  0  0  0  0  0  0  0  0  0  0  0
   -0.5515   21.9324  -23.6858 C   0  0  0  0  0  0  0  0  0  0  0  0
   -0.8631   21.9854  -22.3668 C   0  0  0  0  0  0  0  0  0  0  0  0
   -2.5967   22.4210  -22.4701 S   0  0  0  0  0  0  0  0  0  0  0  0
   -2.7577   22.4687  -24.1622 C   0  0  0  0  0  0  0  0  0  0  0  0
   -3.8397   22.6767  -25.0350 C   0  0  0  0  0  0  0  0  0  0  0  0
   -3.6912   22.5973  -26.3959 C   0  0  0  0  0  0  0  0  0  0  0  0
   -2.4123   22.3044  -26.8361 C   0  0  0  0  0  0  0  0  0  0  0  0
   -1.3758   22.1035  -26.0118 C   0  0  0  0  0  0  0  0  0  0  0  0
   -1.5068   22.1725  -24.6051 C   0  0  0  0  0  0  0  0  0  0  0  0
 21 22  1  0  0  0
 22 23  2  0  0  0
 23 20  1  0  0  0
 20  1  1  0  0  0
  1  2  1  0  0  0
  1  3  1  0  0  0
  3  4  2  0  0  0
  3  5  1  0  0  0
  5  6  2  0  0  0
  6  7  1  0  0  0
  7  8  2  0  0  0
  8  9  1  0  0  0
  9 10  2  0  0  0
 10 11  1  0  0  0
 11 12  2  0  0  0
 11 13  1  0  0  0
 13 14  1  0  0  0
 14 15  1  0  0  0
 15 16  1  0  0  0
 16 17  1  0  0  0
 23 24  1  0  0  0
 24 25  1  0  0  0
 25 26  2  0  0  0
 26 27  1  0  0  0
 27 28  2  0  0  0
 28 29  1  0  0  0
 29 30  2  0  0  0
 30 22  1  0  0  0
 12  7  1  0  0  0
 30 25  1  0  0  0
 17 10  1  0  0  0
 14 18  1  0  0  0
 17 19  1  0  0  0
M  END
> <minimizedAffinity>
-7.16238

> <CNNscore>
0.2018034458

> <CNNaffinity>
4.9619088173

> <CNN_VS>
1.0013302565

> <CNNaffinity_variance>
0.1130281314

$$$$
[H]/C(C(=O)N(C([H])([H])[H])C([H])([H])c1sc2c([H])c([H])c([H])c([H])c2c1C([H])([H])[H])=C(/[H])c1c([H])nc2c(c1[H])C([H])([H])N([H])C([H])([H])C([H])([H])N2[H]


 30 33  0  0  0  0  0  0  0  0999 V2000
   -1.0704   22.3622  -22.7379 N   0  0  0  0  0  0  0  0  0  0  0  0
   -0.6333   21.0050  -22.5531 C   0  0  0  0  0  0  0  0  0  0  0  0
   -1.4542   23.0924  -21.5192 C   0  0  0  0  0  0  0  0  0  0  0  0
   -2.1404   24.1139  -21.5501 O   0  0  0  0  0  0  0  0  0  0  0  0
   -0.9312   22.5897  -20.2543 C   0  0  0  0  0  0  0  0  0  0  0  0
   -1.8329   22.4859  -19.2648 C   0  0  0  0  0  0  0  0  0  0  0  0
   -1.4615   22.0066  -17.9204 C   0  0  0  0  0  0  0  0  0  0  0  0
   -2.4507   21.7812  -16.9894 C   0  0  0  0  0  0  0  0  0  0  0  0
   -2.1778   21.4892  -15.6735 N   0  0  0  0  0  0  0  0  0  0  0  0
   -0.8895   21.4257  -15.2988 C   0  0  0  0  0  0  0  0  0  0  0  0
    0.1110   21.6382  -16.2276 C   0  0  0  0  0  0  0  0  0  0  0  0
   -0.1573   21.9312  -17.5407 C   0  0  0  0  0  0  0  0  0  0  0  0
    1.5743   21.5620  -15.9058 C   0  0  0  0  0  0  0  0  0  0  0  0
    1.7731   22.6134  -14.9479 N   0  0  0  0  0  0  0  0  0  0  0  0
    1.5586   22.2987  -13.5951 C   0  0  0  0  0  0  0  0  0  0  0  0
    0.4956   21.4123  -13.1395 C   0  0  0  0  0  0  0  0  0  0  0  0
   -0.6938   21.2230  -13.8820 N   0  0  0  0  0  0  0  0  0  0  0  0
    1.2578   23.4527  -15.3052 H   0  0  0  0  0  0  0  0  0  0  0  0
   -1.5542   20.9364  -13.3708 H   0  0  0  0  0  0  0  0  0  0  0  0
   -1.2380   23.0215  -23.9264 C   0  0  0  0  0  0  0  0  0  0  0  0
   -4.4054   23.0424  -24.0182 C   0  0  0  0  0  0  0  0  0  0  0  0
   -3.4708   22.9866  -25.2497 C   0  0  0  0  0  0  0  0  0  0  0  0
   -2.1558   22.7404  -25.0267 C   0  0  0  0  0  0  0  0  0  0  0  0
   -1.5734   22.5889  -26.7130 S   0  0  0  0  0  0  0  0  0  0  0  0
   -3.0392   22.8740  -27.5264 C   0  0  0  0  0  0  0  0  0  0  0  0
   -3.3987   22.9886  -28.8804 C   0  0  0  0  0  0  0  0  0  0  0  0
   -4.6809   23.2919  -29.2606 C   0  0  0  0  0  0  0  0  0  0  0  0
   -5.5798   23.4700  -28.2236 C   0  0  0  0  0  0  0  0  0  0  0  0
   -5.2458   23.3640  -26.9307 C   0  0  0  0  0  0  0  0  0  0  0  0
   -3.9285   23.0599  -26.5148 C   0  0  0  0  0  0  0  0  0  0  0  0
 21 22  1  0  0  0
 22 23  2  0  0  0
 23 20  1  0  0  0
 20  1  1  0  0  0
  1  2  1  0  0  0
  1  3  1  0  0  0
  3  4  2  0  0  0
  3  5  1  0  0  0
  5  6  2  0  0  0
  6  7  1  0  0  0
  7  8  2  0  0  0
  8  9  1  0  0  0
  9 10  2  0  0  0
 10 11  1  0  0  0
 11 12  2  0  0  0
 11 13  1  0  0  0
 13 14  1  0  0  0
 14 15  1  0  0  0
 15 16  1  0  0  0
 16 17  1  0  0  0
 23 24  1  0  0  0
 24 25  1  0  0  0
 25 26  2  0  0  0
 26 27  1  0  0  0
 27 28  2  0  0  0
 28 29  1  0  0  0
 29 30  2  0  0  0
 30 22  1  0  0  0
 12  7  1  0  0  0
 30 25  1  0  0  0
 17 10  1  0  0  0
 14 18  1  0  0  0
 17 19  1  0  0  0
M  END
> <minimizedAffinity>
-7.00397

> <CNNscore>
0.1913179308

> <CNNaffinity>
5.4614620209

> <CNN_VS>
1.0448756218

> <CNNaffinity_variance>
0.1349538863

$$$$
[H]/C(C(=O)N(C([H])([H])[H])C([H])([H])c1sc2c([H])c([H])c([H])c([H])c2c1C([H])([H])[H])=C(/[H])c1c([H])nc2c(c1[H])C([H])([H])N([H])C([H])([H])C([H])([H])N2[H]


 30 33  0  0  0  0  0  0  0  0999 V2000
   -6.0910   23.6577  -23.4975 N   0  0  0  0  0  0  0  0  0  0  0  0
   -7.2423   24.4473  -23.1536 C   0  0  0  0  0  0  0  0  0  0  0  0
   -5.7775   22.5390  -22.5941 C   0  0  0  0  0  0  0  0  0  0  0  0
   -4.6718   21.9986  -22.5716 O   0  0  0  0  0  0  0  0  0  0  0  0
   -6.8617   22.0424  -21.7550 C   0  0  0  0  0  0  0  0  0  0  0  0
   -6.6775   22.1968  -20.4339 C   0  0  0  0  0  0  0  0  0  0  0  0
   -7.6744   21.7355  -19.4499 C   0  0  0  0  0  0  0  0  0  0  0  0
   -8.5128   22.6547  -18.8599 C   0  0  0  0  0  0  0  0  0  0  0  0
   -9.3555   22.3310  -17.8223 N   0  0  0  0  0  0  0  0  0  0  0  0
   -9.3470   21.0631  -17.3792 C   0  0  0  0  0  0  0  0  0  0  0  0
   -8.5184   20.1299  -17.9721 C   0  0  0  0  0  0  0  0  0  0  0  0
   -7.6755   20.4493  -19.0062 C   0  0  0  0  0  0  0  0  0  0  0  0
   -8.4613   18.6882  -17.5610 C   0  0  0  0  0  0  0  0  0  0  0  0
   -8.0009   18.7341  -16.2014 N   0  0  0  0  0  0  0  0  0  0  0  0
   -8.9741   18.8806  -15.1983 C   0  0  0  0  0  0  0  0  0  0  0  0
  -10.1546   19.7220  -15.3468 C   0  0  0  0  0  0  0  0  0  0  0  0
  -10.1781   20.8351  -16.2199 N   0  0  0  0  0  0  0  0  0  0  0  0
   -7.2108   19.4215  -16.1703 H   0  0  0  0  0  0  0  0  0  0  0  0
  -10.8375   21.6128  -16.0101 H   0  0  0  0  0  0  0  0  0  0  0  0
   -5.2160   23.8779  -24.5276 C   0  0  0  0  0  0  0  0  0  0  0  0
   -4.4011   26.5942  -25.9414 C   0  0  0  0  0  0  0  0  0  0  0  0
   -4.9496   25.3375  -26.6575 C   0  0  0  0  0  0  0  0  0  0  0  0
   -5.4737   24.3548  -25.8835 C   0  0  0  0  0  0  0  0  0  0  0  0
   -6.1164   23.2650  -27.1504 S   0  0  0  0  0  0  0  0  0  0  0  0
   -5.6392   24.1455  -28.5246 C   0  0  0  0  0  0  0  0  0  0  0  0
   -5.7196   23.9151  -29.9088 C   0  0  0  0  0  0  0  0  0  0  0  0
   -5.1826   24.7921  -30.8161 C   0  0  0  0  0  0  0  0  0  0  0  0
   -4.5681   25.9059  -30.2710 C   0  0  0  0  0  0  0  0  0  0  0  0
   -4.4858   26.1329  -28.9534 C   0  0  0  0  0  0  0  0  0  0  0  0
   -5.0251   25.2390  -27.9991 C   0  0  0  0  0  0  0  0  0  0  0  0
 21 22  1  0  0  0
 22 23  2  0  0  0
 23 20  1  0  0  0
 20  1  1  0  0  0
  1  2  1  0  0  0
  1  3  1  0  0  0
  3  4  2  0  0  0
  3  5  1  0  0  0
  5  6  2  0  0  0
  6  7  1  0  0  0
  7  8  2  0  0  0
  8  9  1  0  0  0
  9 10  2  0  0  0
 10 11  1  0  0  0
 11 12  2  0  0  0
 11 13  1  0  0  0
 13 14  1  0  0  0
 14 15  1  0  0  0
 15 16  1  0  0  0
 16 17  1  0  0  0
 23 24  1  0  0  0
 24 25  1  0  0  0
 25 26  2  0  0  0
 26 27  1  0  0  0
 27 28  2  0  0  0
 28 29  1  0  0  0
 29 30  2  0  0  0
 30 22  1  0  0  0
 12  7  1  0  0  0
 30 25  1  0  0  0
 17 10  1  0  0  0
 14 18  1  0  0  0
 17 19  1  0  0  0
M  END
> <minimizedAffinity>
-6.85479

> <CNNscore>
0.1738716215

> <CNNaffinity>
5.4793233871

> <CNN_VS>
0.9526988268

> <CNNaffinity_variance>
0.2030810416

$$$$
[H]c1c([H])c([H])c(C([H])([H])N(C([H])([H])[H])C([H])([H])C([H])([H])OC(=O)C2=C(C([H])([H])[H])N=C(C([H])([H])[H])C([H])(C(=O)OC([H])([H])[H])C2([H])c2c([H])c([H])c([H])c([N+](=O)[O-])c2[H])c([H])c1[H]


 35 37  0  0  0  0  0  0  0  0999 V2000
   -4.2702   23.9480  -28.0613 C   0  0  0  0  0  0  0  0  0  0  0  0
   -2.8584   23.7967  -28.4280 C   0  0  0  0  0  0  0  0  0  0  0  0
   -2.4381   24.4091  -29.7543 C   0  0  0  0  0  0  0  0  0  0  0  0
   -1.9756   23.2132  -27.7490 N   0  0  0  0  0  0  0  0  0  0  0  0
   -2.2855   22.6219  -26.5023 C   0  0  0  0  0  0  0  0  0  0  0  0
   -1.1660   21.9262  -25.7735 C   0  0  0  0  0  0  0  0  0  0  0  0
   -3.5166   22.6853  -26.0402 C   0  0  0  0  0  0  0  0  0  0  0  0
   -4.6211   23.3950  -26.7603 C   0  0  0  0  0  0  0  0  0  0  0  0
   -5.1894   24.4116  -25.8241 C   0  0  0  0  0  0  0  0  0  0  0  0
   -4.7095   25.6885  -25.7272 C   0  0  0  0  0  0  0  0  0  0  0  0
   -5.2711   26.6098  -24.8666 C   0  0  0  0  0  0  0  0  0  0  0  0
   -6.3523   26.2343  -24.0764 C   0  0  0  0  0  0  0  0  0  0  0  0
   -6.8452   24.9427  -24.1679 C   0  0  0  0  0  0  0  0  0  0  0  0
   -6.2554   24.0486  -25.0421 C   0  0  0  0  0  0  0  0  0  0  0  0
   -7.9490   24.5827  -23.3524 N   0  0  0  0  0  0  0  0  0  0  0  0
   -9.0279   25.1706  -23.5267 O   0  0  0  0  0  0  0  0  0  0  0  0
   -7.8771   23.6201  -22.3857 O   0  0  0  0  0  0  0  0  0  0  0  0
   -5.0526   23.3148  -29.1911 C   0  0  0  0  0  0  0  0  0  0  0  0
   -4.8480   22.1609  -29.5668 O   0  0  0  0  0  0  0  0  0  0  0  0
   -5.8669   24.5003  -31.1556 C   0  0  0  0  0  0  0  0  0  0  0  0
   -6.0231   24.0805  -29.8035 O   0  0  0  0  0  0  0  0  0  0  0  0
   -3.8402   22.0763  -24.7599 C   0  0  0  0  0  0  0  0  0  0  0  0
   -4.4496   20.9406  -24.7905 O   0  0  0  0  0  0  0  0  0  0  0  0
   -3.5832   22.5469  -23.4934 O   0  0  0  0  0  0  0  0  0  0  0  0
   -4.2111   21.8752  -22.3876 C   0  0  0  0  0  0  0  0  0  0  0  0
   -4.0403   22.5885  -21.1071 C   0  0  0  0  0  0  0  0  0  0  0  0
   -3.0345   22.1802  -20.2130 N   0  0  0  0  0  0  0  0  0  0  0  0
   -3.3152   21.9432  -18.8690 C   0  0  0  0  0  0  0  0  0  0  0  0
   -1.8558   22.9738  -20.4270 C   0  0  0  0  0  0  0  0  0  0  0  0
   -0.6540   22.1981  -20.7896 C   0  0  0  0  0  0  0  0  0  0  0  0
    0.3269   21.8230  -19.8899 C   0  0  0  0  0  0  0  0  0  0  0  0
    1.4356   21.0976  -20.2697 C   0  0  0  0  0  0  0  0  0  0  0  0
    1.5725   20.7321  -21.5947 C   0  0  0  0  0  0  0  0  0  0  0  0
    0.6056   21.0965  -22.5060 C   0  0  0  0  0  0  0  0  0  0  0  0
   -0.4828   21.8150  -22.1049 C   0  0  0  0  0  0  0  0  0  0  0  0
 20 21  1  0  0  0
 21 18  1  0  0  0
 18 19  2  0  0  0
 18  1  1  0  0  0
  1  2  1  0  0  0
  2  3  1  0  0  0
  2  4  2  0  0  0
  4  5  1  0  0  0
  5  6  1  0  0  0
  5  7  2  0  0  0
  7 22  1  0  0  0
 22 23  2  0  0  0
 22 24  1  0  0  0
 24 25  1  0  0  0
 25 26  1  0  0  0
 26 27  1  0  0  0
 27 28  1  0  0  0
 27 29  1  0  0  0
 29 30  1  0  0  0
 30 31  2  0  0  0
 31 32  1  0  0  0
 32 33  2  0  0  0
 33 34  1  0  0  0
 34 35  2  0  0  0
  7  8  1  0  0  0
  8  9  1  0  0  0
  9 10  2  0  0  0
 10 11  1  0  0  0
 11 12  2  0  0  0
 12 13  1  0  0  0
 13 15  1  0  0  0
 15 16  2  0  0  0
 15 17  1  0  0  0
 13 14  2  0  0  0
  8  1  1  0  0  0
 14  9  1  0  0  0
 35 30  1  0  0  0
M  CHG 1  15   1
M  CHG 1  17  -1
M  END
> <minimizedAffinity>
-7.05677

> <CNNscore>
0.3890445232

> <CNNaffinity>
6.8713898659

> <CNN_VS>
2.6732766628

> <CNNaffinity_variance>
0.2186451405

$$$$
[H]c1c([H])c([H])c(C([H])([H])N(C([H])([H])[H])C([H])([H])C([H])([H])OC(=O)C2=C(C([H])([H])[H])N=C(C([H])([H])[H])C([H])(C(=O)OC([H])([H])[H])C2([H])c2c([H])c([H])c([H])c([N+](=O)[O-])c2[H])c([H])c1[H]


 35 37  0  0  0  0  0  0  0  0999 V2000
   -5.0615   24.8265  -25.1477 C   0  0  0  0  0  0  0  0  0  0  0  0
   -6.4513   24.5547  -24.7667 C   0  0  0  0  0  0  0  0  0  0  0  0
   -7.4529   25.6659  -25.0367 C   0  0  0  0  0  0  0  0  0  0  0  0
   -6.8820   23.4954  -24.2439 N   0  0  0  0  0  0  0  0  0  0  0  0
   -6.0147   22.4136  -23.9654 C   0  0  0  0  0  0  0  0  0  0  0  0
   -6.6196   21.1959  -23.3178 C   0  0  0  0  0  0  0  0  0  0  0  0
   -4.7356   22.5125  -24.2610 C   0  0  0  0  0  0  0  0  0  0  0  0
   -4.1435   23.7183  -24.9223 C   0  0  0  0  0  0  0  0  0  0  0  0
   -3.4605   23.2588  -26.1695 C   0  0  0  0  0  0  0  0  0  0  0  0
   -4.1137   23.0857  -27.3584 C   0  0  0  0  0  0  0  0  0  0  0  0
   -3.4487   22.6798  -28.4976 C   0  0  0  0  0  0  0  0  0  0  0  0
   -2.0800   22.4397  -28.4394 C   0  0  0  0  0  0  0  0  0  0  0  0
   -1.4099   22.6125  -27.2391 C   0  0  0  0  0  0  0  0  0  0  0  0
   -2.1113   23.0202  -26.1196 C   0  0  0  0  0  0  0  0  0  0  0  0
   -0.0139   22.3621  -27.2040 N   0  0  0  0  0  0  0  0  0  0  0  0
    0.4838   21.9410  -26.1481 O   0  0  0  0  0  0  0  0  0  0  0  0
    0.8053   22.5637  -28.2786 O   0  0  0  0  0  0  0  0  0  0  0  0
   -4.6675   26.0711  -24.3829 C   0  0  0  0  0  0  0  0  0  0  0  0
   -4.8460   27.2030  -24.8320 O   0  0  0  0  0  0  0  0  0  0  0  0
   -4.8634   25.4293  -22.0426 C   0  0  0  0  0  0  0  0  0  0  0  0
   -4.0902   25.9020  -23.1414 O   0  0  0  0  0  0  0  0  0  0  0  0
   -3.8398   21.4036  -23.9738 C   0  0  0  0  0  0  0  0  0  0  0  0
   -4.0928   20.2819  -24.5571 O   0  0  0  0  0  0  0  0  0  0  0  0
   -2.7366   21.3784  -23.1528 O   0  0  0  0  0  0  0  0  0  0  0  0
   -2.7021   22.2968  -22.0467 C   0  0  0  0  0  0  0  0  0  0  0  0
   -2.5426   21.6240  -20.7430 C   0  0  0  0  0  0  0  0  0  0  0  0
   -1.2529   21.4086  -20.2254 N   0  0  0  0  0  0  0  0  0  0  0  0
   -0.4923   20.3082  -20.6154 C   0  0  0  0  0  0  0  0  0  0  0  0
   -1.2662   21.6291  -18.8056 C   0  0  0  0  0  0  0  0  0  0  0  0
    0.0184   22.0927  -18.2466 C   0  0  0  0  0  0  0  0  0  0  0  0
    0.8605   22.9886  -18.8794 C   0  0  0  0  0  0  0  0  0  0  0  0
    2.0534   23.3968  -18.3226 C   0  0  0  0  0  0  0  0  0  0  0  0
    2.4212   22.8941  -17.0897 C   0  0  0  0  0  0  0  0  0  0  0  0
    1.5954   22.0005  -16.4436 C   0  0  0  0  0  0  0  0  0  0  0  0
    0.4194   21.6118  -17.0162 C   0  0  0  0  0  0  0  0  0  0  0  0
 20 21  1  0  0  0
 21 18  1  0  0  0
 18 19  2  0  0  0
 18  1  1  0  0  0
  1  2  1  0  0  0
  2  3  1  0  0  0
  2  4  2  0  0  0
  4  5  1  0  0  0
  5  6  1  0  0  0
  5  7  2  0  0  0
  7 22  1  0  0  0
 22 23  2  0  0  0
 22 24  1  0  0  0
 24 25  1  0  0  0
 25 26  1  0  0  0
 26 27  1  0  0  0
 27 28  1  0  0  0
 27 29  1  0  0  0
 29 30  1  0  0  0
 30 31  2  0  0  0
 31 32  1  0  0  0
 32 33  2  0  0  0
 33 34  1  0  0  0
 34 35  2  0  0  0
  7  8  1  0  0  0
  8  9  1  0  0  0
  9 10  2  0  0  0
 10 11  1  0  0  0
 11 12  2  0  0  0
 12 13  1  0  0  0
 13 15  1  0  0  0
 15 16  2  0  0  0
 15 17  1  0  0  0
 13 14  2  0  0  0
  8  1  1  0  0  0
 14  9  1  0  0  0
 35 30  1  0  0  0
M  CHG 1  15   1
M  CHG 1  17  -1
M  END
> <minimizedAffinity>
-6.26006

> <CNNscore>
0.2870890200

> <CNNaffinity>
6.3889350891

> <CNN_VS>
1.8341931105

> <CNNaffinity_variance>
0.1463100612

$$$$
[H]c1c([H])c([H])c(C([H])([H])N(C([H])([H])[H])C([H])([H])C([H])([H])OC(=O)C2=C(C([H])([H])[H])N=C(C([H])([H])[H])C([H])(C(=O)OC([H])([H])[H])C2([H])c2c([H])c([H])c([H])c([N+](=O)[O-])c2[H])c([H])c1[H]


 35 37  0  0  0  0  0  0  0  0999 V2000
   -6.2881   23.5586  -20.1478 C   0  0  0  0  0  0  0  0  0  0  0  0
   -6.0015   22.5792  -19.0944 C   0  0  0  0  0  0  0  0  0  0  0  0
   -7.1111   22.3320  -18.0852 C   0  0  0  0  0  0  0  0  0  0  0  0
   -4.9320   21.9329  -18.9557 N   0  0  0  0  0  0  0  0  0  0  0  0
   -3.8542   22.1027  -19.8555 C   0  0  0  0  0  0  0  0  0  0  0  0
   -2.6065   21.3011  -19.5936 C   0  0  0  0  0  0  0  0  0  0  0  0
   -3.9711   22.9474  -20.8585 C   0  0  0  0  0  0  0  0  0  0  0  0
   -5.2212   23.7274  -21.1249 C   0  0  0  0  0  0  0  0  0  0  0  0
   -5.6524   23.4242  -22.5232 C   0  0  0  0  0  0  0  0  0  0  0  0
   -5.9021   22.1559  -22.9695 C   0  0  0  0  0  0  0  0  0  0  0  0
   -6.3193   21.9121  -24.2623 C   0  0  0  0  0  0  0  0  0  0  0  0
   -6.4914   22.9803  -25.1363 C   0  0  0  0  0  0  0  0  0  0  0  0
   -6.2407   24.2687  -24.6928 C   0  0  0  0  0  0  0  0  0  0  0  0
   -5.8240   24.4722  -23.3903 C   0  0  0  0  0  0  0  0  0  0  0  0
   -6.4236   25.3424  -25.6021 N   0  0  0  0  0  0  0  0  0  0  0  0
   -5.9668   26.4559  -25.2998 O   0  0  0  0  0  0  0  0  0  0  0  0
   -7.0790   25.2054  -26.7929 O   0  0  0  0  0  0  0  0  0  0  0  0
   -6.6220   24.8452  -19.4250 C   0  0  0  0  0  0  0  0  0  0  0  0
   -5.8471   25.3711  -18.6266 O   0  0  0  0  0  0  0  0  0  0  0  0
   -7.9974   26.3215  -20.7875 C   0  0  0  0  0  0  0  0  0  0  0  0
   -7.8444   25.4275  -19.6893 O   0  0  0  0  0  0  0  0  0  0  0  0
   -2.8644   23.1271  -21.7846 C   0  0  0  0  0  0  0  0  0  0  0  0
   -2.0897   24.1372  -21.5804 O   0  0  0  0  0  0  0  0  0  0  0  0
   -2.5166   22.3573  -22.8700 O   0  0  0  0  0  0  0  0  0  0  0  0
   -2.4157   23.0070  -24.1490 C   0  0  0  0  0  0  0  0  0  0  0  0
   -2.8326   22.1423  -25.2698 C   0  0  0  0  0  0  0  0  0  0  0  0
   -2.6573   22.5864  -26.5925 N   0  0  0  0  0  0  0  0  0  0  0  0
   -1.4290   22.4646  -27.2388 C   0  0  0  0  0  0  0  0  0  0  0  0
   -3.2666   23.8787  -26.7461 C   0  0  0  0  0  0  0  0  0  0  0  0
   -4.0174   24.0553  -28.0041 C   0  0  0  0  0  0  0  0  0  0  0  0
   -3.9814   25.2039  -28.7734 C   0  0  0  0  0  0  0  0  0  0  0  0
   -4.6985   25.3287  -29.9437 C   0  0  0  0  0  0  0  0  0  0  0  0
   -5.4805   24.2703  -30.3637 C   0  0  0  0  0  0  0  0  0  0  0  0
   -5.5292   23.1176  -29.6107 C   0  0  0  0  0  0  0  0  0  0  0  0
   -4.8099   23.0189  -28.4554 C   0  0  0  0  0  0  0  0  0  0  0  0
 20 21  1  0  0  0
 21 18  1  0  0  0
 18 19  2  0  0  0
 18  1  1  0  0  0
  1  2  1  0  0  0
  2  3  1  0  0  0
  2  4  2  0  0  0
  4  5  1  0  0  0
  5  6  1  0  0  0
  5  7  2  0  0  0
  7 22  1  0  0  0
 22 23  2  0  0  0
 22 24  1  0  0  0
 24 25  1  0  0  0
 25 26  1  0  0  0
 26 27  1  0  0  0
 27 28  1  0  0  0
 27 29  1  0  0  0
 29 30  1  0  0  0
 30 31  2  0  0  0
 31 32  1  0  0  0
 32 33  2  0  0  0
 33 34  1  0  0  0
 34 35  2  0  0  0
  7  8  1  0  0  0
  8  9  1  0  0  0
  9 10  2  0  0  0
 10 11  1  0  0  0
 11 12  2  0  0  0
 12 13  1  0  0  0
 13 15  1  0  0  0
 15 16  2  0  0  0
 15 17  1  0  0  0
 13 14  2  0  0  0
  8  1  1  0  0  0
 14  9  1  0  0  0
 35 30  1  0  0  0
M  CHG 1  15   1
M  CHG 1  17  -1
M  END
> <minimizedAffinity>
-8.05601

> <CNNscore>
0.2363127917

> <CNNaffinity>
6.2089400291

> <CNN_VS>
1.4672518969

> <CNNaffinity_variance>
0.4916025996

$$$$
[H]c1c([H])c([H])c(C([H])([H])N(C([H])([H])[H])C([H])([H])C([H])([H])OC(=O)C2=C(C([H])([H])[H])N=C(C([H])([H])[H])C([H])(C(=O)OC([H])([H])[H])C2([H])c2c([H])c([H])c([H])c([N+](=O)[O-])c2[H])c([H])c1[H]


 35 37  0  0  0  0  0  0  0  0999 V2000
   -6.9265   21.0594  -16.4210 C   0  0  0  0  0  0  0  0  0  0  0  0
   -7.2989   22.4291  -16.0523 C   0  0  0  0  0  0  0  0  0  0  0  0
   -7.9380   22.6079  -14.6846 C   0  0  0  0  0  0  0  0  0  0  0  0
   -7.1365   23.4562  -16.7591 N   0  0  0  0  0  0  0  0  0  0  0  0
   -6.5451   23.3742  -18.0412 C   0  0  0  0  0  0  0  0  0  0  0  0
   -6.4137   24.6556  -18.8215 C   0  0  0  0  0  0  0  0  0  0  0  0
   -6.1533   22.2054  -18.5033 C   0  0  0  0  0  0  0  0  0  0  0  0
   -6.2691   20.9376  -17.7150 C   0  0  0  0  0  0  0  0  0  0  0  0
   -4.9041   20.3360  -17.6258 C   0  0  0  0  0  0  0  0  0  0  0  0
   -4.6071   19.0855  -18.0929 C   0  0  0  0  0  0  0  0  0  0  0  0
   -3.3304   18.5673  -18.0138 C   0  0  0  0  0  0  0  0  0  0  0  0
   -2.3176   19.3327  -17.4455 C   0  0  0  0  0  0  0  0  0  0  0  0
   -2.6094   20.6007  -16.9696 C   0  0  0  0  0  0  0  0  0  0  0  0
   -3.9008   21.0847  -17.0668 C   0  0  0  0  0  0  0  0  0  0  0  0
   -1.5601   21.3631  -16.3945 N   0  0  0  0  0  0  0  0  0  0  0  0
   -1.5059   21.4539  -15.1580 O   0  0  0  0  0  0  0  0  0  0  0  0
   -0.6090   22.0006  -17.1397 O   0  0  0  0  0  0  0  0  0  0  0  0
   -8.2064   20.2563  -16.3424 C   0  0  0  0  0  0  0  0  0  0  0  0
   -9.1694   20.4805  -17.0750 O   0  0  0  0  0  0  0  0  0  0  0  0
   -7.0993   18.5081  -15.0595 C   0  0  0  0  0  0  0  0  0  0  0  0
   -8.2683   19.2433  -15.4079 O   0  0  0  0  0  0  0  0  0  0  0  0
   -5.5472   22.1162  -19.8222 C   0  0  0  0  0  0  0  0  0  0  0  0
   -6.2302   21.5218  -20.7401 O   0  0  0  0  0  0  0  0  0  0  0  0
   -4.3242   22.5856  -20.2410 O   0  0  0  0  0  0  0  0  0  0  0  0
   -3.3774   21.6306  -20.7507 C   0  0  0  0  0  0  0  0  0  0  0  0
   -2.9990   21.8859  -22.1540 C   0  0  0  0  0  0  0  0  0  0  0  0
   -1.7151   21.5293  -22.6034 N   0  0  0  0  0  0  0  0  0  0  0  0
   -0.8370   20.8162  -21.7899 C   0  0  0  0  0  0  0  0  0  0  0  0
   -1.1104   22.6550  -23.2607 C   0  0  0  0  0  0  0  0  0  0  0  0
   -0.9983   22.5199  -24.7259 C   0  0  0  0  0  0  0  0  0  0  0  0
   -2.0776   22.5356  -25.5904 C   0  0  0  0  0  0  0  0  0  0  0  0
   -1.9299   22.4063  -26.9546 C   0  0  0  0  0  0  0  0  0  0  0  0
   -0.6602   22.2559  -27.4773 C   0  0  0  0  0  0  0  0  0  0  0  0
    0.4276   22.2378  -26.6320 C   0  0  0  0  0  0  0  0  0  0  0  0
    0.2548   22.3676  -25.2847 C   0  0  0  0  0  0  0  0  0  0  0  0
 20 21  1  0  0  0
 21 18  1  0  0  0
 18 19  2  0  0  0
 18  1  1  0  0  0
  1  2  1  0  0  0
  2  3  1  0  0  0
  2  4  2  0  0  0
  4  5  1  0  0  0
  5  6  1  0  0  0
  5  7  2  0  0  0
  7 22  1  0  0  0
 22 23  2  0  0  0
 22 24  1  0  0  0
 24 25  1  0  0  0
 25 26  1  0  0  0
 26 27  1  0  0  0
 27 28  1  0  0  0
 27 29  1  0  0  0
 29 30  1  0  0  0
 30 31  2  0  0  0
 31 32  1  0  0  0
 32 33  2  0  0  0
 33 34  1  0  0  0
 34 35  2  0  0  0
  7  8  1  0  0  0
  8  9  1  0  0  0
  9 10  2  0  0  0
 10 11  1  0  0  0
 11 12  2  0  0  0
 12 13  1  0  0  0
 13 15  1  0  0  0
 15 16  2  0  0  0
 15 17  1  0  0  0
 13 14  2  0  0  0
  8  1  1  0  0  0
 14  9  1  0  0  0
 35 30  1  0  0  0
M  CHG 1  15   1
M  CHG 1  17  -1
M  END
> <minimizedAffinity>
-5.35808

> <CNNscore>
0.2361706197

> <CNNaffinity>
5.4346842766

> <CNN_VS>
1.2835127115

> <CNNaffinity_variance>
0.3313538134

$$$$
[H]c1c([H])c([H])c(C([H])([H])N(C([H])([H])[H])C([H])([H])C([H])([H])OC(=O)C2=C(C([H])([H])[H])N=C(C([H])([H])[H])C([H])(C(=O)OC([H])([H])[H])C2([H])c2c([H])c([H])c([H])c([N+](=O)[O-])c2[H])c([H])c1[H]


 35 37  0  0  0  0  0  0  0  0999 V2000
   -1.5187   22.9455  -25.7652 C   0  0  0  0  0  0  0  0  0  0  0  0
   -0.3196   22.6467  -24.9755 C   0  0  0  0  0  0  0  0  0  0  0  0
    1.0032   23.1226  -25.5539 C   0  0  0  0  0  0  0  0  0  0  0  0
   -0.2904   22.0400  -23.8747 N   0  0  0  0  0  0  0  0  0  0  0  0
   -1.4784   21.5697  -23.2684 C   0  0  0  0  0  0  0  0  0  0  0  0
   -1.3395   20.8347  -21.9613 C   0  0  0  0  0  0  0  0  0  0  0  0
   -2.6360   21.7726  -23.8618 C   0  0  0  0  0  0  0  0  0  0  0  0
   -2.7697   22.5208  -25.1519 C   0  0  0  0  0  0  0  0  0  0  0  0
   -3.7235   23.6481  -24.9225 C   0  0  0  0  0  0  0  0  0  0  0  0
   -3.5659   24.5683  -23.9233 C   0  0  0  0  0  0  0  0  0  0  0  0
   -4.4546   25.6103  -23.7517 C   0  0  0  0  0  0  0  0  0  0  0  0
   -5.5389   25.7310  -24.6143 C   0  0  0  0  0  0  0  0  0  0  0  0
   -5.7065   24.8033  -25.6296 C   0  0  0  0  0  0  0  0  0  0  0  0
   -4.7947   23.7734  -25.7690 C   0  0  0  0  0  0  0  0  0  0  0  0
   -6.8196   24.9471  -26.4974 N   0  0  0  0  0  0  0  0  0  0  0  0
   -7.9139   24.4878  -26.1347 O   0  0  0  0  0  0  0  0  0  0  0  0
   -6.7406   25.5670  -27.7123 O   0  0  0  0  0  0  0  0  0  0  0  0
   -1.2861   22.3020  -27.1147 C   0  0  0  0  0  0  0  0  0  0  0  0
   -0.1938   21.8403  -27.4436 O   0  0  0  0  0  0  0  0  0  0  0  0
   -2.7020   23.3754  -28.7792 C   0  0  0  0  0  0  0  0  0  0  0  0
   -2.3533   22.2442  -27.9871 O   0  0  0  0  0  0  0  0  0  0  0  0
   -3.8598   21.2884  -23.2433 C   0  0  0  0  0  0  0  0  0  0  0  0
   -4.6505   20.5879  -23.9823 O   0  0  0  0  0  0  0  0  0  0  0  0
   -4.3046   21.4730  -21.9549 O   0  0  0  0  0  0  0  0  0  0  0  0
   -5.2353   22.5423  -21.7130 C   0  0  0  0  0  0  0  0  0  0  0  0
   -5.5644   22.7084  -20.2840 C   0  0  0  0  0  0  0  0  0  0  0  0
   -6.7030   23.4463  -19.9144 N   0  0  0  0  0  0  0  0  0  0  0  0
   -6.8973   23.8649  -18.5998 C   0  0  0  0  0  0  0  0  0  0  0  0
   -7.8686   22.8554  -20.5121 C   0  0  0  0  0  0  0  0  0  0  0  0
   -8.7559   23.8136  -21.1992 C   0  0  0  0  0  0  0  0  0  0  0  0
  -10.0506   24.0931  -20.8018 C   0  0  0  0  0  0  0  0  0  0  0  0
  -10.8476   24.9961  -21.4718 C   0  0  0  0  0  0  0  0  0  0  0  0
  -10.3361   25.6451  -22.5788 C   0  0  0  0  0  0  0  0  0  0  0  0
   -9.0482   25.3800  -22.9901 C   0  0  0  0  0  0  0  0  0  0  0  0
   -8.2793   24.4813  -22.3096 C   0  0  0  0  0  0  0  0  0  0  0  0
 20 21  1  0  0  0
 21 18  1  0  0  0
 18 19  2  0  0  0
 18  1  1  0  0  0
  1  2  1  0  0  0
  2  3  1  0  0  0
  2  4  2  0  0  0
  4  5  1  0  0  0
  5  6  1  0  0  0
  5  7  2  0  0  0
  7 22  1  0  0  0
 22 23  2  0  0  0
 22 24  1  0  0  0
 24 25  1  0  0  0
 25 26  1  0  0  0
 26 27  1  0  0  0
 27 28  1  0  0  0
 27 29  1  0  0  0
 29 30  1  0  0  0
 30 31  2  0  0  0
 31 32  1  0  0  0
 32 33  2  0  0  0
 33 34  1  0  0  0
 34 35  2  0  0  0
  7  8  1  0  0  0
  8  9  1  0  0  0
  9 10  2  0  0  0
 10 11  1  0  0  0
 11 12  2  0  0  0
 12 13  1  0  0  0
 13 15  1  0  0  0
 15 16  2  0  0  0
 15 17  1  0  0  0
 13 14  2  0  0  0
  8  1  1  0  0  0
 14  9  1  0  0  0
 35 30  1  0  0  0
M  CHG 1  15   1
M  CHG 1  17  -1
M  END
> <minimizedAffinity>
-7.32344

> <CNNscore>
0.2181478292

> <CNNaffinity>
6.1441226006

> <CNN_VS>
1.3403270245

> <CNNaffinity_variance>
0.2801688612

$$$$
[H]c1c([H])c([H])c(C([H])([H])N(C([H])([H])[H])C([H])([H])C([H])([H])OC(=O)C2=C(C([H])([H])[H])N=C(C([H])([H])[H])C([H])(C(=O)OC([H])([H])[H])C2([H])c2c([H])c([H])c([H])c([N+](=O)[O-])c2[H])c([H])c1[H]


 35 37  0  0  0  0  0  0  0  0999 V2000
    1.3834   19.7012  -18.9289 C   0  0  0  0  0  0  0  0  0  0  0  0
    0.2416   18.8317  -18.6272 C   0  0  0  0  0  0  0  0  0  0  0  0
    0.5633   17.3745  -18.3379 C   0  0  0  0  0  0  0  0  0  0  0  0
   -0.9651   19.1821  -18.5858 N   0  0  0  0  0  0  0  0  0  0  0  0
   -1.3459   20.5206  -18.8385 C   0  0  0  0  0  0  0  0  0  0  0  0
   -2.8171   20.8386  -18.7880 C   0  0  0  0  0  0  0  0  0  0  0  0
   -0.4236   21.4176  -19.1176 C   0  0  0  0  0  0  0  0  0  0  0  0
    1.0392   21.0996  -19.1474 C   0  0  0  0  0  0  0  0  0  0  0  0
    1.7220   22.0278  -18.1960 C   0  0  0  0  0  0  0  0  0  0  0  0
    2.4854   23.0866  -18.6037 C   0  0  0  0  0  0  0  0  0  0  0  0
    3.0857   23.9378  -17.6982 C   0  0  0  0  0  0  0  0  0  0  0  0
    2.9123   23.7168  -16.3360 C   0  0  0  0  0  0  0  0  0  0  0  0
    2.1404   22.6466  -15.9137 C   0  0  0  0  0  0  0  0  0  0  0  0
    1.5555   21.8161  -16.8517 C   0  0  0  0  0  0  0  0  0  0  0  0
    1.9774   22.4413  -14.5194 N   0  0  0  0  0  0  0  0  0  0  0  0
    2.1578   21.3004  -14.0658 O   0  0  0  0  0  0  0  0  0  0  0  0
    1.6311   23.4415  -13.6557 O   0  0  0  0  0  0  0  0  0  0  0  0
    2.0628   19.0766  -20.1279 C   0  0  0  0  0  0  0  0  0  0  0  0
    1.5079   18.9805  -21.2221 O   0  0  0  0  0  0  0  0  0  0  0  0
    4.1243   19.0070  -18.8345 C   0  0  0  0  0  0  0  0  0  0  0  0
    3.3492   18.6070  -19.9604 O   0  0  0  0  0  0  0  0  0  0  0  0
   -0.8109   22.7944  -19.3806 C   0  0  0  0  0  0  0  0  0  0  0  0
   -1.1145   23.5212  -18.3598 O   0  0  0  0  0  0  0  0  0  0  0  0
   -0.9009   23.4478  -20.5875 O   0  0  0  0  0  0  0  0  0  0  0  0
   -1.2202   22.6662  -21.7517 C   0  0  0  0  0  0  0  0  0  0  0  0
   -2.0877   23.3821  -22.7070 C   0  0  0  0  0  0  0  0  0  0  0  0
   -2.6267   22.6924  -23.8077 N   0  0  0  0  0  0  0  0  0  0  0  0
   -3.8664   22.0613  -23.7283 C   0  0  0  0  0  0  0  0  0  0  0  0
   -1.6033   21.8844  -24.4114 C   0  0  0  0  0  0  0  0  0  0  0  0
   -1.2632   22.2627  -25.7967 C   0  0  0  0  0  0  0  0  0  0  0  0
   -2.1910   22.6642  -26.7403 C   0  0  0  0  0  0  0  0  0  0  0  0
   -1.8316   23.0098  -28.0252 C   0  0  0  0  0  0  0  0  0  0  0  0
   -0.4988   22.9536  -28.3837 C   0  0  0  0  0  0  0  0  0  0  0  0
    0.4403   22.5560  -27.4574 C   0  0  0  0  0  0  0  0  0  0  0  0
    0.0589   22.2187  -26.1914 C   0  0  0  0  0  0  0  0  0  0  0  0
 20 21  1  0  0  0
 21 18  1  0  0  0
 18 19  2  0  0  0
 18  1  1  0  0  0
  1  2  1  0  0  0
  2  3  1  0  0  0
  2  4  2  0  0  0
  4  5  1  0  0  0
  5  6  1  0  0  0
  5  7  2  0  0  0
  7 22  1  0  0  0
 22 23  2  0  0  0
 22 24  1  0  0  0
 24 25  1  0  0  0
 25 26  1  0  0  0
 26 27  1  0  0  0
 27 28  1  0  0  0
 27 29  1  0  0  0
 29 30  1  0  0  0
 30 31  2  0  0  0
 31 32  1  0  0  0
 32 33  2  0  0  0
 33 34  1  0  0  0
 34 35  2  0  0  0
  7  8  1  0  0  0
  8  9  1  0  0  0
  9 10  2  0  0  0
 10 11  1  0  0  0
 11 12  2  0  0  0
 12 13  1  0  0  0
 13 15  1  0  0  0
 15 16  2  0  0  0
 15 17  1  0  0  0
 13 14  2  0  0  0
  8  1  1  0  0  0
 14  9  1  0  0  0
 35 30  1  0  0  0
M  CHG 1  15   1
M  CHG 1  17  -1
M  END
> <minimizedAffinity>
-6.34104

> <CNNscore>
0.2045433074

> <CNNaffinity>
5.1633348465

> <CNN_VS>
1.0561256409

> <CNNaffinity_variance>
0.4875551760

$$$$
[H]c1c([H])c([H])c(C([H])([H])N(C([H])([H])[H])C([H])([H])C([H])([H])OC(=O)C2=C(C([H])([H])[H])N=C(C([H])([H])[H])C([H])(C(=O)OC([H])([H])[H])C2([H])c2c([H])c([H])c([H])c([N+](=O)[O-])c2[H])c([H])c1[H]


 35 37  0  0  0  0  0  0  0  0999 V2000
   -3.9525   23.2741  -27.7660 C   0  0  0  0  0  0  0  0  0  0  0  0
   -5.2746   23.2400  -28.3996 C   0  0  0  0  0  0  0  0  0  0  0  0
   -5.3435   22.6064  -29.7797 C   0  0  0  0  0  0  0  0  0  0  0  0
   -6.3434   23.6821  -27.9066 N   0  0  0  0  0  0  0  0  0  0  0  0
   -6.3637   24.2815  -26.6259 C   0  0  0  0  0  0  0  0  0  0  0  0
   -7.6874   24.8013  -26.1303 C   0  0  0  0  0  0  0  0  0  0  0  0
   -5.2476   24.3758  -25.9341 C   0  0  0  0  0  0  0  0  0  0  0  0
   -3.9381   23.8399  -26.4239 C   0  0  0  0  0  0  0  0  0  0  0  0
   -3.4254   22.8891  -25.3914 C   0  0  0  0  0  0  0  0  0  0  0  0
   -4.2162   21.9604  -24.7730 C   0  0  0  0  0  0  0  0  0  0  0  0
   -3.7063   21.0824  -23.8381 C   0  0  0  0  0  0  0  0  0  0  0  0
   -2.3550   21.1402  -23.5138 C   0  0  0  0  0  0  0  0  0  0  0  0
   -1.5463   22.0779  -24.1353 C   0  0  0  0  0  0  0  0  0  0  0  0
   -2.0944   22.9403  -25.0667 C   0  0  0  0  0  0  0  0  0  0  0  0
   -0.1711   22.1178  -23.7889 N   0  0  0  0  0  0  0  0  0  0  0  0
    0.6096   22.7220  -24.5408 O   0  0  0  0  0  0  0  0  0  0  0  0
    0.3310   21.5217  -22.6668 O   0  0  0  0  0  0  0  0  0  0  0  0
   -3.0627   24.0336  -28.7256 C   0  0  0  0  0  0  0  0  0  0  0  0
   -3.3388   25.1651  -29.1230 O   0  0  0  0  0  0  0  0  0  0  0  0
   -0.8713   23.0958  -28.2293 C   0  0  0  0  0  0  0  0  0  0  0  0
   -1.9078   23.4120  -29.1536 O   0  0  0  0  0  0  0  0  0  0  0  0
   -5.2634   24.9938  -24.6178 C   0  0  0  0  0  0  0  0  0  0  0  0
   -4.5938   26.0866  -24.4773 O   0  0  0  0  0  0  0  0  0  0  0  0
   -5.9045   24.5721  -23.4764 O   0  0  0  0  0  0  0  0  0  0  0  0
   -5.2035   24.6985  -22.2271 C   0  0  0  0  0  0  0  0  0  0  0  0
   -6.0586   25.2002  -21.1340 C   0  0  0  0  0  0  0  0  0  0  0  0
   -7.0428   24.3617  -20.5810 N   0  0  0  0  0  0  0  0  0  0  0  0
   -8.3983   24.5923  -20.8064 C   0  0  0  0  0  0  0  0  0  0  0  0
   -6.7222   24.0925  -19.2064 C   0  0  0  0  0  0  0  0  0  0  0  0
   -6.9227   22.6896  -18.7950 C   0  0  0  0  0  0  0  0  0  0  0  0
   -6.5175   21.5979  -19.5409 C   0  0  0  0  0  0  0  0  0  0  0  0
   -6.7239   20.3017  -19.1205 C   0  0  0  0  0  0  0  0  0  0  0  0
   -7.3573   20.0845  -17.9123 C   0  0  0  0  0  0  0  0  0  0  0  0
   -7.7683   21.1595  -17.1550 C   0  0  0  0  0  0  0  0  0  0  0  0
   -7.5524   22.4335  -17.5935 C   0  0  0  0  0  0  0  0  0  0  0  0
 20 21  1  0  0  0
 21 18  1  0  0  0
 18 19  2  0  0  0
 18  1  1  0  0  0
  1  2  1  0  0  0
  2  3  1  0  0  0
  2  4  2  0  0  0
  4  5  1  0  0  0
  5  6  1  0  0  0
  5  7  2  0  0  0
  7 22  1  0  0  0
 22 23  2  0  0  0
 22 24  1  0  0  0
 24 25  1  0  0  0
 25 26  1  0  0  0
 26 27  1  0  0  0
 27 28  1  0  0  0
 27 29  1  0  0  0
 29 30  1  0  0  0
 30 31  2  0  0  0
 31 32  1  0  0  0
 32 33  2  0  0  0
 33 34  1  0  0  0
 34 35  2  0  0  0
  7  8  1  0  0  0
  8  9  1  0  0  0
  9 10  2  0  0  0
 10 11  1  0  0  0
 11 12  2  0  0  0
 12 13  1  0  0  0
 13 15  1  0  0  0
 15 16  2  0  0  0
 15 17  1  0  0  0
 13 14  2  0  0  0
  8  1  1  0  0  0
 14  9  1  0  0  0
 35 30  1  0  0  0
M  CHG 1  15   1
M  CHG 1  17  -1
M  END
> <minimizedAffinity>
-6.75832

> <CNNscore>
0.1917278022

> <CNNaffinity>
6.5069303513

> <CNN_VS>
1.2475594282

> <CNNaffinity_variance>
0.0627078637

$$$$
[H]c1c([H])c([H])c(C([H])([H])N(C([H])([H])[H])C([H])([H])C([H])([H])OC(=O)C2=C(C([H])([H])[H])N=C(C([H])([H])[H])C([H])(C(=O)OC([H])([H])[H])C2([H])c2c([H])c([H])c([H])c([N+](=O)[O-])c2[H])c([H])c1[H]


 35 37  0  0  0  0  0  0  0  0999 V2000
   -9.1533   25.3165  -21.7810 C   0  0  0  0  0  0  0  0  0  0  0  0
   -9.8691   24.1896  -21.1740 C   0  0  0  0  0  0  0  0  0  0  0  0
  -11.3592   24.3839  -20.9442 C   0  0  0  0  0  0  0  0  0  0  0  0
   -9.3647   23.0897  -20.8327 N   0  0  0  0  0  0  0  0  0  0  0  0
   -7.9869   22.8295  -21.0175 C   0  0  0  0  0  0  0  0  0  0  0  0
   -7.4714   21.4917  -20.5564 C   0  0  0  0  0  0  0  0  0  0  0  0
   -7.2180   23.7504  -21.5596 C   0  0  0  0  0  0  0  0  0  0  0  0
   -7.7400   25.0713  -22.0337 C   0  0  0  0  0  0  0  0  0  0  0  0
   -7.3680   25.2124  -23.4741 C   0  0  0  0  0  0  0  0  0  0  0  0
   -8.0025   24.5360  -24.4791 C   0  0  0  0  0  0  0  0  0  0  0  0
   -7.6478   24.7050  -25.8022 C   0  0  0  0  0  0  0  0  0  0  0  0
   -6.6199   25.5843  -26.1258 C   0  0  0  0  0  0  0  0  0  0  0  0
   -5.9714   26.2738  -25.1141 C   0  0  0  0  0  0  0  0  0  0  0  0
   -6.3556   26.0774  -23.8006 C   0  0  0  0  0  0  0  0  0  0  0  0
   -4.9263   27.1656  -25.4683 N   0  0  0  0  0  0  0  0  0  0  0  0
   -5.0518   27.8411  -26.5017 O   0  0  0  0  0  0  0  0  0  0  0  0
   -3.7901   27.3133  -24.7241 O   0  0  0  0  0  0  0  0  0  0  0  0
   -9.3820   26.4892  -20.8527 C   0  0  0  0  0  0  0  0  0  0  0  0
   -9.0488   26.4650  -19.6682 O   0  0  0  0  0  0  0  0  0  0  0  0
  -11.2553   28.0437  -20.8960 C   0  0  0  0  0  0  0  0  0  0  0  0
   -9.9869   27.6119  -21.3789 O   0  0  0  0  0  0  0  0  0  0  0  0
   -5.8003   23.4881  -21.7492 C   0  0  0  0  0  0  0  0  0  0  0  0
   -4.9749   24.3088  -21.1946 O   0  0  0  0  0  0  0  0  0  0  0  0
   -5.1996   22.4677  -22.4490 O   0  0  0  0  0  0  0  0  0  0  0  0
   -5.2597   22.5127  -23.8852 C   0  0  0  0  0  0  0  0  0  0  0  0
   -4.1180   23.2272  -24.4882 C   0  0  0  0  0  0  0  0  0  0  0  0
   -3.6233   22.8163  -25.7389 N   0  0  0  0  0  0  0  0  0  0  0  0
   -2.6691   21.8064  -25.8421 C   0  0  0  0  0  0  0  0  0  0  0  0
   -3.3304   23.9734  -26.5390 C   0  0  0  0  0  0  0  0  0  0  0  0
   -4.0677   24.0367  -27.8157 C   0  0  0  0  0  0  0  0  0  0  0  0
   -4.8802   23.0242  -28.2923 C   0  0  0  0  0  0  0  0  0  0  0  0
   -5.5524   23.1228  -29.4914 C   0  0  0  0  0  0  0  0  0  0  0  0
   -5.4104   24.2725  -30.2439 C   0  0  0  0  0  0  0  0  0  0  0  0
   -4.6053   25.2922  -29.7857 C   0  0  0  0  0  0  0  0  0  0  0  0
   -3.9500   25.1701  -28.5950 C   0  0  0  0  0  0  0  0  0  0  0  0
 20 21  1  0  0  0
 21 18  1  0  0  0
 18 19  2  0  0  0
 18  1  1  0  0  0
  1  2  1  0  0  0
  2  3  1  0  0  0
  2  4  2  0  0  0
  4  5  1  0  0  0
  5  6  1  0  0  0
  5  7  2  0  0  0
  7 22  1  0  0  0
 22 23  2  0  0  0
 22 24  1  0  0  0
 24 25  1  0  0  0
 25 26  1  0  0  0
 26 27  1  0  0  0
 27 28  1  0  0  0
 27 29  1  0  0  0
 29 30  1  0  0  0
 30 31  2  0  0  0
 31 32  1  0  0  0
 32 33  2  0  0  0
 33 34  1  0  0  0
 34 35  2  0  0  0
  7  8  1  0  0  0
  8  9  1  0  0  0
  9 10  2  0  0  0
 10 11  1  0  0  0
 11 12  2  0  0  0
 12 13  1  0  0  0
 13 15  1  0  0  0
 15 16  2  0  0  0
 15 17  1  0  0  0
 13 14  2  0  0  0
  8  1  1  0  0  0
 14  9  1  0  0  0
 35 30  1  0  0  0
M  CHG 1  15   1
M  CHG 1  17  -1
M  END
> <minimizedAffinity>
-7.90246

> <CNNscore>
0.1741089821

> <CNNaffinity>
5.8683204651

> <CNN_VS>
1.0217273235

> <CNNaffinity_variance>
0.6931927800

$$$$
[H]c1c([H])c([H])c(C([H])([H])N(C([H])([H])[H])C([H])([H])C([H])([H])OC(=O)C2=C(C([H])([H])[H])N=C(C([H])([H])[H])C([H])(C(=O)OC([H])([H])[H])C2([H])c2c([H])c([H])c([H])c([N+](=O)[O-])c2[H])c([H])c1[H]


 35 37  0  0  0  0  0  0  0  0999 V2000
   -7.7790   19.6584  -17.0363 C   0  0  0  0  0  0  0  0  0  0  0  0
   -9.1020   19.8363  -16.4290 C   0  0  0  0  0  0  0  0  0  0  0  0
   -9.3303   19.1403  -15.0970 C   0  0  0  0  0  0  0  0  0  0  0  0
  -10.0518   20.5071  -16.9071 N   0  0  0  0  0  0  0  0  0  0  0  0
   -9.9173   21.1879  -18.1394 C   0  0  0  0  0  0  0  0  0  0  0  0
  -11.1178   21.9463  -18.6411 C   0  0  0  0  0  0  0  0  0  0  0  0
   -8.7788   21.1237  -18.7971 C   0  0  0  0  0  0  0  0  0  0  0  0
   -7.5824   20.3838  -18.2840 C   0  0  0  0  0  0  0  0  0  0  0  0
   -6.4443   21.3506  -18.2278 C   0  0  0  0  0  0  0  0  0  0  0  0
   -5.2779   21.1721  -18.9190 C   0  0  0  0  0  0  0  0  0  0  0  0
   -4.2536   22.0954  -18.8617 C   0  0  0  0  0  0  0  0  0  0  0  0
   -4.4075   23.2373  -18.0826 C   0  0  0  0  0  0  0  0  0  0  0  0
   -5.5859   23.4264  -17.3789 C   0  0  0  0  0  0  0  0  0  0  0  0
   -6.5889   22.4785  -17.4619 C   0  0  0  0  0  0  0  0  0  0  0  0
   -5.7202   24.5989  -16.5914 N   0  0  0  0  0  0  0  0  0  0  0  0
   -5.0240   25.5854  -16.8781 O   0  0  0  0  0  0  0  0  0  0  0  0
   -6.5798   24.6900  -15.5335 O   0  0  0  0  0  0  0  0  0  0  0  0
   -7.6060   18.1642  -17.2004 C   0  0  0  0  0  0  0  0  0  0  0  0
   -6.7171   17.5380  -16.6240 O   0  0  0  0  0  0  0  0  0  0  0  0
   -9.1639   16.3334  -17.5857 C   0  0  0  0  0  0  0  0  0  0  0  0
   -8.4895   17.5063  -18.0309 O   0  0  0  0  0  0  0  0  0  0  0  0
   -8.6369   21.8200  -20.0659 C   0  0  0  0  0  0  0  0  0  0  0  0
   -8.6052   21.0937  -21.1307 O   0  0  0  0  0  0  0  0  0  0  0  0
   -8.5307   23.1713  -20.2991 O   0  0  0  0  0  0  0  0  0  0  0  0
   -7.9260   23.5938  -21.5336 C   0  0  0  0  0  0  0  0  0  0  0  0
   -6.4607   23.7398  -21.4380 C   0  0  0  0  0  0  0  0  0  0  0  0
   -5.6491   23.3176  -22.5061 N   0  0  0  0  0  0  0  0  0  0  0  0
   -5.1864   22.0059  -22.5873 C   0  0  0  0  0  0  0  0  0  0  0  0
   -4.6354   24.3055  -22.7538 C   0  0  0  0  0  0  0  0  0  0  0  0
   -4.8509   25.1108  -23.9714 C   0  0  0  0  0  0  0  0  0  0  0  0
   -4.1403   26.2567  -24.2784 C   0  0  0  0  0  0  0  0  0  0  0  0
   -4.3725   26.9811  -25.4277 C   0  0  0  0  0  0  0  0  0  0  0  0
   -5.3486   26.5482  -26.3040 C   0  0  0  0  0  0  0  0  0  0  0  0
   -6.0672   25.4086  -26.0155 C   0  0  0  0  0  0  0  0  0  0  0  0
   -5.8183   24.7091  -24.8706 C   0  0  0  0  0  0  0  0  0  0  0  0
 20 21  1  0  0  0
 21 18  1  0  0  0
 18 19  2  0  0  0
 18  1  1  0  0  0
  1  2  1  0  0  0
  2  3  1  0  0  0
  2  4  2  0  0  0
  4  5  1  0  0  0
  5  6  1  0  0  0
  5  7  2  0  0  0
  7 22  1  0  0  0
 22 23  2  0  0  0
 22 24  1  0  0  0
 24 25  1  0  0  0
 25 26  1  0  0  0
 26 27  1  0  0  0
 27 28  1  0  0  0
 27 29  1  0  0  0
 29 30  1  0  0  0
 30 31  2  0  0  0
 31 32  1  0  0  0
 32 33  2  0  0  0
 33 34  1  0  0  0
 34 35  2  0  0  0
  7  8  1  0  0  0
  8  9  1  0  0  0
  9 10  2  0  0  0
 10 11  1  0  0  0
 11 12  2  0  0  0
 12 13  1  0  0  0
 13 15  1  0  0  0
 15 16  2  0  0  0
 15 17  1  0  0  0
 13 14  2  0  0  0
  8  1  1  0  0  0
 14  9  1  0  0  0
 35 30  1  0  0  0
M  CHG 1  15   1
M  CHG 1  17  -1
M  END
> <minimizedAffinity>
-5.72457

> <CNNscore>
0.1722842157

> <CNNaffinity>
5.0345172882

> <CNN_VS>
0.8673678637

> <CNNaffinity_variance>
0.4964612126

$$$$
[H]/C(=C(\[H])C([H])([H])C([H])([H])C([H])([H])C([H])([H])C([H])([H])C([H])([H])C([H])([H])C([H])([H])[H])C([H])([H])C([H])([H])C([H])([H])C([H])([H])C([H])([H])C([H])([H])C([H])([H])C(=O)c1nc2c([H])c([H])c([H])nc2o1


 28 29  0  0  0  0  0  0  0  0999 V2000
   -1.9401   22.3336  -27.5241 C   0  0  0  0  0  0  0  0  0  0  0  0
   -2.4092   23.2597  -28.5402 C   0  0  0  0  0  0  0  0  0  0  0  0
   -3.6364   24.0476  -28.4481 C   0  0  0  0  0  0  0  0  0  0  0  0
   -4.0296   24.8970  -29.6141 C   0  0  0  0  0  0  0  0  0  0  0  0
   -5.1798   25.7981  -29.2333 C   0  0  0  0  0  0  0  0  0  0  0  0
   -5.6260   26.5885  -30.0902 O   0  0  0  0  0  0  0  0  0  0  0  0
   -5.7506   25.7508  -27.9164 C   0  0  0  0  0  0  0  0  0  0  0  0
   -6.6762   24.8574  -27.4863 N   0  0  0  0  0  0  0  0  0  0  0  0
   -6.9852   25.1071  -26.2003 C   0  0  0  0  0  0  0  0  0  0  0  0
   -7.8189   24.5677  -25.2601 C   0  0  0  0  0  0  0  0  0  0  0  0
   -7.8706   25.1099  -24.0012 C   0  0  0  0  0  0  0  0  0  0  0  0
   -7.0719   26.1991  -23.7080 C   0  0  0  0  0  0  0  0  0  0  0  0
   -6.2383   26.7449  -24.6343 N   0  0  0  0  0  0  0  0  0  0  0  0
   -6.1962   26.2059  -25.8628 C   0  0  0  0  0  0  0  0  0  0  0  0
   -5.4809   26.5515  -26.9138 O   0  0  0  0  0  0  0  0  0  0  0  0
   -1.4079   22.7800  -26.2249 C   0  0  0  0  0  0  0  0  0  0  0  0
   -0.0262   22.3187  -25.9121 C   0  0  0  0  0  0  0  0  0  0  0  0
    0.3129   22.2957  -24.4292 C   0  0  0  0  0  0  0  0  0  0  0  0
   -1.0183   21.4914  -22.5556 C   0  0  0  0  0  0  0  0  0  0  0  0
   -0.5409   21.3058  -23.7614 C   0  0  0  0  0  0  0  0  0  0  0  0
   -0.7718   22.6655  -21.7489 C   0  0  0  0  0  0  0  0  0  0  0  0
   -2.0123   23.5378  -21.5674 C   0  0  0  0  0  0  0  0  0  0  0  0
   -3.1806   23.0045  -22.3105 C   0  0  0  0  0  0  0  0  0  0  0  0
   -3.8182   23.9911  -23.2886 C   0  0  0  0  0  0  0  0  0  0  0  0
   -4.4607   23.3080  -24.4347 C   0  0  0  0  0  0  0  0  0  0  0  0
   -4.3635   21.8413  -24.5618 C   0  0  0  0  0  0  0  0  0  0  0  0
   -6.5156   21.7370  -23.3261 C   0  0  0  0  0  0  0  0  0  0  0  0
   -5.4567   20.9828  -24.0564 C   0  0  0  0  0  0  0  0  0  0  0  0
 27 28  1  0  0  0
 28 26  1  0  0  0
 26 25  1  0  0  0
 25 24  1  0  0  0
 24 23  1  0  0  0
 23 22  1  0  0  0
 22 21  1  0  0  0
 21 19  1  0  0  0
 19 20  2  0  0  0
 20 18  1  0  0  0
 18 17  1  0  0  0
 17 16  1  0  0  0
 16  1  1  0  0  0
  1  2  1  0  0  0
  2  3  1  0  0  0
  3  4  1  0  0  0
  4  5  1  0  0  0
  5  6  2  0  0  0
  5  7  1  0  0  0
  7  8  2  0  0  0
  8  9  1  0  0  0
  9 10  2  0  0  0
 10 11  1  0  0  0
 11 12  2  0  0  0
 12 13  1  0  0  0
 13 14  2  0  0  0
 14 15  1  0  0  0
 15  7  1  0  0  0
 14  9  1  0  0  0
M  END
> <minimizedAffinity>
-6.58631

> <CNNscore>
0.3872093558

> <CNNaffinity>
6.8331055641

> <CNN_VS>
2.6458423138

> <CNNaffinity_variance>
0.2634729743

$$$$
[H]/C(=C(\[H])C([H])([H])C([H])([H])C([H])([H])C([H])([H])C([H])([H])C([H])([H])C([H])([H])C([H])([H])[H])C([H])([H])C([H])([H])C([H])([H])C([H])([H])C([H])([H])C([H])([H])C([H])([H])C(=O)c1nc2c([H])c([H])c([H])nc2o1


 28 29  0  0  0  0  0  0  0  0999 V2000
   -2.5595   24.2056  -22.5042 C   0  0  0  0  0  0  0  0  0  0  0  0
   -3.8703   24.7440  -22.8239 C   0  0  0  0  0  0  0  0  0  0  0  0
   -4.2168   25.4049  -24.0803 C   0  0  0  0  0  0  0  0  0  0  0  0
   -5.5002   26.1684  -24.1560 C   0  0  0  0  0  0  0  0  0  0  0  0
   -6.4815   25.4441  -25.0463 C   0  0  0  0  0  0  0  0  0  0  0  0
   -7.5417   25.0200  -24.5425 O   0  0  0  0  0  0  0  0  0  0  0  0
   -6.2053   25.2449  -26.4414 C   0  0  0  0  0  0  0  0  0  0  0  0
   -6.1013   24.0445  -27.0644 N   0  0  0  0  0  0  0  0  0  0  0  0
   -5.8356   24.2323  -28.3705 C   0  0  0  0  0  0  0  0  0  0  0  0
   -5.6301   23.4359  -29.4630 C   0  0  0  0  0  0  0  0  0  0  0  0
   -5.3748   24.0048  -30.6848 C   0  0  0  0  0  0  0  0  0  0  0  0
   -5.3304   25.3825  -30.7857 C   0  0  0  0  0  0  0  0  0  0  0  0
   -5.5331   26.1857  -29.7065 N   0  0  0  0  0  0  0  0  0  0  0  0
   -5.7821   25.6178  -28.5161 C   0  0  0  0  0  0  0  0  0  0  0  0
   -6.0078   26.1752  -27.3440 O   0  0  0  0  0  0  0  0  0  0  0  0
   -2.3704   22.8710  -21.9096 C   0  0  0  0  0  0  0  0  0  0  0  0
   -1.2292   22.0867  -22.4592 C   0  0  0  0  0  0  0  0  0  0  0  0
   -0.4122   22.8141  -23.5166 C   0  0  0  0  0  0  0  0  0  0  0  0
    0.4693   21.8540  -25.5734 C   0  0  0  0  0  0  0  0  0  0  0  0
    0.3782   21.8304  -24.2667 C   0  0  0  0  0  0  0  0  0  0  0  0
   -0.1802   22.8274  -26.4223 C   0  0  0  0  0  0  0  0  0  0  0  0
   -1.1664   22.2002  -27.4056 C   0  0  0  0  0  0  0  0  0  0  0  0
   -2.5234   22.7879  -27.2831 C   0  0  0  0  0  0  0  0  0  0  0  0
   -3.1017   22.7666  -25.8684 C   0  0  0  0  0  0  0  0  0  0  0  0
   -3.3004   21.3882  -25.3647 C   0  0  0  0  0  0  0  0  0  0  0  0
   -4.3290   21.1234  -24.3408 C   0  0  0  0  0  0  0  0  0  0  0  0
   -6.3374   21.8608  -23.0790 C   0  0  0  0  0  0  0  0  0  0  0  0
   -5.6177   21.8478  -24.3849 C   0  0  0  0  0  0  0  0  0  0  0  0
 27 28  1  0  0  0
 28 26  1  0  0  0
 26 25  1  0  0  0
 25 24  1  0  0  0
 24 23  1  0  0  0
 23 22  1  0  0  0
 22 21  1  0  0  0
 21 19  1  0  0  0
 19 20  2  0  0  0
 20 18  1  0  0  0
 18 17  1  0  0  0
 17 16  1  0  0  0
 16  1  1  0  0  0
  1  2  1  0  0  0
  2  3  1  0  0  0
  3  4  1  0  0  0
  4  5  1  0  0  0
  5  6  2  0  0  0
  5  7  1  0  0  0
  7  8  2  0  0  0
  8  9  1  0  0  0
  9 10  2  0  0  0
 10 11  1  0  0  0
 11 12  2  0  0  0
 12 13  1  0  0  0
 13 14  2  0  0  0
 14 15  1  0  0  0
 15  7  1  0  0  0
 14  9  1  0  0  0
M  END
> <minimizedAffinity>
-6.82703

> <CNNscore>
0.3678555489

> <CNNaffinity>
6.7415037155

> <CNN_VS>
2.4798996449

> <CNNaffinity_variance>
0.4138007164

$$$$
[H]/C(=C(\[H])C([H])([H])C([H])([H])C([H])([H])C([H])([H])C([H])([H])C([H])([H])C([H])([H])C([H])([H])[H])C([H])([H])C([H])([H])C([H])([H])C([H])([H])C([H])([H])C([H])([H])C([H])([H])C(=O)c1nc2c([H])c([H])c([H])nc2o1


 28 29  0  0  0  0  0  0  0  0999 V2000
   -3.3936   22.7058  -27.2348 C   0  0  0  0  0  0  0  0  0  0  0  0
   -3.6806   23.0551  -28.6153 C   0  0  0  0  0  0  0  0  0  0  0  0
   -3.5042   24.3857  -29.1930 C   0  0  0  0  0  0  0  0  0  0  0  0
   -4.4905   24.8587  -30.2123 C   0  0  0  0  0  0  0  0  0  0  0  0
   -5.4267   25.8705  -29.5960 C   0  0  0  0  0  0  0  0  0  0  0  0
   -5.8417   26.8084  -30.3073 O   0  0  0  0  0  0  0  0  0  0  0  0
   -5.8329   25.7606  -28.2229 C   0  0  0  0  0  0  0  0  0  0  0  0
   -5.4147   26.5568  -27.2075 N   0  0  0  0  0  0  0  0  0  0  0  0
   -5.9964   26.1689  -26.0573 C   0  0  0  0  0  0  0  0  0  0  0  0
   -5.9688   26.5697  -24.7501 C   0  0  0  0  0  0  0  0  0  0  0  0
   -6.7250   25.9078  -23.8165 C   0  0  0  0  0  0  0  0  0  0  0  0
   -7.5051   24.8410  -24.2211 C   0  0  0  0  0  0  0  0  0  0  0  0
   -7.5414   24.4326  -25.5183 N   0  0  0  0  0  0  0  0  0  0  0  0
   -6.7972   25.0879  -26.4229 C   0  0  0  0  0  0  0  0  0  0  0  0
   -6.6666   24.8839  -27.7179 O   0  0  0  0  0  0  0  0  0  0  0  0
   -3.3077   23.7106  -26.1607 C   0  0  0  0  0  0  0  0  0  0  0  0
   -3.8436   23.2761  -24.8402 C   0  0  0  0  0  0  0  0  0  0  0  0
   -3.3832   24.1206  -23.6614 C   0  0  0  0  0  0  0  0  0  0  0  0
   -3.2552   23.2178  -21.4035 C   0  0  0  0  0  0  0  0  0  0  0  0
   -3.9796   23.5855  -22.4314 C   0  0  0  0  0  0  0  0  0  0  0  0
   -1.8123   23.2905  -21.3505 C   0  0  0  0  0  0  0  0  0  0  0  0
   -1.1462   21.9178  -21.2824 C   0  0  0  0  0  0  0  0  0  0  0  0
   -1.1081   21.2519  -22.6079 C   0  0  0  0  0  0  0  0  0  0  0  0
   -0.0282   21.7767  -23.5538 C   0  0  0  0  0  0  0  0  0  0  0  0
   -0.4622   21.7506  -24.9694 C   0  0  0  0  0  0  0  0  0  0  0  0
    0.2311   22.5913  -25.9641 C   0  0  0  0  0  0  0  0  0  0  0  0
    0.0268   23.2161  -28.3594 C   0  0  0  0  0  0  0  0  0  0  0  0
    0.3288   22.1423  -27.3699 C   0  0  0  0  0  0  0  0  0  0  0  0
 27 28  1  0  0  0
 28 26  1  0  0  0
 26 25  1  0  0  0
 25 24  1  0  0  0
 24 23  1  0  0  0
 23 22  1  0  0  0
 22 21  1  0  0  0
 21 19  1  0  0  0
 19 20  2  0  0  0
 20 18  1  0  0  0
 18 17  1  0  0  0
 17 16  1  0  0  0
 16  1  1  0  0  0
  1  2  1  0  0  0
  2  3  1  0  0  0
  3  4  1  0  0  0
  4  5  1  0  0  0
  5  6  2  0  0  0
  5  7  1  0  0  0
  7  8  2  0  0  0
  8  9  1  0  0  0
  9 10  2  0  0  0
 10 11  1  0  0  0
 11 12  2  0  0  0
 12 13  1  0  0  0
 13 14  2  0  0  0
 14 15  1  0  0  0
 15  7  1  0  0  0
 14  9  1  0  0  0
M  END
> <minimizedAffinity>
-6.78212

> <CNNscore>
0.3473836184

> <CNNaffinity>
6.8410749435

> <CNN_VS>
2.3764774799

> <CNNaffinity_variance>
0.2481998950

$$$$
[H]/C(=C(\[H])C([H])([H])C([H])([H])C([H])([H])C([H])([H])C([H])([H])C([H])([H])C([H])([H])C([H])([H])[H])C([H])([H])C([H])([H])C([H])([H])C([H])([H])C([H])([H])C([H])([H])C([H])([H])C(=O)c1nc2c([H])c([H])c([H])nc2o1


 28 29  0  0  0  0  0  0  0  0999 V2000
   -5.0673   22.2499  -23.5071 C   0  0  0  0  0  0  0  0  0  0  0  0
   -6.4422   22.7154  -23.5646 C   0  0  0  0  0  0  0  0  0  0  0  0
   -6.8931   24.0389  -23.1400 C   0  0  0  0  0  0  0  0  0  0  0  0
   -7.7639   24.8279  -24.0647 C   0  0  0  0  0  0  0  0  0  0  0  0
   -6.9302   25.8195  -24.8404 C   0  0  0  0  0  0  0  0  0  0  0  0
   -6.6836   26.9265  -24.3194 O   0  0  0  0  0  0  0  0  0  0  0  0
   -6.4306   25.5008  -26.1486 C   0  0  0  0  0  0  0  0  0  0  0  0
   -5.5525   26.2469  -26.8641 N   0  0  0  0  0  0  0  0  0  0  0  0
   -5.3058   25.6497  -28.0449 C   0  0  0  0  0  0  0  0  0  0  0  0
   -4.5373   25.9122  -29.1452 C   0  0  0  0  0  0  0  0  0  0  0  0
   -4.5383   25.0392  -30.2032 C   0  0  0  0  0  0  0  0  0  0  0  0
   -5.3228   23.9034  -30.1333 C   0  0  0  0  0  0  0  0  0  0  0  0
   -6.0916   23.6309  -29.0445 N   0  0  0  0  0  0  0  0  0  0  0  0
   -6.0826   24.4924  -28.0153 C   0  0  0  0  0  0  0  0  0  0  0  0
   -6.7319   24.4482  -26.8699 O   0  0  0  0  0  0  0  0  0  0  0  0
   -3.9138   23.1542  -23.6553 C   0  0  0  0  0  0  0  0  0  0  0  0
   -3.6746   23.6576  -25.0370 C   0  0  0  0  0  0  0  0  0  0  0  0
   -3.4621   22.5696  -26.0790 C   0  0  0  0  0  0  0  0  0  0  0  0
   -1.5474   22.8876  -27.5495 C   0  0  0  0  0  0  0  0  0  0  0  0
   -2.7941   23.1547  -27.2479 C   0  0  0  0  0  0  0  0  0  0  0  0
   -0.6920   22.0046  -26.7890 C   0  0  0  0  0  0  0  0  0  0  0  0
    0.3431   22.7508  -25.9496 C   0  0  0  0  0  0  0  0  0  0  0  0
    0.6459   22.0425  -24.6814 C   0  0  0  0  0  0  0  0  0  0  0  0
   -0.5756   21.4643  -23.9672 C   0  0  0  0  0  0  0  0  0  0  0  0
   -0.6970   21.9576  -22.5761 C   0  0  0  0  0  0  0  0  0  0  0  0
    0.1992   21.4288  -21.5302 C   0  0  0  0  0  0  0  0  0  0  0  0
    0.2087   19.0293  -20.8884 C   0  0  0  0  0  0  0  0  0  0  0  0
   -0.2930   20.4009  -20.5875 C   0  0  0  0  0  0  0  0  0  0  0  0
 27 28  1  0  0  0
 28 26  1  0  0  0
 26 25  1  0  0  0
 25 24  1  0  0  0
 24 23  1  0  0  0
 23 22  1  0  0  0
 22 21  1  0  0  0
 21 19  1  0  0  0
 19 20  2  0  0  0
 20 18  1  0  0  0
 18 17  1  0  0  0
 17 16  1  0  0  0
 16  1  1  0  0  0
  1  2  1  0  0  0
  2  3  1  0  0  0
  3  4  1  0  0  0
  4  5  1  0  0  0
  5  6  2  0  0  0
  5  7  1  0  0  0
  7  8  2  0  0  0
  8  9  1  0  0  0
  9 10  2  0  0  0
 10 11  1  0  0  0
 11 12  2  0  0  0
 12 13  1  0  0  0
 13 14  2  0  0  0
 14 15  1  0  0  0
 15  7  1  0  0  0
 14  9  1  0  0  0
M  END
> <minimizedAffinity>
-6.43931

> <CNNscore>
0.2977727056

> <CNNaffinity>
6.6952986717

> <CNN_VS>
1.9936772585

> <CNNaffinity_variance>
0.2736431956

$$$$
[H]/C(=C(\[H])C([H])([H])C([H])([H])C([H])([H])C([H])([H])C([H])([H])C([H])([H])C([H])([H])C([H])([H])[H])C([H])([H])C([H])([H])C([H])([H])C([H])([H])C([H])([H])C([H])([H])C([H])([H])C(=O)c1nc2c([H])c([H])c([H])nc2o1


 28 29  0  0  0  0  0  0  0  0999 V2000
   -0.8096   21.4678  -22.8953 C   0  0  0  0  0  0  0  0  0  0  0  0
    0.1274   20.7045  -22.0893 C   0  0  0  0  0  0  0  0  0  0  0  0
    0.1645   20.7052  -20.6285 C   0  0  0  0  0  0  0  0  0  0  0  0
   -0.8945   21.4565  -19.8871 C   0  0  0  0  0  0  0  0  0  0  0  0
   -0.4292   22.8654  -19.6067 C   0  0  0  0  0  0  0  0  0  0  0  0
   -1.0429   23.8124  -20.1400 O   0  0  0  0  0  0  0  0  0  0  0  0
    0.6936   23.1150  -18.7468 C   0  0  0  0  0  0  0  0  0  0  0  0
    1.0471   22.3700  -17.6699 N   0  0  0  0  0  0  0  0  0  0  0  0
    2.1478   22.8924  -17.0979 C   0  0  0  0  0  0  0  0  0  0  0  0
    2.9417   22.5946  -16.0250 C   0  0  0  0  0  0  0  0  0  0  0  0
    4.0237   23.3863  -15.7351 C   0  0  0  0  0  0  0  0  0  0  0  0
    4.2901   24.4772  -16.5408 C   0  0  0  0  0  0  0  0  0  0  0  0
    3.5082   24.7842  -17.6109 N   0  0  0  0  0  0  0  0  0  0  0  0
    2.4521   24.0023  -17.8848 C   0  0  0  0  0  0  0  0  0  0  0  0
    1.5608   24.0928  -18.8507 O   0  0  0  0  0  0  0  0  0  0  0  0
   -0.3903   22.5839  -23.7607 C   0  0  0  0  0  0  0  0  0  0  0  0
    0.8336   22.3333  -24.5723 C   0  0  0  0  0  0  0  0  0  0  0  0
    0.5648   21.8844  -26.0010 C   0  0  0  0  0  0  0  0  0  0  0  0
   -1.0690   23.0420  -27.3866 C   0  0  0  0  0  0  0  0  0  0  0  0
    0.0922   23.0354  -26.7800 C   0  0  0  0  0  0  0  0  0  0  0  0
   -2.0097   21.9445  -27.3666 C   0  0  0  0  0  0  0  0  0  0  0  0
   -2.8887   21.9327  -26.1176 C   0  0  0  0  0  0  0  0  0  0  0  0
   -3.7606   23.1308  -26.0399 C   0  0  0  0  0  0  0  0  0  0  0  0
   -4.4068   23.3612  -24.6741 C   0  0  0  0  0  0  0  0  0  0  0  0
   -3.6789   24.3719  -23.8730 C   0  0  0  0  0  0  0  0  0  0  0  0
   -4.2834   25.6977  -23.6417 C   0  0  0  0  0  0  0  0  0  0  0  0
   -4.5176   26.9939  -25.7476 C   0  0  0  0  0  0  0  0  0  0  0  0
   -5.2096   26.2709  -24.6422 C   0  0  0  0  0  0  0  0  0  0  0  0
 27 28  1  0  0  0
 28 26  1  0  0  0
 26 25  1  0  0  0
 25 24  1  0  0  0
 24 23  1  0  0  0
 23 22  1  0  0  0
 22 21  1  0  0  0
 21 19  1  0  0  0
 19 20  2  0  0  0
 20 18  1  0  0  0
 18 17  1  0  0  0
 17 16  1  0  0  0
 16  1  1  0  0  0
  1  2  1  0  0  0
  2  3  1  0  0  0
  3  4  1  0  0  0
  4  5  1  0  0  0
  5  6  2  0  0  0
  5  7  1  0  0  0
  7  8  2  0  0  0
  8  9  1  0  0  0
  9 10  2  0  0  0
 10 11  1  0  0  0
 11 12  2  0  0  0
 12 13  1  0  0  0
 13 14  2  0  0  0
 14 15  1  0  0  0
 15  7  1  0  0  0
 14  9  1  0  0  0
M  END
> <minimizedAffinity>
-6.02006

> <CNNscore>
0.2508060336

> <CNNaffinity>
6.0868315697

> <CNN_VS>
1.5266140699

> <CNNaffinity_variance>
0.1218018159

$$$$
[H]/C(=C(\[H])C([H])([H])C([H])([H])C([H])([H])C([H])([H])C([H])([H])C([H])([H])C([H])([H])C([H])([H])[H])C([H])([H])C([H])([H])C([H])([H])C([H])([H])C([H])([H])C([H])([H])C([H])([H])C(=O)c1nc2c([H])c([H])c([H])nc2o1


 28 29  0  0  0  0  0  0  0  0999 V2000
    0.3573   22.0238  -25.1659 C   0  0  0  0  0  0  0  0  0  0  0  0
   -0.4934   22.4579  -24.0714 C   0  0  0  0  0  0  0  0  0  0  0  0
   -1.3390   21.5745  -23.2713 C   0  0  0  0  0  0  0  0  0  0  0  0
   -1.1917   21.5989  -21.7835 C   0  0  0  0  0  0  0  0  0  0  0  0
   -1.8997   22.8045  -21.2132 C   0  0  0  0  0  0  0  0  0  0  0  0
   -1.2162   23.6887  -20.6574 O   0  0  0  0  0  0  0  0  0  0  0  0
   -3.3269   22.9351  -21.3053 C   0  0  0  0  0  0  0  0  0  0  0  0
   -4.2120   21.9105  -21.3864 N   0  0  0  0  0  0  0  0  0  0  0  0
   -5.4647   22.3974  -21.4599 C   0  0  0  0  0  0  0  0  0  0  0  0
   -6.7252   21.8757  -21.5554 C   0  0  0  0  0  0  0  0  0  0  0  0
   -7.8093   22.7143  -21.6100 C   0  0  0  0  0  0  0  0  0  0  0  0
   -7.6021   24.0802  -21.5669 C   0  0  0  0  0  0  0  0  0  0  0  0
   -6.3534   24.6116  -21.4720 N   0  0  0  0  0  0  0  0  0  0  0  0
   -5.3001   23.7812  -21.4192 C   0  0  0  0  0  0  0  0  0  0  0  0
   -4.0140   24.0515  -21.3273 O   0  0  0  0  0  0  0  0  0  0  0  0
    0.0281   22.2780  -26.5792 C   0  0  0  0  0  0  0  0  0  0  0  0
   -1.4110   22.1257  -26.9335 C   0  0  0  0  0  0  0  0  0  0  0  0
   -1.9303   23.1537  -27.9276 C   0  0  0  0  0  0  0  0  0  0  0  0
   -4.1998   23.5957  -28.6916 C   0  0  0  0  0  0  0  0  0  0  0  0
   -3.2576   22.7352  -28.3947 C   0  0  0  0  0  0  0  0  0  0  0  0
   -4.0563   25.0313  -28.5997 C   0  0  0  0  0  0  0  0  0  0  0  0
   -5.2557   25.7116  -27.9429 C   0  0  0  0  0  0  0  0  0  0  0  0
   -6.2830   24.7318  -27.5112 C   0  0  0  0  0  0  0  0  0  0  0  0
   -6.9781   25.0760  -26.1941 C   0  0  0  0  0  0  0  0  0  0  0  0
   -6.6453   24.1156  -25.1171 C   0  0  0  0  0  0  0  0  0  0  0  0
   -5.8424   22.9170  -25.4264 C   0  0  0  0  0  0  0  0  0  0  0  0
   -3.7410   24.0967  -24.8248 C   0  0  0  0  0  0  0  0  0  0  0  0
   -4.4654   22.7955  -24.9007 C   0  0  0  0  0  0  0  0  0  0  0  0
 27 28  1  0  0  0
 28 26  1  0  0  0
 26 25  1  0  0  0
 25 24  1  0  0  0
 24 23  1  0  0  0
 23 22  1  0  0  0
 22 21  1  0  0  0
 21 19  1  0  0  0
 19 20  2  0  0  0
 20 18  1  0  0  0
 18 17  1  0  0  0
 17 16  1  0  0  0
 16  1  1  0  0  0
  1  2  1  0  0  0
  2  3  1  0  0  0
  3  4  1  0  0  0
  4  5  1  0  0  0
  5  6  2  0  0  0
  5  7  1  0  0  0
  7  8  2  0  0  0
  8  9  1  0  0  0
  9 10  2  0  0  0
 10 11  1  0  0  0
 11 12  2  0  0  0
 12 13  1  0  0  0
 13 14  2  0  0  0
 14 15  1  0  0  0
 15  7  1  0  0  0
 14  9  1  0  0  0
M  END
> <minimizedAffinity>
-6.36211

> <CNNscore>
0.2372433096

> <CNNaffinity>
6.3246655464

> <CNN_VS>
1.5004845858

> <CNNaffinity_variance>
0.5625923872

$$$$
[H]/C(=C(\[H])C([H])([H])C([H])([H])C([H])([H])C([H])([H])C([H])([H])C([H])([H])C([H])([H])C([H])([H])[H])C([H])([H])C([H])([H])C([H])([H])C([H])([H])C([H])([H])C([H])([H])C([H])([H])C(=O)c1nc2c([H])c([H])c([H])nc2o1


 28 29  0  0  0  0  0  0  0  0999 V2000
   -4.4598   23.9646  -21.4542 C   0  0  0  0  0  0  0  0  0  0  0  0
   -4.9761   24.8703  -22.4657 C   0  0  0  0  0  0  0  0  0  0  0  0
   -6.3940   25.0943  -22.7392 C   0  0  0  0  0  0  0  0  0  0  0  0
   -6.9202   24.7649  -24.0995 C   0  0  0  0  0  0  0  0  0  0  0  0
   -6.5316   25.8452  -25.0802 C   0  0  0  0  0  0  0  0  0  0  0  0
   -6.5024   27.0280  -24.6826 O   0  0  0  0  0  0  0  0  0  0  0  0
   -6.2026   25.5241  -26.4408 C   0  0  0  0  0  0  0  0  0  0  0  0
   -5.6046   26.3573  -27.3285 N   0  0  0  0  0  0  0  0  0  0  0  0
   -5.4490   25.7281  -28.5081 C   0  0  0  0  0  0  0  0  0  0  0  0
   -4.9318   26.0394  -29.7352 C   0  0  0  0  0  0  0  0  0  0  0  0
   -4.9459   25.1053  -30.7395 C   0  0  0  0  0  0  0  0  0  0  0  0
   -5.4874   23.8589  -30.4871 C   0  0  0  0  0  0  0  0  0  0  0  0
   -6.0050   23.5368  -29.2709 N   0  0  0  0  0  0  0  0  0  0  0  0
   -5.9857   24.4590  -28.2958 C   0  0  0  0  0  0  0  0  0  0  0  0
   -6.4200   24.3860  -27.0542 O   0  0  0  0  0  0  0  0  0  0  0  0
   -3.5443   22.8549  -21.7718 C   0  0  0  0  0  0  0  0  0  0  0  0
   -4.2053   21.5631  -22.1096 C   0  0  0  0  0  0  0  0  0  0  0  0
   -4.8910   21.5391  -23.4675 C   0  0  0  0  0  0  0  0  0  0  0  0
   -3.3847   21.5594  -25.3806 C   0  0  0  0  0  0  0  0  0  0  0  0
   -4.0013   20.8900  -24.4381 C   0  0  0  0  0  0  0  0  0  0  0  0
   -3.4986   22.9866  -25.5800 C   0  0  0  0  0  0  0  0  0  0  0  0
   -2.8373   23.4650  -26.8709 C   0  0  0  0  0  0  0  0  0  0  0  0
   -1.8160   22.5065  -27.3607 C   0  0  0  0  0  0  0  0  0  0  0  0
   -0.3745   22.8796  -27.0155 C   0  0  0  0  0  0  0  0  0  0  0  0
    0.1790   22.0349  -25.9323 C   0  0  0  0  0  0  0  0  0  0  0  0
    0.3043   22.5820  -24.5678 C   0  0  0  0  0  0  0  0  0  0  0  0
    0.5583   21.1710  -22.5395 C   0  0  0  0  0  0  0  0  0  0  0  0
   -0.3741   21.9100  -23.4383 C   0  0  0  0  0  0  0  0  0  0  0  0
 27 28  1  0  0  0
 28 26  1  0  0  0
 26 25  1  0  0  0
 25 24  1  0  0  0
 24 23  1  0  0  0
 23 22  1  0  0  0
 22 21  1  0  0  0
 21 19  1  0  0  0
 19 20  2  0  0  0
 20 18  1  0  0  0
 18 17  1  0  0  0
 17 16  1  0  0  0
 16  1  1  0  0  0
  1  2  1  0  0  0
  2  3  1  0  0  0
  3  4  1  0  0  0
  4  5  1  0  0  0
  5  6  2  0  0  0
  5  7  1  0  0  0
  7  8  2  0  0  0
  8  9  1  0  0  0
  9 10  2  0  0  0
 10 11  1  0  0  0
 11 12  2  0  0  0
 12 13  1  0  0  0
 13 14  2  0  0  0
 14 15  1  0  0  0
 15  7  1  0  0  0
 14  9  1  0  0  0
M  END
> <minimizedAffinity>
-6.67810

> <CNNscore>
0.2113868594

> <CNNaffinity>
6.5319700241

> <CNN_VS>
1.3807725906

> <CNNaffinity_variance>
0.4105668962

$$$$
[H]/C(=C(\[H])C([H])([H])C([H])([H])C([H])([H])C([H])([H])C([H])([H])C([H])([H])C([H])([H])C([H])([H])[H])C([H])([H])C([H])([H])C([H])([H])C([H])([H])C([H])([H])C([H])([H])C([H])([H])C(=O)c1nc2c([H])c([H])c([H])nc2o1


 28 29  0  0  0  0  0  0  0  0999 V2000
    0.4395   21.5921  -24.9150 C   0  0  0  0  0  0  0  0  0  0  0  0
    0.1523   22.3409  -26.1262 C   0  0  0  0  0  0  0  0  0  0  0  0
   -1.1466   22.9216  -26.4596 C   0  0  0  0  0  0  0  0  0  0  0  0
   -2.2789   22.0006  -26.7843 C   0  0  0  0  0  0  0  0  0  0  0  0
   -3.5868   22.7542  -26.7437 C   0  0  0  0  0  0  0  0  0  0  0  0
   -4.2315   22.7710  -25.6751 O   0  0  0  0  0  0  0  0  0  0  0  0
   -4.0820   23.4373  -27.9059 C   0  0  0  0  0  0  0  0  0  0  0  0
   -4.8854   22.9001  -28.8576 N   0  0  0  0  0  0  0  0  0  0  0  0
   -5.1524   23.8230  -29.8003 C   0  0  0  0  0  0  0  0  0  0  0  0
   -5.8755   23.8726  -30.9600 C   0  0  0  0  0  0  0  0  0  0  0  0
   -5.9192   25.0340  -31.6886 C   0  0  0  0  0  0  0  0  0  0  0  0
   -5.2255   26.1382  -31.2307 C   0  0  0  0  0  0  0  0  0  0  0  0
   -4.5027   26.1018  -30.0788 N   0  0  0  0  0  0  0  0  0  0  0  0
   -4.4672   24.9600  -29.3741 C   0  0  0  0  0  0  0  0  0  0  0  0
   -3.8472   24.6817  -28.2455 O   0  0  0  0  0  0  0  0  0  0  0  0
    0.1143   22.0982  -23.5702 C   0  0  0  0  0  0  0  0  0  0  0  0
   -0.7231   21.1915  -22.7357 C   0  0  0  0  0  0  0  0  0  0  0  0
   -1.9230   21.8610  -22.0823 C   0  0  0  0  0  0  0  0  0  0  0  0
   -3.2393   23.8650  -22.5074 C   0  0  0  0  0  0  0  0  0  0  0  0
   -2.1695   23.1471  -22.7456 C   0  0  0  0  0  0  0  0  0  0  0  0
   -4.2870   23.4919  -21.5837 C   0  0  0  0  0  0  0  0  0  0  0  0
   -5.4752   22.8185  -22.2673 C   0  0  0  0  0  0  0  0  0  0  0  0
   -6.5555   23.7852  -22.5840 C   0  0  0  0  0  0  0  0  0  0  0  0
   -6.9670   23.8215  -24.0556 C   0  0  0  0  0  0  0  0  0  0  0  0
   -7.5106   25.1404  -24.4532 C   0  0  0  0  0  0  0  0  0  0  0  0
   -6.6084   26.3030  -24.5593 C   0  0  0  0  0  0  0  0  0  0  0  0
   -4.2069   26.3577  -25.1911 C   0  0  0  0  0  0  0  0  0  0  0  0
   -5.6224   26.3737  -25.6594 C   0  0  0  0  0  0  0  0  0  0  0  0
 27 28  1  0  0  0
 28 26  1  0  0  0
 26 25  1  0  0  0
 25 24  1  0  0  0
 24 23  1  0  0  0
 23 22  1  0  0  0
 22 21  1  0  0  0
 21 19  1  0  0  0
 19 20  2  0  0  0
 20 18  1  0  0  0
 18 17  1  0  0  0
 17 16  1  0  0  0
 16  1  1  0  0  0
  1  2  1  0  0  0
  2  3  1  0  0  0
  3  4  1  0  0  0
  4  5  1  0  0  0
  5  6  2  0  0  0
  5  7  1  0  0  0
  7  8  2  0  0  0
  8  9  1  0  0  0
  9 10  2  0  0  0
 10 11  1  0  0  0
 11 12  2  0  0  0
 12 13  1  0  0  0
 13 14  2  0  0  0
 14 15  1  0  0  0
 15  7  1  0  0  0
 14  9  1  0  0  0
M  END
> <minimizedAffinity>
-6.31588

> <CNNscore>
0.2064428926

> <CNNaffinity>
6.7275986671

> <CNN_VS>
1.3888648748

> <CNNaffinity_variance>
0.2092574388

$$$$
[H]/C(=C(\[H])C([H])([H])C([H])([H])C([H])([H])C([H])([H])C([H])([H])C([H])([H])C([H])([H])C([H])([H])[H])C([H])([H])C([H])([H])C([H])([H])C([H])([H])C([H])([H])C([H])([H])C([H])([H])C(=O)c1nc2c([H])c([H])c([H])nc2o1


 28 29  0  0  0  0  0  0  0  0999 V2000
    0.6255   21.8573  -25.6710 C   0  0  0  0  0  0  0  0  0  0  0  0
    0.3713   21.8700  -24.2408 C   0  0  0  0  0  0  0  0  0  0  0  0
   -0.7881   22.4922  -23.6052 C   0  0  0  0  0  0  0  0  0  0  0  0
   -1.2557   21.9560  -22.2901 C   0  0  0  0  0  0  0  0  0  0  0  0
   -1.9330   23.0481  -21.4972 C   0  0  0  0  0  0  0  0  0  0  0  0
   -1.2417   23.7320  -20.7148 O   0  0  0  0  0  0  0  0  0  0  0  0
   -3.3403   23.2976  -21.6365 C   0  0  0  0  0  0  0  0  0  0  0  0
   -4.3056   22.3506  -21.7422 N   0  0  0  0  0  0  0  0  0  0  0  0
   -5.5098   22.9406  -21.8586 C   0  0  0  0  0  0  0  0  0  0  0  0
   -6.8061   22.5262  -21.9931 C   0  0  0  0  0  0  0  0  0  0  0  0
   -7.8133   23.4526  -22.0867 C   0  0  0  0  0  0  0  0  0  0  0  0
   -7.4932   24.7964  -22.0425 C   0  0  0  0  0  0  0  0  0  0  0  0
   -6.2078   25.2216  -21.9090 N   0  0  0  0  0  0  0  0  0  0  0  0
   -5.2305   24.3059  -21.8184 C   0  0  0  0  0  0  0  0  0  0  0  0
   -3.9299   24.4677  -21.6856 O   0  0  0  0  0  0  0  0  0  0  0  0
    0.0328   22.8411  -26.5937 C   0  0  0  0  0  0  0  0  0  0  0  0
   -1.1759   22.3743  -27.3291 C   0  0  0  0  0  0  0  0  0  0  0  0
   -2.4560   23.1186  -26.9799 C   0  0  0  0  0  0  0  0  0  0  0  0
   -4.2783   22.6936  -25.4216 C   0  0  0  0  0  0  0  0  0  0  0  0
   -3.3185   22.2347  -26.1863 C   0  0  0  0  0  0  0  0  0  0  0  0
   -4.6026   24.0938  -25.2658 C   0  0  0  0  0  0  0  0  0  0  0  0
   -6.0701   24.4036  -25.5543 C   0  0  0  0  0  0  0  0  0  0  0  0
   -6.2476   25.0895  -26.8581 C   0  0  0  0  0  0  0  0  0  0  0  0
   -5.0482   25.9233  -27.3081 C   0  0  0  0  0  0  0  0  0  0  0  0
   -4.6320   25.6045  -28.6931 C   0  0  0  0  0  0  0  0  0  0  0  0
   -5.6504   25.2583  -29.7029 C   0  0  0  0  0  0  0  0  0  0  0  0
   -5.1358   22.8338  -29.5409 C   0  0  0  0  0  0  0  0  0  0  0  0
   -5.5766   23.9618  -30.4107 C   0  0  0  0  0  0  0  0  0  0  0  0
 27 28  1  0  0  0
 28 26  1  0  0  0
 26 25  1  0  0  0
 25 24  1  0  0  0
 24 23  1  0  0  0
 23 22  1  0  0  0
 22 21  1  0  0  0
 21 19  1  0  0  0
 19 20  2  0  0  0
 20 18  1  0  0  0
 18 17  1  0  0  0
 17 16  1  0  0  0
 16  1  1  0  0  0
  1  2  1  0  0  0
  2  3  1  0  0  0
  3  4  1  0  0  0
  4  5  1  0  0  0
  5  6  2  0  0  0
  5  7  1  0  0  0
  7  8  2  0  0  0
  8  9  1  0  0  0
  9 10  2  0  0  0
 10 11  1  0  0  0
 11 12  2  0  0  0
 12 13  1  0  0  0
 13 14  2  0  0  0
 14 15  1  0  0  0
 15  7  1  0  0  0
 14  9  1  0  0  0
M  END
> <minimizedAffinity>
-6.84639

> <CNNscore>
0.1973118335

> <CNNaffinity>
6.3300824165

> <CNN_VS>
1.2490001917

> <CNNaffinity_variance>
0.6201848388

$$$$
[H]c1c([H])c([H])c(C([H])([H])C([H])([H])C([H])([H])[H])c(OC([H])(C2=NC([H])([H])C([H])([H])N2[H])C([H])([H])[H])c1[H]


 18 19  0  0  0  0  0  0  0  0999 V2000
   -4.8124   23.2828  -27.6650 C   0  0  0  0  0  0  0  0  0  0  0  0
   -6.0945   23.6999  -27.3848 C   0  0  0  0  0  0  0  0  0  0  0  0
   -6.6560   23.5586  -26.1333 C   0  0  0  0  0  0  0  0  0  0  0  0
   -5.9351   22.9846  -25.1070 C   0  0  0  0  0  0  0  0  0  0  0  0
   -4.6502   22.5608  -25.3671 C   0  0  0  0  0  0  0  0  0  0  0  0
   -4.0887   22.7013  -26.6164 C   0  0  0  0  0  0  0  0  0  0  0  0
   -4.1822   23.4102  -28.9822 C   0  0  0  0  0  0  0  0  0  0  0  0
   -4.6569   25.4551  -30.3245 C   0  0  0  0  0  0  0  0  0  0  0  0
   -3.7262   24.8232  -29.2819 C   0  0  0  0  0  0  0  0  0  0  0  0
   -2.8237   22.2954  -26.9093 O   0  0  0  0  0  0  0  0  0  0  0  0
   -1.6304   22.9659  -26.7211 C   0  0  0  0  0  0  0  0  0  0  0  0
   -0.7038   22.9183  -27.8950 C   0  0  0  0  0  0  0  0  0  0  0  0
   -0.8947   22.4661  -25.4983 C   0  0  0  0  0  0  0  0  0  0  0  0
    0.3174   22.0540  -25.5461 N   0  0  0  0  0  0  0  0  0  0  0  0
    0.7667   21.6381  -24.2515 C   0  0  0  0  0  0  0  0  0  0  0  0
   -0.4770   21.6161  -23.3917 C   0  0  0  0  0  0  0  0  0  0  0  0
   -1.4053   22.3812  -24.1838 N   0  0  0  0  0  0  0  0  0  0  0  0
   -2.3170   22.8095  -23.8422 H   0  0  0  0  0  0  0  0  0  0  0  0
  8  9  1  0  0  0
  9  7  1  0  0  0
  7  1  1  0  0  0
  1  2  2  0  0  0
  2  3  1  0  0  0
  3  4  2  0  0  0
  4  5  1  0  0  0
  5  6  2  0  0  0
  6 10  1  0  0  0
 10 11  1  0  0  0
 11 12  1  0  0  0
 11 13  1  0  0  0
 13 14  2  0  0  0
 14 15  1  0  0  0
 15 16  1  0  0  0
 16 17  1  0  0  0
  6  1  1  0  0  0
 17 13  1  0  0  0
 17 18  1  0  0  0
M  END
> <minimizedAffinity>
-6.19351

> <CNNscore>
0.5257727504

> <CNNaffinity>
5.5224862099

> <CNN_VS>
2.9035727978

> <CNNaffinity_variance>
0.1465481222

$$$$
[H]c1c([H])c([H])c(C([H])([H])C([H])([H])C([H])([H])[H])c(OC([H])(C2=NC([H])([H])C([H])([H])N2[H])C([H])([H])[H])c1[H]


 18 19  0  0  0  0  0  0  0  0999 V2000
   -4.2367   22.9551  -26.3540 C   0  0  0  0  0  0  0  0  0  0  0  0
   -5.3724   23.5043  -26.9064 C   0  0  0  0  0  0  0  0  0  0  0  0
   -5.4868   23.7500  -28.2584 C   0  0  0  0  0  0  0  0  0  0  0  0
   -4.4469   23.4464  -29.1122 C   0  0  0  0  0  0  0  0  0  0  0  0
   -3.3019   22.8960  -28.5791 C   0  0  0  0  0  0  0  0  0  0  0  0
   -3.1866   22.6504  -27.2292 C   0  0  0  0  0  0  0  0  0  0  0  0
   -4.0743   22.6840  -24.9229 C   0  0  0  0  0  0  0  0  0  0  0  0
   -6.0086   21.3973  -24.0218 C   0  0  0  0  0  0  0  0  0  0  0  0
   -4.5629   21.3062  -24.5261 C   0  0  0  0  0  0  0  0  0  0  0  0
   -2.0724   22.1078  -26.6680 O   0  0  0  0  0  0  0  0  0  0  0  0
   -0.8384   22.6894  -26.4488 C   0  0  0  0  0  0  0  0  0  0  0  0
    0.1161   22.5624  -27.5941 C   0  0  0  0  0  0  0  0  0  0  0  0
   -0.1783   22.1473  -25.2011 C   0  0  0  0  0  0  0  0  0  0  0  0
   -0.7846   22.0854  -24.0743 N   0  0  0  0  0  0  0  0  0  0  0  0
    0.0688   21.5345  -23.0648 C   0  0  0  0  0  0  0  0  0  0  0  0
    1.4429   21.4871  -23.6942 C   0  0  0  0  0  0  0  0  0  0  0  0
    1.1403   21.6518  -25.0927 N   0  0  0  0  0  0  0  0  0  0  0  0
    1.7929   21.4384  -25.9051 H   0  0  0  0  0  0  0  0  0  0  0  0
  8  9  1  0  0  0
  9  7  1  0  0  0
  7  1  1  0  0  0
  1  2  2  0  0  0
  2  3  1  0  0  0
  3  4  2  0  0  0
  4  5  1  0  0  0
  5  6  2  0  0  0
  6 10  1  0  0  0
 10 11  1  0  0  0
 11 12  1  0  0  0
 11 13  1  0  0  0
 13 14  2  0  0  0
 14 15  1  0  0  0
 15 16  1  0  0  0
 16 17  1  0  0  0
  6  1  1  0  0  0
 17 13  1  0  0  0
 17 18  1  0  0  0
M  END
> <minimizedAffinity>
-6.41031

> <CNNscore>
0.4722690582

> <CNNaffinity>
5.4082231522

> <CNN_VS>
2.5541365147

> <CNNaffinity_variance>
0.1375204325

$$$$
[H]c1c([H])c([H])c(C([H])([H])C([H])([H])C([H])([H])[H])c(OC([H])(C2=NC([H])([H])C([H])([H])N2[H])C([H])([H])[H])c1[H]


 18 19  0  0  0  0  0  0  0  0999 V2000
   -3.2592   22.2195  -25.8639 C   0  0  0  0  0  0  0  0  0  0  0  0
   -2.9719   21.5271  -24.7087 C   0  0  0  0  0  0  0  0  0  0  0  0
   -3.9209   21.2963  -23.7353 C   0  0  0  0  0  0  0  0  0  0  0  0
   -5.2097   21.7611  -23.8945 C   0  0  0  0  0  0  0  0  0  0  0  0
   -5.5174   22.4561  -25.0437 C   0  0  0  0  0  0  0  0  0  0  0  0
   -4.5705   22.6873  -26.0162 C   0  0  0  0  0  0  0  0  0  0  0  0
   -2.2781   22.4900  -26.9186 C   0  0  0  0  0  0  0  0  0  0  0  0
    0.1291   22.5746  -27.5565 C   0  0  0  0  0  0  0  0  0  0  0  0
   -0.8646   22.6160  -26.3889 C   0  0  0  0  0  0  0  0  0  0  0  0
   -4.8382   23.3683  -27.1630 O   0  0  0  0  0  0  0  0  0  0  0  0
   -4.5889   24.6933  -27.4652 C   0  0  0  0  0  0  0  0  0  0  0  0
   -5.2544   25.6713  -26.5489 C   0  0  0  0  0  0  0  0  0  0  0  0
   -4.9703   25.0231  -28.8908 C   0  0  0  0  0  0  0  0  0  0  0  0
   -5.2932   26.2068  -29.2595 N   0  0  0  0  0  0  0  0  0  0  0  0
   -5.6085   26.2383  -30.6561 C   0  0  0  0  0  0  0  0  0  0  0  0
   -5.6792   24.7874  -31.0763 C   0  0  0  0  0  0  0  0  0  0  0  0
   -5.0261   24.1227  -29.9781 N   0  0  0  0  0  0  0  0  0  0  0  0
   -4.6498   23.1279  -29.9812 H   0  0  0  0  0  0  0  0  0  0  0  0
  8  9  1  0  0  0
  9  7  1  0  0  0
  7  1  1  0  0  0
  1  2  2  0  0  0
  2  3  1  0  0  0
  3  4  2  0  0  0
  4  5  1  0  0  0
  5  6  2  0  0  0
  6 10  1  0  0  0
 10 11  1  0  0  0
 11 12  1  0  0  0
 11 13  1  0  0  0
 13 14  2  0  0  0
 14 15  1  0  0  0
 15 16  1  0  0  0
 16 17  1  0  0  0
  6  1  1  0  0  0
 17 13  1  0  0  0
 17 18  1  0  0  0
M  END
> <minimizedAffinity>
-6.48102

> <CNNscore>
0.4371427000

> <CNNaffinity>
5.5844507217

> <CNN_VS>
2.4412019253

> <CNNaffinity_variance>
0.2014507353

$$$$
[H]c1c([H])c([H])c(C([H])([H])C([H])([H])C([H])([H])[H])c(OC([H])(C2=NC([H])([H])C([H])([H])N2[H])C([H])([H])[H])c1[H]


 18 19  0  0  0  0  0  0  0  0999 V2000
   -1.3022   21.9537  -25.3023 C   0  0  0  0  0  0  0  0  0  0  0  0
   -0.1362   21.8564  -24.5761 C   0  0  0  0  0  0  0  0  0  0  0  0
   -0.1343   21.6148  -23.2185 C   0  0  0  0  0  0  0  0  0  0  0  0
   -1.3233   21.4604  -22.5366 C   0  0  0  0  0  0  0  0  0  0  0  0
   -2.5010   21.5541  -23.2453 C   0  0  0  0  0  0  0  0  0  0  0  0
   -2.5041   21.7955  -24.6009 C   0  0  0  0  0  0  0  0  0  0  0  0
   -1.3464   22.2148  -26.7438 C   0  0  0  0  0  0  0  0  0  0  0  0
   -0.0827   23.2634  -28.6179 C   0  0  0  0  0  0  0  0  0  0  0  0
    0.0285   22.4092  -27.3489 C   0  0  0  0  0  0  0  0  0  0  0  0
   -3.6466   21.8936  -25.3328 O   0  0  0  0  0  0  0  0  0  0  0  0
   -4.6102   22.8835  -25.3114 C   0  0  0  0  0  0  0  0  0  0  0  0
   -4.0643   24.2766  -25.3158 C   0  0  0  0  0  0  0  0  0  0  0  0
   -5.5444   22.7293  -24.1325 C   0  0  0  0  0  0  0  0  0  0  0  0
   -6.0643   21.6037  -23.8102 N   0  0  0  0  0  0  0  0  0  0  0  0
   -6.9069   21.7409  -22.6603 C   0  0  0  0  0  0  0  0  0  0  0  0
   -7.0415   23.2318  -22.4469 C   0  0  0  0  0  0  0  0  0  0  0  0
   -5.9653   23.7505  -23.2515 N   0  0  0  0  0  0  0  0  0  0  0  0
   -5.5560   24.7305  -23.1951 H   0  0  0  0  0  0  0  0  0  0  0  0
  8  9  1  0  0  0
  9  7  1  0  0  0
  7  1  1  0  0  0
  1  2  2  0  0  0
  2  3  1  0  0  0
  3  4  2  0  0  0
  4  5  1  0  0  0
  5  6  2  0  0  0
  6 10  1  0  0  0
 10 11  1  0  0  0
 11 12  1  0  0  0
 11 13  1  0  0  0
 13 14  2  0  0  0
 14 15  1  0  0  0
 15 16  1  0  0  0
 16 17  1  0  0  0
  6  1  1  0  0  0
 17 13  1  0  0  0
 17 18  1  0  0  0
M  END
> <minimizedAffinity>
-5.81754

> <CNNscore>
0.4039592147

> <CNNaffinity>
4.9010171890

> <CNN_VS>
1.9798110723

> <CNNaffinity_variance>
0.1220301539

$$$$
[H]c1c([H])c([H])c(C([H])([H])C([H])([H])C([H])([H])[H])c(OC([H])(C2=NC([H])([H])C([H])([H])N2[H])C([H])([H])[H])c1[H]


 18 19  0  0  0  0  0  0  0  0999 V2000
   -4.1074   23.5073  -28.2978 C   0  0  0  0  0  0  0  0  0  0  0  0
   -2.8774   22.8922  -28.3685 C   0  0  0  0  0  0  0  0  0  0  0  0
   -2.2441   22.3856  -27.2532 C   0  0  0  0  0  0  0  0  0  0  0  0
   -2.8366   22.4822  -26.0115 C   0  0  0  0  0  0  0  0  0  0  0  0
   -4.0676   23.0940  -25.9196 C   0  0  0  0  0  0  0  0  0  0  0  0
   -4.7007   23.6004  -27.0325 C   0  0  0  0  0  0  0  0  0  0  0  0
   -4.8100   24.0629  -29.4578 C   0  0  0  0  0  0  0  0  0  0  0  0
   -4.9860   25.8713  -31.1629 C   0  0  0  0  0  0  0  0  0  0  0  0
   -4.1904   25.3509  -29.9593 C   0  0  0  0  0  0  0  0  0  0  0  0
   -5.9158   24.2098  -26.9799 O   0  0  0  0  0  0  0  0  0  0  0  0
   -6.2344   25.4756  -26.5267 C   0  0  0  0  0  0  0  0  0  0  0  0
   -5.0845   26.4329  -26.5101 C   0  0  0  0  0  0  0  0  0  0  0  0
   -6.8566   25.4364  -25.1492 C   0  0  0  0  0  0  0  0  0  0  0  0
   -6.2016   25.7386  -24.0904 N   0  0  0  0  0  0  0  0  0  0  0  0
   -7.0274   25.6161  -22.9268 C   0  0  0  0  0  0  0  0  0  0  0  0
   -8.2828   24.9229  -23.4065 C   0  0  0  0  0  0  0  0  0  0  0  0
   -8.1868   25.0788  -24.8351 N   0  0  0  0  0  0  0  0  0  0  0  0
   -8.9772   24.9486  -25.5348 H   0  0  0  0  0  0  0  0  0  0  0  0
  8  9  1  0  0  0
  9  7  1  0  0  0
  7  1  1  0  0  0
  1  2  2  0  0  0
  2  3  1  0  0  0
  3  4  2  0  0  0
  4  5  1  0  0  0
  5  6  2  0  0  0
  6 10  1  0  0  0
 10 11  1  0  0  0
 11 12  1  0  0  0
 11 13  1  0  0  0
 13 14  2  0  0  0
 14 15  1  0  0  0
 15 16  1  0  0  0
 16 17  1  0  0  0
  6  1  1  0  0  0
 17 13  1  0  0  0
 17 18  1  0  0  0
M  END
> <minimizedAffinity>
-6.66292

> <CNNscore>
0.3997400999

> <CNNaffinity>
5.0821151733

> <CNN_VS>
2.0315251350

> <CNNaffinity_variance>
0.2627935112

$$$$
[H]c1c([H])c([H])c(C([H])([H])C([H])([H])C([H])([H])[H])c(OC([H])(C2=NC([H])([H])C([H])([H])N2[H])C([H])([H])[H])c1[H]


 18 19  0  0  0  0  0  0  0  0999 V2000
   -4.2043   23.5498  -28.0312 C   0  0  0  0  0  0  0  0  0  0  0  0
   -4.6679   23.0314  -29.2198 C   0  0  0  0  0  0  0  0  0  0  0  0
   -5.4299   23.7734  -30.0973 C   0  0  0  0  0  0  0  0  0  0  0  0
   -5.7552   25.0812  -29.8038 C   0  0  0  0  0  0  0  0  0  0  0  0
   -5.3007   25.6186  -28.6195 C   0  0  0  0  0  0  0  0  0  0  0  0
   -4.5400   24.8785  -27.7423 C   0  0  0  0  0  0  0  0  0  0  0  0
   -3.3972   22.7927  -27.0702 C   0  0  0  0  0  0  0  0  0  0  0  0
   -1.0631   22.3907  -26.2961 C   0  0  0  0  0  0  0  0  0  0  0  0
   -1.9614   22.6152  -27.5189 C   0  0  0  0  0  0  0  0  0  0  0  0
   -4.0736   25.3758  -26.5651 O   0  0  0  0  0  0  0  0  0  0  0  0
   -4.7649   26.0288  -25.5628 C   0  0  0  0  0  0  0  0  0  0  0  0
   -4.2326   27.3869  -25.2295 C   0  0  0  0  0  0  0  0  0  0  0  0
   -4.8259   25.2045  -24.2967 C   0  0  0  0  0  0  0  0  0  0  0  0
   -5.3693   24.0451  -24.2570 N   0  0  0  0  0  0  0  0  0  0  0  0
   -5.2901   23.4889  -22.9396 C   0  0  0  0  0  0  0  0  0  0  0  0
   -4.8159   24.6245  -22.0610 C   0  0  0  0  0  0  0  0  0  0  0  0
   -4.3191   25.5682  -23.0290 N   0  0  0  0  0  0  0  0  0  0  0  0
   -3.6816   26.3956  -22.8285 H   0  0  0  0  0  0  0  0  0  0  0  0
  8  9  1  0  0  0
  9  7  1  0  0  0
  7  1  1  0  0  0
  1  2  2  0  0  0
  2  3  1  0  0  0
  3  4  2  0  0  0
  4  5  1  0  0  0
  5  6  2  0  0  0
  6 10  1  0  0  0
 10 11  1  0  0  0
 11 12  1  0  0  0
 11 13  1  0  0  0
 13 14  2  0  0  0
 14 15  1  0  0  0
 15 16  1  0  0  0
 16 17  1  0  0  0
  6  1  1  0  0  0
 17 13  1  0  0  0
 17 18  1  0  0  0
M  END
> <minimizedAffinity>
-6.61162

> <CNNscore>
0.3871985972

> <CNNaffinity>
5.0714883804

> <CNN_VS>
1.9636732340

> <CNNaffinity_variance>
0.2099655569

$$$$
[H]c1c([H])c([H])c(C([H])([H])C([H])([H])C([H])([H])[H])c(OC([H])(C2=NC([H])([H])C([H])([H])N2[H])C([H])([H])[H])c1[H]


 18 19  0  0  0  0  0  0  0  0999 V2000
   -2.9113   23.2829  -26.1477 C   0  0  0  0  0  0  0  0  0  0  0  0
   -2.2690   22.6899  -27.2116 C   0  0  0  0  0  0  0  0  0  0  0  0
   -2.5727   23.0022  -28.5199 C   0  0  0  0  0  0  0  0  0  0  0  0
   -3.5470   23.9359  -28.8052 C   0  0  0  0  0  0  0  0  0  0  0  0
   -4.2013   24.5409  -27.7544 C   0  0  0  0  0  0  0  0  0  0  0  0
   -3.8990   24.2295  -26.4477 C   0  0  0  0  0  0  0  0  0  0  0  0
   -2.6215   22.9745  -24.7445 C   0  0  0  0  0  0  0  0  0  0  0  0
   -4.3215   21.2026  -24.3213 C   0  0  0  0  0  0  0  0  0  0  0  0
   -2.8216   21.5106  -24.4105 C   0  0  0  0  0  0  0  0  0  0  0  0
   -4.5232   24.8067  -25.3857 O   0  0  0  0  0  0  0  0  0  0  0  0
   -5.6174   25.6502  -25.3740 C   0  0  0  0  0  0  0  0  0  0  0  0
   -5.2781   27.0994  -25.2197 C   0  0  0  0  0  0  0  0  0  0  0  0
   -6.6097   25.2644  -24.3003 C   0  0  0  0  0  0  0  0  0  0  0  0
   -6.3957   24.3041  -23.4798 N   0  0  0  0  0  0  0  0  0  0  0  0
   -7.4934   24.1536  -22.5724 C   0  0  0  0  0  0  0  0  0  0  0  0
   -8.5862   25.0398  -23.1266 C   0  0  0  0  0  0  0  0  0  0  0  0
   -7.8602   25.8725  -24.0507 N   0  0  0  0  0  0  0  0  0  0  0  0
   -8.2024   26.7866  -24.4734 H   0  0  0  0  0  0  0  0  0  0  0  0
  8  9  1  0  0  0
  9  7  1  0  0  0
  7  1  1  0  0  0
  1  2  2  0  0  0
  2  3  1  0  0  0
  3  4  2  0  0  0
  4  5  1  0  0  0
  5  6  2  0  0  0
  6 10  1  0  0  0
 10 11  1  0  0  0
 11 12  1  0  0  0
 11 13  1  0  0  0
 13 14  2  0  0  0
 14 15  1  0  0  0
 15 16  1  0  0  0
 16 17  1  0  0  0
  6  1  1  0  0  0
 17 13  1  0  0  0
 17 18  1  0  0  0
M  END
> <minimizedAffinity>
-5.94116

> <CNNscore>
0.3493013084

> <CNNaffinity>
5.0002264977

> <CNN_VS>
1.7465856075

> <CNNaffinity_variance>
0.1254090816

$$$$
[H]c1c([H])c([H])c(C([H])([H])C([H])([H])C([H])([H])[H])c(OC([H])(C2=NC([H])([H])C([H])([H])N2[H])C([H])([H])[H])c1[H]


 18 19  0  0  0  0  0  0  0  0999 V2000
   -1.3478   22.1696  -25.5522 C   0  0  0  0  0  0  0  0  0  0  0  0
   -0.0207   22.3141  -25.8900 C   0  0  0  0  0  0  0  0  0  0  0  0
    0.3783   22.7012  -27.1519 C   0  0  0  0  0  0  0  0  0  0  0  0
   -0.5590   22.9601  -28.1302 C   0  0  0  0  0  0  0  0  0  0  0  0
   -1.8923   22.8215  -27.8121 C   0  0  0  0  0  0  0  0  0  0  0  0
   -2.2917   22.4348  -26.5524 C   0  0  0  0  0  0  0  0  0  0  0  0
   -1.8118   21.7553  -24.2251 C   0  0  0  0  0  0  0  0  0  0  0  0
   -0.7460   20.8734  -22.1526 C   0  0  0  0  0  0  0  0  0  0  0  0
   -0.8070   22.0527  -23.1314 C   0  0  0  0  0  0  0  0  0  0  0  0
   -3.5981   22.2884  -26.2024 O   0  0  0  0  0  0  0  0  0  0  0  0
   -4.5521   23.2623  -25.9778 C   0  0  0  0  0  0  0  0  0  0  0  0
   -4.0051   24.6517  -25.8813 C   0  0  0  0  0  0  0  0  0  0  0  0
   -5.3671   22.9716  -24.7379 C   0  0  0  0  0  0  0  0  0  0  0  0
   -5.5794   21.7798  -24.3187 N   0  0  0  0  0  0  0  0  0  0  0  0
   -6.3787   21.7912  -23.1305 C   0  0  0  0  0  0  0  0  0  0  0  0
   -6.8666   23.2163  -22.9982 C   0  0  0  0  0  0  0  0  0  0  0  0
   -5.9874   23.9211  -23.8953 N   0  0  0  0  0  0  0  0  0  0  0  0
   -5.8297   24.9726  -23.9219 H   0  0  0  0  0  0  0  0  0  0  0  0
  8  9  1  0  0  0
  9  7  1  0  0  0
  7  1  1  0  0  0
  1  2  2  0  0  0
  2  3  1  0  0  0
  3  4  2  0  0  0
  4  5  1  0  0  0
  5  6  2  0  0  0
  6 10  1  0  0  0
 10 11  1  0  0  0
 11 12  1  0  0  0
 11 13  1  0  0  0
 13 14  2  0  0  0
 14 15  1  0  0  0
 15 16  1  0  0  0
 16 17  1  0  0  0
  6  1  1  0  0  0
 17 13  1  0  0  0
 17 18  1  0  0  0
M  END
> <minimizedAffinity>
-6.19794

> <CNNscore>
0.3477402329

> <CNNaffinity>
5.0011606216

> <CNN_VS>
1.7391047478

> <CNNaffinity_variance>
0.0578575619

$$$$
[H]c1c([H])c([H])c(C([H])([H])C([H])([H])C([H])([H])[H])c(OC([H])(C2=NC([H])([H])C([H])([H])N2[H])C([H])([H])[H])c1[H]


 18 19  0  0  0  0  0  0  0  0999 V2000
   -2.1683   22.6847  -27.6368 C   0  0  0  0  0  0  0  0  0  0  0  0
   -0.8623   22.9073  -28.0126 C   0  0  0  0  0  0  0  0  0  0  0  0
    0.1878   22.7855  -27.1272 C   0  0  0  0  0  0  0  0  0  0  0  0
   -0.0449   22.4300  -25.8150 C   0  0  0  0  0  0  0  0  0  0  0  0
   -1.3448   22.2026  -25.4192 C   0  0  0  0  0  0  0  0  0  0  0  0
   -2.3941   22.3242  -26.3024 C   0  0  0  0  0  0  0  0  0  0  0  0
   -3.3115   22.8091  -28.5455 C   0  0  0  0  0  0  0  0  0  0  0  0
   -4.9484   24.3233  -29.6576 C   0  0  0  0  0  0  0  0  0  0  0  0
   -3.5935   24.2432  -28.9431 C   0  0  0  0  0  0  0  0  0  0  0  0
   -3.6893   22.1070  -25.9476 O   0  0  0  0  0  0  0  0  0  0  0  0
   -4.4460   22.7476  -24.9853 C   0  0  0  0  0  0  0  0  0  0  0  0
   -5.5740   21.9289  -24.4409 C   0  0  0  0  0  0  0  0  0  0  0  0
   -4.9966   24.0622  -25.4902 C   0  0  0  0  0  0  0  0  0  0  0  0
   -6.1477   24.1577  -26.0444 N   0  0  0  0  0  0  0  0  0  0  0  0
   -6.4191   25.5106  -26.4279 C   0  0  0  0  0  0  0  0  0  0  0  0
   -5.1071   26.2409  -26.2490 C   0  0  0  0  0  0  0  0  0  0  0  0
   -4.3586   25.3214  -25.4313 N   0  0  0  0  0  0  0  0  0  0  0  0
   -3.4788   25.5471  -24.8779 H   0  0  0  0  0  0  0  0  0  0  0  0
  8  9  1  0  0  0
  9  7  1  0  0  0
  7  1  1  0  0  0
  1  2  2  0  0  0
  2  3  1  0  0  0
  3  4  2  0  0  0
  4  5  1  0  0  0
  5  6  2  0  0  0
  6 10  1  0  0  0
 10 11  1  0  0  0
 11 12  1  0  0  0
 11 13  1  0  0  0
 13 14  2  0  0  0
 14 15  1  0  0  0
 15 16  1  0  0  0
 16 17  1  0  0  0
  6  1  1  0  0  0
 17 13  1  0  0  0
 17 18  1  0  0  0
M  END
> <minimizedAffinity>
-6.38548

> <CNNscore>
0.3374531865

> <CNNaffinity>
5.2704138756

> <CNN_VS>
1.7785179615

> <CNNaffinity_variance>
0.0690921769

$$$$
[H]C1=C2C([H])([H])C([H])([H])C([H])([H])C([H])([H])[C@]2([H])/C(=C(\[H])C([H])([H])C2([H])C([H])([H])C([H])([H])C(C([H])([H])[H])(C([H])([H])[H])[N+]2(C([H])([H])[H])C([H])([H])[H])[C@]2([H])[C@@]1([H])C(=O)O[C@@]2([H])C([H])([H])[H]


 26 29  0  0  0  0  0  0  0  0999 V2000
   -5.7110   24.5818  -17.5200 C   0  0  0  0  0  0  0  0  0  0  0  0
   -6.3257   23.3304  -18.2085 C   0  0  0  0  0  0  0  0  0  0  0  0
   -5.3929   23.0125  -19.2103 O   0  0  0  0  0  0  0  0  0  0  0  0
   -5.5989   23.9813  -20.1902 C   0  0  0  0  0  0  0  0  0  0  0  0
   -4.8810   24.1191  -21.2060 O   0  0  0  0  0  0  0  0  0  0  0  0
   -6.7847   24.7886  -19.8172 C   0  0  0  0  0  0  0  0  0  0  0  0
   -7.5591   25.3337  -20.8981 C   0  0  0  0  0  0  0  0  0  0  0  0
   -8.7044   24.9061  -21.3076 C   0  0  0  0  0  0  0  0  0  0  0  0
   -9.4401   25.5299  -22.4334 C   0  0  0  0  0  0  0  0  0  0  0  0
  -10.9257   25.3828  -22.1325 C   0  0  0  0  0  0  0  0  0  0  0  0
  -11.2044   25.3747  -20.6637 C   0  0  0  0  0  0  0  0  0  0  0  0
  -10.5223   24.3094  -19.8773 C   0  0  0  0  0  0  0  0  0  0  0  0
   -9.3321   23.7667  -20.6647 C   0  0  0  0  0  0  0  0  0  0  0  0
   -8.4268   23.0117  -19.6935 C   0  0  0  0  0  0  0  0  0  0  0  0
   -8.6835   21.7401  -19.6920 C   0  0  0  0  0  0  0  0  0  0  0  0
   -7.5137   23.7527  -18.9188 C   0  0  0  0  0  0  0  0  0  0  0  0
   -8.0216   20.7344  -18.9030 C   0  0  0  0  0  0  0  0  0  0  0  0
   -8.6429   20.8345  -17.4700 C   0  0  0  0  0  0  0  0  0  0  0  0
  -10.0604   20.3341  -17.5005 C   0  0  0  0  0  0  0  0  0  0  0  0
   -9.8971   18.9521  -16.8665 C   0  0  0  0  0  0  0  0  0  0  0  0
   -8.8843   19.2851  -15.7815 C   0  0  0  0  0  0  0  0  0  0  0  0
   -9.6149   20.0859  -14.7271 C   0  0  0  0  0  0  0  0  0  0  0  0
   -8.2962   18.0691  -15.1426 C   0  0  0  0  0  0  0  0  0  0  0  0
   -7.9195   20.0781  -16.5132 N   0  0  0  0  0  0  0  0  0  0  0  0
   -7.3653   21.0293  -15.5339 C   0  0  0  0  0  0  0  0  0  0  0  0
   -6.8169   19.3104  -17.0017 C   0  0  0  0  0  0  0  0  0  0  0  0
  1  2  1  0  0  0
  2  3  1  0  0  0
  3  4  1  0  0  0
  4  5  2  0  0  0
  4  6  1  0  0  0
  6  7  1  0  0  0
  7  8  2  0  0  0
  8  9  1  0  0  0
  9 10  1  0  0  0
 10 11  1  0  0  0
 11 12  1  0  0  0
 12 13  1  0  0  0
 13 14  1  0  0  0
 14 15  2  0  0  0
 15 17  1  0  0  0
 17 18  1  0  0  0
 18 19  1  0  0  0
 19 20  1  0  0  0
 20 21  1  0  0  0
 21 22  1  0  0  0
 21 23  1  0  0  0
 21 24  1  0  0  0
 24 25  1  0  0  0
 24 26  1  0  0  0
 14 16  1  0  0  0
 16  2  1  0  0  0
 16  6  1  0  0  0
 13  8  1  0  0  0
 24 18  1  0  0  0
M  CHG 1  24   1
M  END
> <minimizedAffinity>
-5.25162

> <CNNscore>
0.3127549291

> <CNNaffinity>
4.9531006813

> <CNN_VS>
1.5491065979

> <CNNaffinity_variance>
0.0509421416

$$$$
[H]C1=C2C([H])([H])C([H])([H])C([H])([H])C([H])([H])[C@]2([H])/C(=C(\[H])C([H])([H])C2([H])C([H])([H])C([H])([H])C(C([H])([H])[H])(C([H])([H])[H])[N+]2(C([H])([H])[H])C([H])([H])[H])[C@]2([H])[C@@]1([H])C(=O)O[C@@]2([H])C([H])([H])[H]


 26 29  0  0  0  0  0  0  0  0999 V2000
   -2.4902   21.3518  -27.0780 C   0  0  0  0  0  0  0  0  0  0  0  0
   -2.4882   22.4539  -25.9812 C   0  0  0  0  0  0  0  0  0  0  0  0
   -1.6871   23.4681  -26.5329 O   0  0  0  0  0  0  0  0  0  0  0  0
   -0.3876   22.9787  -26.4182 C   0  0  0  0  0  0  0  0  0  0  0  0
    0.6209   23.5382  -26.9040 O   0  0  0  0  0  0  0  0  0  0  0  0
   -0.4228   21.7171  -25.6410 C   0  0  0  0  0  0  0  0  0  0  0  0
    0.7379   21.4154  -24.8493 C   0  0  0  0  0  0  0  0  0  0  0  0
    0.8359   21.5201  -23.5679 C   0  0  0  0  0  0  0  0  0  0  0  0
    2.0748   21.1849  -22.8259 C   0  0  0  0  0  0  0  0  0  0  0  0
    1.6493   20.6421  -21.4682 C   0  0  0  0  0  0  0  0  0  0  0  0
    0.3249   19.9511  -21.5281 C   0  0  0  0  0  0  0  0  0  0  0  0
   -0.8177   20.7741  -22.0135 C   0  0  0  0  0  0  0  0  0  0  0  0
   -0.2936   21.9838  -22.7837 C   0  0  0  0  0  0  0  0  0  0  0  0
   -1.4448   22.5537  -23.6101 C   0  0  0  0  0  0  0  0  0  0  0  0
   -2.0425   23.5240  -22.9903 C   0  0  0  0  0  0  0  0  0  0  0  0
   -1.7379   21.9533  -24.8495 C   0  0  0  0  0  0  0  0  0  0  0  0
   -3.1613   24.2888  -23.4756 C   0  0  0  0  0  0  0  0  0  0  0  0
   -4.4423   23.5371  -22.9816 C   0  0  0  0  0  0  0  0  0  0  0  0
   -4.8210   24.0343  -21.6142 C   0  0  0  0  0  0  0  0  0  0  0  0
   -6.0051   24.9420  -21.9499 C   0  0  0  0  0  0  0  0  0  0  0  0
   -6.6758   24.1019  -23.0261 C   0  0  0  0  0  0  0  0  0  0  0  0
   -7.3095   22.9182  -22.3305 C   0  0  0  0  0  0  0  0  0  0  0  0
   -7.7352   24.8484  -23.7698 C   0  0  0  0  0  0  0  0  0  0  0  0
   -5.5474   23.7242  -23.8502 N   0  0  0  0  0  0  0  0  0  0  0  0
   -5.8904   22.4052  -24.4100 C   0  0  0  0  0  0  0  0  0  0  0  0
   -5.3483   24.5982  -24.9639 C   0  0  0  0  0  0  0  0  0  0  0  0
  1  2  1  0  0  0
  2  3  1  0  0  0
  3  4  1  0  0  0
  4  5  2  0  0  0
  4  6  1  0  0  0
  6  7  1  0  0  0
  7  8  2  0  0  0
  8  9  1  0  0  0
  9 10  1  0  0  0
 10 11  1  0  0  0
 11 12  1  0  0  0
 12 13  1  0  0  0
 13 14  1  0  0  0
 14 15  2  0  0  0
 15 17  1  0  0  0
 17 18  1  0  0  0
 18 19  1  0  0  0
 19 20  1  0  0  0
 20 21  1  0  0  0
 21 22  1  0  0  0
 21 23  1  0  0  0
 21 24  1  0  0  0
 24 25  1  0  0  0
 24 26  1  0  0  0
 14 16  1  0  0  0
 16  2  1  0  0  0
 16  6  1  0  0  0
 13  8  1  0  0  0
 24 18  1  0  0  0
M  CHG 1  24   1
M  END
> <minimizedAffinity>
-7.77612

> <CNNscore>
0.2832430303

> <CNNaffinity>
6.0743355751

> <CNN_VS>
1.7205132246

> <CNNaffinity_variance>
0.1060085297

$$$$
[H]C1=C2C([H])([H])C([H])([H])C([H])([H])C([H])([H])[C@]2([H])/C(=C(\[H])C([H])([H])C2([H])C([H])([H])C([H])([H])C(C([H])([H])[H])(C([H])([H])[H])[N+]2(C([H])([H])[H])C([H])([H])[H])[C@]2([H])[C@@]1([H])C(=O)O[C@@]2([H])C([H])([H])[H]


 26 29  0  0  0  0  0  0  0  0999 V2000
   -9.0448   20.2324  -17.7141 C   0  0  0  0  0  0  0  0  0  0  0  0
   -7.9203   20.5979  -18.7238 C   0  0  0  0  0  0  0  0  0  0  0  0
   -7.5912   19.3653  -19.3127 O   0  0  0  0  0  0  0  0  0  0  0  0
   -6.8592   18.7010  -18.3309 C   0  0  0  0  0  0  0  0  0  0  0  0
   -6.4773   17.5126  -18.4205 O   0  0  0  0  0  0  0  0  0  0  0  0
   -6.6263   19.6322  -17.2015 C   0  0  0  0  0  0  0  0  0  0  0  0
   -5.4143   19.4458  -16.4522 C   0  0  0  0  0  0  0  0  0  0  0  0
   -4.3574   20.1816  -16.5151 C   0  0  0  0  0  0  0  0  0  0  0  0
   -3.1454   19.9197  -15.7026 C   0  0  0  0  0  0  0  0  0  0  0  0
   -2.5147   21.2707  -15.3927 C   0  0  0  0  0  0  0  0  0  0  0  0
   -3.5334   22.3619  -15.3104 C   0  0  0  0  0  0  0  0  0  0  0  0
   -4.3642   22.5705  -16.5289 C   0  0  0  0  0  0  0  0  0  0  0  0
   -4.3139   21.3239  -17.4090 C   0  0  0  0  0  0  0  0  0  0  0  0
   -5.4753   21.3961  -18.3985 C   0  0  0  0  0  0  0  0  0  0  0  0
   -5.1048   21.9046  -19.5329 C   0  0  0  0  0  0  0  0  0  0  0  0
   -6.7484   20.9790  -17.9650 C   0  0  0  0  0  0  0  0  0  0  0  0
   -5.9367   22.1155  -20.6886 C   0  0  0  0  0  0  0  0  0  0  0  0
   -5.0018   22.7256  -21.7856 C   0  0  0  0  0  0  0  0  0  0  0  0
   -4.1951   21.6297  -22.4248 C   0  0  0  0  0  0  0  0  0  0  0  0
   -4.9308   21.4617  -23.7548 C   0  0  0  0  0  0  0  0  0  0  0  0
   -5.2272   22.9198  -24.0706 C   0  0  0  0  0  0  0  0  0  0  0  0
   -3.9146   23.5626  -24.4587 C   0  0  0  0  0  0  0  0  0  0  0  0
   -6.1967   23.0853  -25.1954 C   0  0  0  0  0  0  0  0  0  0  0  0
   -5.7276   23.4000  -22.8002 N   0  0  0  0  0  0  0  0  0  0  0  0
   -5.3467   24.8219  -22.7370 C   0  0  0  0  0  0  0  0  0  0  0  0
   -7.1534   23.3575  -22.7062 C   0  0  0  0  0  0  0  0  0  0  0  0
  1  2  1  0  0  0
  2  3  1  0  0  0
  3  4  1  0  0  0
  4  5  2  0  0  0
  4  6  1  0  0  0
  6  7  1  0  0  0
  7  8  2  0  0  0
  8  9  1  0  0  0
  9 10  1  0  0  0
 10 11  1  0  0  0
 11 12  1  0  0  0
 12 13  1  0  0  0
 13 14  1  0  0  0
 14 15  2  0  0  0
 15 17  1  0  0  0
 17 18  1  0  0  0
 18 19  1  0  0  0
 19 20  1  0  0  0
 20 21  1  0  0  0
 21 22  1  0  0  0
 21 23  1  0  0  0
 21 24  1  0  0  0
 24 25  1  0  0  0
 24 26  1  0  0  0
 14 16  1  0  0  0
 16  2  1  0  0  0
 16  6  1  0  0  0
 13  8  1  0  0  0
 24 18  1  0  0  0
M  CHG 1  24   1
M  END
> <minimizedAffinity>
-5.31134

> <CNNscore>
0.2177081853

> <CNNaffinity>
5.1273579597

> <CNN_VS>
1.1162678003

> <CNNaffinity_variance>
0.0373487473

$$$$
[H]C1=C2C([H])([H])C([H])([H])C([H])([H])C([H])([H])[C@]2([H])/C(=C(\[H])C([H])([H])C2([H])C([H])([H])C([H])([H])C(C([H])([H])[H])(C([H])([H])[H])[N+]2(C([H])([H])[H])C([H])([H])[H])[C@]2([H])[C@@]1([H])C(=O)O[C@@]2([H])C([H])([H])[H]


 26 29  0  0  0  0  0  0  0  0999 V2000
  -10.5033   23.7374  -20.6696 C   0  0  0  0  0  0  0  0  0  0  0  0
   -9.2177   23.0174  -20.1730 C   0  0  0  0  0  0  0  0  0  0  0  0
   -8.6427   23.9424  -19.2852 O   0  0  0  0  0  0  0  0  0  0  0  0
   -8.0951   24.9188  -20.1147 C   0  0  0  0  0  0  0  0  0  0  0  0
   -7.5883   25.9872  -19.7051 O   0  0  0  0  0  0  0  0  0  0  0  0
   -8.2211   24.4706  -21.5219 C   0  0  0  0  0  0  0  0  0  0  0  0
   -7.2022   24.9142  -22.4330 C   0  0  0  0  0  0  0  0  0  0  0  0
   -6.2365   24.2012  -22.9037 C   0  0  0  0  0  0  0  0  0  0  0  0
   -5.2247   24.7384  -23.8447 C   0  0  0  0  0  0  0  0  0  0  0  0
   -4.8178   23.5945  -24.7640 C   0  0  0  0  0  0  0  0  0  0  0  0
   -5.9299   22.6173  -24.9729 C   0  0  0  0  0  0  0  0  0  0  0  0
   -6.4738   21.9772  -23.7429 C   0  0  0  0  0  0  0  0  0  0  0  0
   -6.1003   22.8089  -22.5182 C   0  0  0  0  0  0  0  0  0  0  0  0
   -7.0037   22.3822  -21.3629 C   0  0  0  0  0  0  0  0  0  0  0  0
   -6.4334   21.4876  -20.6164 C   0  0  0  0  0  0  0  0  0  0  0  0
   -8.2953   22.9376  -21.2853 C   0  0  0  0  0  0  0  0  0  0  0  0
   -6.9932   20.8686  -19.4436 C   0  0  0  0  0  0  0  0  0  0  0  0
   -6.1070   21.3417  -18.2433 C   0  0  0  0  0  0  0  0  0  0  0  0
   -6.9875   21.8793  -17.1496 C   0  0  0  0  0  0  0  0  0  0  0  0
   -6.9608   20.7184  -16.1545 C   0  0  0  0  0  0  0  0  0  0  0  0
   -5.5000   20.3114  -16.2737 C   0  0  0  0  0  0  0  0  0  0  0  0
   -4.6849   21.3904  -15.5969 C   0  0  0  0  0  0  0  0  0  0  0  0
   -5.2065   19.0016  -15.6171 C   0  0  0  0  0  0  0  0  0  0  0  0
   -5.3160   20.2930  -17.7092 N   0  0  0  0  0  0  0  0  0  0  0  0
   -3.9051   20.6543  -17.9317 C   0  0  0  0  0  0  0  0  0  0  0  0
   -5.4976   18.9958  -18.2818 C   0  0  0  0  0  0  0  0  0  0  0  0
  1  2  1  0  0  0
  2  3  1  0  0  0
  3  4  1  0  0  0
  4  5  2  0  0  0
  4  6  1  0  0  0
  6  7  1  0  0  0
  7  8  2  0  0  0
  8  9  1  0  0  0
  9 10  1  0  0  0
 10 11  1  0  0  0
 11 12  1  0  0  0
 12 13  1  0  0  0
 13 14  1  0  0  0
 14 15  2  0  0  0
 15 17  1  0  0  0
 17 18  1  0  0  0
 18 19  1  0  0  0
 19 20  1  0  0  0
 20 21  1  0  0  0
 21 22  1  0  0  0
 21 23  1  0  0  0
 21 24  1  0  0  0
 24 25  1  0  0  0
 24 26  1  0  0  0
 14 16  1  0  0  0
 16  2  1  0  0  0
 16  6  1  0  0  0
 13  8  1  0  0  0
 24 18  1  0  0  0
M  CHG 1  24   1
M  END
> <minimizedAffinity>
-5.96995

> <CNNscore>
0.2077030391

> <CNNaffinity>
5.2584457397

> <CNN_VS>
1.0921951532

> <CNNaffinity_variance>
0.0654404759

$$$$
[H]C1=C2C([H])([H])C([H])([H])C([H])([H])C([H])([H])[C@]2([H])/C(=C(\[H])C([H])([H])C2([H])C([H])([H])C([H])([H])C(C([H])([H])[H])(C([H])([H])[H])[N+]2(C([H])([H])[H])C([H])([H])[H])[C@]2([H])[C@@]1([H])C(=O)O[C@@]2([H])C([H])([H])[H]


 26 29  0  0  0  0  0  0  0  0999 V2000
   -5.9368   19.6451  -18.4400 C   0  0  0  0  0  0  0  0  0  0  0  0
   -4.9050   20.7837  -18.6783 C   0  0  0  0  0  0  0  0  0  0  0  0
   -5.5006   21.9022  -18.0709 O   0  0  0  0  0  0  0  0  0  0  0  0
   -6.5126   22.2734  -18.9538 C   0  0  0  0  0  0  0  0  0  0  0  0
   -7.3592   23.1648  -18.7198 O   0  0  0  0  0  0  0  0  0  0  0  0
   -6.4019   21.4444  -20.1775 C   0  0  0  0  0  0  0  0  0  0  0  0
   -6.8330   22.0501  -21.4072 C   0  0  0  0  0  0  0  0  0  0  0  0
   -6.0705   22.4987  -22.3452 C   0  0  0  0  0  0  0  0  0  0  0  0
   -6.5990   23.1099  -23.5882 C   0  0  0  0  0  0  0  0  0  0  0  0
   -5.6198   22.7707  -24.7041 C   0  0  0  0  0  0  0  0  0  0  0  0
   -4.9296   21.4654  -24.4700 C   0  0  0  0  0  0  0  0  0  0  0  0
   -4.1554   21.3564  -23.2022 C   0  0  0  0  0  0  0  0  0  0  0  0
   -4.6274   22.4208  -22.2145 C   0  0  0  0  0  0  0  0  0  0  0  0
   -4.1399   22.0241  -20.8224 C   0  0  0  0  0  0  0  0  0  0  0  0
   -3.0190   22.6057  -20.5256 C   0  0  0  0  0  0  0  0  0  0  0  0
   -4.8937   21.0839  -20.0939 C   0  0  0  0  0  0  0  0  0  0  0  0
   -2.2801   22.4639  -19.2984 C   0  0  0  0  0  0  0  0  0  0  0  0
   -0.7809   22.2978  -19.7161 C   0  0  0  0  0  0  0  0  0  0  0  0
    0.0630   23.2907  -18.9661 C   0  0  0  0  0  0  0  0  0  0  0  0
    0.7040   22.3911  -17.9086 C   0  0  0  0  0  0  0  0  0  0  0  0
    0.9715   21.1537  -18.7518 C   0  0  0  0  0  0  0  0  0  0  0  0
    2.1139   21.4930  -19.6828 C   0  0  0  0  0  0  0  0  0  0  0  0
    1.3537   19.9639  -17.9327 C   0  0  0  0  0  0  0  0  0  0  0  0
   -0.2866   20.9957  -19.4496 N   0  0  0  0  0  0  0  0  0  0  0  0
    0.0542   20.3848  -20.7463 C   0  0  0  0  0  0  0  0  0  0  0  0
   -1.1804   20.0904  -18.7973 C   0  0  0  0  0  0  0  0  0  0  0  0
  1  2  1  0  0  0
  2  3  1  0  0  0
  3  4  1  0  0  0
  4  5  2  0  0  0
  4  6  1  0  0  0
  6  7  1  0  0  0
  7  8  2  0  0  0
  8  9  1  0  0  0
  9 10  1  0  0  0
 10 11  1  0  0  0
 11 12  1  0  0  0
 12 13  1  0  0  0
 13 14  1  0  0  0
 14 15  2  0  0  0
 15 17  1  0  0  0
 17 18  1  0  0  0
 18 19  1  0  0  0
 19 20  1  0  0  0
 20 21  1  0  0  0
 21 22  1  0  0  0
 21 23  1  0  0  0
 21 24  1  0  0  0
 24 25  1  0  0  0
 24 26  1  0  0  0
 14 16  1  0  0  0
 16  2  1  0  0  0
 16  6  1  0  0  0
 13  8  1  0  0  0
 24 18  1  0  0  0
M  CHG 1  24   1
M  END
> <minimizedAffinity>
-5.83406

> <CNNscore>
0.1999493837

> <CNNaffinity>
5.2603769302

> <CNN_VS>
1.0518090725

> <CNNaffinity_variance>
0.0387367792

$$$$
[H]C1=C2C([H])([H])C([H])([H])C([H])([H])C([H])([H])[C@]2([H])/C(=C(\[H])C([H])([H])C2([H])C([H])([H])C([H])([H])C(C([H])([H])[H])(C([H])([H])[H])[N+]2(C([H])([H])[H])C([H])([H])[H])[C@]2([H])[C@@]1([H])C(=O)O[C@@]2([H])C([H])([H])[H]


 26 29  0  0  0  0  0  0  0  0999 V2000
  -10.0736   22.1043  -19.3476 C   0  0  0  0  0  0  0  0  0  0  0  0
   -8.7077   22.3370  -20.0532 C   0  0  0  0  0  0  0  0  0  0  0  0
   -8.3083   21.0450  -20.4350 O   0  0  0  0  0  0  0  0  0  0  0  0
   -7.8935   20.4490  -19.2459 C   0  0  0  0  0  0  0  0  0  0  0  0
   -7.5696   19.2451  -19.1372 O   0  0  0  0  0  0  0  0  0  0  0  0
   -7.9075   21.4715  -18.1729 C   0  0  0  0  0  0  0  0  0  0  0  0
   -6.9426   21.3136  -17.1197 C   0  0  0  0  0  0  0  0  0  0  0  0
   -5.8653   22.0040  -16.9619 C   0  0  0  0  0  0  0  0  0  0  0  0
   -4.9210   21.7766  -15.8420 C   0  0  0  0  0  0  0  0  0  0  0  0
   -4.3159   23.1281  -15.4863 C   0  0  0  0  0  0  0  0  0  0  0  0
   -5.2575   24.2563  -15.7611 C   0  0  0  0  0  0  0  0  0  0  0  0
   -5.7324   24.3804  -17.1674 C   0  0  0  0  0  0  0  0  0  0  0  0
   -5.5276   23.0572  -17.9013 C   0  0  0  0  0  0  0  0  0  0  0  0
   -6.3882   23.0779  -19.1631 C   0  0  0  0  0  0  0  0  0  0  0  0
   -5.7091   23.4671  -20.1975 C   0  0  0  0  0  0  0  0  0  0  0  0
   -7.7516   22.7459  -19.0466 C   0  0  0  0  0  0  0  0  0  0  0  0
   -6.2012   23.5993  -21.5439 C   0  0  0  0  0  0  0  0  0  0  0  0
   -5.3686   22.5931  -22.4065 C   0  0  0  0  0  0  0  0  0  0  0  0
   -6.2957   21.7873  -23.2735 C   0  0  0  0  0  0  0  0  0  0  0  0
   -6.0862   22.4598  -24.6309 C   0  0  0  0  0  0  0  0  0  0  0  0
   -4.5850   22.6975  -24.5709 C   0  0  0  0  0  0  0  0  0  0  0  0
   -3.9185   21.3489  -24.7254 C   0  0  0  0  0  0  0  0  0  0  0  0
   -4.0965   23.6040  -25.6536 C   0  0  0  0  0  0  0  0  0  0  0  0
   -4.4271   23.2470  -23.2412 N   0  0  0  0  0  0  0  0  0  0  0  0
   -3.0860   22.8287  -22.7970 C   0  0  0  0  0  0  0  0  0  0  0  0
   -4.4338   24.6764  -23.2202 C   0  0  0  0  0  0  0  0  0  0  0  0
  1  2  1  0  0  0
  2  3  1  0  0  0
  3  4  1  0  0  0
  4  5  2  0  0  0
  4  6  1  0  0  0
  6  7  1  0  0  0
  7  8  2  0  0  0
  8  9  1  0  0  0
  9 10  1  0  0  0
 10 11  1  0  0  0
 11 12  1  0  0  0
 12 13  1  0  0  0
 13 14  1  0  0  0
 14 15  2  0  0  0
 15 17  1  0  0  0
 17 18  1  0  0  0
 18 19  1  0  0  0
 19 20  1  0  0  0
 20 21  1  0  0  0
 21 22  1  0  0  0
 21 23  1  0  0  0
 21 24  1  0  0  0
 24 25  1  0  0  0
 24 26  1  0  0  0
 14 16  1  0  0  0
 16  2  1  0  0  0
 16  6  1  0  0  0
 13  8  1  0  0  0
 24 18  1  0  0  0
M  CHG 1  24   1
M  END
> <minimizedAffinity>
-6.55513

> <CNNscore>
0.1991108805

> <CNNaffinity>
5.0531530380

> <CNN_VS>
1.0061377287

> <CNNaffinity_variance>
0.2266073972

$$$$
[H]C1=C2C([H])([H])C([H])([H])C([H])([H])C([H])([H])[C@]2([H])/C(=C(\[H])C([H])([H])C2([H])C([H])([H])C([H])([H])C(C([H])([H])[H])(C([H])([H])[H])[N+]2(C([H])([H])[H])C([H])([H])[H])[C@]2([H])[C@@]1([H])C(=O)O[C@@]2([H])C([H])([H])[H]


 26 29  0  0  0  0  0  0  0  0999 V2000
   -3.2109   23.3042  -21.6744 C   0  0  0  0  0  0  0  0  0  0  0  0
   -4.4203   22.4341  -21.2293 C   0  0  0  0  0  0  0  0  0  0  0  0
   -4.6110   21.5556  -22.3093 O   0  0  0  0  0  0  0  0  0  0  0  0
   -5.2016   22.3456  -23.2934 C   0  0  0  0  0  0  0  0  0  0  0  0
   -5.4269   21.9618  -24.4631 O   0  0  0  0  0  0  0  0  0  0  0  0
   -5.5020   23.6771  -22.7157 C   0  0  0  0  0  0  0  0  0  0  0  0
   -6.6419   24.3694  -23.2509 C   0  0  0  0  0  0  0  0  0  0  0  0
   -7.7886   24.5082  -22.6780 C   0  0  0  0  0  0  0  0  0  0  0  0
   -8.9156   25.2423  -23.3014 C   0  0  0  0  0  0  0  0  0  0  0  0
   -9.7040   25.8928  -22.1724 C   0  0  0  0  0  0  0  0  0  0  0  0
   -8.8358   26.2369  -21.0050 C   0  0  0  0  0  0  0  0  0  0  0  0
   -8.0984   25.1012  -20.3847 C   0  0  0  0  0  0  0  0  0  0  0  0
   -8.0248   23.9341  -21.3664 C   0  0  0  0  0  0  0  0  0  0  0  0
   -6.9313   22.9813  -20.8877 C   0  0  0  0  0  0  0  0  0  0  0  0
   -7.4189   22.0177  -20.1690 C   0  0  0  0  0  0  0  0  0  0  0  0
   -5.5951   23.2790  -21.2176 C   0  0  0  0  0  0  0  0  0  0  0  0
   -6.6777   20.9434  -19.5619 C   0  0  0  0  0  0  0  0  0  0  0  0
   -7.4595   20.5635  -18.2604 C   0  0  0  0  0  0  0  0  0  0  0  0
   -7.8189   19.1040  -18.2977 C   0  0  0  0  0  0  0  0  0  0  0  0
   -6.7849   18.5227  -17.3325 C   0  0  0  0  0  0  0  0  0  0  0  0
   -6.7794   19.6148  -16.2736 C   0  0  0  0  0  0  0  0  0  0  0  0
   -8.0852   19.5040  -15.5191 C   0  0  0  0  0  0  0  0  0  0  0  0
   -5.6496   19.4794  -15.3052 C   0  0  0  0  0  0  0  0  0  0  0  0
   -6.7055   20.8109  -17.0852 N   0  0  0  0  0  0  0  0  0  0  0  0
   -7.4166   21.8514  -16.3219 C   0  0  0  0  0  0  0  0  0  0  0  0
   -5.3688   21.2839  -17.2674 C   0  0  0  0  0  0  0  0  0  0  0  0
  1  2  1  0  0  0
  2  3  1  0  0  0
  3  4  1  0  0  0
  4  5  2  0  0  0
  4  6  1  0  0  0
  6  7  1  0  0  0
  7  8  2  0  0  0
  8  9  1  0  0  0
  9 10  1  0  0  0
 10 11  1  0  0  0
 11 12  1  0  0  0
 12 13  1  0  0  0
 13 14  1  0  0  0
 14 15  2  0  0  0
 15 17  1  0  0  0
 17 18  1  0  0  0
 18 19  1  0  0  0
 19 20  1  0  0  0
 20 21  1  0  0  0
 21 22  1  0  0  0
 21 23  1  0  0  0
 21 24  1  0  0  0
 24 25  1  0  0  0
 24 26  1  0  0  0
 14 16  1  0  0  0
 16  2  1  0  0  0
 16  6  1  0  0  0
 13  8  1  0  0  0
 24 18  1  0  0  0
M  CHG 1  24   1
M  END
> <minimizedAffinity>
-5.49830

> <CNNscore>
0.1982991397

> <CNNaffinity>
5.0781774521

> <CNN_VS>
1.0069981813

> <CNNaffinity_variance>
0.0285230633

$$$$
[H]C1=C2C([H])([H])C([H])([H])C([H])([H])C([H])([H])[C@]2([H])/C(=C(\[H])C([H])([H])C2([H])C([H])([H])C([H])([H])C(C([H])([H])[H])(C([H])([H])[H])[N+]2(C([H])([H])[H])C([H])([H])[H])[C@]2([H])[C@@]1([H])C(=O)O[C@@]2([H])C([H])([H])[H]


 26 29  0  0  0  0  0  0  0  0999 V2000
   -9.2976   25.8736  -21.4364 C   0  0  0  0  0  0  0  0  0  0  0  0
   -8.7152   24.4788  -21.0716 C   0  0  0  0  0  0  0  0  0  0  0  0
   -7.8924   24.7435  -19.9636 O   0  0  0  0  0  0  0  0  0  0  0  0
   -6.7708   25.3636  -20.5100 C   0  0  0  0  0  0  0  0  0  0  0  0
   -5.8446   25.8657  -19.8344 O   0  0  0  0  0  0  0  0  0  0  0  0
   -6.8767   25.3186  -21.9877 C   0  0  0  0  0  0  0  0  0  0  0  0
   -5.6422   25.2567  -22.7206 C   0  0  0  0  0  0  0  0  0  0  0  0
   -5.1537   24.2170  -23.3061 C   0  0  0  0  0  0  0  0  0  0  0  0
   -3.8692   24.2395  -24.0458 C   0  0  0  0  0  0  0  0  0  0  0  0
   -3.9973   23.2475  -25.1941 C   0  0  0  0  0  0  0  0  0  0  0  0
   -5.4062   23.1272  -25.6795 C   0  0  0  0  0  0  0  0  0  0  0  0
   -6.4112   22.7062  -24.6638 C   0  0  0  0  0  0  0  0  0  0  0  0
   -5.8624   22.9515  -23.2603 C   0  0  0  0  0  0  0  0  0  0  0  0
   -7.0345   22.9191  -22.2816 C   0  0  0  0  0  0  0  0  0  0  0  0
   -7.1780   21.7457  -21.7474 C   0  0  0  0  0  0  0  0  0  0  0  0
   -7.8093   24.0850  -22.1292 C   0  0  0  0  0  0  0  0  0  0  0  0
   -8.1747   21.3607  -20.7828 C   0  0  0  0  0  0  0  0  0  0  0  0
   -7.3887   20.7700  -19.5650 C   0  0  0  0  0  0  0  0  0  0  0  0
   -6.1459   21.5821  -19.3271 C   0  0  0  0  0  0  0  0  0  0  0  0
   -6.5632   22.4067  -18.1087 C   0  0  0  0  0  0  0  0  0  0  0  0
   -7.3362   21.3492  -17.3353 C   0  0  0  0  0  0  0  0  0  0  0  0
   -6.3195   20.3743  -16.7849 C   0  0  0  0  0  0  0  0  0  0  0  0
   -8.1225   21.9188  -16.1996 C   0  0  0  0  0  0  0  0  0  0  0  0
   -8.1589   20.7675  -18.3744 N   0  0  0  0  0  0  0  0  0  0  0  0
   -8.3533   19.3603  -17.9837 C   0  0  0  0  0  0  0  0  0  0  0  0
   -9.4619   21.3508  -18.4510 C   0  0  0  0  0  0  0  0  0  0  0  0
  1  2  1  0  0  0
  2  3  1  0  0  0
  3  4  1  0  0  0
  4  5  2  0  0  0
  4  6  1  0  0  0
  6  7  1  0  0  0
  7  8  2  0  0  0
  8  9  1  0  0  0
  9 10  1  0  0  0
 10 11  1  0  0  0
 11 12  1  0  0  0
 12 13  1  0  0  0
 13 14  1  0  0  0
 14 15  2  0  0  0
 15 17  1  0  0  0
 17 18  1  0  0  0
 18 19  1  0  0  0
 19 20  1  0  0  0
 20 21  1  0  0  0
 21 22  1  0  0  0
 21 23  1  0  0  0
 21 24  1  0  0  0
 24 25  1  0  0  0
 24 26  1  0  0  0
 14 16  1  0  0  0
 16  2  1  0  0  0
 16  6  1  0  0  0
 13  8  1  0  0  0
 24 18  1  0  0  0
M  CHG 1  24   1
M  END
> <minimizedAffinity>
-6.63382

> <CNNscore>
0.1767701507

> <CNNaffinity>
5.4684782028

> <CNN_VS>
0.9666637182

> <CNNaffinity_variance>
0.0412068740

$$$$
[H]C1=C2C([H])([H])C([H])([H])C([H])([H])C([H])([H])[C@]2([H])/C(=C(\[H])C([H])([H])C2([H])C([H])([H])C([H])([H])C(C([H])([H])[H])(C([H])([H])[H])[N+]2(C([H])([H])[H])C([H])([H])[H])[C@]2([H])[C@@]1([H])C(=O)O[C@@]2([H])C([H])([H])[H]


 26 29  0  0  0  0  0  0  0  0999 V2000
   -5.5793   22.6104  -29.6452 C   0  0  0  0  0  0  0  0  0  0  0  0
   -5.4279   23.4872  -28.3701 C   0  0  0  0  0  0  0  0  0  0  0  0
   -5.1569   24.7683  -28.8800 O   0  0  0  0  0  0  0  0  0  0  0  0
   -3.8331   24.6938  -29.3082 C   0  0  0  0  0  0  0  0  0  0  0  0
   -3.2438   25.6022  -29.9356 O   0  0  0  0  0  0  0  0  0  0  0  0
   -3.2744   23.3842  -28.8960 C   0  0  0  0  0  0  0  0  0  0  0  0
   -1.8659   23.3447  -28.6140 C   0  0  0  0  0  0  0  0  0  0  0  0
   -1.3228   23.2871  -27.4460 C   0  0  0  0  0  0  0  0  0  0  0  0
    0.1451   23.2474  -27.2426 C   0  0  0  0  0  0  0  0  0  0  0  0
    0.4011   22.4082  -25.9978 C   0  0  0  0  0  0  0  0  0  0  0  0
   -0.6446   21.3578  -25.8022 C   0  0  0  0  0  0  0  0  0  0  0  0
   -2.0458   21.8484  -25.6812 C   0  0  0  0  0  0  0  0  0  0  0  0
   -2.1513   23.2594  -26.2550 C   0  0  0  0  0  0  0  0  0  0  0  0
   -3.6279   23.5590  -26.5057 C   0  0  0  0  0  0  0  0  0  0  0  0
   -4.1615   24.1959  -25.5095 C   0  0  0  0  0  0  0  0  0  0  0  0
   -4.2127   23.0843  -27.6954 C   0  0  0  0  0  0  0  0  0  0  0  0
   -5.5275   24.6390  -25.4101 C   0  0  0  0  0  0  0  0  0  0  0  0
   -5.7182   25.1158  -23.9316 C   0  0  0  0  0  0  0  0  0  0  0  0
   -6.7551   26.2036  -23.8840 C   0  0  0  0  0  0  0  0  0  0  0  0
   -7.9605   25.4360  -23.3397 C   0  0  0  0  0  0  0  0  0  0  0  0
   -7.2623   24.5534  -22.3163 C   0  0  0  0  0  0  0  0  0  0  0  0
   -6.8517   25.4486  -21.1688 C   0  0  0  0  0  0  0  0  0  0  0  0
   -8.1423   23.4668  -21.7896 C   0  0  0  0  0  0  0  0  0  0  0  0
   -6.1297   24.0646  -23.0735 N   0  0  0  0  0  0  0  0  0  0  0  0
   -5.0538   23.8597  -22.0879 C   0  0  0  0  0  0  0  0  0  0  0  0
   -6.3685   22.7938  -23.6833 C   0  0  0  0  0  0  0  0  0  0  0  0
  1  2  1  0  0  0
  2  3  1  0  0  0
  3  4  1  0  0  0
  4  5  2  0  0  0
  4  6  1  0  0  0
  6  7  1  0  0  0
  7  8  2  0  0  0
  8  9  1  0  0  0
  9 10  1  0  0  0
 10 11  1  0  0  0
 11 12  1  0  0  0
 12 13  1  0  0  0
 13 14  1  0  0  0
 14 15  2  0  0  0
 15 17  1  0  0  0
 17 18  1  0  0  0
 18 19  1  0  0  0
 19 20  1  0  0  0
 20 21  1  0  0  0
 21 22  1  0  0  0
 21 23  1  0  0  0
 21 24  1  0  0  0
 24 25  1  0  0  0
 24 26  1  0  0  0
 14 16  1  0  0  0
 16  2  1  0  0  0
 16  6  1  0  0  0
 13  8  1  0  0  0
 24 18  1  0  0  0
M  CHG 1  24   1
M  END
> <minimizedAffinity>
-9.17217

> <CNNscore>
0.1732997745

> <CNNaffinity>
6.2661261559

> <CNN_VS>
1.0859183073

> <CNNaffinity_variance>
0.0885835811

$$$$
[H]c1c([H])c([H])c(C([H])([H])N2C([H])([H])C([H])([H])C([H])(C([H])([H])C([H])([H])N([H])C(=O)c3c([H])c([H])c([H])c([N+](=O)[O-])c3[H])C([H])([H])C2([H])[H])c([H])c1[H]


 28 30  0  0  0  0  0  0  0  0999 V2000
   -4.8400   21.4811  -22.1324 C   0  0  0  0  0  0  0  0  0  0  0  0
   -4.3769   21.8563  -24.8680 O   0  0  0  0  0  0  0  0  0  0  0  0
   -3.3750   21.8063  -24.1119 C   0  0  0  0  0  0  0  0  0  0  0  0
   -3.5475   21.6168  -22.7331 N   0  0  0  0  0  0  0  0  0  0  0  0
   -2.7267   21.5687  -22.0921 H   0  0  0  0  0  0  0  0  0  0  0  0
   -2.0779   21.9551  -24.7593 C   0  0  0  0  0  0  0  0  0  0  0  0
   -0.9171   21.6698  -24.0800 C   0  0  0  0  0  0  0  0  0  0  0  0
    0.3298   21.8133  -24.7033 C   0  0  0  0  0  0  0  0  0  0  0  0
    0.4008   22.2431  -26.0069 C   0  0  0  0  0  0  0  0  0  0  0  0
   -0.7479   22.5403  -26.7244 C   0  0  0  0  0  0  0  0  0  0  0  0
   -1.9583   22.3813  -26.0601 C   0  0  0  0  0  0  0  0  0  0  0  0
   -0.7080   22.9850  -28.0664 N   0  0  0  0  0  0  0  0  0  0  0  0
    0.3867   23.1724  -28.6058 O   0  0  0  0  0  0  0  0  0  0  0  0
   -1.8566   23.2052  -28.7601 O   0  0  0  0  0  0  0  0  0  0  0  0
   -4.9686   22.4223  -20.9709 C   0  0  0  0  0  0  0  0  0  0  0  0
   -5.6629   23.6701  -21.4967 C   0  0  0  0  0  0  0  0  0  0  0  0
   -6.6556   23.3280  -22.5766 C   0  0  0  0  0  0  0  0  0  0  0  0
   -7.4107   24.6237  -22.8924 C   0  0  0  0  0  0  0  0  0  0  0  0
   -6.5165   25.6197  -23.3574 N   0  0  0  0  0  0  0  0  0  0  0  0
   -5.1340   25.2871  -23.3393 C   0  0  0  0  0  0  0  0  0  0  0  0
   -4.6674   24.6613  -22.0509 C   0  0  0  0  0  0  0  0  0  0  0  0
   -6.8878   26.0636  -24.6735 C   0  0  0  0  0  0  0  0  0  0  0  0
   -6.2004   25.3851  -25.7731 C   0  0  0  0  0  0  0  0  0  0  0  0
   -6.7915   24.2264  -26.2580 C   0  0  0  0  0  0  0  0  0  0  0  0
   -6.2503   23.4993  -27.2972 C   0  0  0  0  0  0  0  0  0  0  0  0
   -5.0837   23.9665  -27.8492 C   0  0  0  0  0  0  0  0  0  0  0  0
   -4.4929   25.1108  -27.3757 C   0  0  0  0  0  0  0  0  0  0  0  0
   -5.0380   25.8252  -26.3439 C   0  0  0  0  0  0  0  0  0  0  0  0
  2  3  2  0  0  0
  3  4  1  0  0  0
  4  1  1  0  0  0
  1 15  1  0  0  0
 15 16  1  0  0  0
 16 17  1  0  0  0
 17 18  1  0  0  0
 18 19  1  0  0  0
 19 22  1  0  0  0
 22 23  1  0  0  0
 23 24  2  0  0  0
 24 25  1  0  0  0
 25 26  2  0  0  0
 26 27  1  0  0  0
 27 28  2  0  0  0
 19 20  1  0  0  0
 20 21  1  0  0  0
  3  6  1  0  0  0
  6  7  2  0  0  0
  7  8  1  0  0  0
  8  9  2  0  0  0
  9 10  1  0  0  0
 10 12  1  0  0  0
 12 13  2  0  0  0
 12 14  1  0  0  0
 10 11  2  0  0  0
 21 16  1  0  0  0
 11  6  1  0  0  0
 28 23  1  0  0  0
  4  5  1  0  0  0
M  CHG 1  12   1
M  CHG 1  14  -1
M  END
> <minimizedAffinity>
-7.87166

> <CNNscore>
0.4975255430

> <CNNaffinity>
6.2617440224

> <CNN_VS>
3.1153776646

> <CNNaffinity_variance>
0.3492192626

$$$$
[H]c1c([H])c([H])c(C([H])([H])N2C([H])([H])C([H])([H])C([H])(C([H])([H])C([H])([H])N([H])C(=O)c3c([H])c([H])c([H])c([N+](=O)[O-])c3[H])C([H])([H])C2([H])[H])c([H])c1[H]


 28 30  0  0  0  0  0  0  0  0999 V2000
   -4.2324   22.9974  -21.1397 C   0  0  0  0  0  0  0  0  0  0  0  0
   -1.5396   23.7537  -21.2647 O   0  0  0  0  0  0  0  0  0  0  0  0
   -1.9568   22.9493  -22.1348 C   0  0  0  0  0  0  0  0  0  0  0  0
   -3.2977   22.5385  -22.1223 N   0  0  0  0  0  0  0  0  0  0  0  0
   -3.6613   21.8748  -22.8395 H   0  0  0  0  0  0  0  0  0  0  0  0
   -0.9745   22.5000  -23.1130 C   0  0  0  0  0  0  0  0  0  0  0  0
    0.1307   21.7828  -22.7199 C   0  0  0  0  0  0  0  0  0  0  0  0
    1.0748   21.3513  -23.6611 C   0  0  0  0  0  0  0  0  0  0  0  0
    0.9009   21.6442  -24.9927 C   0  0  0  0  0  0  0  0  0  0  0  0
   -0.2010   22.3650  -25.4273 C   0  0  0  0  0  0  0  0  0  0  0  0
   -1.1069   22.7692  -24.4539 C   0  0  0  0  0  0  0  0  0  0  0  0
   -0.4080   22.6827  -26.7899 N   0  0  0  0  0  0  0  0  0  0  0  0
    0.5316   23.1336  -27.4520 O   0  0  0  0  0  0  0  0  0  0  0  0
   -1.6235   22.4963  -27.3701 O   0  0  0  0  0  0  0  0  0  0  0  0
   -5.0477   24.1283  -21.6943 C   0  0  0  0  0  0  0  0  0  0  0  0
   -4.9746   24.0151  -23.2101 C   0  0  0  0  0  0  0  0  0  0  0  0
   -4.4185   25.2727  -23.8249 C   0  0  0  0  0  0  0  0  0  0  0  0
   -4.2243   24.9731  -25.3152 C   0  0  0  0  0  0  0  0  0  0  0  0
   -5.4624   24.6463  -25.9222 N   0  0  0  0  0  0  0  0  0  0  0  0
   -6.5859   24.5504  -25.0558 C   0  0  0  0  0  0  0  0  0  0  0  0
   -6.3349   23.7449  -23.8078 C   0  0  0  0  0  0  0  0  0  0  0  0
   -5.7588   25.5548  -26.9964 C   0  0  0  0  0  0  0  0  0  0  0  0
   -5.6673   24.9783  -28.3384 C   0  0  0  0  0  0  0  0  0  0  0  0
   -5.5156   23.6006  -28.4166 C   0  0  0  0  0  0  0  0  0  0  0  0
   -5.4274   22.9336  -29.6202 C   0  0  0  0  0  0  0  0  0  0  0  0
   -5.4953   23.6902  -30.7635 C   0  0  0  0  0  0  0  0  0  0  0  0
   -5.6450   25.0524  -30.6949 C   0  0  0  0  0  0  0  0  0  0  0  0
   -5.7316   25.7049  -29.4955 C   0  0  0  0  0  0  0  0  0  0  0  0
  2  3  2  0  0  0
  3  4  1  0  0  0
  4  1  1  0  0  0
  1 15  1  0  0  0
 15 16  1  0  0  0
 16 17  1  0  0  0
 17 18  1  0  0  0
 18 19  1  0  0  0
 19 22  1  0  0  0
 22 23  1  0  0  0
 23 24  2  0  0  0
 24 25  1  0  0  0
 25 26  2  0  0  0
 26 27  1  0  0  0
 27 28  2  0  0  0
 19 20  1  0  0  0
 20 21  1  0  0  0
  3  6  1  0  0  0
  6  7  2  0  0  0
  7  8  1  0  0  0
  8  9  2  0  0  0
  9 10  1  0  0  0
 10 12  1  0  0  0
 12 13  2  0  0  0
 12 14  1  0  0  0
 10 11  2  0  0  0
 21 16  1  0  0  0
 11  6  1  0  0  0
 28 23  1  0  0  0
  4  5  1  0  0  0
M  CHG 1  12   1
M  CHG 1  14  -1
M  END
> <minimizedAffinity>
-8.40450

> <CNNscore>
0.4537468255

> <CNNaffinity>
6.4775061607

> <CNN_VS>
2.9391479492

> <CNNaffinity_variance>
0.4507401884

$$$$
[H]c1c([H])c([H])c(C([H])([H])N2C([H])([H])C([H])([H])C([H])(C([H])([H])C([H])([H])N([H])C(=O)c3c([H])c([H])c([H])c([N+](=O)[O-])c3[H])C([H])([H])C2([H])[H])c([H])c1[H]


 28 30  0  0  0  0  0  0  0  0999 V2000
   -6.0923   22.1837  -23.0712 C   0  0  0  0  0  0  0  0  0  0  0  0
   -4.3294   20.4080  -24.3275 O   0  0  0  0  0  0  0  0  0  0  0  0
   -3.8378   21.4362  -23.7990 C   0  0  0  0  0  0  0  0  0  0  0  0
   -4.6736   22.3588  -23.1530 N   0  0  0  0  0  0  0  0  0  0  0  0
   -4.2816   23.2150  -22.7057 H   0  0  0  0  0  0  0  0  0  0  0  0
   -2.3921   21.5823  -23.9090 C   0  0  0  0  0  0  0  0  0  0  0  0
   -1.5797   21.3677  -22.8207 C   0  0  0  0  0  0  0  0  0  0  0  0
   -0.1896   21.5084  -22.9274 C   0  0  0  0  0  0  0  0  0  0  0  0
    0.3747   21.8644  -24.1291 C   0  0  0  0  0  0  0  0  0  0  0  0
   -0.4119   22.0890  -25.2487 C   0  0  0  0  0  0  0  0  0  0  0  0
   -1.7840   21.9361  -25.0893 C   0  0  0  0  0  0  0  0  0  0  0  0
    0.1384   22.4568  -26.4986 N   0  0  0  0  0  0  0  0  0  0  0  0
    0.0523   21.6724  -27.4482 O   0  0  0  0  0  0  0  0  0  0  0  0
    0.7557   23.6576  -26.6599 O   0  0  0  0  0  0  0  0  0  0  0  0
   -6.7385   23.4455  -22.5799 C   0  0  0  0  0  0  0  0  0  0  0  0
   -7.0821   24.2674  -23.8136 C   0  0  0  0  0  0  0  0  0  0  0  0
   -6.7951   23.5002  -25.0776 C   0  0  0  0  0  0  0  0  0  0  0  0
   -7.3453   24.3482  -26.2295 C   0  0  0  0  0  0  0  0  0  0  0  0
   -6.6982   25.6081  -26.2727 N   0  0  0  0  0  0  0  0  0  0  0  0
   -5.7814   25.8849  -25.2213 C   0  0  0  0  0  0  0  0  0  0  0  0
   -6.3049   25.5618  -23.8462 C   0  0  0  0  0  0  0  0  0  0  0  0
   -6.0500   25.8049  -27.5409 C   0  0  0  0  0  0  0  0  0  0  0  0
   -5.1675   24.7157  -27.9612 C   0  0  0  0  0  0  0  0  0  0  0  0
   -5.6164   23.9157  -29.0031 C   0  0  0  0  0  0  0  0  0  0  0  0
   -4.8761   22.8636  -29.4994 C   0  0  0  0  0  0  0  0  0  0  0  0
   -3.6552   22.6263  -28.9187 C   0  0  0  0  0  0  0  0  0  0  0  0
   -3.2042   23.4122  -27.8884 C   0  0  0  0  0  0  0  0  0  0  0  0
   -3.9465   24.4540  -27.4031 C   0  0  0  0  0  0  0  0  0  0  0  0
  2  3  2  0  0  0
  3  4  1  0  0  0
  4  1  1  0  0  0
  1 15  1  0  0  0
 15 16  1  0  0  0
 16 17  1  0  0  0
 17 18  1  0  0  0
 18 19  1  0  0  0
 19 22  1  0  0  0
 22 23  1  0  0  0
 23 24  2  0  0  0
 24 25  1  0  0  0
 25 26  2  0  0  0
 26 27  1  0  0  0
 27 28  2  0  0  0
 19 20  1  0  0  0
 20 21  1  0  0  0
  3  6  1  0  0  0
  6  7  2  0  0  0
  7  8  1  0  0  0
  8  9  2  0  0  0
  9 10  1  0  0  0
 10 12  1  0  0  0
 12 13  2  0  0  0
 12 14  1  0  0  0
 10 11  2  0  0  0
 21 16  1  0  0  0
 11  6  1  0  0  0
 28 23  1  0  0  0
  4  5  1  0  0  0
M  CHG 1  12   1
M  CHG 1  14  -1
M  END
> <minimizedAffinity>
-8.13656

> <CNNscore>
0.4058546126

> <CNNaffinity>
6.1953759193

> <CNN_VS>
2.5144219398

> <CNNaffinity_variance>
0.3779849410

$$$$
[H]c1c([H])c([H])c(C([H])([H])N2C([H])([H])C([H])([H])C([H])(C([H])([H])C([H])([H])N([H])C(=O)c3c([H])c([H])c([H])c([N+](=O)[O-])c3[H])C([H])([H])C2([H])[H])c([H])c1[H]


 28 30  0  0  0  0  0  0  0  0999 V2000
   -5.2609   25.4623  -23.7570 C   0  0  0  0  0  0  0  0  0  0  0  0
   -4.1992   26.4331  -26.1589 O   0  0  0  0  0  0  0  0  0  0  0  0
   -4.9230   25.4080  -26.2174 C   0  0  0  0  0  0  0  0  0  0  0  0
   -5.4840   24.8797  -25.0456 N   0  0  0  0  0  0  0  0  0  0  0  0
   -6.0904   24.0322  -25.0769 H   0  0  0  0  0  0  0  0  0  0  0  0
   -5.1209   24.8405  -27.5450 C   0  0  0  0  0  0  0  0  0  0  0  0
   -5.1321   23.4784  -27.7319 C   0  0  0  0  0  0  0  0  0  0  0  0
   -5.3224   22.9336  -29.0088 C   0  0  0  0  0  0  0  0  0  0  0  0
   -5.5004   23.7631  -30.0902 C   0  0  0  0  0  0  0  0  0  0  0  0
   -5.4955   25.1416  -29.9411 C   0  0  0  0  0  0  0  0  0  0  0  0
   -5.3030   25.6304  -28.6545 C   0  0  0  0  0  0  0  0  0  0  0  0
   -5.6754   26.0215  -31.0338 N   0  0  0  0  0  0  0  0  0  0  0  0
   -5.8427   25.5519  -32.1633 O   0  0  0  0  0  0  0  0  0  0  0  0
   -5.6658   27.3688  -30.8500 O   0  0  0  0  0  0  0  0  0  0  0  0
   -5.6465   24.4914  -22.6800 C   0  0  0  0  0  0  0  0  0  0  0  0
   -4.3841   23.7254  -22.3121 C   0  0  0  0  0  0  0  0  0  0  0  0
   -3.2013   24.2075  -23.1104 C   0  0  0  0  0  0  0  0  0  0  0  0
   -1.9729   23.4993  -22.5291 C   0  0  0  0  0  0  0  0  0  0  0  0
   -2.1016   22.0940  -22.6585 N   0  0  0  0  0  0  0  0  0  0  0  0
   -3.3370   21.6168  -23.1762 C   0  0  0  0  0  0  0  0  0  0  0  0
   -4.5530   22.2428  -22.5446 C   0  0  0  0  0  0  0  0  0  0  0  0
   -1.0152   21.5516  -23.4284 C   0  0  0  0  0  0  0  0  0  0  0  0
   -1.0011   21.9403  -24.8393 C   0  0  0  0  0  0  0  0  0  0  0  0
    0.1863   22.4663  -25.3296 C   0  0  0  0  0  0  0  0  0  0  0  0
    0.3335   22.8613  -26.6425 C   0  0  0  0  0  0  0  0  0  0  0  0
   -0.7538   22.7156  -27.4674 C   0  0  0  0  0  0  0  0  0  0  0  0
   -1.9311   22.1967  -26.9906 C   0  0  0  0  0  0  0  0  0  0  0  0
   -2.0670   21.8075  -25.6860 C   0  0  0  0  0  0  0  0  0  0  0  0
  2  3  2  0  0  0
  3  4  1  0  0  0
  4  1  1  0  0  0
  1 15  1  0  0  0
 15 16  1  0  0  0
 16 17  1  0  0  0
 17 18  1  0  0  0
 18 19  1  0  0  0
 19 22  1  0  0  0
 22 23  1  0  0  0
 23 24  2  0  0  0
 24 25  1  0  0  0
 25 26  2  0  0  0
 26 27  1  0  0  0
 27 28  2  0  0  0
 19 20  1  0  0  0
 20 21  1  0  0  0
  3  6  1  0  0  0
  6  7  2  0  0  0
  7  8  1  0  0  0
  8  9  2  0  0  0
  9 10  1  0  0  0
 10 12  1  0  0  0
 12 13  2  0  0  0
 12 14  1  0  0  0
 10 11  2  0  0  0
 21 16  1  0  0  0
 11  6  1  0  0  0
 28 23  1  0  0  0
  4  5  1  0  0  0
M  CHG 1  12   1
M  CHG 1  14  -1
M  END
> <minimizedAffinity>
-8.86561

> <CNNscore>
0.3023422062

> <CNNaffinity>
6.2919626236

> <CNN_VS>
1.9023258686

> <CNNaffinity_variance>
0.1901401281

$$$$
[H]c1c([H])c([H])c(C([H])([H])N2C([H])([H])C([H])([H])C([H])(C([H])([H])C([H])([H])N([H])C(=O)c3c([H])c([H])c([H])c([N+](=O)[O-])c3[H])C([H])([H])C2([H])[H])c([H])c1[H]


 28 30  0  0  0  0  0  0  0  0999 V2000
   -3.8353   21.7070  -21.7310 C   0  0  0  0  0  0  0  0  0  0  0  0
   -2.2866   23.5238  -23.1939 O   0  0  0  0  0  0  0  0  0  0  0  0
   -2.9266   22.6564  -23.8390 C   0  0  0  0  0  0  0  0  0  0  0  0
   -3.7214   21.7228  -23.1581 N   0  0  0  0  0  0  0  0  0  0  0  0
   -4.2622   20.9991  -23.6784 H   0  0  0  0  0  0  0  0  0  0  0  0
   -2.7798   22.7006  -25.2882 C   0  0  0  0  0  0  0  0  0  0  0  0
   -3.8848   22.7002  -26.1063 C   0  0  0  0  0  0  0  0  0  0  0  0
   -3.7427   22.7426  -27.4998 C   0  0  0  0  0  0  0  0  0  0  0  0
   -2.4891   22.7853  -28.0616 C   0  0  0  0  0  0  0  0  0  0  0  0
   -1.3512   22.7873  -27.2692 C   0  0  0  0  0  0  0  0  0  0  0  0
   -1.5472   22.7443  -25.8940 C   0  0  0  0  0  0  0  0  0  0  0  0
   -0.0479   22.8302  -27.8168 N   0  0  0  0  0  0  0  0  0  0  0  0
    0.1310   23.3930  -28.9011 O   0  0  0  0  0  0  0  0  0  0  0  0
    0.9998   22.2611  -27.1629 O   0  0  0  0  0  0  0  0  0  0  0  0
   -5.2220   21.2975  -21.3305 C   0  0  0  0  0  0  0  0  0  0  0  0
   -6.0518   22.5717  -21.2701 C   0  0  0  0  0  0  0  0  0  0  0  0
   -6.9770   22.6768  -22.4540 C   0  0  0  0  0  0  0  0  0  0  0  0
   -7.8765   23.8892  -22.1902 C   0  0  0  0  0  0  0  0  0  0  0  0
   -7.1003   25.0694  -22.0785 N   0  0  0  0  0  0  0  0  0  0  0  0
   -5.6884   24.9041  -22.1170 C   0  0  0  0  0  0  0  0  0  0  0  0
   -5.1729   23.7992  -21.2323 C   0  0  0  0  0  0  0  0  0  0  0  0
   -7.4989   26.0367  -23.0647 C   0  0  0  0  0  0  0  0  0  0  0  0
   -6.7622   25.9734  -24.3277 C   0  0  0  0  0  0  0  0  0  0  0  0
   -7.2953   25.1631  -25.3209 C   0  0  0  0  0  0  0  0  0  0  0  0
   -6.7038   25.0247  -26.5589 C   0  0  0  0  0  0  0  0  0  0  0  0
   -5.5466   25.7278  -26.7837 C   0  0  0  0  0  0  0  0  0  0  0  0
   -5.0131   26.5308  -25.8073 C   0  0  0  0  0  0  0  0  0  0  0  0
   -5.6077   26.6614  -24.5820 C   0  0  0  0  0  0  0  0  0  0  0  0
  2  3  2  0  0  0
  3  4  1  0  0  0
  4  1  1  0  0  0
  1 15  1  0  0  0
 15 16  1  0  0  0
 16 17  1  0  0  0
 17 18  1  0  0  0
 18 19  1  0  0  0
 19 22  1  0  0  0
 22 23  1  0  0  0
 23 24  2  0  0  0
 24 25  1  0  0  0
 25 26  2  0  0  0
 26 27  1  0  0  0
 27 28  2  0  0  0
 19 20  1  0  0  0
 20 21  1  0  0  0
  3  6  1  0  0  0
  6  7  2  0  0  0
  7  8  1  0  0  0
  8  9  2  0  0  0
  9 10  1  0  0  0
 10 12  1  0  0  0
 12 13  2  0  0  0
 12 14  1  0  0  0
 10 11  2  0  0  0
 21 16  1  0  0  0
 11  6  1  0  0  0
 28 23  1  0  0  0
  4  5  1  0  0  0
M  CHG 1  12   1
M  CHG 1  14  -1
M  END
> <minimizedAffinity>
-7.26886

> <CNNscore>
0.2776799798

> <CNNaffinity>
5.8773984909

> <CNN_VS>
1.6320358515

> <CNNaffinity_variance>
0.4088768363

$$$$
[H]c1c([H])c([H])c(C([H])([H])N2C([H])([H])C([H])([H])C([H])(C([H])([H])C([H])([H])N([H])C(=O)c3c([H])c([H])c([H])c([N+](=O)[O-])c3[H])C([H])([H])C2([H])[H])c([H])c1[H]


 28 30  0  0  0  0  0  0  0  0999 V2000
   -6.1326   22.2491  -24.2171 C   0  0  0  0  0  0  0  0  0  0  0  0
   -3.7702   21.1740  -23.1674 O   0  0  0  0  0  0  0  0  0  0  0  0
   -3.6823   21.8411  -24.2283 C   0  0  0  0  0  0  0  0  0  0  0  0
   -4.8331   22.4057  -24.7972 N   0  0  0  0  0  0  0  0  0  0  0  0
   -4.7773   22.9656  -25.6749 H   0  0  0  0  0  0  0  0  0  0  0  0
   -2.3447   21.9723  -24.7916 C   0  0  0  0  0  0  0  0  0  0  0  0
   -1.2338   21.6668  -24.0414 C   0  0  0  0  0  0  0  0  0  0  0  0
    0.0521   21.7933  -24.5838 C   0  0  0  0  0  0  0  0  0  0  0  0
    0.2121   22.2267  -25.8784 C   0  0  0  0  0  0  0  0  0  0  0  0
   -0.8842   22.5439  -26.6658 C   0  0  0  0  0  0  0  0  0  0  0  0
   -2.1365   22.4012  -26.0803 C   0  0  0  0  0  0  0  0  0  0  0  0
   -0.7525   22.9927  -28.0006 N   0  0  0  0  0  0  0  0  0  0  0  0
   -1.7695   23.1845  -28.6740 O   0  0  0  0  0  0  0  0  0  0  0  0
    0.4753   23.2126  -28.5421 O   0  0  0  0  0  0  0  0  0  0  0  0
   -6.6311   23.5697  -23.7084 C   0  0  0  0  0  0  0  0  0  0  0  0
   -7.5013   23.2690  -22.4967 C   0  0  0  0  0  0  0  0  0  0  0  0
   -7.1981   24.2100  -21.3603 C   0  0  0  0  0  0  0  0  0  0  0  0
   -8.2484   23.9313  -20.2797 C   0  0  0  0  0  0  0  0  0  0  0  0
   -8.1576   22.5898  -19.8322 N   0  0  0  0  0  0  0  0  0  0  0  0
   -7.2290   21.7567  -20.5148 C   0  0  0  0  0  0  0  0  0  0  0  0
   -7.3043   21.8509  -22.0164 C   0  0  0  0  0  0  0  0  0  0  0  0
   -7.9002   22.5404  -18.4186 C   0  0  0  0  0  0  0  0  0  0  0  0
   -8.8981   21.8141  -17.6321 C   0  0  0  0  0  0  0  0  0  0  0  0
  -10.0911   21.5043  -18.2710 C   0  0  0  0  0  0  0  0  0  0  0  0
  -11.1077   20.8146  -17.6448 C   0  0  0  0  0  0  0  0  0  0  0  0
  -10.8995   20.4359  -16.3420 C   0  0  0  0  0  0  0  0  0  0  0  0
   -9.7234   20.7383  -15.7033 C   0  0  0  0  0  0  0  0  0  0  0  0
   -8.7206   21.4231  -16.3335 C   0  0  0  0  0  0  0  0  0  0  0  0
  2  3  2  0  0  0
  3  4  1  0  0  0
  4  1  1  0  0  0
  1 15  1  0  0  0
 15 16  1  0  0  0
 16 17  1  0  0  0
 17 18  1  0  0  0
 18 19  1  0  0  0
 19 22  1  0  0  0
 22 23  1  0  0  0
 23 24  2  0  0  0
 24 25  1  0  0  0
 25 26  2  0  0  0
 26 27  1  0  0  0
 27 28  2  0  0  0
 19 20  1  0  0  0
 20 21  1  0  0  0
  3  6  1  0  0  0
  6  7  2  0  0  0
  7  8  1  0  0  0
  8  9  2  0  0  0
  9 10  1  0  0  0
 10 12  1  0  0  0
 12 13  2  0  0  0
 12 14  1  0  0  0
 10 11  2  0  0  0
 21 16  1  0  0  0
 11  6  1  0  0  0
 28 23  1  0  0  0
  4  5  1  0  0  0
M  CHG 1  12   1
M  CHG 1  14  -1
M  END
> <minimizedAffinity>
-6.82348

> <CNNscore>
0.2544526160

> <CNNaffinity>
5.3527002335

> <CNN_VS>
1.3620085716

> <CNNaffinity_variance>
0.0426064506

$$$$
[H]c1c([H])c([H])c(C([H])([H])N2C([H])([H])C([H])([H])C([H])(C([H])([H])C([H])([H])N([H])C(=O)c3c([H])c([H])c([H])c([N+](=O)[O-])c3[H])C([H])([H])C2([H])[H])c([H])c1[H]


 28 30  0  0  0  0  0  0  0  0999 V2000
    0.3071   22.9535  -25.7731 C   0  0  0  0  0  0  0  0  0  0  0  0
   -0.3688   21.9470  -23.2494 O   0  0  0  0  0  0  0  0  0  0  0  0
    0.8001   21.7417  -23.6614 C   0  0  0  0  0  0  0  0  0  0  0  0
    1.1946   22.2260  -24.9171 N   0  0  0  0  0  0  0  0  0  0  0  0
    2.1620   22.0681  -25.2723 H   0  0  0  0  0  0  0  0  0  0  0  0
    1.6710   20.9922  -22.7651 C   0  0  0  0  0  0  0  0  0  0  0  0
    2.9561   20.6752  -23.1372 C   0  0  0  0  0  0  0  0  0  0  0  0
    3.7929   19.9544  -22.2748 C   0  0  0  0  0  0  0  0  0  0  0  0
    3.3312   19.5569  -21.0427 C   0  0  0  0  0  0  0  0  0  0  0  0
    2.0414   19.8580  -20.6323 C   0  0  0  0  0  0  0  0  0  0  0  0
    1.2529   20.5744  -21.5247 C   0  0  0  0  0  0  0  0  0  0  0  0
    1.5369   19.4629  -19.3714 N   0  0  0  0  0  0  0  0  0  0  0  0
    1.4744   18.2605  -19.0983 O   0  0  0  0  0  0  0  0  0  0  0  0
    1.1244   20.3901  -18.4663 O   0  0  0  0  0  0  0  0  0  0  0  0
    0.1787   22.2540  -27.0943 C   0  0  0  0  0  0  0  0  0  0  0  0
   -1.3112   22.1291  -27.3777 C   0  0  0  0  0  0  0  0  0  0  0  0
   -1.7724   23.1849  -28.3478 C   0  0  0  0  0  0  0  0  0  0  0  0
   -3.2274   22.8473  -28.6910 C   0  0  0  0  0  0  0  0  0  0  0  0
   -4.0331   22.8781  -27.5257 N   0  0  0  0  0  0  0  0  0  0  0  0
   -3.3563   23.0950  -26.2940 C   0  0  0  0  0  0  0  0  0  0  0  0
   -2.1240   22.2482  -26.1104 C   0  0  0  0  0  0  0  0  0  0  0  0
   -5.0960   23.8361  -27.6663 C   0  0  0  0  0  0  0  0  0  0  0  0
   -5.2516   24.3960  -29.0095 C   0  0  0  0  0  0  0  0  0  0  0  0
   -4.8393   25.7093  -29.1895 C   0  0  0  0  0  0  0  0  0  0  0  0
   -4.9230   26.3501  -30.4077 C   0  0  0  0  0  0  0  0  0  0  0  0
   -5.4379   25.6341  -31.4594 C   0  0  0  0  0  0  0  0  0  0  0  0
   -5.8479   24.3357  -31.2898 C   0  0  0  0  0  0  0  0  0  0  0  0
   -5.7607   23.7087  -30.0768 C   0  0  0  0  0  0  0  0  0  0  0  0
  2  3  2  0  0  0
  3  4  1  0  0  0
  4  1  1  0  0  0
  1 15  1  0  0  0
 15 16  1  0  0  0
 16 17  1  0  0  0
 17 18  1  0  0  0
 18 19  1  0  0  0
 19 22  1  0  0  0
 22 23  1  0  0  0
 23 24  2  0  0  0
 24 25  1  0  0  0
 25 26  2  0  0  0
 26 27  1  0  0  0
 27 28  2  0  0  0
 19 20  1  0  0  0
 20 21  1  0  0  0
  3  6  1  0  0  0
  6  7  2  0  0  0
  7  8  1  0  0  0
  8  9  2  0  0  0
  9 10  1  0  0  0
 10 12  1  0  0  0
 12 13  2  0  0  0
 12 14  1  0  0  0
 10 11  2  0  0  0
 21 16  1  0  0  0
 11  6  1  0  0  0
 28 23  1  0  0  0
  4  5  1  0  0  0
M  CHG 1  12   1
M  CHG 1  14  -1
M  END
> <minimizedAffinity>
-8.00813

> <CNNscore>
0.2503286004

> <CNNaffinity>
5.8176627159

> <CNN_VS>
1.4563273191

> <CNNaffinity_variance>
0.1329030097

$$$$
[H]c1c([H])c([H])c(C([H])([H])N2C([H])([H])C([H])([H])C([H])(C([H])([H])C([H])([H])N([H])C(=O)c3c([H])c([H])c([H])c([N+](=O)[O-])c3[H])C([H])([H])C2([H])[H])c([H])c1[H]


 28 30  0  0  0  0  0  0  0  0999 V2000
   -4.7935   24.0645  -28.4152 C   0  0  0  0  0  0  0  0  0  0  0  0
   -4.1940   22.7342  -26.0257 O   0  0  0  0  0  0  0  0  0  0  0  0
   -3.2365   23.0146  -26.7891 C   0  0  0  0  0  0  0  0  0  0  0  0
   -3.4780   23.6835  -27.9979 N   0  0  0  0  0  0  0  0  0  0  0  0
   -2.6945   23.9274  -28.6409 H   0  0  0  0  0  0  0  0  0  0  0  0
   -1.9145   22.6047  -26.3330 C   0  0  0  0  0  0  0  0  0  0  0  0
   -0.8382   22.6280  -27.1881 C   0  0  0  0  0  0  0  0  0  0  0  0
    0.4327   22.2336  -26.7488 C   0  0  0  0  0  0  0  0  0  0  0  0
    0.6126   21.8179  -25.4511 C   0  0  0  0  0  0  0  0  0  0  0  0
   -0.4487   21.7809  -24.5595 C   0  0  0  0  0  0  0  0  0  0  0  0
   -1.6874   22.1822  -25.0454 C   0  0  0  0  0  0  0  0  0  0  0  0
   -0.2960   21.3578  -23.2186 N   0  0  0  0  0  0  0  0  0  0  0  0
    0.8325   21.3401  -22.7180 O   0  0  0  0  0  0  0  0  0  0  0  0
   -1.3740   20.9742  -22.4838 O   0  0  0  0  0  0  0  0  0  0  0  0
   -4.8786   25.5566  -28.5484 C   0  0  0  0  0  0  0  0  0  0  0  0
   -5.6700   26.0562  -27.3485 C   0  0  0  0  0  0  0  0  0  0  0  0
   -4.7784   26.2536  -26.1507 C   0  0  0  0  0  0  0  0  0  0  0  0
   -5.6430   26.9230  -25.0769 C   0  0  0  0  0  0  0  0  0  0  0  0
   -6.7380   26.0927  -24.7313 N   0  0  0  0  0  0  0  0  0  0  0  0
   -6.8902   24.8985  -25.4882 C   0  0  0  0  0  0  0  0  0  0  0  0
   -6.7728   25.0935  -26.9774 C   0  0  0  0  0  0  0  0  0  0  0  0
   -6.7136   25.7744  -23.3294 C   0  0  0  0  0  0  0  0  0  0  0  0
   -6.1038   24.4861  -22.9972 C   0  0  0  0  0  0  0  0  0  0  0  0
   -4.7404   24.4901  -22.7357 C   0  0  0  0  0  0  0  0  0  0  0  0
   -4.0483   23.3453  -22.4013 C   0  0  0  0  0  0  0  0  0  0  0  0
   -4.7644   22.1763  -22.3336 C   0  0  0  0  0  0  0  0  0  0  0  0
   -6.1121   22.1636  -22.5907 C   0  0  0  0  0  0  0  0  0  0  0  0
   -6.7898   23.3052  -22.9218 C   0  0  0  0  0  0  0  0  0  0  0  0
  2  3  2  0  0  0
  3  4  1  0  0  0
  4  1  1  0  0  0
  1 15  1  0  0  0
 15 16  1  0  0  0
 16 17  1  0  0  0
 17 18  1  0  0  0
 18 19  1  0  0  0
 19 22  1  0  0  0
 22 23  1  0  0  0
 23 24  2  0  0  0
 24 25  1  0  0  0
 25 26  2  0  0  0
 26 27  1  0  0  0
 27 28  2  0  0  0
 19 20  1  0  0  0
 20 21  1  0  0  0
  3  6  1  0  0  0
  6  7  2  0  0  0
  7  8  1  0  0  0
  8  9  2  0  0  0
  9 10  1  0  0  0
 10 12  1  0  0  0
 12 13  2  0  0  0
 12 14  1  0  0  0
 10 11  2  0  0  0
 21 16  1  0  0  0
 11  6  1  0  0  0
 28 23  1  0  0  0
  4  5  1  0  0  0
M  CHG 1  12   1
M  CHG 1  14  -1
M  END
> <minimizedAffinity>
-8.11319

> <CNNscore>
0.2427956760

> <CNNaffinity>
5.9322180748

> <CNN_VS>
1.4403169155

> <CNNaffinity_variance>
0.4943272173

$$$$
[H]c1c([H])c([H])c(C([H])([H])N2C([H])([H])C([H])([H])C([H])(C([H])([H])C([H])([H])N([H])C(=O)c3c([H])c([H])c([H])c([N+](=O)[O-])c3[H])C([H])([H])C2([H])[H])c([H])c1[H]


 28 30  0  0  0  0  0  0  0  0999 V2000
   -0.4992   22.2589  -24.9238 C   0  0  0  0  0  0  0  0  0  0  0  0
   -0.9881   22.6935  -27.6462 O   0  0  0  0  0  0  0  0  0  0  0  0
   -1.9730   22.7299  -26.8673 C   0  0  0  0  0  0  0  0  0  0  0  0
   -1.7863   22.5224  -25.4929 N   0  0  0  0  0  0  0  0  0  0  0  0
   -2.5922   22.5534  -24.8322 H   0  0  0  0  0  0  0  0  0  0  0  0
   -3.2664   22.9938  -27.4847 C   0  0  0  0  0  0  0  0  0  0  0  0
   -3.4335   22.8727  -28.8440 C   0  0  0  0  0  0  0  0  0  0  0  0
   -4.6775   23.1268  -29.4369 C   0  0  0  0  0  0  0  0  0  0  0  0
   -5.7462   23.5013  -28.6578 C   0  0  0  0  0  0  0  0  0  0  0  0
   -5.6165   23.6338  -27.2837 C   0  0  0  0  0  0  0  0  0  0  0  0
   -4.3622   23.3703  -26.7461 C   0  0  0  0  0  0  0  0  0  0  0  0
   -6.6966   24.0177  -26.4552 N   0  0  0  0  0  0  0  0  0  0  0  0
   -6.8593   23.4439  -25.3742 O   0  0  0  0  0  0  0  0  0  0  0  0
   -7.5488   25.0058  -26.8378 O   0  0  0  0  0  0  0  0  0  0  0  0
   -0.5767   22.3202  -23.4267 C   0  0  0  0  0  0  0  0  0  0  0  0
   -2.0342   22.5826  -23.0766 C   0  0  0  0  0  0  0  0  0  0  0  0
   -2.1795   23.8302  -22.2453 C   0  0  0  0  0  0  0  0  0  0  0  0
   -3.6847   24.0861  -22.1138 C   0  0  0  0  0  0  0  0  0  0  0  0
   -4.3194   22.9978  -21.4650 N   0  0  0  0  0  0  0  0  0  0  0  0
   -3.5013   21.8725  -21.1706 C   0  0  0  0  0  0  0  0  0  0  0  0
   -2.6351   21.4231  -22.3182 C   0  0  0  0  0  0  0  0  0  0  0  0
   -4.9847   23.4358  -20.2681 C   0  0  0  0  0  0  0  0  0  0  0  0
   -6.2646   24.1123  -20.4829 C   0  0  0  0  0  0  0  0  0  0  0  0
   -7.1933   23.4529  -21.2766 C   0  0  0  0  0  0  0  0  0  0  0  0
   -8.4393   23.9775  -21.5477 C   0  0  0  0  0  0  0  0  0  0  0  0
   -8.7396   25.1984  -20.9969 C   0  0  0  0  0  0  0  0  0  0  0  0
   -7.8274   25.8567  -20.2114 C   0  0  0  0  0  0  0  0  0  0  0  0
   -6.5934   25.3275  -19.9483 C   0  0  0  0  0  0  0  0  0  0  0  0
  2  3  2  0  0  0
  3  4  1  0  0  0
  4  1  1  0  0  0
  1 15  1  0  0  0
 15 16  1  0  0  0
 16 17  1  0  0  0
 17 18  1  0  0  0
 18 19  1  0  0  0
 19 22  1  0  0  0
 22 23  1  0  0  0
 23 24  2  0  0  0
 24 25  1  0  0  0
 25 26  2  0  0  0
 26 27  1  0  0  0
 27 28  2  0  0  0
 19 20  1  0  0  0
 20 21  1  0  0  0
  3  6  1  0  0  0
  6  7  2  0  0  0
  7  8  1  0  0  0
  8  9  2  0  0  0
  9 10  1  0  0  0
 10 12  1  0  0  0
 12 13  2  0  0  0
 12 14  1  0  0  0
 10 11  2  0  0  0
 21 16  1  0  0  0
 11  6  1  0  0  0
 28 23  1  0  0  0
  4  5  1  0  0  0
M  CHG 1  12   1
M  CHG 1  14  -1
M  END
> <minimizedAffinity>
-7.51368

> <CNNscore>
0.2220166028

> <CNNaffinity>
5.7657370567

> <CNN_VS>
1.2800893784

> <CNNaffinity_variance>
0.2665065527

$$$$
[H]OC(=O)c1c([H])c([H])c(OC2([H])C([H])([H])SC2([H])[H])c([H])c1[H]


 15 16  0  0  0  0  0  0  0  0999 V2000
   -3.4183   22.3908  -20.7644 C   0  0  0  0  0  0  0  0  0  0  0  0
   -4.0181   21.4972  -19.8885 C   0  0  0  0  0  0  0  0  0  0  0  0
   -5.3888   21.2779  -19.9691 C   0  0  0  0  0  0  0  0  0  0  0  0
   -6.1857   21.9165  -20.8905 C   0  0  0  0  0  0  0  0  0  0  0  0
   -5.5739   22.8083  -21.7613 C   0  0  0  0  0  0  0  0  0  0  0  0
   -4.2007   23.0434  -21.6984 C   0  0  0  0  0  0  0  0  0  0  0  0
   -1.5111   23.7732  -20.8713 O   0  0  0  0  0  0  0  0  0  0  0  0
   -1.9739   22.6208  -20.6784 C   0  0  0  0  0  0  0  0  0  0  0  0
   -1.1221   21.5700  -20.3852 O   0  0  0  0  0  0  0  0  0  0  0  0
   -0.6391   21.1134  -21.1600 H   0  0  0  0  0  0  0  0  0  0  0  0
   -7.4909   21.7153  -20.9757 O   0  0  0  0  0  0  0  0  0  0  0  0
   -8.6453   22.1020  -20.4478 C   0  0  0  0  0  0  0  0  0  0  0  0
   -9.1426   21.4147  -19.1679 C   0  0  0  0  0  0  0  0  0  0  0  0
  -10.4237   22.7094  -19.1508 S   0  0  0  0  0  0  0  0  0  0  0  0
   -8.8250   23.3951  -19.7291 C   0  0  0  0  0  0  0  0  0  0  0  0
  7  8  2  0  0  0
  8  9  1  0  0  0
  8  1  1  0  0  0
  1  2  2  0  0  0
  2  3  1  0  0  0
  3  4  2  0  0  0
  4 11  1  0  0  0
 11 12  1  0  0  0
 12 13  1  0  0  0
 13 14  1  0  0  0
 14 15  1  0  0  0
  4  5  1  0  0  0
  5  6  2  0  0  0
  6  1  1  0  0  0
 15 12  1  0  0  0
  9 10  1  0  0  0
M  END
> <minimizedAffinity>
-3.31660

> <CNNscore>
0.6021082401

> <CNNaffinity>
3.6403324604

> <CNN_VS>
2.1918742657

> <CNNaffinity_variance>
0.1719259024

$$$$
[H]OC(=O)c1c([H])c([H])c(OC2([H])C([H])([H])SC2([H])[H])c([H])c1[H]


 15 16  0  0  0  0  0  0  0  0999 V2000
   -3.8722   23.3293  -21.8222 C   0  0  0  0  0  0  0  0  0  0  0  0
   -3.4743   22.3654  -20.9068 C   0  0  0  0  0  0  0  0  0  0  0  0
   -4.4336   21.5610  -20.3018 C   0  0  0  0  0  0  0  0  0  0  0  0
   -5.7764   21.6811  -20.5746 C   0  0  0  0  0  0  0  0  0  0  0  0
   -6.1620   22.6491  -21.4922 C   0  0  0  0  0  0  0  0  0  0  0  0
   -5.2168   23.4668  -22.1110 C   0  0  0  0  0  0  0  0  0  0  0  0
   -1.6444   24.0090  -22.1889 O   0  0  0  0  0  0  0  0  0  0  0  0
   -2.8603   24.1761  -22.4590 C   0  0  0  0  0  0  0  0  0  0  0  0
   -3.2444   25.1578  -23.3559 O   0  0  0  0  0  0  0  0  0  0  0  0
   -3.3138   26.1178  -23.0159 H   0  0  0  0  0  0  0  0  0  0  0  0
   -6.6975   20.9209  -20.0046 O   0  0  0  0  0  0  0  0  0  0  0  0
   -7.5004   20.8643  -18.9494 C   0  0  0  0  0  0  0  0  0  0  0  0
   -8.9891   21.1930  -19.1320 C   0  0  0  0  0  0  0  0  0  0  0  0
   -9.1755   20.5968  -17.4210 S   0  0  0  0  0  0  0  0  0  0  0  0
   -7.9405   19.5858  -18.3227 C   0  0  0  0  0  0  0  0  0  0  0  0
  7  8  2  0  0  0
  8  9  1  0  0  0
  8  1  1  0  0  0
  1  2  2  0  0  0
  2  3  1  0  0  0
  3  4  2  0  0  0
  4 11  1  0  0  0
 11 12  1  0  0  0
 12 13  1  0  0  0
 13 14  1  0  0  0
 14 15  1  0  0  0
  4  5  1  0  0  0
  5  6  2  0  0  0
  6  1  1  0  0  0
 15 12  1  0  0  0
  9 10  1  0  0  0
M  END
> <minimizedAffinity>
-3.25248

> <CNNscore>
0.5463640690

> <CNNaffinity>
3.5519027710

> <CNN_VS>
1.9406321049

> <CNNaffinity_variance>
0.4011305869

$$$$
[H]OC(=O)c1c([H])c([H])c(OC2([H])C([H])([H])SC2([H])[H])c([H])c1[H]


 15 16  0  0  0  0  0  0  0  0999 V2000
   -1.5002   22.3677  -26.0631 C   0  0  0  0  0  0  0  0  0  0  0  0
   -1.2682   22.5968  -27.4118 C   0  0  0  0  0  0  0  0  0  0  0  0
   -2.3239   22.9824  -28.2304 C   0  0  0  0  0  0  0  0  0  0  0  0
   -3.6040   23.1483  -27.7554 C   0  0  0  0  0  0  0  0  0  0  0  0
   -3.8235   22.9160  -26.4042 C   0  0  0  0  0  0  0  0  0  0  0  0
   -2.7793   22.5287  -25.5648 C   0  0  0  0  0  0  0  0  0  0  0  0
   -0.5955   21.7023  -23.9898 O   0  0  0  0  0  0  0  0  0  0  0  0
   -0.3869   21.9616  -25.2016 C   0  0  0  0  0  0  0  0  0  0  0  0
    0.8916   21.8641  -25.7230 O   0  0  0  0  0  0  0  0  0  0  0  0
    1.5321   22.6446  -25.5721 H   0  0  0  0  0  0  0  0  0  0  0  0
   -4.6158   23.5148  -28.5256 O   0  0  0  0  0  0  0  0  0  0  0  0
   -5.0482   24.5202  -29.2760 C   0  0  0  0  0  0  0  0  0  0  0  0
   -4.0211   25.4837  -29.8882 C   0  0  0  0  0  0  0  0  0  0  0  0
   -5.4346   26.1613  -30.8160 S   0  0  0  0  0  0  0  0  0  0  0  0
   -5.5849   24.3414  -30.6548 C   0  0  0  0  0  0  0  0  0  0  0  0
  7  8  2  0  0  0
  8  9  1  0  0  0
  8  1  1  0  0  0
  1  2  2  0  0  0
  2  3  1  0  0  0
  3  4  2  0  0  0
  4 11  1  0  0  0
 11 12  1  0  0  0
 12 13  1  0  0  0
 13 14  1  0  0  0
 14 15  1  0  0  0
  4  5  1  0  0  0
  5  6  2  0  0  0
  6  1  1  0  0  0
 15 12  1  0  0  0
  9 10  1  0  0  0
M  END
> <minimizedAffinity>
-6.10598

> <CNNscore>
0.5345634222

> <CNNaffinity>
4.6237640381

> <CNN_VS>
2.4716951847

> <CNNaffinity_variance>
0.2705760598

$$$$
[H]OC(=O)c1c([H])c([H])c(OC2([H])C([H])([H])SC2([H])[H])c([H])c1[H]


 15 16  0  0  0  0  0  0  0  0999 V2000
   -6.3518   22.9515  -19.7579 C   0  0  0  0  0  0  0  0  0  0  0  0
   -5.7965   23.3129  -18.5386 C   0  0  0  0  0  0  0  0  0  0  0  0
   -4.5402   22.8294  -18.1903 C   0  0  0  0  0  0  0  0  0  0  0  0
   -3.8153   21.9980  -19.0121 C   0  0  0  0  0  0  0  0  0  0  0  0
   -4.3815   21.6436  -20.2292 C   0  0  0  0  0  0  0  0  0  0  0  0
   -5.6402   22.1169  -20.5989 C   0  0  0  0  0  0  0  0  0  0  0  0
   -8.0822   23.3549  -21.3079 O   0  0  0  0  0  0  0  0  0  0  0  0
   -7.6756   23.4617  -20.1236 C   0  0  0  0  0  0  0  0  0  0  0  0
   -8.4755   24.0600  -19.1655 O   0  0  0  0  0  0  0  0  0  0  0  0
   -8.4917   25.0797  -19.1227 H   0  0  0  0  0  0  0  0  0  0  0  0
   -2.6190   21.5323  -18.6904 O   0  0  0  0  0  0  0  0  0  0  0  0
   -1.3485   21.8994  -18.5810 C   0  0  0  0  0  0  0  0  0  0  0  0
   -0.3062   21.2464  -19.5001 C   0  0  0  0  0  0  0  0  0  0  0  0
    0.8408   22.4958  -18.8359 S   0  0  0  0  0  0  0  0  0  0  0  0
   -0.8314   23.2130  -19.0589 C   0  0  0  0  0  0  0  0  0  0  0  0
  7  8  2  0  0  0
  8  9  1  0  0  0
  8  1  1  0  0  0
  1  2  2  0  0  0
  2  3  1  0  0  0
  3  4  2  0  0  0
  4 11  1  0  0  0
 11 12  1  0  0  0
 12 13  1  0  0  0
 13 14  1  0  0  0
 14 15  1  0  0  0
  4  5  1  0  0  0
  5  6  2  0  0  0
  6  1  1  0  0  0
 15 12  1  0  0  0
  9 10  1  0  0  0
M  END
> <minimizedAffinity>
-2.67788

> <CNNscore>
0.4871461093

> <CNNaffinity>
3.3639259338

> <CNN_VS>
1.6387233734

> <CNNaffinity_variance>
0.1362646669

$$$$
[H]OC(=O)c1c([H])c([H])c(OC2([H])C([H])([H])SC2([H])[H])c([H])c1[H]


 15 16  0  0  0  0  0  0  0  0999 V2000
   -1.9321   22.6340  -26.6232 C   0  0  0  0  0  0  0  0  0  0  0  0
   -0.6280   22.6497  -27.0969 C   0  0  0  0  0  0  0  0  0  0  0  0
    0.4203   22.3941  -26.2199 C   0  0  0  0  0  0  0  0  0  0  0  0
    0.2179   22.1232  -24.8866 C   0  0  0  0  0  0  0  0  0  0  0  0
   -1.0913   22.1104  -24.4246 C   0  0  0  0  0  0  0  0  0  0  0  0
   -2.1579   22.3639  -25.2866 C   0  0  0  0  0  0  0  0  0  0  0  0
   -4.2239   22.7927  -27.1545 O   0  0  0  0  0  0  0  0  0  0  0  0
   -3.0357   22.9035  -27.5484 C   0  0  0  0  0  0  0  0  0  0  0  0
   -2.7684   23.2792  -28.8535 O   0  0  0  0  0  0  0  0  0  0  0  0
   -2.8129   22.5615  -29.5780 H   0  0  0  0  0  0  0  0  0  0  0  0
    1.2082   21.8787  -24.0434 O   0  0  0  0  0  0  0  0  0  0  0  0
    1.7160   20.9228  -23.2757 C   0  0  0  0  0  0  0  0  0  0  0  0
    3.2326   20.8905  -23.0374 C   0  0  0  0  0  0  0  0  0  0  0  0
    2.8597   19.5994  -21.8078 S   0  0  0  0  0  0  0  0  0  0  0  0
    1.5620   20.8941  -21.7936 C   0  0  0  0  0  0  0  0  0  0  0  0
  7  8  2  0  0  0
  8  9  1  0  0  0
  8  1  1  0  0  0
  1  2  2  0  0  0
  2  3  1  0  0  0
  3  4  2  0  0  0
  4 11  1  0  0  0
 11 12  1  0  0  0
 12 13  1  0  0  0
 13 14  1  0  0  0
 14 15  1  0  0  0
  4  5  1  0  0  0
  5  6  2  0  0  0
  6  1  1  0  0  0
 15 12  1  0  0  0
  9 10  1  0  0  0
M  END
> <minimizedAffinity>
-5.22246

> <CNNscore>
0.4281665683

> <CNNaffinity>
3.7677738667

> <CNN_VS>
1.6132347584

> <CNNaffinity_variance>
0.1860493124

$$$$
[H]OC(=O)c1c([H])c([H])c(OC2([H])C([H])([H])SC2([H])[H])c([H])c1[H]


 15 16  0  0  0  0  0  0  0  0999 V2000
   -4.4793   24.7786  -28.6053 C   0  0  0  0  0  0  0  0  0  0  0  0
   -4.5319   25.2453  -27.2996 C   0  0  0  0  0  0  0  0  0  0  0  0
   -3.9440   24.4999  -26.2838 C   0  0  0  0  0  0  0  0  0  0  0  0
   -3.3047   23.3052  -26.5200 C   0  0  0  0  0  0  0  0  0  0  0  0
   -3.2587   22.8487  -27.8305 C   0  0  0  0  0  0  0  0  0  0  0  0
   -3.8417   23.5801  -28.8649 C   0  0  0  0  0  0  0  0  0  0  0  0
   -4.4200   25.9050  -30.6759 O   0  0  0  0  0  0  0  0  0  0  0  0
   -5.0993   25.5651  -29.6747 C   0  0  0  0  0  0  0  0  0  0  0  0
   -6.4305   25.9323  -29.5810 O   0  0  0  0  0  0  0  0  0  0  0  0
   -6.6463   26.8751  -29.2544 H   0  0  0  0  0  0  0  0  0  0  0  0
   -2.7419   22.5879  -25.5608 O   0  0  0  0  0  0  0  0  0  0  0  0
   -1.5618   22.1604  -25.1300 C   0  0  0  0  0  0  0  0  0  0  0  0
   -0.2966   22.5871  -25.8883 C   0  0  0  0  0  0  0  0  0  0  0  0
    0.6081   21.8324  -24.4991 S   0  0  0  0  0  0  0  0  0  0  0  0
   -0.9028   22.6787  -23.8978 C   0  0  0  0  0  0  0  0  0  0  0  0
  7  8  2  0  0  0
  8  9  1  0  0  0
  8  1  1  0  0  0
  1  2  2  0  0  0
  2  3  1  0  0  0
  3  4  2  0  0  0
  4 11  1  0  0  0
 11 12  1  0  0  0
 12 13  1  0  0  0
 13 14  1  0  0  0
 14 15  1  0  0  0
  4  5  1  0  0  0
  5  6  2  0  0  0
  6  1  1  0  0  0
 15 12  1  0  0  0
  9 10  1  0  0  0
M  END
> <minimizedAffinity>
-5.75036

> <CNNscore>
0.3520028293

> <CNNaffinity>
4.4353165627

> <CNN_VS>
1.5612440109

> <CNNaffinity_variance>
0.2064624131

$$$$
[H]OC(=O)c1c([H])c([H])c(OC2([H])C([H])([H])SC2([H])[H])c([H])c1[H]


 15 16  0  0  0  0  0  0  0  0999 V2000
   -6.5746   23.8727  -20.3645 C   0  0  0  0  0  0  0  0  0  0  0  0
   -5.3718   23.2129  -20.1559 C   0  0  0  0  0  0  0  0  0  0  0  0
   -4.8438   22.4193  -21.1681 C   0  0  0  0  0  0  0  0  0  0  0  0
   -5.4700   22.2577  -22.3821 C   0  0  0  0  0  0  0  0  0  0  0  0
   -6.6728   22.9228  -22.5788 C   0  0  0  0  0  0  0  0  0  0  0  0
   -7.2206   23.7241  -21.5773 C   0  0  0  0  0  0  0  0  0  0  0  0
   -7.9821   25.5904  -19.5718 O   0  0  0  0  0  0  0  0  0  0  0  0
   -7.1297   24.7087  -19.2970 C   0  0  0  0  0  0  0  0  0  0  0  0
   -6.7152   24.5265  -17.9891 O   0  0  0  0  0  0  0  0  0  0  0  0
   -6.0026   25.1571  -17.6194 H   0  0  0  0  0  0  0  0  0  0  0  0
   -4.9764   21.5048  -23.3521 O   0  0  0  0  0  0  0  0  0  0  0  0
   -4.0473   21.4964  -24.2996 C   0  0  0  0  0  0  0  0  0  0  0  0
   -4.2615   22.3530  -25.5558 C   0  0  0  0  0  0  0  0  0  0  0  0
   -2.5410   21.9154  -25.9638 S   0  0  0  0  0  0  0  0  0  0  0  0
   -2.7274   22.1740  -24.1585 C   0  0  0  0  0  0  0  0  0  0  0  0
  7  8  2  0  0  0
  8  9  1  0  0  0
  8  1  1  0  0  0
  1  2  2  0  0  0
  2  3  1  0  0  0
  3  4  2  0  0  0
  4 11  1  0  0  0
 11 12  1  0  0  0
 12 13  1  0  0  0
 13 14  1  0  0  0
 14 15  1  0  0  0
  4  5  1  0  0  0
  5  6  2  0  0  0
  6  1  1  0  0  0
 15 12  1  0  0  0
  9 10  1  0  0  0
M  END
> <minimizedAffinity>
-3.95540

> <CNNscore>
0.3497243226

> <CNNaffinity>
3.6896014214

> <CNN_VS>
1.2903434038

> <CNNaffinity_variance>
0.1111950502

$$$$
[H]OC(=O)c1c([H])c([H])c(OC2([H])C([H])([H])SC2([H])[H])c([H])c1[H]


 15 16  0  0  0  0  0  0  0  0999 V2000
   -5.2251   24.2094  -23.7578 C   0  0  0  0  0  0  0  0  0  0  0  0
   -4.3530   24.9393  -24.5530 C   0  0  0  0  0  0  0  0  0  0  0  0
   -4.4626   24.8607  -25.9369 C   0  0  0  0  0  0  0  0  0  0  0  0
   -5.4095   24.0811  -26.5594 C   0  0  0  0  0  0  0  0  0  0  0  0
   -6.2762   23.3555  -25.7530 C   0  0  0  0  0  0  0  0  0  0  0  0
   -6.1843   23.4194  -24.3629 C   0  0  0  0  0  0  0  0  0  0  0  0
   -5.3637   23.2861  -21.5926 O   0  0  0  0  0  0  0  0  0  0  0  0
   -5.1085   24.2931  -22.2997 C   0  0  0  0  0  0  0  0  0  0  0  0
   -4.7180   25.4798  -21.7039 O   0  0  0  0  0  0  0  0  0  0  0  0
   -5.4443   26.0855  -21.3197 H   0  0  0  0  0  0  0  0  0  0  0  0
   -5.5225   23.9991  -27.8754 O   0  0  0  0  0  0  0  0  0  0  0  0
   -5.2132   24.6431  -28.9937 C   0  0  0  0  0  0  0  0  0  0  0  0
   -5.5729   24.0024  -30.3420 C   0  0  0  0  0  0  0  0  0  0  0  0
   -5.0728   25.5987  -31.0627 S   0  0  0  0  0  0  0  0  0  0  0  0
   -5.9370   25.8569  -29.4668 C   0  0  0  0  0  0  0  0  0  0  0  0
  7  8  2  0  0  0
  8  9  1  0  0  0
  8  1  1  0  0  0
  1  2  2  0  0  0
  2  3  1  0  0  0
  3  4  2  0  0  0
  4 11  1  0  0  0
 11 12  1  0  0  0
 12 13  1  0  0  0
 13 14  1  0  0  0
 14 15  1  0  0  0
  4  5  1  0  0  0
  5  6  2  0  0  0
  6  1  1  0  0  0
 15 12  1  0  0  0
  9 10  1  0  0  0
M  END
> <minimizedAffinity>
-5.02079

> <CNNscore>
0.3220754862

> <CNNaffinity>
4.2719392776

> <CNN_VS>
1.3758869171

> <CNNaffinity_variance>
0.1301699877

$$$$
[H]OC(=O)c1c([H])c([H])c(OC2([H])C([H])([H])SC2([H])[H])c([H])c1[H]


 15 16  0  0  0  0  0  0  0  0999 V2000
   -4.5845   24.4942  -28.5033 C   0  0  0  0  0  0  0  0  0  0  0  0
   -3.7765   23.4753  -28.9873 C   0  0  0  0  0  0  0  0  0  0  0  0
   -2.9302   22.8014  -28.1137 C   0  0  0  0  0  0  0  0  0  0  0  0
   -2.8584   23.1050  -26.7741 C   0  0  0  0  0  0  0  0  0  0  0  0
   -3.6717   24.1264  -26.3018 C   0  0  0  0  0  0  0  0  0  0  0  0
   -4.5281   24.8155  -27.1602 C   0  0  0  0  0  0  0  0  0  0  0  0
   -5.4751   26.4597  -29.4537 O   0  0  0  0  0  0  0  0  0  0  0  0
   -5.4757   25.2034  -29.4249 C   0  0  0  0  0  0  0  0  0  0  0  0
   -6.3161   24.4895  -30.2615 O   0  0  0  0  0  0  0  0  0  0  0  0
   -7.2902   24.3746  -29.9788 H   0  0  0  0  0  0  0  0  0  0  0  0
   -2.0567   22.4702  -25.9341 O   0  0  0  0  0  0  0  0  0  0  0  0
   -1.6054   22.5103  -24.6868 C   0  0  0  0  0  0  0  0  0  0  0  0
   -2.3454   21.7111  -23.6045 C   0  0  0  0  0  0  0  0  0  0  0  0
   -0.9389   22.1487  -22.5330 S   0  0  0  0  0  0  0  0  0  0  0  0
   -0.3652   21.8140  -24.2417 C   0  0  0  0  0  0  0  0  0  0  0  0
  7  8  2  0  0  0
  8  9  1  0  0  0
  8  1  1  0  0  0
  1  2  2  0  0  0
  2  3  1  0  0  0
  3  4  2  0  0  0
  4 11  1  0  0  0
 11 12  1  0  0  0
 12 13  1  0  0  0
 13 14  1  0  0  0
 14 15  1  0  0  0
  4  5  1  0  0  0
  5  6  2  0  0  0
  6  1  1  0  0  0
 15 12  1  0  0  0
  9 10  1  0  0  0
M  END
> <minimizedAffinity>
-5.50947

> <CNNscore>
0.3201952577

> <CNNaffinity>
4.5823545456

> <CNN_VS>
1.4672482014

> <CNNaffinity_variance>
0.2742753029

$$$$
[H]C([H])=C([H])C(=O)N([H])C([H])([H])C([H])([H])C([H])([H])C([H])([H])[C@@]([H])(C(=O)N1C([H])([H])C([H])([H])N(c2c([H])c([H])c([H])c(C([H])([H])[H])c2[H])C([H])([H])C1([H])[H])N([H])C(=O)C([H])([H])c1c([H])c([H])c([H])c([H])c1[H]


 37 39  0  0  0  0  0  0  0  0999 V2000
   -2.2821   22.3506  -21.2369 C   0  0  0  0  0  0  0  0  0  0  0  0
   -3.4698   22.0678  -20.4157 C   0  0  0  0  0  0  0  0  0  0  0  0
   -3.3570   21.1908  -19.4876 O   0  0  0  0  0  0  0  0  0  0  0  0
   -4.7138   22.7054  -20.5904 N   0  0  0  0  0  0  0  0  0  0  0  0
   -4.9257   23.7162  -21.5849 C   0  0  0  0  0  0  0  0  0  0  0  0
   -5.9081   24.7427  -21.0307 C   0  0  0  0  0  0  0  0  0  0  0  0
   -7.1550   24.0442  -20.7822 N   0  0  0  0  0  0  0  0  0  0  0  0
   -7.1253   22.6325  -20.5453 C   0  0  0  0  0  0  0  0  0  0  0  0
   -5.8520   22.3577  -19.7453 C   0  0  0  0  0  0  0  0  0  0  0  0
   -8.3848   24.7515  -20.7654 C   0  0  0  0  0  0  0  0  0  0  0  0
   -9.5590   24.0239  -20.9371 C   0  0  0  0  0  0  0  0  0  0  0  0
  -10.7617   24.6831  -20.9195 C   0  0  0  0  0  0  0  0  0  0  0  0
  -10.8420   26.0375  -20.7376 C   0  0  0  0  0  0  0  0  0  0  0  0
   -9.6978   26.7794  -20.5658 C   0  0  0  0  0  0  0  0  0  0  0  0
   -9.7437   28.2373  -20.3696 C   0  0  0  0  0  0  0  0  0  0  0  0
   -8.4861   26.1098  -20.5840 C   0  0  0  0  0  0  0  0  0  0  0  0
   -1.0649   21.8798  -20.5311 N   0  0  0  0  0  0  0  0  0  0  0  0
   -0.3205   22.7581  -19.7232 C   0  0  0  0  0  0  0  0  0  0  0  0
   -0.6991   23.9496  -19.6055 O   0  0  0  0  0  0  0  0  0  0  0  0
   -0.7982   20.9055  -20.6574 H   0  0  0  0  0  0  0  0  0  0  0  0
    0.8787   22.2701  -19.0343 C   0  0  0  0  0  0  0  0  0  0  0  0
    0.6826   22.0295  -17.6037 C   0  0  0  0  0  0  0  0  0  0  0  0
    1.7081   22.3954  -16.7452 C   0  0  0  0  0  0  0  0  0  0  0  0
    1.6119   22.2039  -15.3800 C   0  0  0  0  0  0  0  0  0  0  0  0
    0.4921   21.6422  -14.8236 C   0  0  0  0  0  0  0  0  0  0  0  0
   -0.5345   21.2737  -15.6600 C   0  0  0  0  0  0  0  0  0  0  0  0
   -0.4347   21.4677  -17.0344 C   0  0  0  0  0  0  0  0  0  0  0  0
   -2.2624   21.5475  -22.5314 C   0  0  0  0  0  0  0  0  0  0  0  0
   -1.6016   22.2484  -23.6713 C   0  0  0  0  0  0  0  0  0  0  0  0
   -0.1783   21.7809  -23.9353 C   0  0  0  0  0  0  0  0  0  0  0  0
    0.2934   22.1862  -25.2885 C   0  0  0  0  0  0  0  0  0  0  0  0
   -0.6191   22.7582  -27.5285 C   0  0  0  0  0  0  0  0  0  0  0  0
    0.5502   22.6620  -28.0514 O   0  0  0  0  0  0  0  0  0  0  0  0
   -0.8145   22.5273  -26.1527 N   0  0  0  0  0  0  0  0  0  0  0  0
   -1.7791   22.5987  -25.7186 H   0  0  0  0  0  0  0  0  0  0  0  0
   -2.9712   22.9646  -28.0530 C   0  0  0  0  0  0  0  0  0  0  0  0
   -1.7105   23.1078  -28.3946 C   0  0  0  0  0  0  0  0  0  0  0  0
 36 37  2  0  0  0
 37 32  1  0  0  0
 32 33  2  0  0  0
 32 34  1  0  0  0
 34 31  1  0  0  0
 31 30  1  0  0  0
 30 29  1  0  0  0
 29 28  1  0  0  0
 28  1  1  0  0  0
  1 17  1  0  0  0
 17 18  1  0  0  0
 18 19  2  0  0  0
 18 21  1  0  0  0
 21 22  1  0  0  0
 22 23  2  0  0  0
 23 24  1  0  0  0
 24 25  2  0  0  0
 25 26  1  0  0  0
 26 27  2  0  0  0
  1  2  1  0  0  0
  2  3  2  0  0  0
  2  4  1  0  0  0
  4  5  1  0  0  0
  5  6  1  0  0  0
  6  7  1  0  0  0
  7 10  1  0  0  0
 10 11  2  0  0  0
 11 12  1  0  0  0
 12 13  2  0  0  0
 13 14  1  0  0  0
 14 15  1  0  0  0
 14 16  2  0  0  0
  7  8  1  0  0  0
  8  9  1  0  0  0
 27 22  1  0  0  0
  9  4  1  0  0  0
 16 10  1  0  0  0
 34 35  1  0  0  0
 17 20  1  0  0  0
M  END
> <minimizedAffinity>
-7.16288

> <CNNscore>
0.2207181901

> <CNNaffinity>
5.6138124466

> <CNN_VS>
1.2390705347

> <CNNaffinity_variance>
0.7646907568

$$$$
[H]C([H])=C([H])C(=O)N([H])C([H])([H])C([H])([H])C([H])([H])C([H])([H])[C@@]([H])(C(=O)N1C([H])([H])C([H])([H])N(c2c([H])c([H])c([H])c(C([H])([H])[H])c2[H])C([H])([H])C1([H])[H])N([H])C(=O)C([H])([H])c1c([H])c([H])c([H])c([H])c1[H]


 37 39  0  0  0  0  0  0  0  0999 V2000
   -2.6264   23.2551  -24.5739 C   0  0  0  0  0  0  0  0  0  0  0  0
   -2.3736   22.1113  -23.6836 C   0  0  0  0  0  0  0  0  0  0  0  0
   -3.3683   21.3624  -23.3793 O   0  0  0  0  0  0  0  0  0  0  0  0
   -1.1071   21.7950  -23.1538 N   0  0  0  0  0  0  0  0  0  0  0  0
    0.0661   22.5603  -23.4597 C   0  0  0  0  0  0  0  0  0  0  0  0
    1.2601   21.6133  -23.5197 C   0  0  0  0  0  0  0  0  0  0  0  0
    1.4004   21.0247  -22.2013 N   0  0  0  0  0  0  0  0  0  0  0  0
    0.2518   20.9450  -21.3502 C   0  0  0  0  0  0  0  0  0  0  0  0
   -0.9393   20.6516  -22.2622 C   0  0  0  0  0  0  0  0  0  0  0  0
    2.6556   20.5273  -21.7654 C   0  0  0  0  0  0  0  0  0  0  0  0
    3.0991   19.3191  -22.2958 C   0  0  0  0  0  0  0  0  0  0  0  0
    4.3117   18.8189  -21.8950 C   0  0  0  0  0  0  0  0  0  0  0  0
    5.1003   19.4734  -20.9875 C   0  0  0  0  0  0  0  0  0  0  0  0
    4.6859   20.6678  -20.4485 C   0  0  0  0  0  0  0  0  0  0  0  0
    5.5049   21.3997  -19.4688 C   0  0  0  0  0  0  0  0  0  0  0  0
    3.4614   21.1692  -20.8562 C   0  0  0  0  0  0  0  0  0  0  0  0
   -3.2639   22.7800  -25.8266 N   0  0  0  0  0  0  0  0  0  0  0  0
   -2.5483   22.7748  -27.0374 C   0  0  0  0  0  0  0  0  0  0  0  0
   -1.3593   23.1786  -27.0463 O   0  0  0  0  0  0  0  0  0  0  0  0
   -4.2295   22.4625  -25.7690 H   0  0  0  0  0  0  0  0  0  0  0  0
   -3.1988   22.2997  -28.2629 C   0  0  0  0  0  0  0  0  0  0  0  0
   -3.9627   23.3320  -28.9655 C   0  0  0  0  0  0  0  0  0  0  0  0
   -5.0475   22.9218  -29.7254 C   0  0  0  0  0  0  0  0  0  0  0  0
   -5.8246   23.8257  -30.4245 C   0  0  0  0  0  0  0  0  0  0  0  0
   -5.5484   25.1679  -30.3906 C   0  0  0  0  0  0  0  0  0  0  0  0
   -4.4766   25.5924  -29.6420 C   0  0  0  0  0  0  0  0  0  0  0  0
   -3.6958   24.6797  -28.9391 C   0  0  0  0  0  0  0  0  0  0  0  0
   -3.6593   24.2202  -24.0059 C   0  0  0  0  0  0  0  0  0  0  0  0
   -3.5615   24.4153  -22.5295 C   0  0  0  0  0  0  0  0  0  0  0  0
   -4.8421   24.0777  -21.7812 C   0  0  0  0  0  0  0  0  0  0  0  0
   -5.9838   24.9202  -22.2337 C   0  0  0  0  0  0  0  0  0  0  0  0
   -6.9369   25.2959  -24.4981 C   0  0  0  0  0  0  0  0  0  0  0  0
   -6.7808   26.5650  -24.3750 O   0  0  0  0  0  0  0  0  0  0  0  0
   -6.5534   24.4191  -23.4645 N   0  0  0  0  0  0  0  0  0  0  0  0
   -6.6739   23.3706  -23.5651 H   0  0  0  0  0  0  0  0  0  0  0  0
   -6.9832   23.8365  -26.4263 C   0  0  0  0  0  0  0  0  0  0  0  0
   -7.5132   24.8103  -25.7210 C   0  0  0  0  0  0  0  0  0  0  0  0
 36 37  2  0  0  0
 37 32  1  0  0  0
 32 33  2  0  0  0
 32 34  1  0  0  0
 34 31  1  0  0  0
 31 30  1  0  0  0
 30 29  1  0  0  0
 29 28  1  0  0  0
 28  1  1  0  0  0
  1 17  1  0  0  0
 17 18  1  0  0  0
 18 19  2  0  0  0
 18 21  1  0  0  0
 21 22  1  0  0  0
 22 23  2  0  0  0
 23 24  1  0  0  0
 24 25  2  0  0  0
 25 26  1  0  0  0
 26 27  2  0  0  0
  1  2  1  0  0  0
  2  3  2  0  0  0
  2  4  1  0  0  0
  4  5  1  0  0  0
  5  6  1  0  0  0
  6  7  1  0  0  0
  7 10  1  0  0  0
 10 11  2  0  0  0
 11 12  1  0  0  0
 12 13  2  0  0  0
 13 14  1  0  0  0
 14 15  1  0  0  0
 14 16  2  0  0  0
  7  8  1  0  0  0
  8  9  1  0  0  0
 27 22  1  0  0  0
  9  4  1  0  0  0
 16 10  1  0  0  0
 34 35  1  0  0  0
 17 20  1  0  0  0
M  END
> <minimizedAffinity>
-7.56412

> <CNNscore>
0.1974035949

> <CNNaffinity>
6.5094170570

> <CNN_VS>
1.2849823236

> <CNNaffinity_variance>
0.0861086100

$$$$
[H]C([H])=C([H])C(=O)N([H])C([H])([H])C([H])([H])C([H])([H])C([H])([H])[C@@]([H])(C(=O)N1C([H])([H])C([H])([H])N(c2c([H])c([H])c([H])c(C([H])([H])[H])c2[H])C([H])([H])C1([H])[H])N([H])C(=O)C([H])([H])c1c([H])c([H])c([H])c([H])c1[H]


 37 39  0  0  0  0  0  0  0  0999 V2000
   -4.0215   23.2883  -22.3182 C   0  0  0  0  0  0  0  0  0  0  0  0
   -4.7283   22.4995  -21.2969 C   0  0  0  0  0  0  0  0  0  0  0  0
   -5.8424   21.9587  -21.6278 O   0  0  0  0  0  0  0  0  0  0  0  0
   -4.2499   22.3051  -19.9862 N   0  0  0  0  0  0  0  0  0  0  0  0
   -3.0026   22.8499  -19.5353 C   0  0  0  0  0  0  0  0  0  0  0  0
   -2.3720   21.8683  -18.5532 C   0  0  0  0  0  0  0  0  0  0  0  0
   -3.2804   21.7524  -17.4282 N   0  0  0  0  0  0  0  0  0  0  0  0
   -4.6702   22.0342  -17.6256 C   0  0  0  0  0  0  0  0  0  0  0  0
   -5.0183   21.5222  -19.0233 C   0  0  0  0  0  0  0  0  0  0  0  0
   -2.7998   21.3568  -16.1533 C   0  0  0  0  0  0  0  0  0  0  0  0
   -3.3264   21.9908  -15.0314 C   0  0  0  0  0  0  0  0  0  0  0  0
   -2.8826   21.6231  -13.7867 C   0  0  0  0  0  0  0  0  0  0  0  0
   -1.9358   20.6496  -13.6144 C   0  0  0  0  0  0  0  0  0  0  0  0
   -1.3997   20.0081  -14.7053 C   0  0  0  0  0  0  0  0  0  0  0  0
   -0.3786   18.9581  -14.5603 C   0  0  0  0  0  0  0  0  0  0  0  0
   -1.8508   20.3823  -15.9597 C   0  0  0  0  0  0  0  0  0  0  0  0
   -3.1552   22.3950  -23.1262 N   0  0  0  0  0  0  0  0  0  0  0  0
   -1.7918   22.6900  -23.3062 C   0  0  0  0  0  0  0  0  0  0  0  0
   -1.3143   23.7220  -22.7734 O   0  0  0  0  0  0  0  0  0  0  0  0
   -3.5880   21.5706  -23.5379 H   0  0  0  0  0  0  0  0  0  0  0  0
   -0.9547   21.7919  -24.1083 C   0  0  0  0  0  0  0  0  0  0  0  0
   -0.8516   22.1793  -25.5162 C   0  0  0  0  0  0  0  0  0  0  0  0
   -2.0144   22.5749  -26.1595 C   0  0  0  0  0  0  0  0  0  0  0  0
   -2.0128   22.9554  -27.4880 C   0  0  0  0  0  0  0  0  0  0  0  0
   -0.8542   22.9550  -28.2205 C   0  0  0  0  0  0  0  0  0  0  0  0
    0.3081   22.5658  -27.5986 C   0  0  0  0  0  0  0  0  0  0  0  0
    0.3034   22.1831  -26.2606 C   0  0  0  0  0  0  0  0  0  0  0  0
   -4.9666   23.8823  -23.3549 C   0  0  0  0  0  0  0  0  0  0  0  0
   -4.7875   25.3482  -23.5712 C   0  0  0  0  0  0  0  0  0  0  0  0
   -4.4625   25.7195  -25.0101 C   0  0  0  0  0  0  0  0  0  0  0  0
   -5.6287   25.5064  -25.9116 C   0  0  0  0  0  0  0  0  0  0  0  0
   -5.2507   24.9360  -28.3010 C   0  0  0  0  0  0  0  0  0  0  0  0
   -5.4658   23.6930  -28.0589 O   0  0  0  0  0  0  0  0  0  0  0  0
   -5.3221   25.8938  -27.2705 N   0  0  0  0  0  0  0  0  0  0  0  0
   -5.1523   26.9215  -27.4675 H   0  0  0  0  0  0  0  0  0  0  0  0
   -3.7329   25.6687  -30.0358 C   0  0  0  0  0  0  0  0  0  0  0  0
   -4.9368   25.3078  -29.6525 C   0  0  0  0  0  0  0  0  0  0  0  0
 36 37  2  0  0  0
 37 32  1  0  0  0
 32 33  2  0  0  0
 32 34  1  0  0  0
 34 31  1  0  0  0
 31 30  1  0  0  0
 30 29  1  0  0  0
 29 28  1  0  0  0
 28  1  1  0  0  0
  1 17  1  0  0  0
 17 18  1  0  0  0
 18 19  2  0  0  0
 18 21  1  0  0  0
 21 22  1  0  0  0
 22 23  2  0  0  0
 23 24  1  0  0  0
 24 25  2  0  0  0
 25 26  1  0  0  0
 26 27  2  0  0  0
  1  2  1  0  0  0
  2  3  2  0  0  0
  2  4  1  0  0  0
  4  5  1  0  0  0
  5  6  1  0  0  0
  6  7  1  0  0  0
  7 10  1  0  0  0
 10 11  2  0  0  0
 11 12  1  0  0  0
 12 13  2  0  0  0
 13 14  1  0  0  0
 14 15  1  0  0  0
 14 16  2  0  0  0
  7  8  1  0  0  0
  8  9  1  0  0  0
 27 22  1  0  0  0
  9  4  1  0  0  0
 16 10  1  0  0  0
 34 35  1  0  0  0
 17 20  1  0  0  0
M  END
> <minimizedAffinity>
-6.99050

> <CNNscore>
0.1678370088

> <CNNaffinity>
5.9463725090

> <CNN_VS>
0.9980213642

> <CNNaffinity_variance>
0.4246768057

$$$$
[H]C([H])=C([H])C(=O)N([H])C([H])([H])C([H])([H])C([H])([H])C([H])([H])[C@@]([H])(C(=O)N1C([H])([H])C([H])([H])N(c2c([H])c([H])c([H])c(C([H])([H])[H])c2[H])C([H])([H])C1([H])[H])N([H])C(=O)C([H])([H])c1c([H])c([H])c([H])c([H])c1[H]


 37 39  0  0  0  0  0  0  0  0999 V2000
   -3.7233   23.9995  -25.2290 C   0  0  0  0  0  0  0  0  0  0  0  0
   -3.8149   22.8898  -24.2673 C   0  0  0  0  0  0  0  0  0  0  0  0
   -4.9541   22.3205  -24.1218 O   0  0  0  0  0  0  0  0  0  0  0  0
   -2.7267   22.4203  -23.5058 N   0  0  0  0  0  0  0  0  0  0  0  0
   -1.4111   22.9786  -23.6211 C   0  0  0  0  0  0  0  0  0  0  0  0
   -0.3919   21.8603  -23.4298 C   0  0  0  0  0  0  0  0  0  0  0  0
   -0.5782   21.3426  -22.0876 N   0  0  0  0  0  0  0  0  0  0  0  0
   -1.8547   21.4916  -21.4564 C   0  0  0  0  0  0  0  0  0  0  0  0
   -2.9011   21.3239  -22.5582 C   0  0  0  0  0  0  0  0  0  0  0  0
    0.4864   20.6901  -21.4139 C   0  0  0  0  0  0  0  0  0  0  0  0
    0.2349   20.1654  -20.1493 C   0  0  0  0  0  0  0  0  0  0  0  0
    1.2457   19.5251  -19.4789 C   0  0  0  0  0  0  0  0  0  0  0  0
    2.4967   19.3862  -20.0172 C   0  0  0  0  0  0  0  0  0  0  0  0
    2.7714   19.8950  -21.2640 C   0  0  0  0  0  0  0  0  0  0  0  0
    4.1044   19.7672  -21.8748 C   0  0  0  0  0  0  0  0  0  0  0  0
    1.7480   20.5404  -21.9372 C   0  0  0  0  0  0  0  0  0  0  0  0
   -4.5090   23.6718  -26.4442 N   0  0  0  0  0  0  0  0  0  0  0  0
   -3.8717   23.1862  -27.6001 C   0  0  0  0  0  0  0  0  0  0  0  0
   -2.6254   23.0327  -27.5921 O   0  0  0  0  0  0  0  0  0  0  0  0
   -5.5164   23.8129  -26.4021 H   0  0  0  0  0  0  0  0  0  0  0  0
   -4.6690   22.8681  -28.7891 C   0  0  0  0  0  0  0  0  0  0  0  0
   -4.8857   24.0100  -29.6791 C   0  0  0  0  0  0  0  0  0  0  0  0
   -5.7237   23.8246  -30.7681 C   0  0  0  0  0  0  0  0  0  0  0  0
   -5.9845   24.8453  -31.6625 C   0  0  0  0  0  0  0  0  0  0  0  0
   -5.4203   26.0843  -31.5030 C   0  0  0  0  0  0  0  0  0  0  0  0
   -4.5870   26.2859  -30.4286 C   0  0  0  0  0  0  0  0  0  0  0  0
   -4.3262   25.2561  -29.5296 C   0  0  0  0  0  0  0  0  0  0  0  0
   -4.3906   25.2707  -24.7193 C   0  0  0  0  0  0  0  0  0  0  0  0
   -4.6055   25.2940  -23.2426 C   0  0  0  0  0  0  0  0  0  0  0  0
   -6.0706   25.2471  -22.8363 C   0  0  0  0  0  0  0  0  0  0  0  0
   -6.2356   24.8418  -21.4127 C   0  0  0  0  0  0  0  0  0  0  0  0
   -7.2415   22.5895  -21.1077 C   0  0  0  0  0  0  0  0  0  0  0  0
   -6.0782   22.0451  -21.1308 O   0  0  0  0  0  0  0  0  0  0  0  0
   -7.3869   23.9846  -21.2387 N   0  0  0  0  0  0  0  0  0  0  0  0
   -8.3446   24.4385  -21.2131 H   0  0  0  0  0  0  0  0  0  0  0  0
   -9.1483   21.7488  -19.8800 C   0  0  0  0  0  0  0  0  0  0  0  0
   -8.3786   21.7271  -20.9448 C   0  0  0  0  0  0  0  0  0  0  0  0
 36 37  2  0  0  0
 37 32  1  0  0  0
 32 33  2  0  0  0
 32 34  1  0  0  0
 34 31  1  0  0  0
 31 30  1  0  0  0
 30 29  1  0  0  0
 29 28  1  0  0  0
 28  1  1  0  0  0
  1 17  1  0  0  0
 17 18  1  0  0  0
 18 19  2  0  0  0
 18 21  1  0  0  0
 21 22  1  0  0  0
 22 23  2  0  0  0
 23 24  1  0  0  0
 24 25  2  0  0  0
 25 26  1  0  0  0
 26 27  2  0  0  0
  1  2  1  0  0  0
  2  3  2  0  0  0
  2  4  1  0  0  0
  4  5  1  0  0  0
  5  6  1  0  0  0
  6  7  1  0  0  0
  7 10  1  0  0  0
 10 11  2  0  0  0
 11 12  1  0  0  0
 12 13  2  0  0  0
 13 14  1  0  0  0
 14 15  1  0  0  0
 14 16  2  0  0  0
  7  8  1  0  0  0
  8  9  1  0  0  0
 27 22  1  0  0  0
  9  4  1  0  0  0
 16 10  1  0  0  0
 34 35  1  0  0  0
 17 20  1  0  0  0
M  END
> <minimizedAffinity>
-7.31173

> <CNNscore>
0.1406361610

> <CNNaffinity>
6.3987188339

> <CNN_VS>
0.8998912573

> <CNNaffinity_variance>
0.1382388920

$$$$
[H]C([H])=C([H])C(=O)N([H])C([H])([H])C([H])([H])C([H])([H])C([H])([H])[C@@]([H])(C(=O)N1C([H])([H])C([H])([H])N(c2c([H])c([H])c([H])c(C([H])([H])[H])c2[H])C([H])([H])C1([H])[H])N([H])C(=O)C([H])([H])c1c([H])c([H])c([H])c([H])c1[H]


 37 39  0  0  0  0  0  0  0  0999 V2000
   -5.6860   23.2771  -23.1765 C   0  0  0  0  0  0  0  0  0  0  0  0
   -5.5536   22.4886  -21.9413 C   0  0  0  0  0  0  0  0  0  0  0  0
   -6.5154   21.6995  -21.6327 O   0  0  0  0  0  0  0  0  0  0  0  0
   -4.4349   22.5508  -21.0874 N   0  0  0  0  0  0  0  0  0  0  0  0
   -3.3022   23.3849  -21.3654 C   0  0  0  0  0  0  0  0  0  0  0  0
   -2.0451   22.6733  -20.8762 C   0  0  0  0  0  0  0  0  0  0  0  0
   -2.1817   22.5109  -19.4412 N   0  0  0  0  0  0  0  0  0  0  0  0
   -3.4929   22.4820  -18.8669 C   0  0  0  0  0  0  0  0  0  0  0  0
   -4.3848   21.7488  -19.8689 C   0  0  0  0  0  0  0  0  0  0  0  0
   -1.0328   22.3737  -18.6201 C   0  0  0  0  0  0  0  0  0  0  0  0
   -1.1322   21.5719  -17.4866 C   0  0  0  0  0  0  0  0  0  0  0  0
   -0.0343   21.4184  -16.6789 C   0  0  0  0  0  0  0  0  0  0  0  0
    1.1583   22.0311  -16.9546 C   0  0  0  0  0  0  0  0  0  0  0  0
    1.2833   22.8280  -18.0673 C   0  0  0  0  0  0  0  0  0  0  0  0
    2.5484   23.5047  -18.3957 C   0  0  0  0  0  0  0  0  0  0  0  0
    0.1726   22.9799  -18.8800 C   0  0  0  0  0  0  0  0  0  0  0  0
   -5.0705   22.5391  -24.3069 N   0  0  0  0  0  0  0  0  0  0  0  0
   -4.0678   23.1369  -25.0915 C   0  0  0  0  0  0  0  0  0  0  0  0
   -3.6982   24.3067  -24.8236 O   0  0  0  0  0  0  0  0  0  0  0  0
   -5.4032   21.5936  -24.4850 H   0  0  0  0  0  0  0  0  0  0  0  0
   -3.4731   22.3878  -26.2033 C   0  0  0  0  0  0  0  0  0  0  0  0
   -2.0149   22.2810  -26.1317 C   0  0  0  0  0  0  0  0  0  0  0  0
   -1.4585   21.8957  -24.9216 C   0  0  0  0  0  0  0  0  0  0  0  0
   -0.0917   21.7707  -24.7607 C   0  0  0  0  0  0  0  0  0  0  0  0
    0.7669   22.0246  -25.7986 C   0  0  0  0  0  0  0  0  0  0  0  0
    0.2325   22.4075  -27.0057 C   0  0  0  0  0  0  0  0  0  0  0  0
   -1.1443   22.5327  -27.1646 C   0  0  0  0  0  0  0  0  0  0  0  0
   -7.1361   23.4345  -23.6163 C   0  0  0  0  0  0  0  0  0  0  0  0
   -7.4409   24.7540  -24.2437 C   0  0  0  0  0  0  0  0  0  0  0  0
   -7.2479   24.7738  -25.7524 C   0  0  0  0  0  0  0  0  0  0  0  0
   -6.4844   25.9734  -26.1951 C   0  0  0  0  0  0  0  0  0  0  0  0
   -5.3357   25.5511  -28.3583 C   0  0  0  0  0  0  0  0  0  0  0  0
   -6.4052   25.8451  -29.0064 O   0  0  0  0  0  0  0  0  0  0  0  0
   -5.3093   25.6010  -26.9508 N   0  0  0  0  0  0  0  0  0  0  0  0
   -4.4267   25.3662  -26.4125 H   0  0  0  0  0  0  0  0  0  0  0  0
   -3.8493   25.7422  -30.2568 C   0  0  0  0  0  0  0  0  0  0  0  0
   -4.1775   25.1726  -29.1191 C   0  0  0  0  0  0  0  0  0  0  0  0
 36 37  2  0  0  0
 37 32  1  0  0  0
 32 33  2  0  0  0
 32 34  1  0  0  0
 34 31  1  0  0  0
 31 30  1  0  0  0
 30 29  1  0  0  0
 29 28  1  0  0  0
 28  1  1  0  0  0
  1 17  1  0  0  0
 17 18  1  0  0  0
 18 19  2  0  0  0
 18 21  1  0  0  0
 21 22  1  0  0  0
 22 23  2  0  0  0
 23 24  1  0  0  0
 24 25  2  0  0  0
 25 26  1  0  0  0
 26 27  2  0  0  0
  1  2  1  0  0  0
  2  3  2  0  0  0
  2  4  1  0  0  0
  4  5  1  0  0  0
  5  6  1  0  0  0
  6  7  1  0  0  0
  7 10  1  0  0  0
 10 11  2  0  0  0
 11 12  1  0  0  0
 12 13  2  0  0  0
 13 14  1  0  0  0
 14 15  1  0  0  0
 14 16  2  0  0  0
  7  8  1  0  0  0
  8  9  1  0  0  0
 27 22  1  0  0  0
  9  4  1  0  0  0
 16 10  1  0  0  0
 34 35  1  0  0  0
 17 20  1  0  0  0
M  END
> <minimizedAffinity>
-8.32887

> <CNNscore>
0.1338704675

> <CNNaffinity>
6.0784587860

> <CNN_VS>
0.8137261271

> <CNNaffinity_variance>
0.4978998303

$$$$
[H]C([H])=C([H])C(=O)N([H])C([H])([H])C([H])([H])C([H])([H])C([H])([H])[C@@]([H])(C(=O)N1C([H])([H])C([H])([H])N(c2c([H])c([H])c([H])c(C([H])([H])[H])c2[H])C([H])([H])C1([H])[H])N([H])C(=O)C([H])([H])c1c([H])c([H])c([H])c([H])c1[H]


 37 39  0  0  0  0  0  0  0  0999 V2000
   -0.3272   21.5889  -19.7748 C   0  0  0  0  0  0  0  0  0  0  0  0
   -0.9085   22.7569  -20.4551 C   0  0  0  0  0  0  0  0  0  0  0  0
   -0.9509   23.8627  -19.8082 O   0  0  0  0  0  0  0  0  0  0  0  0
   -1.4143   22.7273  -21.7696 N   0  0  0  0  0  0  0  0  0  0  0  0
   -1.3852   21.5428  -22.5771 C   0  0  0  0  0  0  0  0  0  0  0  0
   -1.1562   21.9515  -24.0284 C   0  0  0  0  0  0  0  0  0  0  0  0
   -2.2859   22.7727  -24.4204 N   0  0  0  0  0  0  0  0  0  0  0  0
   -3.0181   23.4750  -23.4101 C   0  0  0  0  0  0  0  0  0  0  0  0
   -1.9919   23.9255  -22.3706 C   0  0  0  0  0  0  0  0  0  0  0  0
   -2.6541   22.8852  -25.7860 C   0  0  0  0  0  0  0  0  0  0  0  0
   -1.6595   22.7215  -26.7461 C   0  0  0  0  0  0  0  0  0  0  0  0
   -1.9902   22.8200  -28.0736 C   0  0  0  0  0  0  0  0  0  0  0  0
   -3.2712   23.0750  -28.4833 C   0  0  0  0  0  0  0  0  0  0  0  0
   -4.2718   23.2408  -27.5559 C   0  0  0  0  0  0  0  0  0  0  0  0
   -5.6603   23.5181  -27.9576 C   0  0  0  0  0  0  0  0  0  0  0  0
   -3.9336   23.1401  -26.2170 C   0  0  0  0  0  0  0  0  0  0  0  0
    1.0370   21.9200  -19.2947 N   0  0  0  0  0  0  0  0  0  0  0  0
    2.1715   21.4287  -19.9654 C   0  0  0  0  0  0  0  0  0  0  0  0
    2.0161   20.7038  -20.9790 O   0  0  0  0  0  0  0  0  0  0  0  0
    1.1120   22.5110  -18.4691 H   0  0  0  0  0  0  0  0  0  0  0  0
    3.5101   21.7700  -19.4731 C   0  0  0  0  0  0  0  0  0  0  0  0
    3.5236   22.2800  -18.1011 C   0  0  0  0  0  0  0  0  0  0  0  0
    3.5772   23.6547  -17.9282 C   0  0  0  0  0  0  0  0  0  0  0  0
    3.5960   24.2256  -16.6698 C   0  0  0  0  0  0  0  0  0  0  0  0
    3.5618   23.4477  -15.5417 C   0  0  0  0  0  0  0  0  0  0  0  0
    3.5084   22.0828  -15.6945 C   0  0  0  0  0  0  0  0  0  0  0  0
    3.4897   21.5108  -16.9630 C   0  0  0  0  0  0  0  0  0  0  0  0
   -1.0672   21.2322  -18.4918 C   0  0  0  0  0  0  0  0  0  0  0  0
   -2.4929   21.6732  -18.4699 C   0  0  0  0  0  0  0  0  0  0  0  0
   -2.9250   22.2822  -17.1447 C   0  0  0  0  0  0  0  0  0  0  0  0
   -4.1141   23.1646  -17.3049 C   0  0  0  0  0  0  0  0  0  0  0  0
   -5.7271   24.3894  -15.8642 C   0  0  0  0  0  0  0  0  0  0  0  0
   -6.6250   24.3249  -16.7805 O   0  0  0  0  0  0  0  0  0  0  0  0
   -4.4524   23.8237  -16.0632 N   0  0  0  0  0  0  0  0  0  0  0  0
   -3.7110   23.8685  -15.3068 H   0  0  0  0  0  0  0  0  0  0  0  0
   -7.0702   24.6782  -13.8735 C   0  0  0  0  0  0  0  0  0  0  0  0
   -6.0710   25.0556  -14.6389 C   0  0  0  0  0  0  0  0  0  0  0  0
 36 37  2  0  0  0
 37 32  1  0  0  0
 32 33  2  0  0  0
 32 34  1  0  0  0
 34 31  1  0  0  0
 31 30  1  0  0  0
 30 29  1  0  0  0
 29 28  1  0  0  0
 28  1  1  0  0  0
  1 17  1  0  0  0
 17 18  1  0  0  0
 18 19  2  0  0  0
 18 21  1  0  0  0
 21 22  1  0  0  0
 22 23  2  0  0  0
 23 24  1  0  0  0
 24 25  2  0  0  0
 25 26  1  0  0  0
 26 27  2  0  0  0
  1  2  1  0  0  0
  2  3  2  0  0  0
  2  4  1  0  0  0
  4  5  1  0  0  0
  5  6  1  0  0  0
  6  7  1  0  0  0
  7 10  1  0  0  0
 10 11  2  0  0  0
 11 12  1  0  0  0
 12 13  2  0  0  0
 13 14  1  0  0  0
 14 15  1  0  0  0
 14 16  2  0  0  0
  7  8  1  0  0  0
  8  9  1  0  0  0
 27 22  1  0  0  0
  9  4  1  0  0  0
 16 10  1  0  0  0
 34 35  1  0  0  0
 17 20  1  0  0  0
M  END
> <minimizedAffinity>
-7.41155

> <CNNscore>
0.1337088495

> <CNNaffinity>
5.3105020523

> <CNN_VS>
0.7100611329

> <CNNaffinity_variance>
0.5233279467

$$$$
[H]C([H])=C([H])C(=O)N([H])C([H])([H])C([H])([H])C([H])([H])C([H])([H])[C@@]([H])(C(=O)N1C([H])([H])C([H])([H])N(c2c([H])c([H])c([H])c(C([H])([H])[H])c2[H])C([H])([H])C1([H])[H])N([H])C(=O)C([H])([H])c1c([H])c([H])c([H])c([H])c1[H]


 37 39  0  0  0  0  0  0  0  0999 V2000
   -5.7071   23.4330  -23.2563 C   0  0  0  0  0  0  0  0  0  0  0  0
   -6.3242   22.8818  -22.0396 C   0  0  0  0  0  0  0  0  0  0  0  0
   -7.5233   22.4378  -22.1289 O   0  0  0  0  0  0  0  0  0  0  0  0
   -5.6731   22.8133  -20.7922 N   0  0  0  0  0  0  0  0  0  0  0  0
   -4.3243   23.2618  -20.6044 C   0  0  0  0  0  0  0  0  0  0  0  0
   -3.6510   22.3559  -19.5788 C   0  0  0  0  0  0  0  0  0  0  0  0
   -4.3844   22.5048  -18.3361 N   0  0  0  0  0  0  0  0  0  0  0  0
   -5.7536   22.9209  -18.3830 C   0  0  0  0  0  0  0  0  0  0  0  0
   -6.3590   22.2673  -19.6252 C   0  0  0  0  0  0  0  0  0  0  0  0
   -3.7564   22.2332  -17.0932 C   0  0  0  0  0  0  0  0  0  0  0  0
   -2.5609   21.5203  -17.1075 C   0  0  0  0  0  0  0  0  0  0  0  0
   -1.9308   21.2492  -15.9198 C   0  0  0  0  0  0  0  0  0  0  0  0
   -2.4432   21.6595  -14.7186 C   0  0  0  0  0  0  0  0  0  0  0  0
   -3.6220   22.3649  -14.6765 C   0  0  0  0  0  0  0  0  0  0  0  0
   -4.2051   22.8211  -13.4044 C   0  0  0  0  0  0  0  0  0  0  0  0
   -4.2545   22.6366  -15.8778 C   0  0  0  0  0  0  0  0  0  0  0  0
   -4.8435   22.4044  -23.8866 N   0  0  0  0  0  0  0  0  0  0  0  0
   -3.4781   22.6556  -24.1122 C   0  0  0  0  0  0  0  0  0  0  0  0
   -2.9965   23.7646  -23.7730 O   0  0  0  0  0  0  0  0  0  0  0  0
   -5.2795   21.5212  -24.1442 H   0  0  0  0  0  0  0  0  0  0  0  0
   -2.6436   21.6234  -24.7359 C   0  0  0  0  0  0  0  0  0  0  0  0
   -1.8421   22.1100  -25.8600 C   0  0  0  0  0  0  0  0  0  0  0  0
   -2.5175   22.5204  -26.9993 C   0  0  0  0  0  0  0  0  0  0  0  0
   -1.8435   22.9921  -28.1097 C   0  0  0  0  0  0  0  0  0  0  0  0
   -0.4751   23.0713  -28.1234 C   0  0  0  0  0  0  0  0  0  0  0  0
    0.2107   22.6688  -27.0022 C   0  0  0  0  0  0  0  0  0  0  0  0
   -0.4708   22.1942  -25.8856 C   0  0  0  0  0  0  0  0  0  0  0  0
   -6.7300   23.7376  -24.3434 C   0  0  0  0  0  0  0  0  0  0  0  0
   -6.1342   24.2516  -25.6116 C   0  0  0  0  0  0  0  0  0  0  0  0
   -6.2640   25.7575  -25.7828 C   0  0  0  0  0  0  0  0  0  0  0  0
   -5.2558   26.2929  -26.7394 C   0  0  0  0  0  0  0  0  0  0  0  0
   -5.4568   25.1380  -28.9311 C   0  0  0  0  0  0  0  0  0  0  0  0
   -6.4202   25.9152  -29.2747 O   0  0  0  0  0  0  0  0  0  0  0  0
   -4.8292   25.2790  -27.6778 N   0  0  0  0  0  0  0  0  0  0  0  0
   -4.0291   24.6443  -27.3933 H   0  0  0  0  0  0  0  0  0  0  0  0
   -5.2631   22.8455  -29.6773 C   0  0  0  0  0  0  0  0  0  0  0  0
   -5.0483   24.1278  -29.8671 C   0  0  0  0  0  0  0  0  0  0  0  0
 36 37  2  0  0  0
 37 32  1  0  0  0
 32 33  2  0  0  0
 32 34  1  0  0  0
 34 31  1  0  0  0
 31 30  1  0  0  0
 30 29  1  0  0  0
 29 28  1  0  0  0
 28  1  1  0  0  0
  1 17  1  0  0  0
 17 18  1  0  0  0
 18 19  2  0  0  0
 18 21  1  0  0  0
 21 22  1  0  0  0
 22 23  2  0  0  0
 23 24  1  0  0  0
 24 25  2  0  0  0
 25 26  1  0  0  0
 26 27  2  0  0  0
  1  2  1  0  0  0
  2  3  2  0  0  0
  2  4  1  0  0  0
  4  5  1  0  0  0
  5  6  1  0  0  0
  6  7  1  0  0  0
  7 10  1  0  0  0
 10 11  2  0  0  0
 11 12  1  0  0  0
 12 13  2  0  0  0
 13 14  1  0  0  0
 14 15  1  0  0  0
 14 16  2  0  0  0
  7  8  1  0  0  0
  8  9  1  0  0  0
 27 22  1  0  0  0
  9  4  1  0  0  0
 16 10  1  0  0  0
 34 35  1  0  0  0
 17 20  1  0  0  0
M  END
> <minimizedAffinity>
-7.84482

> <CNNscore>
0.1219024584

> <CNNaffinity>
5.9110918045

> <CNN_VS>
0.7205766439

> <CNNaffinity_variance>
0.4431806505

$$$$
[H]C([H])=C([H])C(=O)N([H])C([H])([H])C([H])([H])C([H])([H])C([H])([H])[C@@]([H])(C(=O)N1C([H])([H])C([H])([H])N(c2c([H])c([H])c([H])c(C([H])([H])[H])c2[H])C([H])([H])C1([H])[H])N([H])C(=O)C([H])([H])c1c([H])c([H])c([H])c([H])c1[H]


 37 39  0  0  0  0  0  0  0  0999 V2000
   -5.0324   24.4388  -23.2187 C   0  0  0  0  0  0  0  0  0  0  0  0
   -6.4676   24.3076  -22.9222 C   0  0  0  0  0  0  0  0  0  0  0  0
   -7.2939   24.8929  -23.7081 O   0  0  0  0  0  0  0  0  0  0  0  0
   -6.9795   23.5768  -21.8319 N   0  0  0  0  0  0  0  0  0  0  0  0
   -6.1327   22.8694  -20.9164 C   0  0  0  0  0  0  0  0  0  0  0  0
   -6.8527   21.6003  -20.4725 C   0  0  0  0  0  0  0  0  0  0  0  0
   -8.0607   22.0170  -19.7858 N   0  0  0  0  0  0  0  0  0  0  0  0
   -8.6305   23.2936  -20.0952 C   0  0  0  0  0  0  0  0  0  0  0  0
   -8.4178   23.5073  -21.5938 C   0  0  0  0  0  0  0  0  0  0  0  0
   -8.6732   21.1680  -18.8283 C   0  0  0  0  0  0  0  0  0  0  0  0
   -9.9638   21.4796  -18.4101 C   0  0  0  0  0  0  0  0  0  0  0  0
  -10.5806   20.6717  -17.4891 C   0  0  0  0  0  0  0  0  0  0  0  0
   -9.9639   19.5663  -16.9680 C   0  0  0  0  0  0  0  0  0  0  0  0
   -8.6898   19.2363  -17.3639 C   0  0  0  0  0  0  0  0  0  0  0  0
   -7.9935   18.0571  -16.8247 C   0  0  0  0  0  0  0  0  0  0  0  0
   -8.0712   20.0544  -18.2940 C   0  0  0  0  0  0  0  0  0  0  0  0
   -4.6412   23.4370  -24.2407 N   0  0  0  0  0  0  0  0  0  0  0  0
   -3.6064   22.5193  -23.9851 C   0  0  0  0  0  0  0  0  0  0  0  0
   -3.0151   22.5577  -22.8780 O   0  0  0  0  0  0  0  0  0  0  0  0
   -5.1498   23.4451  -25.1226 H   0  0  0  0  0  0  0  0  0  0  0  0
   -3.2376   21.5374  -25.0100 C   0  0  0  0  0  0  0  0  0  0  0  0
   -2.2018   22.0055  -25.9324 C   0  0  0  0  0  0  0  0  0  0  0  0
   -2.6126   22.5011  -27.1604 C   0  0  0  0  0  0  0  0  0  0  0  0
   -1.7051   22.9628  -28.0947 C   0  0  0  0  0  0  0  0  0  0  0  0
   -0.3587   22.9469  -27.8382 C   0  0  0  0  0  0  0  0  0  0  0  0
    0.0664   22.4591  -26.6255 C   0  0  0  0  0  0  0  0  0  0  0  0
   -0.8499   21.9948  -25.6866 C   0  0  0  0  0  0  0  0  0  0  0  0
   -4.6932   25.7647  -23.8879 C   0  0  0  0  0  0  0  0  0  0  0  0
   -4.1898   25.6283  -25.2863 C   0  0  0  0  0  0  0  0  0  0  0  0
   -4.9325   26.4950  -26.2917 C   0  0  0  0  0  0  0  0  0  0  0  0
   -6.1017   25.7820  -26.8773 C   0  0  0  0  0  0  0  0  0  0  0  0
   -5.6803   24.9928  -29.1961 C   0  0  0  0  0  0  0  0  0  0  0  0
   -6.0433   26.1301  -29.6704 O   0  0  0  0  0  0  0  0  0  0  0  0
   -5.6824   24.7573  -27.8073 N   0  0  0  0  0  0  0  0  0  0  0  0
   -5.3767   23.8226  -27.4115 H   0  0  0  0  0  0  0  0  0  0  0  0
   -5.2431   22.7001  -29.8304 C   0  0  0  0  0  0  0  0  0  0  0  0
   -5.2757   23.9791  -30.1300 C   0  0  0  0  0  0  0  0  0  0  0  0
 36 37  2  0  0  0
 37 32  1  0  0  0
 32 33  2  0  0  0
 32 34  1  0  0  0
 34 31  1  0  0  0
 31 30  1  0  0  0
 30 29  1  0  0  0
 29 28  1  0  0  0
 28  1  1  0  0  0
  1 17  1  0  0  0
 17 18  1  0  0  0
 18 19  2  0  0  0
 18 21  1  0  0  0
 21 22  1  0  0  0
 22 23  2  0  0  0
 23 24  1  0  0  0
 24 25  2  0  0  0
 25 26  1  0  0  0
 26 27  2  0  0  0
  1  2  1  0  0  0
  2  3  2  0  0  0
  2  4  1  0  0  0
  4  5  1  0  0  0
  5  6  1  0  0  0
  6  7  1  0  0  0
  7 10  1  0  0  0
 10 11  2  0  0  0
 11 12  1  0  0  0
 12 13  2  0  0  0
 13 14  1  0  0  0
 14 15  1  0  0  0
 14 16  2  0  0  0
  7  8  1  0  0  0
  8  9  1  0  0  0
 27 22  1  0  0  0
  9  4  1  0  0  0
 16 10  1  0  0  0
 34 35  1  0  0  0
 17 20  1  0  0  0
M  END
> <minimizedAffinity>
-8.00808

> <CNNscore>
0.1197779924

> <CNNaffinity>
6.0927600861

> <CNN_VS>
0.7297785878

> <CNNaffinity_variance>
0.1775899380

$$$$
[H]C([H])=C([H])C(=O)N([H])C([H])([H])C([H])([H])C([H])([H])C([H])([H])[C@@]([H])(C(=O)N1C([H])([H])C([H])([H])N(c2c([H])c([H])c([H])c(C([H])([H])[H])c2[H])C([H])([H])C1([H])[H])N([H])C(=O)C([H])([H])c1c([H])c([H])c([H])c([H])c1[H]


 37 39  0  0  0  0  0  0  0  0999 V2000
   -0.2122   21.6606  -19.8917 C   0  0  0  0  0  0  0  0  0  0  0  0
   -0.9388   22.7684  -20.5318 C   0  0  0  0  0  0  0  0  0  0  0  0
   -1.1305   23.8319  -19.8424 O   0  0  0  0  0  0  0  0  0  0  0  0
   -1.4289   22.7256  -21.8519 N   0  0  0  0  0  0  0  0  0  0  0  0
   -1.2392   21.5889  -22.7049 C   0  0  0  0  0  0  0  0  0  0  0  0
   -1.0580   22.0825  -24.1365 C   0  0  0  0  0  0  0  0  0  0  0  0
   -2.2841   22.7629  -24.5082 N   0  0  0  0  0  0  0  0  0  0  0  0
   -3.1082   23.3212  -23.4791 C   0  0  0  0  0  0  0  0  0  0  0  0
   -2.1563   23.8606  -22.4115 C   0  0  0  0  0  0  0  0  0  0  0  0
   -2.6562   22.8810  -25.8722 C   0  0  0  0  0  0  0  0  0  0  0  0
   -1.6641   22.7234  -26.8358 C   0  0  0  0  0  0  0  0  0  0  0  0
   -1.9986   22.8275  -28.1619 C   0  0  0  0  0  0  0  0  0  0  0  0
   -3.2811   23.0821  -28.5669 C   0  0  0  0  0  0  0  0  0  0  0  0
   -4.2795   23.2420  -27.6359 C   0  0  0  0  0  0  0  0  0  0  0  0
   -5.6696   23.5187  -28.0325 C   0  0  0  0  0  0  0  0  0  0  0  0
   -3.9373   23.1358  -26.2985 C   0  0  0  0  0  0  0  0  0  0  0  0
    1.1353   22.1225  -19.4769 N   0  0  0  0  0  0  0  0  0  0  0  0
    2.2482   21.2684  -19.5785 C   0  0  0  0  0  0  0  0  0  0  0  0
    2.0877   20.1060  -20.0257 O   0  0  0  0  0  0  0  0  0  0  0  0
    1.2151   23.0729  -19.1208 H   0  0  0  0  0  0  0  0  0  0  0  0
    3.5707   21.7472  -19.1633 C   0  0  0  0  0  0  0  0  0  0  0  0
    3.5753   22.4188  -17.8626 C   0  0  0  0  0  0  0  0  0  0  0  0
    3.0906   21.7109  -16.7734 C   0  0  0  0  0  0  0  0  0  0  0  0
    3.0545   22.2652  -15.5080 C   0  0  0  0  0  0  0  0  0  0  0  0
    3.4997   23.5422  -15.2843 C   0  0  0  0  0  0  0  0  0  0  0  0
    3.9838   24.2585  -16.3528 C   0  0  0  0  0  0  0  0  0  0  0  0
    4.0189   23.6976  -17.6260 C   0  0  0  0  0  0  0  0  0  0  0  0
   -0.8482   21.2276  -18.5768 C   0  0  0  0  0  0  0  0  0  0  0  0
   -2.1491   20.5139  -18.7370 C   0  0  0  0  0  0  0  0  0  0  0  0
   -3.3379   21.2727  -18.1671 C   0  0  0  0  0  0  0  0  0  0  0  0
   -4.6085   20.9001  -18.8490 C   0  0  0  0  0  0  0  0  0  0  0  0
   -7.0367   20.6864  -18.3635 C   0  0  0  0  0  0  0  0  0  0  0  0
   -7.2207   20.0487  -19.4634 O   0  0  0  0  0  0  0  0  0  0  0  0
   -5.7526   21.1346  -17.9966 N   0  0  0  0  0  0  0  0  0  0  0  0
   -5.5953   21.6549  -17.0864 H   0  0  0  0  0  0  0  0  0  0  0  0
   -9.1693   20.0640  -17.4072 C   0  0  0  0  0  0  0  0  0  0  0  0
   -8.1822   20.9226  -17.5297 C   0  0  0  0  0  0  0  0  0  0  0  0
 36 37  2  0  0  0
 37 32  1  0  0  0
 32 33  2  0  0  0
 32 34  1  0  0  0
 34 31  1  0  0  0
 31 30  1  0  0  0
 30 29  1  0  0  0
 29 28  1  0  0  0
 28  1  1  0  0  0
  1 17  1  0  0  0
 17 18  1  0  0  0
 18 19  2  0  0  0
 18 21  1  0  0  0
 21 22  1  0  0  0
 22 23  2  0  0  0
 23 24  1  0  0  0
 24 25  2  0  0  0
 25 26  1  0  0  0
 26 27  2  0  0  0
  1  2  1  0  0  0
  2  3  2  0  0  0
  2  4  1  0  0  0
  4  5  1  0  0  0
  5  6  1  0  0  0
  6  7  1  0  0  0
  7 10  1  0  0  0
 10 11  2  0  0  0
 11 12  1  0  0  0
 12 13  2  0  0  0
 13 14  1  0  0  0
 14 15  1  0  0  0
 14 16  2  0  0  0
  7  8  1  0  0  0
  8  9  1  0  0  0
 27 22  1  0  0  0
  9  4  1  0  0  0
 16 10  1  0  0  0
 34 35  1  0  0  0
 17 20  1  0  0  0
M  END
> <minimizedAffinity>
-6.87007

> <CNNscore>
0.1165949702

> <CNNaffinity>
5.3298983574

> <CNN_VS>
0.6214393377

> <CNNaffinity_variance>
0.3745310903

$$$$
[H]c1nc([H])c(N([H])c2c([H])c(-c3c([H])c([H])c4c([H])c(C#N)c([H])nn34)nc([H])c2C(=O)N([H])[C@]2([H])C([H])([H])C([H])([H])[C@@]([H])(N([H])C(=O)C3([H])C([H])([H])C3([H])[H])C([H])([H])C2([H])[H])c([H])c1[H]


 42 47  0  0  0  0  0  0  0  0999 V2000
   -5.6893   23.1893  -23.0204 C   0  0  0  0  0  0  0  0  0  0  0  0
   -6.9641   22.9393  -22.6083 C   0  0  0  0  0  0  0  0  0  0  0  0
   -7.4209   22.9176  -21.2934 C   0  0  0  0  0  0  0  0  0  0  0  0
   -6.4639   23.1816  -20.3083 C   0  0  0  0  0  0  0  0  0  0  0  0
   -5.1472   23.4384  -20.7181 C   0  0  0  0  0  0  0  0  0  0  0  0
   -4.8007   23.4380  -22.0078 N   0  0  0  0  0  0  0  0  0  0  0  0
   -1.6538   22.7070  -26.2728 C   0  0  0  0  0  0  0  0  0  0  0  0
   -1.6979   22.5891  -24.9079 C   0  0  0  0  0  0  0  0  0  0  0  0
   -2.8675   22.7554  -24.2874 N   0  0  0  0  0  0  0  0  0  0  0  0
   -4.0024   23.0295  -24.9103 N   0  0  0  0  0  0  0  0  0  0  0  0
   -5.2125   23.2159  -24.3966 C   0  0  0  0  0  0  0  0  0  0  0  0
   -6.0506   23.4780  -25.4885 C   0  0  0  0  0  0  0  0  0  0  0  0
   -5.2981   23.4380  -26.6356 C   0  0  0  0  0  0  0  0  0  0  0  0
   -3.9904   23.1499  -26.2473 C   0  0  0  0  0  0  0  0  0  0  0  0
   -2.8194   22.9913  -26.9503 C   0  0  0  0  0  0  0  0  0  0  0  0
    0.6037   22.3921  -27.5015 N   0  0  0  0  0  0  0  0  0  0  0  0
   -0.4056   22.5367  -26.9505 C   0  0  0  0  0  0  0  0  0  0  0  0
   -6.8110   23.2867  -18.9154 C   0  0  0  0  0  0  0  0  0  0  0  0
   -7.0276   24.4405  -18.4054 O   0  0  0  0  0  0  0  0  0  0  0  0
   -6.9343   22.1809  -18.0533 N   0  0  0  0  0  0  0  0  0  0  0  0
   -6.7783   21.2245  -18.4199 H   0  0  0  0  0  0  0  0  0  0  0  0
   -7.2860   22.4232  -16.6624 C   0  0  0  0  0  0  0  0  0  0  0  0
   -8.7401   21.9679  -16.5045 C   0  0  0  0  0  0  0  0  0  0  0  0
   -9.1043   21.9999  -15.0245 C   0  0  0  0  0  0  0  0  0  0  0  0
   -8.3730   20.8001  -14.4043 C   0  0  0  0  0  0  0  0  0  0  0  0
   -7.1270   20.4780  -15.1538 C   0  0  0  0  0  0  0  0  0  0  0  0
   -6.4274   21.7506  -15.6600 C   0  0  0  0  0  0  0  0  0  0  0  0
   -8.0559   21.1688  -13.0323 N   0  0  0  0  0  0  0  0  0  0  0  0
   -8.8372   20.6565  -11.9759 C   0  0  0  0  0  0  0  0  0  0  0  0
   -9.8176   19.8816  -12.2265 O   0  0  0  0  0  0  0  0  0  0  0  0
   -7.2626   21.7988  -12.8248 H   0  0  0  0  0  0  0  0  0  0  0  0
   -8.5354   21.0067  -10.5762 C   0  0  0  0  0  0  0  0  0  0  0  0
   -9.5976   21.0179   -9.5687 C   0  0  0  0  0  0  0  0  0  0  0  0
   -9.2043   22.3320  -10.1593 C   0  0  0  0  0  0  0  0  0  0  0  0
   -8.7300   22.5217  -21.0158 N   0  0  0  0  0  0  0  0  0  0  0  0
   -9.0496   21.5500  -21.2185 H   0  0  0  0  0  0  0  0  0  0  0  0
   -9.7235   23.3828  -20.5067 C   0  0  0  0  0  0  0  0  0  0  0  0
  -10.6494   23.0250  -19.5180 C   0  0  0  0  0  0  0  0  0  0  0  0
  -11.5959   23.9062  -19.0627 C   0  0  0  0  0  0  0  0  0  0  0  0
  -11.6385   25.1751  -19.5899 C   0  0  0  0  0  0  0  0  0  0  0  0
  -10.7661   25.5514  -20.5402 N   0  0  0  0  0  0  0  0  0  0  0  0
   -9.8469   24.6912  -20.9795 C   0  0  0  0  0  0  0  0  0  0  0  0
 16 17  3  0  0  0
 17  7  1  0  0  0
  7  8  1  0  0  0
  8  9  2  0  0  0
  9 10  1  0  0  0
 10 11  1  0  0  0
 11  1  1  0  0  0
  1  2  2  0  0  0
  2  3  1  0  0  0
  3 35  1  0  0  0
 35 37  1  0  0  0
 37 38  2  0  0  0
 38 39  1  0  0  0
 39 40  2  0  0  0
 40 41  1  0  0  0
 41 42  2  0  0  0
  3  4  2  0  0  0
  4 18  1  0  0  0
 18 19  2  0  0  0
 18 20  1  0  0  0
 20 22  1  0  0  0
 22 23  1  0  0  0
 23 24  1  0  0  0
 24 25  1  0  0  0
 25 28  1  0  0  0
 28 29  1  0  0  0
 29 30  2  0  0  0
 29 32  1  0  0  0
 32 33  1  0  0  0
 33 34  1  0  0  0
 25 26  1  0  0  0
 26 27  1  0  0  0
  4  5  1  0  0  0
  5  6  2  0  0  0
 11 12  2  0  0  0
 12 13  1  0  0  0
 13 14  2  0  0  0
 14 15  1  0  0  0
 15  7  2  0  0  0
 14 10  1  0  0  0
  6  1  1  0  0  0
 42 37  1  0  0  0
 27 22  1  0  0  0
 34 32  1  0  0  0
 35 36  1  0  0  0
 20 21  1  0  0  0
 28 31  1  0  0  0
M  END
> <minimizedAffinity>
-7.22014

> <CNNscore>
0.3764272928

> <CNNaffinity>
6.3356924057

> <CNN_VS>
2.3849275112

> <CNNaffinity_variance>
0.4462143481

$$$$
[H]c1nc([H])c(N([H])c2c([H])c(-c3c([H])c([H])c4c([H])c(C#N)c([H])nn34)nc([H])c2C(=O)N([H])[C@]2([H])C([H])([H])C([H])([H])[C@@]([H])(N([H])C(=O)C3([H])C([H])([H])C3([H])[H])C([H])([H])C2([H])[H])c([H])c1[H]


 42 47  0  0  0  0  0  0  0  0999 V2000
   -3.7447   23.9179  -22.9477 C   0  0  0  0  0  0  0  0  0  0  0  0
   -3.1847   23.0599  -23.8464 C   0  0  0  0  0  0  0  0  0  0  0  0
   -1.9802   22.3773  -23.7010 C   0  0  0  0  0  0  0  0  0  0  0  0
   -1.2878   22.6046  -22.5073 C   0  0  0  0  0  0  0  0  0  0  0  0
   -1.8515   23.4872  -21.5742 C   0  0  0  0  0  0  0  0  0  0  0  0
   -3.0167   24.0990  -21.8015 N   0  0  0  0  0  0  0  0  0  0  0  0
   -8.4284   25.0083  -20.9551 C   0  0  0  0  0  0  0  0  0  0  0  0
   -7.4234   24.2236  -20.4521 C   0  0  0  0  0  0  0  0  0  0  0  0
   -6.2960   24.0972  -21.1546 N   0  0  0  0  0  0  0  0  0  0  0  0
   -6.0808   24.6870  -22.3195 N   0  0  0  0  0  0  0  0  0  0  0  0
   -5.0071   24.6291  -23.0985 C   0  0  0  0  0  0  0  0  0  0  0  0
   -5.3019   25.4312  -24.2090 C   0  0  0  0  0  0  0  0  0  0  0  0
   -6.5631   25.9489  -24.0507 C   0  0  0  0  0  0  0  0  0  0  0  0
   -7.0466   25.4626  -22.8368 C   0  0  0  0  0  0  0  0  0  0  0  0
   -8.2342   25.6366  -22.1660 C   0  0  0  0  0  0  0  0  0  0  0  0
  -10.6327   25.2660  -19.6210 N   0  0  0  0  0  0  0  0  0  0  0  0
   -9.6447   25.1483  -20.2152 C   0  0  0  0  0  0  0  0  0  0  0  0
   -0.0790   21.8955  -22.1789 C   0  0  0  0  0  0  0  0  0  0  0  0
    0.8453   21.7856  -23.0573 O   0  0  0  0  0  0  0  0  0  0  0  0
    0.1648   21.3012  -20.9265 N   0  0  0  0  0  0  0  0  0  0  0  0
   -0.5484   21.3702  -20.1781 H   0  0  0  0  0  0  0  0  0  0  0  0
    1.4274   20.6074  -20.7234 C   0  0  0  0  0  0  0  0  0  0  0  0
    1.6905   20.6329  -19.2145 C   0  0  0  0  0  0  0  0  0  0  0  0
    2.8905   19.7426  -18.9124 C   0  0  0  0  0  0  0  0  0  0  0  0
    2.3760   18.3047  -19.0763 C   0  0  0  0  0  0  0  0  0  0  0  0
    1.2627   18.2364  -20.0631 C   0  0  0  0  0  0  0  0  0  0  0  0
    1.4800   19.2158  -21.2287 C   0  0  0  0  0  0  0  0  0  0  0  0
    3.5050   17.5073  -19.5328 N   0  0  0  0  0  0  0  0  0  0  0  0
    3.5211   16.1189  -19.2864 C   0  0  0  0  0  0  0  0  0  0  0  0
    2.5543   15.5716  -18.6617 O   0  0  0  0  0  0  0  0  0  0  0  0
    4.2924   17.9477  -20.0382 H   0  0  0  0  0  0  0  0  0  0  0  0
    4.6476   15.2850  -19.7431 C   0  0  0  0  0  0  0  0  0  0  0  0
    5.7418   15.8751  -20.5163 C   0  0  0  0  0  0  0  0  0  0  0  0
    4.6791   15.1546  -21.2791 C   0  0  0  0  0  0  0  0  0  0  0  0
   -1.4705   21.6274  -24.7618 N   0  0  0  0  0  0  0  0  0  0  0  0
   -1.2781   20.6082  -24.6529 H   0  0  0  0  0  0  0  0  0  0  0  0
   -1.1264   22.1688  -26.0172 C   0  0  0  0  0  0  0  0  0  0  0  0
   -2.0370   22.3944  -27.0578 C   0  0  0  0  0  0  0  0  0  0  0  0
   -1.6430   22.9228  -28.2599 C   0  0  0  0  0  0  0  0  0  0  0  0
   -0.3190   23.2400  -28.4505 C   0  0  0  0  0  0  0  0  0  0  0  0
    0.5815   23.0358  -27.4741 N   0  0  0  0  0  0  0  0  0  0  0  0
    0.1935   22.5223  -26.3063 C   0  0  0  0  0  0  0  0  0  0  0  0
 16 17  3  0  0  0
 17  7  1  0  0  0
  7  8  1  0  0  0
  8  9  2  0  0  0
  9 10  1  0  0  0
 10 11  1  0  0  0
 11  1  1  0  0  0
  1  2  2  0  0  0
  2  3  1  0  0  0
  3 35  1  0  0  0
 35 37  1  0  0  0
 37 38  2  0  0  0
 38 39  1  0  0  0
 39 40  2  0  0  0
 40 41  1  0  0  0
 41 42  2  0  0  0
  3  4  2  0  0  0
  4 18  1  0  0  0
 18 19  2  0  0  0
 18 20  1  0  0  0
 20 22  1  0  0  0
 22 23  1  0  0  0
 23 24  1  0  0  0
 24 25  1  0  0  0
 25 28  1  0  0  0
 28 29  1  0  0  0
 29 30  2  0  0  0
 29 32  1  0  0  0
 32 33  1  0  0  0
 33 34  1  0  0  0
 25 26  1  0  0  0
 26 27  1  0  0  0
  4  5  1  0  0  0
  5  6  2  0  0  0
 11 12  2  0  0  0
 12 13  1  0  0  0
 13 14  2  0  0  0
 14 15  1  0  0  0
 15  7  2  0  0  0
 14 10  1  0  0  0
  6  1  1  0  0  0
 42 37  1  0  0  0
 27 22  1  0  0  0
 34 32  1  0  0  0
 35 36  1  0  0  0
 20 21  1  0  0  0
 28 31  1  0  0  0
M  END
> <minimizedAffinity>
-7.72591

> <CNNscore>
0.3185373247

> <CNNaffinity>
6.7993621826

> <CNN_VS>
2.1658506393

> <CNNaffinity_variance>
0.0295433346

$$$$
[H]c1nc([H])c(N([H])c2c([H])c(-c3c([H])c([H])c4c([H])c(C#N)c([H])nn34)nc([H])c2C(=O)N([H])[C@]2([H])C([H])([H])C([H])([H])[C@@]([H])(N([H])C(=O)C3([H])C([H])([H])C3([H])[H])C([H])([H])C2([H])[H])c([H])c1[H]


 42 47  0  0  0  0  0  0  0  0999 V2000
   -0.4745   21.9613  -24.7960 C   0  0  0  0  0  0  0  0  0  0  0  0
   -1.4219   21.7581  -23.8375 C   0  0  0  0  0  0  0  0  0  0  0  0
   -1.2000   21.3415  -22.5279 C   0  0  0  0  0  0  0  0  0  0  0  0
    0.1343   21.1137  -22.1756 C   0  0  0  0  0  0  0  0  0  0  0  0
    1.1196   21.3167  -23.1530 C   0  0  0  0  0  0  0  0  0  0  0  0
    0.8107   21.7189  -24.3884 N   0  0  0  0  0  0  0  0  0  0  0  0
   -3.9292   23.4140  -28.4086 C   0  0  0  0  0  0  0  0  0  0  0  0
   -4.1284   23.0493  -27.1024 C   0  0  0  0  0  0  0  0  0  0  0  0
   -3.0700   22.7160  -26.3613 N   0  0  0  0  0  0  0  0  0  0  0  0
   -1.8249   22.7146  -26.8091 N   0  0  0  0  0  0  0  0  0  0  0  0
   -0.7068   22.4011  -26.1652 C   0  0  0  0  0  0  0  0  0  0  0  0
    0.3256   22.5648  -27.0984 C   0  0  0  0  0  0  0  0  0  0  0  0
   -0.2222   22.9777  -28.2871 C   0  0  0  0  0  0  0  0  0  0  0  0
   -1.5987   23.0683  -28.0842 C   0  0  0  0  0  0  0  0  0  0  0  0
   -2.6436   23.4232  -28.9043 C   0  0  0  0  0  0  0  0  0  0  0  0
   -5.9717   24.0506  -29.8675 N   0  0  0  0  0  0  0  0  0  0  0  0
   -5.0554   23.7685  -29.2164 C   0  0  0  0  0  0  0  0  0  0  0  0
    0.5215   20.7726  -20.8320 C   0  0  0  0  0  0  0  0  0  0  0  0
    0.7143   21.7046  -19.9761 O   0  0  0  0  0  0  0  0  0  0  0  0
    0.7056   19.4520  -20.3812 N   0  0  0  0  0  0  0  0  0  0  0  0
    0.5528   18.6612  -21.0330 H   0  0  0  0  0  0  0  0  0  0  0  0
    1.1037   19.2418  -18.9976 C   0  0  0  0  0  0  0  0  0  0  0  0
    0.0503   18.3123  -18.3870 C   0  0  0  0  0  0  0  0  0  0  0  0
    0.5200   17.8850  -17.0011 C   0  0  0  0  0  0  0  0  0  0  0  0
    1.6563   16.8827  -17.2528 C   0  0  0  0  0  0  0  0  0  0  0  0
    2.3546   17.1662  -18.5372 C   0  0  0  0  0  0  0  0  0  0  0  0
    2.4594   18.6776  -18.8017 C   0  0  0  0  0  0  0  0  0  0  0  0
    2.5810   17.0117  -16.1360 N   0  0  0  0  0  0  0  0  0  0  0  0
    2.5681   16.0475  -15.1071 C   0  0  0  0  0  0  0  0  0  0  0  0
    1.7457   15.0750  -15.1557 O   0  0  0  0  0  0  0  0  0  0  0  0
    3.2485   17.8002  -16.0917 H   0  0  0  0  0  0  0  0  0  0  0  0
    3.4977   16.1483  -13.9675 C   0  0  0  0  0  0  0  0  0  0  0  0
    3.1936   15.4804  -12.7007 C   0  0  0  0  0  0  0  0  0  0  0  0
    2.8837   16.9383  -12.7944 C   0  0  0  0  0  0  0  0  0  0  0  0
   -2.2815   21.0546  -21.6940 N   0  0  0  0  0  0  0  0  0  0  0  0
   -2.2922   20.1910  -21.1095 H   0  0  0  0  0  0  0  0  0  0  0  0
   -3.4444   21.8471  -21.6091 C   0  0  0  0  0  0  0  0  0  0  0  0
   -4.6186   21.6091  -22.3354 C   0  0  0  0  0  0  0  0  0  0  0  0
   -5.7195   22.4168  -22.2126 C   0  0  0  0  0  0  0  0  0  0  0  0
   -5.6709   23.4897  -21.3543 C   0  0  0  0  0  0  0  0  0  0  0  0
   -4.5603   23.7478  -20.6431 N   0  0  0  0  0  0  0  0  0  0  0  0
   -3.4922   22.9590  -20.7652 C   0  0  0  0  0  0  0  0  0  0  0  0
 16 17  3  0  0  0
 17  7  1  0  0  0
  7  8  1  0  0  0
  8  9  2  0  0  0
  9 10  1  0  0  0
 10 11  1  0  0  0
 11  1  1  0  0  0
  1  2  2  0  0  0
  2  3  1  0  0  0
  3 35  1  0  0  0
 35 37  1  0  0  0
 37 38  2  0  0  0
 38 39  1  0  0  0
 39 40  2  0  0  0
 40 41  1  0  0  0
 41 42  2  0  0  0
  3  4  2  0  0  0
  4 18  1  0  0  0
 18 19  2  0  0  0
 18 20  1  0  0  0
 20 22  1  0  0  0
 22 23  1  0  0  0
 23 24  1  0  0  0
 24 25  1  0  0  0
 25 28  1  0  0  0
 28 29  1  0  0  0
 29 30  2  0  0  0
 29 32  1  0  0  0
 32 33  1  0  0  0
 33 34  1  0  0  0
 25 26  1  0  0  0
 26 27  1  0  0  0
  4  5  1  0  0  0
  5  6  2  0  0  0
 11 12  2  0  0  0
 12 13  1  0  0  0
 13 14  2  0  0  0
 14 15  1  0  0  0
 15  7  2  0  0  0
 14 10  1  0  0  0
  6  1  1  0  0  0
 42 37  1  0  0  0
 27 22  1  0  0  0
 34 32  1  0  0  0
 35 36  1  0  0  0
 20 21  1  0  0  0
 28 31  1  0  0  0
M  END
> <minimizedAffinity>
-7.44349

> <CNNscore>
0.3123175204

> <CNNaffinity>
6.7912178040

> <CNN_VS>
2.1210162640

> <CNNaffinity_variance>
0.1794672012

$$$$
[H]c1nc([H])c(N([H])c2c([H])c(-c3c([H])c([H])c4c([H])c(C#N)c([H])nn34)nc([H])c2C(=O)N([H])[C@]2([H])C([H])([H])C([H])([H])[C@@]([H])(N([H])C(=O)C3([H])C([H])([H])C3([H])[H])C([H])([H])C2([H])[H])c([H])c1[H]


 42 47  0  0  0  0  0  0  0  0999 V2000
   -4.8431   23.0515  -22.5493 C   0  0  0  0  0  0  0  0  0  0  0  0
   -5.4164   24.0621  -21.8370 C   0  0  0  0  0  0  0  0  0  0  0  0
   -5.5914   24.1077  -20.4567 C   0  0  0  0  0  0  0  0  0  0  0  0
   -5.1261   22.9981  -19.7435 C   0  0  0  0  0  0  0  0  0  0  0  0
   -4.5359   21.9495  -20.4642 C   0  0  0  0  0  0  0  0  0  0  0  0
   -4.4107   21.9942  -21.7931 N   0  0  0  0  0  0  0  0  0  0  0  0
   -1.5082   22.7039  -26.5311 C   0  0  0  0  0  0  0  0  0  0  0  0
   -1.2652   22.7027  -25.1821 C   0  0  0  0  0  0  0  0  0  0  0  0
   -2.2991   22.8013  -24.3442 N   0  0  0  0  0  0  0  0  0  0  0  0
   -3.5596   22.9010  -24.7342 N   0  0  0  0  0  0  0  0  0  0  0  0
   -4.6565   23.0059  -23.9934 C   0  0  0  0  0  0  0  0  0  0  0  0
   -5.7205   23.0829  -24.9018 C   0  0  0  0  0  0  0  0  0  0  0  0
   -5.2123   23.0200  -26.1752 C   0  0  0  0  0  0  0  0  0  0  0  0
   -3.8286   22.9037  -26.0493 C   0  0  0  0  0  0  0  0  0  0  0  0
   -2.8109   22.8056  -26.9686 C   0  0  0  0  0  0  0  0  0  0  0  0
    0.4780   22.5272  -28.1830 N   0  0  0  0  0  0  0  0  0  0  0  0
   -0.4088   22.6044  -27.4409 C   0  0  0  0  0  0  0  0  0  0  0  0
   -5.1533   22.9488  -18.3053 C   0  0  0  0  0  0  0  0  0  0  0  0
   -4.0975   23.2441  -17.6447 O   0  0  0  0  0  0  0  0  0  0  0  0
   -6.2895   22.5917  -17.5552 N   0  0  0  0  0  0  0  0  0  0  0  0
   -7.1721   22.3529  -18.0426 H   0  0  0  0  0  0  0  0  0  0  0  0
   -6.1841   22.5755  -16.1041 C   0  0  0  0  0  0  0  0  0  0  0  0
   -6.4206   24.0170  -15.6430 C   0  0  0  0  0  0  0  0  0  0  0  0
   -6.5310   24.0319  -14.1226 C   0  0  0  0  0  0  0  0  0  0  0  0
   -7.9038   23.4168  -13.8128 C   0  0  0  0  0  0  0  0  0  0  0  0
   -8.3150   22.4496  -14.8679 C   0  0  0  0  0  0  0  0  0  0  0  0
   -7.1127   21.6560  -15.4065 C   0  0  0  0  0  0  0  0  0  0  0  0
   -7.7779   22.7410  -12.5297 N   0  0  0  0  0  0  0  0  0  0  0  0
   -8.5832   23.1494  -11.4464 C   0  0  0  0  0  0  0  0  0  0  0  0
   -9.4093   24.1088  -11.5929 O   0  0  0  0  0  0  0  0  0  0  0  0
   -7.1075   21.9635  -12.4060 H   0  0  0  0  0  0  0  0  0  0  0  0
   -8.4827   22.4791  -10.1374 C   0  0  0  0  0  0  0  0  0  0  0  0
   -8.0158   21.0944  -10.0469 C   0  0  0  0  0  0  0  0  0  0  0  0
   -9.4915   21.3202  -10.0073 C   0  0  0  0  0  0  0  0  0  0  0  0
   -6.3103   25.1547  -19.8785 N   0  0  0  0  0  0  0  0  0  0  0  0
   -5.8379   25.8541  -19.2660 H   0  0  0  0  0  0  0  0  0  0  0  0
   -7.7028   25.3264  -20.0166 C   0  0  0  0  0  0  0  0  0  0  0  0
   -8.3113   26.4855  -20.5159 C   0  0  0  0  0  0  0  0  0  0  0  0
   -9.6734   26.5958  -20.6255 C   0  0  0  0  0  0  0  0  0  0  0  0
  -10.4644   25.5414  -20.2351 C   0  0  0  0  0  0  0  0  0  0  0  0
   -9.9141   24.4151  -19.7508 N   0  0  0  0  0  0  0  0  0  0  0  0
   -8.5888   24.3121  -19.6466 C   0  0  0  0  0  0  0  0  0  0  0  0
 16 17  3  0  0  0
 17  7  1  0  0  0
  7  8  1  0  0  0
  8  9  2  0  0  0
  9 10  1  0  0  0
 10 11  1  0  0  0
 11  1  1  0  0  0
  1  2  2  0  0  0
  2  3  1  0  0  0
  3 35  1  0  0  0
 35 37  1  0  0  0
 37 38  2  0  0  0
 38 39  1  0  0  0
 39 40  2  0  0  0
 40 41  1  0  0  0
 41 42  2  0  0  0
  3  4  2  0  0  0
  4 18  1  0  0  0
 18 19  2  0  0  0
 18 20  1  0  0  0
 20 22  1  0  0  0
 22 23  1  0  0  0
 23 24  1  0  0  0
 24 25  1  0  0  0
 25 28  1  0  0  0
 28 29  1  0  0  0
 29 30  2  0  0  0
 29 32  1  0  0  0
 32 33  1  0  0  0
 33 34  1  0  0  0
 25 26  1  0  0  0
 26 27  1  0  0  0
  4  5  1  0  0  0
  5  6  2  0  0  0
 11 12  2  0  0  0
 12 13  1  0  0  0
 13 14  2  0  0  0
 14 15  1  0  0  0
 15  7  2  0  0  0
 14 10  1  0  0  0
  6  1  1  0  0  0
 42 37  1  0  0  0
 27 22  1  0  0  0
 34 32  1  0  0  0
 35 36  1  0  0  0
 20 21  1  0  0  0
 28 31  1  0  0  0
M  END
> <minimizedAffinity>
-7.18373

> <CNNscore>
0.2987813354

> <CNNaffinity>
6.2729835510

> <CNN_VS>
1.8742504120

> <CNNaffinity_variance>
0.3387272656

$$$$
[H]c1nc([H])c(N([H])c2c([H])c(-c3c([H])c([H])c4c([H])c(C#N)c([H])nn34)nc([H])c2C(=O)N([H])[C@]2([H])C([H])([H])C([H])([H])[C@@]([H])(N([H])C(=O)C3([H])C([H])([H])C3([H])[H])C([H])([H])C2([H])[H])c([H])c1[H]


 42 47  0  0  0  0  0  0  0  0999 V2000
   -3.7323   23.9591  -22.9060 C   0  0  0  0  0  0  0  0  0  0  0  0
   -3.0692   23.1069  -23.7375 C   0  0  0  0  0  0  0  0  0  0  0  0
   -1.9188   22.3831  -23.4367 C   0  0  0  0  0  0  0  0  0  0  0  0
   -1.4047   22.5580  -22.1478 C   0  0  0  0  0  0  0  0  0  0  0  0
   -2.0759   23.4341  -21.2821 C   0  0  0  0  0  0  0  0  0  0  0  0
   -3.1773   24.0880  -21.6601 N   0  0  0  0  0  0  0  0  0  0  0  0
   -8.7853   24.7507  -21.9377 C   0  0  0  0  0  0  0  0  0  0  0  0
   -7.9122   23.8625  -21.3653 C   0  0  0  0  0  0  0  0  0  0  0  0
   -6.6454   23.8481  -21.7844 N   0  0  0  0  0  0  0  0  0  0  0  0
   -6.1698   24.6449  -22.7278 N   0  0  0  0  0  0  0  0  0  0  0  0
   -4.9384   24.7135  -23.2197 C   0  0  0  0  0  0  0  0  0  0  0  0
   -4.9760   25.7193  -24.1945 C   0  0  0  0  0  0  0  0  0  0  0  0
   -6.2509   26.2246  -24.2510 C   0  0  0  0  0  0  0  0  0  0  0  0
   -7.0013   25.5260  -23.3061 C   0  0  0  0  0  0  0  0  0  0  0  0
   -8.3199   25.5944  -22.9227 C   0  0  0  0  0  0  0  0  0  0  0  0
  -11.2528   24.7967  -21.1537 N   0  0  0  0  0  0  0  0  0  0  0  0
  -10.1476   24.7733  -21.5020 C   0  0  0  0  0  0  0  0  0  0  0  0
   -0.2779   21.8030  -21.6663 C   0  0  0  0  0  0  0  0  0  0  0  0
    0.4078   21.1012  -22.4882 O   0  0  0  0  0  0  0  0  0  0  0  0
    0.1346   21.7837  -20.3207 N   0  0  0  0  0  0  0  0  0  0  0  0
   -0.3817   22.3426  -19.6175 H   0  0  0  0  0  0  0  0  0  0  0  0
    1.2888   20.9737  -19.9620 C   0  0  0  0  0  0  0  0  0  0  0  0
    2.3359   21.9448  -19.4076 C   0  0  0  0  0  0  0  0  0  0  0  0
    3.4882   21.1380  -18.8202 C   0  0  0  0  0  0  0  0  0  0  0  0
    2.9410   20.5491  -17.5114 C   0  0  0  0  0  0  0  0  0  0  0  0
    1.4680   20.3422  -17.5842 C   0  0  0  0  0  0  0  0  0  0  0  0
    1.0298   19.8890  -18.9870 C   0  0  0  0  0  0  0  0  0  0  0  0
    3.6202   19.2775  -17.3102 N   0  0  0  0  0  0  0  0  0  0  0  0
    4.1725   18.9758  -16.0482 C   0  0  0  0  0  0  0  0  0  0  0  0
    4.0810   19.8172  -15.0952 O   0  0  0  0  0  0  0  0  0  0  0  0
    3.6984   18.5930  -18.0813 H   0  0  0  0  0  0  0  0  0  0  0  0
    4.8597   17.6931  -15.8130 C   0  0  0  0  0  0  0  0  0  0  0  0
    4.5712   16.5314  -16.6560 C   0  0  0  0  0  0  0  0  0  0  0  0
    3.8849   16.5998  -15.3314 C   0  0  0  0  0  0  0  0  0  0  0  0
   -1.2784   21.6447  -24.4328 N   0  0  0  0  0  0  0  0  0  0  0  0
   -0.9397   20.6761  -24.2467 H   0  0  0  0  0  0  0  0  0  0  0  0
   -0.9887   22.1412  -25.7201 C   0  0  0  0  0  0  0  0  0  0  0  0
   -1.9353   22.2890  -26.7424 C   0  0  0  0  0  0  0  0  0  0  0  0
   -1.5938   22.7766  -27.9774 C   0  0  0  0  0  0  0  0  0  0  0  0
   -0.2876   23.1300  -28.2203 C   0  0  0  0  0  0  0  0  0  0  0  0
    0.6463   23.0002  -27.2627 N   0  0  0  0  0  0  0  0  0  0  0  0
    0.3093   22.5262  -26.0629 C   0  0  0  0  0  0  0  0  0  0  0  0
 16 17  3  0  0  0
 17  7  1  0  0  0
  7  8  1  0  0  0
  8  9  2  0  0  0
  9 10  1  0  0  0
 10 11  1  0  0  0
 11  1  1  0  0  0
  1  2  2  0  0  0
  2  3  1  0  0  0
  3 35  1  0  0  0
 35 37  1  0  0  0
 37 38  2  0  0  0
 38 39  1  0  0  0
 39 40  2  0  0  0
 40 41  1  0  0  0
 41 42  2  0  0  0
  3  4  2  0  0  0
  4 18  1  0  0  0
 18 19  2  0  0  0
 18 20  1  0  0  0
 20 22  1  0  0  0
 22 23  1  0  0  0
 23 24  1  0  0  0
 24 25  1  0  0  0
 25 28  1  0  0  0
 28 29  1  0  0  0
 29 30  2  0  0  0
 29 32  1  0  0  0
 32 33  1  0  0  0
 33 34  1  0  0  0
 25 26  1  0  0  0
 26 27  1  0  0  0
  4  5  1  0  0  0
  5  6  2  0  0  0
 11 12  2  0  0  0
 12 13  1  0  0  0
 13 14  2  0  0  0
 14 15  1  0  0  0
 15  7  2  0  0  0
 14 10  1  0  0  0
  6  1  1  0  0  0
 42 37  1  0  0  0
 27 22  1  0  0  0
 34 32  1  0  0  0
 35 36  1  0  0  0
 20 21  1  0  0  0
 28 31  1  0  0  0
M  END
> <minimizedAffinity>
-7.35769

> <CNNscore>
0.2556531429

> <CNNaffinity>
6.7510542870

> <CNN_VS>
1.7259281874

> <CNNaffinity_variance>
0.0464726910

$$$$
[H]c1nc([H])c(N([H])c2c([H])c(-c3c([H])c([H])c4c([H])c(C#N)c([H])nn34)nc([H])c2C(=O)N([H])[C@]2([H])C([H])([H])C([H])([H])[C@@]([H])(N([H])C(=O)C3([H])C([H])([H])C3([H])[H])C([H])([H])C2([H])[H])c([H])c1[H]


 42 47  0  0  0  0  0  0  0  0999 V2000
   -6.3937   21.8472  -21.7795 C   0  0  0  0  0  0  0  0  0  0  0  0
   -5.8252   21.7616  -20.5438 C   0  0  0  0  0  0  0  0  0  0  0  0
   -6.4919   21.5775  -19.3357 C   0  0  0  0  0  0  0  0  0  0  0  0
   -7.8842   21.4706  -19.4147 C   0  0  0  0  0  0  0  0  0  0  0  0
   -8.4829   21.5592  -20.6801 C   0  0  0  0  0  0  0  0  0  0  0  0
   -7.7592   21.7372  -21.7883 N   0  0  0  0  0  0  0  0  0  0  0  0
   -1.8545   21.8286  -24.3273 C   0  0  0  0  0  0  0  0  0  0  0  0
   -2.1206   21.5618  -23.0094 C   0  0  0  0  0  0  0  0  0  0  0  0
   -3.3835   21.6286  -22.5840 N   0  0  0  0  0  0  0  0  0  0  0  0
   -4.4095   21.9387  -23.3600 N   0  0  0  0  0  0  0  0  0  0  0  0
   -5.6955   22.0360  -23.0440 C   0  0  0  0  0  0  0  0  0  0  0  0
   -6.3504   22.3930  -24.2301 C   0  0  0  0  0  0  0  0  0  0  0  0
   -5.4160   22.4980  -25.2299 C   0  0  0  0  0  0  0  0  0  0  0  0
   -4.1799   22.2041  -24.6557 C   0  0  0  0  0  0  0  0  0  0  0  0
   -2.9022   22.1540  -25.1610 C   0  0  0  0  0  0  0  0  0  0  0  0
    0.5888   21.7222  -25.1783 N   0  0  0  0  0  0  0  0  0  0  0  0
   -0.5043   21.7662  -24.7958 C   0  0  0  0  0  0  0  0  0  0  0  0
   -8.6945   21.1832  -18.2604 C   0  0  0  0  0  0  0  0  0  0  0  0
   -8.9667   22.1207  -17.4326 O   0  0  0  0  0  0  0  0  0  0  0  0
   -9.2241   19.9114  -17.9721 N   0  0  0  0  0  0  0  0  0  0  0  0
   -9.0405   19.1209  -18.6162 H   0  0  0  0  0  0  0  0  0  0  0  0
  -10.0248   19.7515  -16.7678 C   0  0  0  0  0  0  0  0  0  0  0  0
  -11.4768   19.6130  -17.2361 C   0  0  0  0  0  0  0  0  0  0  0  0
  -12.3421   19.2339  -16.0397 C   0  0  0  0  0  0  0  0  0  0  0  0
  -12.0064   17.7633  -15.7502 C   0  0  0  0  0  0  0  0  0  0  0  0
  -10.6137   17.4339  -16.1623 C   0  0  0  0  0  0  0  0  0  0  0  0
   -9.6549   18.6079  -15.9020 C   0  0  0  0  0  0  0  0  0  0  0  0
  -12.1669   17.5734  -14.3160 N   0  0  0  0  0  0  0  0  0  0  0  0
  -12.5157   16.3013  -13.8173 C   0  0  0  0  0  0  0  0  0  0  0  0
  -12.6948   15.3290  -14.6217 O   0  0  0  0  0  0  0  0  0  0  0  0
  -12.0245   18.3601  -13.6601 H   0  0  0  0  0  0  0  0  0  0  0  0
  -12.6781   16.0774  -12.3694 C   0  0  0  0  0  0  0  0  0  0  0  0
  -12.0947   17.0111  -11.4044 C   0  0  0  0  0  0  0  0  0  0  0  0
  -11.3347   15.7564  -11.6843 C   0  0  0  0  0  0  0  0  0  0  0  0
   -5.7861   21.6353  -18.1332 N   0  0  0  0  0  0  0  0  0  0  0  0
   -5.3229   20.7863  -17.7432 H   0  0  0  0  0  0  0  0  0  0  0  0
   -5.6848   22.7914  -17.3326 C   0  0  0  0  0  0  0  0  0  0  0  0
   -5.5603   22.7788  -15.9372 C   0  0  0  0  0  0  0  0  0  0  0  0
   -5.4674   23.9375  -15.2103 C   0  0  0  0  0  0  0  0  0  0  0  0
   -5.4973   25.1447  -15.8673 C   0  0  0  0  0  0  0  0  0  0  0  0
   -5.6166   25.1935  -17.2050 N   0  0  0  0  0  0  0  0  0  0  0  0
   -5.7060   24.0640  -17.9079 C   0  0  0  0  0  0  0  0  0  0  0  0
 16 17  3  0  0  0
 17  7  1  0  0  0
  7  8  1  0  0  0
  8  9  2  0  0  0
  9 10  1  0  0  0
 10 11  1  0  0  0
 11  1  1  0  0  0
  1  2  2  0  0  0
  2  3  1  0  0  0
  3 35  1  0  0  0
 35 37  1  0  0  0
 37 38  2  0  0  0
 38 39  1  0  0  0
 39 40  2  0  0  0
 40 41  1  0  0  0
 41 42  2  0  0  0
  3  4  2  0  0  0
  4 18  1  0  0  0
 18 19  2  0  0  0
 18 20  1  0  0  0
 20 22  1  0  0  0
 22 23  1  0  0  0
 23 24  1  0  0  0
 24 25  1  0  0  0
 25 28  1  0  0  0
 28 29  1  0  0  0
 29 30  2  0  0  0
 29 32  1  0  0  0
 32 33  1  0  0  0
 33 34  1  0  0  0
 25 26  1  0  0  0
 26 27  1  0  0  0
  4  5  1  0  0  0
  5  6  2  0  0  0
 11 12  2  0  0  0
 12 13  1  0  0  0
 13 14  2  0  0  0
 14 15  1  0  0  0
 15  7  2  0  0  0
 14 10  1  0  0  0
  6  1  1  0  0  0
 42 37  1  0  0  0
 27 22  1  0  0  0
 34 32  1  0  0  0
 35 36  1  0  0  0
 20 21  1  0  0  0
 28 31  1  0  0  0
M  END
> <minimizedAffinity>
-7.20180

> <CNNscore>
0.2552341223

> <CNNaffinity>
6.0597114563

> <CNN_VS>
1.5466451645

> <CNNaffinity_variance>
0.0407058820

$$$$
[H]c1nc([H])c(N([H])c2c([H])c(-c3c([H])c([H])c4c([H])c(C#N)c([H])nn34)nc([H])c2C(=O)N([H])[C@]2([H])C([H])([H])C([H])([H])[C@@]([H])(N([H])C(=O)C3([H])C([H])([H])C3([H])[H])C([H])([H])C2([H])[H])c([H])c1[H]


 42 47  0  0  0  0  0  0  0  0999 V2000
   -0.8998   21.8467  -24.0097 C   0  0  0  0  0  0  0  0  0  0  0  0
    0.1933   21.5261  -23.2616 C   0  0  0  0  0  0  0  0  0  0  0  0
    0.2012   21.1696  -21.9160 C   0  0  0  0  0  0  0  0  0  0  0  0
   -1.0456   21.1412  -21.2827 C   0  0  0  0  0  0  0  0  0  0  0  0
   -2.1790   21.4712  -22.0402 C   0  0  0  0  0  0  0  0  0  0  0  0
   -2.0889   21.8021  -23.3309 N   0  0  0  0  0  0  0  0  0  0  0  0
   -3.7218   23.1618  -28.1815 C   0  0  0  0  0  0  0  0  0  0  0  0
   -4.1280   22.8714  -26.9050 C   0  0  0  0  0  0  0  0  0  0  0  0
   -3.2046   22.5604  -25.9933 N   0  0  0  0  0  0  0  0  0  0  0  0
   -1.9059   22.5135  -26.2428 N   0  0  0  0  0  0  0  0  0  0  0  0
   -0.9081   22.2159  -25.4189 C   0  0  0  0  0  0  0  0  0  0  0  0
    0.2590   22.3114  -26.1884 C   0  0  0  0  0  0  0  0  0  0  0  0
   -0.0895   22.6689  -27.4669 C   0  0  0  0  0  0  0  0  0  0  0  0
   -1.4780   22.7940  -27.4838 C   0  0  0  0  0  0  0  0  0  0  0  0
   -2.3755   23.1221  -28.4724 C   0  0  0  0  0  0  0  0  0  0  0  0
   -5.4927   23.7532  -29.9758 N   0  0  0  0  0  0  0  0  0  0  0  0
   -4.7014   23.4915  -29.1705 C   0  0  0  0  0  0  0  0  0  0  0  0
   -1.2008   20.6987  -19.9219 C   0  0  0  0  0  0  0  0  0  0  0  0
   -0.6062   19.6338  -19.5340 O   0  0  0  0  0  0  0  0  0  0  0  0
   -1.9788   21.3738  -18.9627 N   0  0  0  0  0  0  0  0  0  0  0  0
   -2.4728   22.2462  -19.2243 H   0  0  0  0  0  0  0  0  0  0  0  0
   -2.0582   20.8184  -17.6203 C   0  0  0  0  0  0  0  0  0  0  0  0
   -1.0450   21.5973  -16.7756 C   0  0  0  0  0  0  0  0  0  0  0  0
   -1.2260   21.2078  -15.3130 C   0  0  0  0  0  0  0  0  0  0  0  0
   -2.5302   21.8897  -14.8735 C   0  0  0  0  0  0  0  0  0  0  0  0
   -3.4659   22.0598  -16.0195 C   0  0  0  0  0  0  0  0  0  0  0  0
   -3.3967   20.8665  -16.9873 C   0  0  0  0  0  0  0  0  0  0  0  0
   -3.1262   21.0342  -13.8577 N   0  0  0  0  0  0  0  0  0  0  0  0
   -3.6406   21.6101  -12.6776 C   0  0  0  0  0  0  0  0  0  0  0  0
   -3.5756   22.8710  -12.5033 O   0  0  0  0  0  0  0  0  0  0  0  0
   -3.1791   20.0106  -13.9942 H   0  0  0  0  0  0  0  0  0  0  0  0
   -4.2563   20.7697  -11.6348 C   0  0  0  0  0  0  0  0  0  0  0  0
   -4.6748   19.3997  -11.9372 C   0  0  0  0  0  0  0  0  0  0  0  0
   -5.7324   20.4541  -11.9495 C   0  0  0  0  0  0  0  0  0  0  0  0
    1.4135   20.9896  -21.2487 N   0  0  0  0  0  0  0  0  0  0  0  0
    1.7295   21.6666  -20.5211 H   0  0  0  0  0  0  0  0  0  0  0  0
    2.3190   19.9451  -21.5254 C   0  0  0  0  0  0  0  0  0  0  0  0
    2.1337   18.6128  -21.1332 C   0  0  0  0  0  0  0  0  0  0  0  0
    3.0516   17.6387  -21.4300 C   0  0  0  0  0  0  0  0  0  0  0  0
    4.1848   17.9772  -22.1308 C   0  0  0  0  0  0  0  0  0  0  0  0
    4.3949   19.2456  -22.5217 N   0  0  0  0  0  0  0  0  0  0  0  0
    3.4991   20.1896  -22.2315 C   0  0  0  0  0  0  0  0  0  0  0  0
 16 17  3  0  0  0
 17  7  1  0  0  0
  7  8  1  0  0  0
  8  9  2  0  0  0
  9 10  1  0  0  0
 10 11  1  0  0  0
 11  1  1  0  0  0
  1  2  2  0  0  0
  2  3  1  0  0  0
  3 35  1  0  0  0
 35 37  1  0  0  0
 37 38  2  0  0  0
 38 39  1  0  0  0
 39 40  2  0  0  0
 40 41  1  0  0  0
 41 42  2  0  0  0
  3  4  2  0  0  0
  4 18  1  0  0  0
 18 19  2  0  0  0
 18 20  1  0  0  0
 20 22  1  0  0  0
 22 23  1  0  0  0
 23 24  1  0  0  0
 24 25  1  0  0  0
 25 28  1  0  0  0
 28 29  1  0  0  0
 29 30  2  0  0  0
 29 32  1  0  0  0
 32 33  1  0  0  0
 33 34  1  0  0  0
 25 26  1  0  0  0
 26 27  1  0  0  0
  4  5  1  0  0  0
  5  6  2  0  0  0
 11 12  2  0  0  0
 12 13  1  0  0  0
 13 14  2  0  0  0
 14 15  1  0  0  0
 15  7  2  0  0  0
 14 10  1  0  0  0
  6  1  1  0  0  0
 42 37  1  0  0  0
 27 22  1  0  0  0
 34 32  1  0  0  0
 35 36  1  0  0  0
 20 21  1  0  0  0
 28 31  1  0  0  0
M  END
> <minimizedAffinity>
-7.44302

> <CNNscore>
0.2349527776

> <CNNaffinity>
6.6301651001

> <CNN_VS>
1.5577757359

> <CNNaffinity_variance>
0.1425751150

$$$$
[H]c1nc([H])c(N([H])c2c([H])c(-c3c([H])c([H])c4c([H])c(C#N)c([H])nn34)nc([H])c2C(=O)N([H])[C@]2([H])C([H])([H])C([H])([H])[C@@]([H])(N([H])C(=O)C3([H])C([H])([H])C3([H])[H])C([H])([H])C2([H])[H])c([H])c1[H]


 42 47  0  0  0  0  0  0  0  0999 V2000
   -5.5226   22.7061  -23.2265 C   0  0  0  0  0  0  0  0  0  0  0  0
   -6.7278   23.0309  -22.6791 C   0  0  0  0  0  0  0  0  0  0  0  0
   -7.1118   22.8495  -21.3534 C   0  0  0  0  0  0  0  0  0  0  0  0
   -6.1534   22.2763  -20.5112 C   0  0  0  0  0  0  0  0  0  0  0  0
   -4.9094   21.9350  -21.0619 C   0  0  0  0  0  0  0  0  0  0  0  0
   -4.6300   22.1472  -22.3505 N   0  0  0  0  0  0  0  0  0  0  0  0
   -1.6524   22.7156  -26.7076 C   0  0  0  0  0  0  0  0  0  0  0  0
   -1.6216   22.4465  -25.3639 C   0  0  0  0  0  0  0  0  0  0  0  0
   -2.7609   22.5056  -24.6718 N   0  0  0  0  0  0  0  0  0  0  0  0
   -3.9338   22.8102  -25.2034 N   0  0  0  0  0  0  0  0  0  0  0  0
   -5.1197   22.8997  -24.6130 C   0  0  0  0  0  0  0  0  0  0  0  0
   -6.0208   23.2535  -25.6260 C   0  0  0  0  0  0  0  0  0  0  0  0
   -5.3288   23.3646  -26.8061 C   0  0  0  0  0  0  0  0  0  0  0  0
   -3.9953   23.0776  -26.5175 C   0  0  0  0  0  0  0  0  0  0  0  0
   -2.8592   23.0353  -27.2908 C   0  0  0  0  0  0  0  0  0  0  0  0
    0.5437   22.6127  -28.0757 N   0  0  0  0  0  0  0  0  0  0  0  0
   -0.4375   22.6614  -27.4609 C   0  0  0  0  0  0  0  0  0  0  0  0
   -6.3760   22.1175  -19.0981 C   0  0  0  0  0  0  0  0  0  0  0  0
   -7.3812   21.4377  -18.6912 O   0  0  0  0  0  0  0  0  0  0  0  0
   -5.5431   22.6698  -18.1071 N   0  0  0  0  0  0  0  0  0  0  0  0
   -4.7108   23.2209  -18.3848 H   0  0  0  0  0  0  0  0  0  0  0  0
   -5.8818   22.4398  -16.7109 C   0  0  0  0  0  0  0  0  0  0  0  0
   -4.5534   22.2209  -15.9800 C   0  0  0  0  0  0  0  0  0  0  0  0
   -4.8216   22.1820  -14.4798 C   0  0  0  0  0  0  0  0  0  0  0  0
   -5.1144   23.6373  -14.0856 C   0  0  0  0  0  0  0  0  0  0  0  0
   -5.7073   24.3976  -15.2205 C   0  0  0  0  0  0  0  0  0  0  0  0
   -6.6550   23.5197  -16.0549 C   0  0  0  0  0  0  0  0  0  0  0  0
   -6.0471   23.5873  -12.9692 N   0  0  0  0  0  0  0  0  0  0  0  0
   -5.7661   24.3154  -11.7946 C   0  0  0  0  0  0  0  0  0  0  0  0
   -4.6978   25.0058  -11.7134 O   0  0  0  0  0  0  0  0  0  0  0  0
   -6.9140   23.0269  -13.0302 H   0  0  0  0  0  0  0  0  0  0  0  0
   -6.6956   24.2895  -10.6508 C   0  0  0  0  0  0  0  0  0  0  0  0
   -8.1119   23.9784  -10.8527 C   0  0  0  0  0  0  0  0  0  0  0  0
   -7.7406   25.4201  -10.7350 C   0  0  0  0  0  0  0  0  0  0  0  0
   -8.4255   23.1149  -20.9648 N   0  0  0  0  0  0  0  0  0  0  0  0
   -9.0864   22.3383  -20.7469 H   0  0  0  0  0  0  0  0  0  0  0  0
   -8.9795   24.4091  -20.8880 C   0  0  0  0  0  0  0  0  0  0  0  0
  -10.1754   24.7957  -21.5071 C   0  0  0  0  0  0  0  0  0  0  0  0
  -10.6648   26.0717  -21.3984 C   0  0  0  0  0  0  0  0  0  0  0  0
   -9.9640   26.9976  -20.6626 C   0  0  0  0  0  0  0  0  0  0  0  0
   -8.8128   26.6611  -20.0564 N   0  0  0  0  0  0  0  0  0  0  0  0
   -8.3410   25.4187  -20.1643 C   0  0  0  0  0  0  0  0  0  0  0  0
 16 17  3  0  0  0
 17  7  1  0  0  0
  7  8  1  0  0  0
  8  9  2  0  0  0
  9 10  1  0  0  0
 10 11  1  0  0  0
 11  1  1  0  0  0
  1  2  2  0  0  0
  2  3  1  0  0  0
  3 35  1  0  0  0
 35 37  1  0  0  0
 37 38  2  0  0  0
 38 39  1  0  0  0
 39 40  2  0  0  0
 40 41  1  0  0  0
 41 42  2  0  0  0
  3  4  2  0  0  0
  4 18  1  0  0  0
 18 19  2  0  0  0
 18 20  1  0  0  0
 20 22  1  0  0  0
 22 23  1  0  0  0
 23 24  1  0  0  0
 24 25  1  0  0  0
 25 28  1  0  0  0
 28 29  1  0  0  0
 29 30  2  0  0  0
 29 32  1  0  0  0
 32 33  1  0  0  0
 33 34  1  0  0  0
 25 26  1  0  0  0
 26 27  1  0  0  0
  4  5  1  0  0  0
  5  6  2  0  0  0
 11 12  2  0  0  0
 12 13  1  0  0  0
 13 14  2  0  0  0
 14 15  1  0  0  0
 15  7  2  0  0  0
 14 10  1  0  0  0
  6  1  1  0  0  0
 42 37  1  0  0  0
 27 22  1  0  0  0
 34 32  1  0  0  0
 35 36  1  0  0  0
 20 21  1  0  0  0
 28 31  1  0  0  0
M  END
> <minimizedAffinity>
-7.59964

> <CNNscore>
0.2264631093

> <CNNaffinity>
6.3868203163

> <CNN_VS>
1.4463791847

> <CNNaffinity_variance>
0.2644755840

$$$$
[H]c1nc([H])c(N([H])c2c([H])c(-c3c([H])c([H])c4c([H])c(C#N)c([H])nn34)nc([H])c2C(=O)N([H])[C@]2([H])C([H])([H])C([H])([H])[C@@]([H])(N([H])C(=O)C3([H])C([H])([H])C3([H])[H])C([H])([H])C2([H])[H])c([H])c1[H]


 42 47  0  0  0  0  0  0  0  0999 V2000
   -6.2021   23.2375  -24.1977 C   0  0  0  0  0  0  0  0  0  0  0  0
   -6.5633   24.2964  -23.4195 C   0  0  0  0  0  0  0  0  0  0  0  0
   -7.1615   24.2364  -22.1639 C   0  0  0  0  0  0  0  0  0  0  0  0
   -7.4093   22.9537  -21.6644 C   0  0  0  0  0  0  0  0  0  0  0  0
   -7.0447   21.8546  -22.4559 C   0  0  0  0  0  0  0  0  0  0  0  0
   -6.4734   22.0102  -23.6530 N   0  0  0  0  0  0  0  0  0  0  0  0
   -1.8235   22.8381  -26.9842 C   0  0  0  0  0  0  0  0  0  0  0  0
   -2.0216   22.6833  -25.6368 C   0  0  0  0  0  0  0  0  0  0  0  0
   -3.2542   22.8343  -25.1485 N   0  0  0  0  0  0  0  0  0  0  0  0
   -4.3118   23.1267  -25.8882 N   0  0  0  0  0  0  0  0  0  0  0  0
   -5.5725   23.3007  -25.5099 C   0  0  0  0  0  0  0  0  0  0  0  0
   -6.2822   23.5934  -26.6821 C   0  0  0  0  0  0  0  0  0  0  0  0
   -5.4046   23.5835  -27.7373 C   0  0  0  0  0  0  0  0  0  0  0  0
   -4.1487   23.2832  -27.2114 C   0  0  0  0  0  0  0  0  0  0  0  0
   -2.9054   23.1422  -27.7814 C   0  0  0  0  0  0  0  0  0  0  0  0
    0.5632   22.5654  -27.9509 N   0  0  0  0  0  0  0  0  0  0  0  0
   -0.5063   22.6846  -27.5207 C   0  0  0  0  0  0  0  0  0  0  0  0
   -7.9341   22.7377  -20.3417 C   0  0  0  0  0  0  0  0  0  0  0  0
   -9.1761   22.9477  -20.1146 O   0  0  0  0  0  0  0  0  0  0  0  0
   -7.1576   22.2982  -19.2531 N   0  0  0  0  0  0  0  0  0  0  0  0
   -6.1486   22.1050  -19.3872 H   0  0  0  0  0  0  0  0  0  0  0  0
   -7.8090   22.1236  -17.9638 C   0  0  0  0  0  0  0  0  0  0  0  0
   -8.0563   20.6196  -17.8108 C   0  0  0  0  0  0  0  0  0  0  0  0
   -8.5460   20.3466  -16.3932 C   0  0  0  0  0  0  0  0  0  0  0  0
   -7.3070   20.5123  -15.5007 C   0  0  0  0  0  0  0  0  0  0  0  0
   -6.3397   21.4791  -16.0901 C   0  0  0  0  0  0  0  0  0  0  0  0
   -7.0604   22.6408  -16.7948 C   0  0  0  0  0  0  0  0  0  0  0  0
   -7.7827   20.9956  -14.2126 N   0  0  0  0  0  0  0  0  0  0  0  0
   -7.6344   20.1857  -13.0677 C   0  0  0  0  0  0  0  0  0  0  0  0
   -7.0930   19.0361  -13.1665 O   0  0  0  0  0  0  0  0  0  0  0  0
   -8.2243   21.9268  -14.1285 H   0  0  0  0  0  0  0  0  0  0  0  0
   -8.1000   20.6516  -11.7490 C   0  0  0  0  0  0  0  0  0  0  0  0
   -8.3934   19.6909  -10.6839 C   0  0  0  0  0  0  0  0  0  0  0  0
   -9.5519   20.2162  -11.4665 C   0  0  0  0  0  0  0  0  0  0  0  0
   -7.5902   25.4078  -21.5383 N   0  0  0  0  0  0  0  0  0  0  0  0
   -6.9278   25.9913  -20.9832 H   0  0  0  0  0  0  0  0  0  0  0  0
   -8.9235   25.8659  -21.5498 C   0  0  0  0  0  0  0  0  0  0  0  0
   -9.8553   25.5631  -22.5513 C   0  0  0  0  0  0  0  0  0  0  0  0
  -11.1401   26.0398  -22.5098 C   0  0  0  0  0  0  0  0  0  0  0  0
  -11.5253   26.8367  -21.4579 C   0  0  0  0  0  0  0  0  0  0  0  0
  -10.6569   27.1478  -20.4806 N   0  0  0  0  0  0  0  0  0  0  0  0
   -9.4086   26.6813  -20.5248 C   0  0  0  0  0  0  0  0  0  0  0  0
 16 17  3  0  0  0
 17  7  1  0  0  0
  7  8  1  0  0  0
  8  9  2  0  0  0
  9 10  1  0  0  0
 10 11  1  0  0  0
 11  1  1  0  0  0
  1  2  2  0  0  0
  2  3  1  0  0  0
  3 35  1  0  0  0
 35 37  1  0  0  0
 37 38  2  0  0  0
 38 39  1  0  0  0
 39 40  2  0  0  0
 40 41  1  0  0  0
 41 42  2  0  0  0
  3  4  2  0  0  0
  4 18  1  0  0  0
 18 19  2  0  0  0
 18 20  1  0  0  0
 20 22  1  0  0  0
 22 23  1  0  0  0
 23 24  1  0  0  0
 24 25  1  0  0  0
 25 28  1  0  0  0
 28 29  1  0  0  0
 29 30  2  0  0  0
 29 32  1  0  0  0
 32 33  1  0  0  0
 33 34  1  0  0  0
 25 26  1  0  0  0
 26 27  1  0  0  0
  4  5  1  0  0  0
  5  6  2  0  0  0
 11 12  2  0  0  0
 12 13  1  0  0  0
 13 14  2  0  0  0
 14 15  1  0  0  0
 15  7  2  0  0  0
 14 10  1  0  0  0
  6  1  1  0  0  0
 42 37  1  0  0  0
 27 22  1  0  0  0
 34 32  1  0  0  0
 35 36  1  0  0  0
 20 21  1  0  0  0
 28 31  1  0  0  0
M  END
> <minimizedAffinity>
-7.64234

> <CNNscore>
0.2241869122

> <CNNaffinity>
6.4394559860

> <CNN_VS>
1.4436417818

> <CNNaffinity_variance>
0.3302986622

$$$$
[H]c1c([H])c([H])c(N2C(N3C([H])([H])C([H])([H])C([H])([H])C([H])([H])C3([H])[H])=Nc3c([H])c([H])c([H])c([H])c3C2([H])C([H])([H])C(=O)N([H])C([H])([H])c2c([H])c([H])c([H])c([H])c2[H])c([H])c1[H]


 34 38  0  0  0  0  0  0  0  0999 V2000
   -3.4118   22.2943  -25.5619 C   0  0  0  0  0  0  0  0  0  0  0  0
   -1.9569   22.2853  -25.7452 C   0  0  0  0  0  0  0  0  0  0  0  0
   -1.0510   21.9066  -24.7755 C   0  0  0  0  0  0  0  0  0  0  0  0
    0.2966   21.8034  -25.1096 C   0  0  0  0  0  0  0  0  0  0  0  0
    0.7554   22.0687  -26.3768 C   0  0  0  0  0  0  0  0  0  0  0  0
   -0.1321   22.4502  -27.3465 C   0  0  0  0  0  0  0  0  0  0  0  0
   -1.5014   22.5622  -27.0234 C   0  0  0  0  0  0  0  0  0  0  0  0
   -2.3603   23.1497  -27.9956 N   0  0  0  0  0  0  0  0  0  0  0  0
   -3.5891   23.4526  -27.6917 C   0  0  0  0  0  0  0  0  0  0  0  0
   -4.0665   23.2706  -26.3678 N   0  0  0  0  0  0  0  0  0  0  0  0
   -4.3986   24.0313  -28.7145 N   0  0  0  0  0  0  0  0  0  0  0  0
   -4.2344   25.4221  -29.0131 C   0  0  0  0  0  0  0  0  0  0  0  0
   -4.3469   25.6688  -30.5294 C   0  0  0  0  0  0  0  0  0  0  0  0
   -5.6912   25.1076  -30.9352 C   0  0  0  0  0  0  0  0  0  0  0  0
   -5.6555   23.6272  -30.7844 C   0  0  0  0  0  0  0  0  0  0  0  0
   -5.3300   23.1595  -29.3894 C   0  0  0  0  0  0  0  0  0  0  0  0
   -5.1492   24.0408  -25.8868 C   0  0  0  0  0  0  0  0  0  0  0  0
   -6.4401   23.5658  -25.8281 C   0  0  0  0  0  0  0  0  0  0  0  0
   -7.4664   24.3490  -25.3570 C   0  0  0  0  0  0  0  0  0  0  0  0
   -7.2637   25.6375  -24.9225 C   0  0  0  0  0  0  0  0  0  0  0  0
   -5.9700   26.1085  -24.9833 C   0  0  0  0  0  0  0  0  0  0  0  0
   -4.9368   25.3446  -25.4485 C   0  0  0  0  0  0  0  0  0  0  0  0
   -3.9707   22.0222  -24.2295 C   0  0  0  0  0  0  0  0  0  0  0  0
   -3.2185   24.0390  -23.2107 O   0  0  0  0  0  0  0  0  0  0  0  0
   -3.3665   22.7925  -23.1224 C   0  0  0  0  0  0  0  0  0  0  0  0
   -2.9288   22.1657  -21.9179 N   0  0  0  0  0  0  0  0  0  0  0  0
   -3.0201   21.1302  -21.7727 H   0  0  0  0  0  0  0  0  0  0  0  0
   -2.3432   22.9533  -20.8621 C   0  0  0  0  0  0  0  0  0  0  0  0
   -1.0031   22.4694  -20.4559 C   0  0  0  0  0  0  0  0  0  0  0  0
   -0.3974   21.4770  -21.1843 C   0  0  0  0  0  0  0  0  0  0  0  0
    0.8631   20.9892  -20.8453 C   0  0  0  0  0  0  0  0  0  0  0  0
    1.5259   21.5109  -19.7518 C   0  0  0  0  0  0  0  0  0  0  0  0
    0.9072   22.5183  -19.0150 C   0  0  0  0  0  0  0  0  0  0  0  0
   -0.3527   22.9938  -19.3680 C   0  0  0  0  0  0  0  0  0  0  0  0
 24 25  2  0  0  0
 25 23  1  0  0  0
 23  1  1  0  0  0
  1  2  1  0  0  0
  2  3  2  0  0  0
  3  4  1  0  0  0
  4  5  2  0  0  0
  5  6  1  0  0  0
  6  7  2  0  0  0
  7  8  1  0  0  0
  8  9  2  0  0  0
  9 11  1  0  0  0
 11 12  1  0  0  0
 12 13  1  0  0  0
 13 14  1  0  0  0
 14 15  1  0  0  0
 15 16  1  0  0  0
  9 10  1  0  0  0
 10 17  1  0  0  0
 17 18  2  0  0  0
 18 19  1  0  0  0
 19 20  2  0  0  0
 20 21  1  0  0  0
 21 22  2  0  0  0
 25 26  1  0  0  0
 26 28  1  0  0  0
 28 29  1  0  0  0
 29 30  2  0  0  0
 30 31  1  0  0  0
 31 32  2  0  0  0
 32 33  1  0  0  0
 33 34  2  0  0  0
 10  1  1  0  0  0
 22 17  1  0  0  0
 34 29  1  0  0  0
  7  2  1  0  0  0
 16 11  1  0  0  0
 26 27  1  0  0  0
M  END
> <minimizedAffinity>
-10.21750

> <CNNscore>
0.4071184397

> <CNNaffinity>
6.9926018715

> <CNN_VS>
2.8468172550

> <CNNaffinity_variance>
0.1876385957

$$$$
[H]c1c([H])c([H])c(N2C(N3C([H])([H])C([H])([H])C([H])([H])C([H])([H])C3([H])[H])=Nc3c([H])c([H])c([H])c([H])c3C2([H])C([H])([H])C(=O)N([H])C([H])([H])c2c([H])c([H])c([H])c([H])c2[H])c([H])c1[H]


 34 38  0  0  0  0  0  0  0  0999 V2000
   -3.1284   22.7979  -25.2911 C   0  0  0  0  0  0  0  0  0  0  0  0
   -1.7201   22.5689  -25.6294 C   0  0  0  0  0  0  0  0  0  0  0  0
   -0.7412   22.2417  -24.7133 C   0  0  0  0  0  0  0  0  0  0  0  0
    0.5313   21.9095  -25.1701 C   0  0  0  0  0  0  0  0  0  0  0  0
    0.8455   21.8984  -26.5071 C   0  0  0  0  0  0  0  0  0  0  0  0
   -0.1149   22.2259  -27.4257 C   0  0  0  0  0  0  0  0  0  0  0  0
   -1.4093   22.5677  -26.9789 C   0  0  0  0  0  0  0  0  0  0  0  0
   -2.3194   23.0924  -27.9404 N   0  0  0  0  0  0  0  0  0  0  0  0
   -3.4570   23.5993  -27.5624 C   0  0  0  0  0  0  0  0  0  0  0  0
   -3.7731   23.7037  -26.1830 N   0  0  0  0  0  0  0  0  0  0  0  0
   -4.3262   24.1005  -28.5772 N   0  0  0  0  0  0  0  0  0  0  0  0
   -4.1992   25.4711  -28.9720 C   0  0  0  0  0  0  0  0  0  0  0  0
   -4.3918   25.6180  -30.4932 C   0  0  0  0  0  0  0  0  0  0  0  0
   -5.7458   25.0149  -30.7928 C   0  0  0  0  0  0  0  0  0  0  0  0
   -5.6791   23.5479  -30.5499 C   0  0  0  0  0  0  0  0  0  0  0  0
   -5.2764   23.1753  -29.1465 C   0  0  0  0  0  0  0  0  0  0  0  0
   -4.6925   24.6776  -25.7326 C   0  0  0  0  0  0  0  0  0  0  0  0
   -6.0480   24.4498  -25.6534 C   0  0  0  0  0  0  0  0  0  0  0  0
   -6.9096   25.4259  -25.2135 C   0  0  0  0  0  0  0  0  0  0  0  0
   -6.4710   26.6717  -24.8319 C   0  0  0  0  0  0  0  0  0  0  0  0
   -5.1135   26.8949  -24.9130 C   0  0  0  0  0  0  0  0  0  0  0  0
   -4.2414   25.9369  -25.3478 C   0  0  0  0  0  0  0  0  0  0  0  0
   -3.5334   22.8264  -23.8780 C   0  0  0  0  0  0  0  0  0  0  0  0
   -5.0737   21.0410  -24.2110 O   0  0  0  0  0  0  0  0  0  0  0  0
   -4.7628   22.0710  -23.5585 C   0  0  0  0  0  0  0  0  0  0  0  0
   -5.6423   22.4703  -22.5086 N   0  0  0  0  0  0  0  0  0  0  0  0
   -5.4482   23.3186  -21.9218 H   0  0  0  0  0  0  0  0  0  0  0  0
   -6.8325   21.7063  -22.2299 C   0  0  0  0  0  0  0  0  0  0  0  0
   -7.9194   22.5241  -21.6426 C   0  0  0  0  0  0  0  0  0  0  0  0
   -8.0683   23.8289  -22.0393 C   0  0  0  0  0  0  0  0  0  0  0  0
   -9.0760   24.6389  -21.5191 C   0  0  0  0  0  0  0  0  0  0  0  0
   -9.9500   24.1246  -20.5818 C   0  0  0  0  0  0  0  0  0  0  0  0
   -9.7952   22.7993  -20.1818 C   0  0  0  0  0  0  0  0  0  0  0  0
   -8.7827   22.0043  -20.7119 C   0  0  0  0  0  0  0  0  0  0  0  0
 24 25  2  0  0  0
 25 23  1  0  0  0
 23  1  1  0  0  0
  1  2  1  0  0  0
  2  3  2  0  0  0
  3  4  1  0  0  0
  4  5  2  0  0  0
  5  6  1  0  0  0
  6  7  2  0  0  0
  7  8  1  0  0  0
  8  9  2  0  0  0
  9 11  1  0  0  0
 11 12  1  0  0  0
 12 13  1  0  0  0
 13 14  1  0  0  0
 14 15  1  0  0  0
 15 16  1  0  0  0
  9 10  1  0  0  0
 10 17  1  0  0  0
 17 18  2  0  0  0
 18 19  1  0  0  0
 19 20  2  0  0  0
 20 21  1  0  0  0
 21 22  2  0  0  0
 25 26  1  0  0  0
 26 28  1  0  0  0
 28 29  1  0  0  0
 29 30  2  0  0  0
 30 31  1  0  0  0
 31 32  2  0  0  0
 32 33  1  0  0  0
 33 34  2  0  0  0
 10  1  1  0  0  0
 22 17  1  0  0  0
 34 29  1  0  0  0
  7  2  1  0  0  0
 16 11  1  0  0  0
 26 27  1  0  0  0
M  END
> <minimizedAffinity>
-10.46813

> <CNNscore>
0.2613638639

> <CNNaffinity>
6.7397065163

> <CNN_VS>
1.7615157366

> <CNNaffinity_variance>
0.2054297030

$$$$
[H]c1c([H])c([H])c(N2C(N3C([H])([H])C([H])([H])C([H])([H])C([H])([H])C3([H])[H])=Nc3c([H])c([H])c([H])c([H])c3C2([H])C([H])([H])C(=O)N([H])C([H])([H])c2c([H])c([H])c([H])c([H])c2[H])c([H])c1[H]


 34 38  0  0  0  0  0  0  0  0999 V2000
   -3.4578   22.2556  -25.8266 C   0  0  0  0  0  0  0  0  0  0  0  0
   -1.9995   22.2806  -25.9787 C   0  0  0  0  0  0  0  0  0  0  0  0
   -1.1073   21.8634  -25.0120 C   0  0  0  0  0  0  0  0  0  0  0  0
    0.2484   21.8009  -25.3222 C   0  0  0  0  0  0  0  0  0  0  0  0
    0.7286   22.1436  -26.5626 C   0  0  0  0  0  0  0  0  0  0  0  0
   -0.1453   22.5638  -27.5287 C   0  0  0  0  0  0  0  0  0  0  0  0
   -1.5227   22.6354  -27.2295 C   0  0  0  0  0  0  0  0  0  0  0  0
   -2.3715   23.2618  -28.1862 N   0  0  0  0  0  0  0  0  0  0  0  0
   -3.6114   23.5273  -27.8925 C   0  0  0  0  0  0  0  0  0  0  0  0
   -4.1128   23.2643  -26.5913 N   0  0  0  0  0  0  0  0  0  0  0  0
   -4.4097   24.1486  -28.8991 N   0  0  0  0  0  0  0  0  0  0  0  0
   -4.1837   25.5310  -29.1959 C   0  0  0  0  0  0  0  0  0  0  0  0
   -4.3105   25.7892  -30.7092 C   0  0  0  0  0  0  0  0  0  0  0  0
   -5.6871   25.2951  -31.0932 C   0  0  0  0  0  0  0  0  0  0  0  0
   -5.7203   23.8141  -30.9479 C   0  0  0  0  0  0  0  0  0  0  0  0
   -5.3936   23.3255  -29.5604 C   0  0  0  0  0  0  0  0  0  0  0  0
   -5.2184   23.9889  -26.0920 C   0  0  0  0  0  0  0  0  0  0  0  0
   -6.4958   23.4764  -26.0541 C   0  0  0  0  0  0  0  0  0  0  0  0
   -7.5454   24.2159  -25.5640 C   0  0  0  0  0  0  0  0  0  0  0  0
   -7.3805   25.4955  -25.0892 C   0  0  0  0  0  0  0  0  0  0  0  0
   -6.1003   26.0040  -25.1293 C   0  0  0  0  0  0  0  0  0  0  0  0
   -5.0443   25.2840  -25.6129 C   0  0  0  0  0  0  0  0  0  0  0  0
   -4.0392   21.9009  -24.5235 C   0  0  0  0  0  0  0  0  0  0  0  0
   -3.0332   23.6982  -23.3282 O   0  0  0  0  0  0  0  0  0  0  0  0
   -4.0535   22.9876  -23.5220 C   0  0  0  0  0  0  0  0  0  0  0  0
   -5.2103   23.2769  -22.7390 N   0  0  0  0  0  0  0  0  0  0  0  0
   -6.0978   22.7267  -22.8455 H   0  0  0  0  0  0  0  0  0  0  0  0
   -5.1824   24.3451  -21.7715 C   0  0  0  0  0  0  0  0  0  0  0  0
   -5.4958   23.8882  -20.3974 C   0  0  0  0  0  0  0  0  0  0  0  0
   -4.9159   22.7392  -19.9224 C   0  0  0  0  0  0  0  0  0  0  0  0
   -5.1759   22.2687  -18.6367 C   0  0  0  0  0  0  0  0  0  0  0  0
   -6.0363   22.9689  -17.8142 C   0  0  0  0  0  0  0  0  0  0  0  0
   -6.6229   24.1349  -18.3006 C   0  0  0  0  0  0  0  0  0  0  0  0
   -6.3519   24.5905  -19.5879 C   0  0  0  0  0  0  0  0  0  0  0  0
 24 25  2  0  0  0
 25 23  1  0  0  0
 23  1  1  0  0  0
  1  2  1  0  0  0
  2  3  2  0  0  0
  3  4  1  0  0  0
  4  5  2  0  0  0
  5  6  1  0  0  0
  6  7  2  0  0  0
  7  8  1  0  0  0
  8  9  2  0  0  0
  9 11  1  0  0  0
 11 12  1  0  0  0
 12 13  1  0  0  0
 13 14  1  0  0  0
 14 15  1  0  0  0
 15 16  1  0  0  0
  9 10  1  0  0  0
 10 17  1  0  0  0
 17 18  2  0  0  0
 18 19  1  0  0  0
 19 20  2  0  0  0
 20 21  1  0  0  0
 21 22  2  0  0  0
 25 26  1  0  0  0
 26 28  1  0  0  0
 28 29  1  0  0  0
 29 30  2  0  0  0
 30 31  1  0  0  0
 31 32  2  0  0  0
 32 33  1  0  0  0
 33 34  2  0  0  0
 10  1  1  0  0  0
 22 17  1  0  0  0
 34 29  1  0  0  0
  7  2  1  0  0  0
 16 11  1  0  0  0
 26 27  1  0  0  0
M  END
> <minimizedAffinity>
-10.15585

> <CNNscore>
0.2461690456

> <CNNaffinity>
6.6121535301

> <CNN_VS>
1.6277074814

> <CNNaffinity_variance>
0.3394871354

$$$$
[H]c1c([H])c([H])c(N2C(N3C([H])([H])C([H])([H])C([H])([H])C([H])([H])C3([H])[H])=Nc3c([H])c([H])c([H])c([H])c3C2([H])C([H])([H])C(=O)N([H])C([H])([H])c2c([H])c([H])c([H])c([H])c2[H])c([H])c1[H]


 34 38  0  0  0  0  0  0  0  0999 V2000
   -3.0251   22.8379  -25.1216 C   0  0  0  0  0  0  0  0  0  0  0  0
   -1.5954   22.5412  -25.2571 C   0  0  0  0  0  0  0  0  0  0  0  0
   -0.7473   22.2900  -24.1980 C   0  0  0  0  0  0  0  0  0  0  0  0
    0.5582   21.8813  -24.4568 C   0  0  0  0  0  0  0  0  0  0  0  0
    1.0314   21.7212  -25.7363 C   0  0  0  0  0  0  0  0  0  0  0  0
    0.2017   21.9721  -26.7957 C   0  0  0  0  0  0  0  0  0  0  0  0
   -1.1239   22.3897  -26.5504 C   0  0  0  0  0  0  0  0  0  0  0  0
   -1.8912   22.8308  -27.6660 N   0  0  0  0  0  0  0  0  0  0  0  0
   -3.0470   23.4016  -27.4861 C   0  0  0  0  0  0  0  0  0  0  0  0
   -3.5237   23.6590  -26.1745 N   0  0  0  0  0  0  0  0  0  0  0  0
   -3.7681   23.8129  -28.6468 N   0  0  0  0  0  0  0  0  0  0  0  0
   -4.7571   22.9296  -29.1873 C   0  0  0  0  0  0  0  0  0  0  0  0
   -5.9804   23.7230  -29.6838 C   0  0  0  0  0  0  0  0  0  0  0  0
   -5.4401   24.7242  -30.6800 C   0  0  0  0  0  0  0  0  0  0  0  0
   -4.6028   25.7169  -29.9528 C   0  0  0  0  0  0  0  0  0  0  0  0
   -3.4509   25.1103  -29.1938 C   0  0  0  0  0  0  0  0  0  0  0  0
   -4.4547   24.6966  -25.9437 C   0  0  0  0  0  0  0  0  0  0  0  0
   -4.0805   25.9899  -25.6554 C   0  0  0  0  0  0  0  0  0  0  0  0
   -5.0181   26.9697  -25.4332 C   0  0  0  0  0  0  0  0  0  0  0  0
   -6.3683   26.7162  -25.4856 C   0  0  0  0  0  0  0  0  0  0  0  0
   -6.7379   25.4204  -25.7744 C   0  0  0  0  0  0  0  0  0  0  0  0
   -5.8202   24.4328  -25.9983 C   0  0  0  0  0  0  0  0  0  0  0  0
   -3.5969   23.0255  -23.7800 C   0  0  0  0  0  0  0  0  0  0  0  0
   -5.1950   21.3321  -24.2794 O   0  0  0  0  0  0  0  0  0  0  0  0
   -4.8244   22.2505  -23.5031 C   0  0  0  0  0  0  0  0  0  0  0  0
   -5.6351   22.5051  -22.3573 N   0  0  0  0  0  0  0  0  0  0  0  0
   -5.3890   23.2552  -21.6656 H   0  0  0  0  0  0  0  0  0  0  0  0
   -6.8259   21.7269  -22.1242 C   0  0  0  0  0  0  0  0  0  0  0  0
   -7.9437   22.5313  -21.5777 C   0  0  0  0  0  0  0  0  0  0  0  0
   -8.7962   21.9643  -20.6646 C   0  0  0  0  0  0  0  0  0  0  0  0
   -9.8608   22.6791  -20.1190 C   0  0  0  0  0  0  0  0  0  0  0  0
  -10.0704   23.9896  -20.5005 C   0  0  0  0  0  0  0  0  0  0  0  0
   -9.2025   24.5613  -21.4279 C   0  0  0  0  0  0  0  0  0  0  0  0
   -8.1438   23.8325  -21.9630 C   0  0  0  0  0  0  0  0  0  0  0  0
 24 25  2  0  0  0
 25 23  1  0  0  0
 23  1  1  0  0  0
  1  2  1  0  0  0
  2  3  2  0  0  0
  3  4  1  0  0  0
  4  5  2  0  0  0
  5  6  1  0  0  0
  6  7  2  0  0  0
  7  8  1  0  0  0
  8  9  2  0  0  0
  9 11  1  0  0  0
 11 12  1  0  0  0
 12 13  1  0  0  0
 13 14  1  0  0  0
 14 15  1  0  0  0
 15 16  1  0  0  0
  9 10  1  0  0  0
 10 17  1  0  0  0
 17 18  2  0  0  0
 18 19  1  0  0  0
 19 20  2  0  0  0
 20 21  1  0  0  0
 21 22  2  0  0  0
 25 26  1  0  0  0
 26 28  1  0  0  0
 28 29  1  0  0  0
 29 30  2  0  0  0
 30 31  1  0  0  0
 31 32  2  0  0  0
 32 33  1  0  0  0
 33 34  2  0  0  0
 10  1  1  0  0  0
 22 17  1  0  0  0
 34 29  1  0  0  0
  7  2  1  0  0  0
 16 11  1  0  0  0
 26 27  1  0  0  0
M  END
> <minimizedAffinity>
-9.65475

> <CNNscore>
0.2456478328

> <CNNaffinity>
6.7999534607

> <CNN_VS>
1.6703938246

> <CNNaffinity_variance>
0.1023341045

$$$$
[H]c1c([H])c([H])c(N2C(N3C([H])([H])C([H])([H])C([H])([H])C([H])([H])C3([H])[H])=Nc3c([H])c([H])c([H])c([H])c3C2([H])C([H])([H])C(=O)N([H])C([H])([H])c2c([H])c([H])c([H])c([H])c2[H])c([H])c1[H]


 34 38  0  0  0  0  0  0  0  0999 V2000
    1.2981   21.0775  -19.0727 C   0  0  0  0  0  0  0  0  0  0  0  0
    2.0225   21.9793  -18.1713 C   0  0  0  0  0  0  0  0  0  0  0  0
    2.7254   23.0935  -18.5822 C   0  0  0  0  0  0  0  0  0  0  0  0
    3.2546   23.9531  -17.6234 C   0  0  0  0  0  0  0  0  0  0  0  0
    3.1007   23.7265  -16.2774 C   0  0  0  0  0  0  0  0  0  0  0  0
    2.4100   22.6222  -15.8567 C   0  0  0  0  0  0  0  0  0  0  0  0
    1.8695   21.7394  -16.8160 C   0  0  0  0  0  0  0  0  0  0  0  0
    1.3343   20.5060  -16.3465 N   0  0  0  0  0  0  0  0  0  0  0  0
    0.9941   19.5730  -17.1878 C   0  0  0  0  0  0  0  0  0  0  0  0
    1.2210   19.7430  -18.5782 N   0  0  0  0  0  0  0  0  0  0  0  0
    0.4570   18.3645  -16.6516 N   0  0  0  0  0  0  0  0  0  0  0  0
   -0.9653   18.2012  -16.6218 C   0  0  0  0  0  0  0  0  0  0  0  0
   -1.3520   16.7481  -16.9557 C   0  0  0  0  0  0  0  0  0  0  0  0
   -0.6136   15.8891  -15.9539 C   0  0  0  0  0  0  0  0  0  0  0  0
    0.8457   15.9766  -16.2342 C   0  0  0  0  0  0  0  0  0  0  0  0
    1.3986   17.3773  -16.1806 C   0  0  0  0  0  0  0  0  0  0  0  0
    1.3647   18.6181  -19.4213 C   0  0  0  0  0  0  0  0  0  0  0  0
    2.5783   18.0175  -19.6704 C   0  0  0  0  0  0  0  0  0  0  0  0
    2.6759   16.9267  -20.5006 C   0  0  0  0  0  0  0  0  0  0  0  0
    1.5786   16.3798  -21.1227 C   0  0  0  0  0  0  0  0  0  0  0  0
    0.3662   16.9845  -20.8703 C   0  0  0  0  0  0  0  0  0  0  0  0
    0.2495   18.0696  -20.0478 C   0  0  0  0  0  0  0  0  0  0  0  0
    1.4218   21.2612  -20.5262 C   0  0  0  0  0  0  0  0  0  0  0  0
   -0.7160   22.2999  -20.6731 O   0  0  0  0  0  0  0  0  0  0  0  0
    0.1656   21.5950  -21.2293 C   0  0  0  0  0  0  0  0  0  0  0  0
   -0.1017   21.1389  -22.5543 N   0  0  0  0  0  0  0  0  0  0  0  0
    0.5867   20.5470  -23.0812 H   0  0  0  0  0  0  0  0  0  0  0  0
   -1.3406   21.4858  -23.2045 C   0  0  0  0  0  0  0  0  0  0  0  0
   -1.1644   21.8375  -24.6329 C   0  0  0  0  0  0  0  0  0  0  0  0
    0.0992   22.0547  -25.1209 C   0  0  0  0  0  0  0  0  0  0  0  0
    0.3183   22.3854  -26.4568 C   0  0  0  0  0  0  0  0  0  0  0  0
   -0.7559   22.4994  -27.3172 C   0  0  0  0  0  0  0  0  0  0  0  0
   -2.0371   22.2782  -26.8175 C   0  0  0  0  0  0  0  0  0  0  0  0
   -2.2378   21.9486  -25.4798 C   0  0  0  0  0  0  0  0  0  0  0  0
 24 25  2  0  0  0
 25 23  1  0  0  0
 23  1  1  0  0  0
  1  2  1  0  0  0
  2  3  2  0  0  0
  3  4  1  0  0  0
  4  5  2  0  0  0
  5  6  1  0  0  0
  6  7  2  0  0  0
  7  8  1  0  0  0
  8  9  2  0  0  0
  9 11  1  0  0  0
 11 12  1  0  0  0
 12 13  1  0  0  0
 13 14  1  0  0  0
 14 15  1  0  0  0
 15 16  1  0  0  0
  9 10  1  0  0  0
 10 17  1  0  0  0
 17 18  2  0  0  0
 18 19  1  0  0  0
 19 20  2  0  0  0
 20 21  1  0  0  0
 21 22  2  0  0  0
 25 26  1  0  0  0
 26 28  1  0  0  0
 28 29  1  0  0  0
 29 30  2  0  0  0
 30 31  1  0  0  0
 31 32  2  0  0  0
 32 33  1  0  0  0
 33 34  2  0  0  0
 10  1  1  0  0  0
 22 17  1  0  0  0
 34 29  1  0  0  0
  7  2  1  0  0  0
 16 11  1  0  0  0
 26 27  1  0  0  0
M  END
> <minimizedAffinity>
-6.82896

> <CNNscore>
0.2216438502

> <CNNaffinity>
5.2665147781

> <CNN_VS>
1.1672905684

> <CNNaffinity_variance>
0.1885571033

$$$$
[H]c1c([H])c([H])c(N2C(N3C([H])([H])C([H])([H])C([H])([H])C([H])([H])C3([H])[H])=Nc3c([H])c([H])c([H])c([H])c3C2([H])C([H])([H])C(=O)N([H])C([H])([H])c2c([H])c([H])c([H])c([H])c2[H])c([H])c1[H]


 34 38  0  0  0  0  0  0  0  0999 V2000
   -3.4674   22.1700  -25.7031 C   0  0  0  0  0  0  0  0  0  0  0  0
   -2.0075   22.2140  -25.8339 C   0  0  0  0  0  0  0  0  0  0  0  0
   -1.1244   21.7839  -24.8646 C   0  0  0  0  0  0  0  0  0  0  0  0
    0.2362   21.7430  -25.1570 C   0  0  0  0  0  0  0  0  0  0  0  0
    0.7298   22.1197  -26.3822 C   0  0  0  0  0  0  0  0  0  0  0  0
   -0.1351   22.5530  -27.3505 C   0  0  0  0  0  0  0  0  0  0  0  0
   -1.5172   22.6030  -27.0693 C   0  0  0  0  0  0  0  0  0  0  0  0
   -2.3594   23.2426  -28.0230 N   0  0  0  0  0  0  0  0  0  0  0  0
   -3.6061   23.4880  -27.7409 C   0  0  0  0  0  0  0  0  0  0  0  0
   -4.1226   23.1894  -26.4534 N   0  0  0  0  0  0  0  0  0  0  0  0
   -4.3970   24.1242  -28.7440 N   0  0  0  0  0  0  0  0  0  0  0  0
   -4.1832   25.5159  -29.0042 C   0  0  0  0  0  0  0  0  0  0  0  0
   -4.2911   25.8091  -30.5125 C   0  0  0  0  0  0  0  0  0  0  0  0
   -5.6560   25.3085  -30.9286 C   0  0  0  0  0  0  0  0  0  0  0  0
   -5.6737   23.8242  -30.8194 C   0  0  0  0  0  0  0  0  0  0  0  0
   -5.3614   23.3060  -29.4394 C   0  0  0  0  0  0  0  0  0  0  0  0
   -5.2430   23.8903  -25.9531 C   0  0  0  0  0  0  0  0  0  0  0  0
   -6.5149   23.3631  -25.9439 C   0  0  0  0  0  0  0  0  0  0  0  0
   -7.5792   24.0797  -25.4518 C   0  0  0  0  0  0  0  0  0  0  0  0
   -7.4352   25.3501  -24.9464 C   0  0  0  0  0  0  0  0  0  0  0  0
   -6.1604   25.8735  -24.9577 C   0  0  0  0  0  0  0  0  0  0  0  0
   -5.0899   25.1761  -25.4429 C   0  0  0  0  0  0  0  0  0  0  0  0
   -4.0630   21.7789  -24.4170 C   0  0  0  0  0  0  0  0  0  0  0  0
   -3.1370   23.6155  -23.2169 O   0  0  0  0  0  0  0  0  0  0  0  0
   -4.1162   22.8457  -23.3957 C   0  0  0  0  0  0  0  0  0  0  0  0
   -5.2660   23.0489  -22.5760 N   0  0  0  0  0  0  0  0  0  0  0  0
   -6.1202   22.4459  -22.6682 H   0  0  0  0  0  0  0  0  0  0  0  0
   -5.2770   24.1004  -21.5902 C   0  0  0  0  0  0  0  0  0  0  0  0
   -6.6391   24.6060  -21.3001 C   0  0  0  0  0  0  0  0  0  0  0  0
   -7.7270   23.8534  -21.6635 C   0  0  0  0  0  0  0  0  0  0  0  0
   -9.0284   24.2830  -21.4108 C   0  0  0  0  0  0  0  0  0  0  0  0
   -9.2376   25.4936  -20.7801 C   0  0  0  0  0  0  0  0  0  0  0  0
   -8.1301   26.2545  -20.4129 C   0  0  0  0  0  0  0  0  0  0  0  0
   -6.8368   25.8099  -20.6731 C   0  0  0  0  0  0  0  0  0  0  0  0
 24 25  2  0  0  0
 25 23  1  0  0  0
 23  1  1  0  0  0
  1  2  1  0  0  0
  2  3  2  0  0  0
  3  4  1  0  0  0
  4  5  2  0  0  0
  5  6  1  0  0  0
  6  7  2  0  0  0
  7  8  1  0  0  0
  8  9  2  0  0  0
  9 11  1  0  0  0
 11 12  1  0  0  0
 12 13  1  0  0  0
 13 14  1  0  0  0
 14 15  1  0  0  0
 15 16  1  0  0  0
  9 10  1  0  0  0
 10 17  1  0  0  0
 17 18  2  0  0  0
 18 19  1  0  0  0
 19 20  2  0  0  0
 20 21  1  0  0  0
 21 22  2  0  0  0
 25 26  1  0  0  0
 26 28  1  0  0  0
 28 29  1  0  0  0
 29 30  2  0  0  0
 30 31  1  0  0  0
 31 32  2  0  0  0
 32 33  1  0  0  0
 33 34  2  0  0  0
 10  1  1  0  0  0
 22 17  1  0  0  0
 34 29  1  0  0  0
  7  2  1  0  0  0
 16 11  1  0  0  0
 26 27  1  0  0  0
M  END
> <minimizedAffinity>
-10.43769

> <CNNscore>
0.2134051919

> <CNNaffinity>
6.5786767006

> <CNN_VS>
1.4039237499

> <CNNaffinity_variance>
0.4237715602

$$$$
[H]c1c([H])c([H])c(N2C(N3C([H])([H])C([H])([H])C([H])([H])C([H])([H])C3([H])[H])=Nc3c([H])c([H])c([H])c([H])c3C2([H])C([H])([H])C(=O)N([H])C([H])([H])c2c([H])c([H])c([H])c([H])c2[H])c([H])c1[H]


 34 38  0  0  0  0  0  0  0  0999 V2000
   -3.0953   23.1352  -24.9964 C   0  0  0  0  0  0  0  0  0  0  0  0
   -1.7043   22.7893  -25.3060 C   0  0  0  0  0  0  0  0  0  0  0  0
   -0.7292   22.5559  -24.3578 C   0  0  0  0  0  0  0  0  0  0  0  0
    0.5196   22.0970  -24.7680 C   0  0  0  0  0  0  0  0  0  0  0  0
    0.8140   21.8698  -26.0903 C   0  0  0  0  0  0  0  0  0  0  0  0
   -0.1428   22.1023  -27.0411 C   0  0  0  0  0  0  0  0  0  0  0  0
   -1.4131   22.5703  -26.6420 C   0  0  0  0  0  0  0  0  0  0  0  0
   -2.3108   22.9884  -27.6653 N   0  0  0  0  0  0  0  0  0  0  0  0
   -3.4177   23.6015  -27.3602 C   0  0  0  0  0  0  0  0  0  0  0  0
   -3.7089   23.9272  -26.0101 N   0  0  0  0  0  0  0  0  0  0  0  0
   -4.2764   23.9865  -28.4329 N   0  0  0  0  0  0  0  0  0  0  0  0
   -4.1686   25.3163  -28.9529 C   0  0  0  0  0  0  0  0  0  0  0  0
   -4.3342   25.3156  -30.4843 C   0  0  0  0  0  0  0  0  0  0  0  0
   -5.6700   24.6583  -30.7496 C   0  0  0  0  0  0  0  0  0  0  0  0
   -5.5794   23.2224  -30.3683 C   0  0  0  0  0  0  0  0  0  0  0  0
   -5.1971   22.9919  -28.9291 C   0  0  0  0  0  0  0  0  0  0  0  0
   -4.5746   25.0016  -25.7053 C   0  0  0  0  0  0  0  0  0  0  0  0
   -5.9182   24.8345  -25.4549 C   0  0  0  0  0  0  0  0  0  0  0  0
   -6.7274   25.9071  -25.1660 C   0  0  0  0  0  0  0  0  0  0  0  0
   -6.2458   27.1936  -25.1115 C   0  0  0  0  0  0  0  0  0  0  0  0
   -4.9006   27.3557  -25.3628 C   0  0  0  0  0  0  0  0  0  0  0  0
   -4.0803   26.3016  -25.6518 C   0  0  0  0  0  0  0  0  0  0  0  0
   -3.4784   23.3953  -23.6009 C   0  0  0  0  0  0  0  0  0  0  0  0
   -3.7053   21.1102  -22.9706 O   0  0  0  0  0  0  0  0  0  0  0  0
   -3.2911   22.2605  -22.6730 C   0  0  0  0  0  0  0  0  0  0  0  0
   -2.6403   22.4155  -21.4130 N   0  0  0  0  0  0  0  0  0  0  0  0
   -2.2688   23.3450  -21.0970 H   0  0  0  0  0  0  0  0  0  0  0  0
   -2.4788   21.2829  -20.5361 C   0  0  0  0  0  0  0  0  0  0  0  0
   -2.7432   21.6101  -19.1155 C   0  0  0  0  0  0  0  0  0  0  0  0
   -3.8982   22.2708  -18.7815 C   0  0  0  0  0  0  0  0  0  0  0  0
   -4.1946   22.5990  -17.4600 C   0  0  0  0  0  0  0  0  0  0  0  0
   -3.3107   22.2552  -16.4561 C   0  0  0  0  0  0  0  0  0  0  0  0
   -2.1392   21.5846  -16.7998 C   0  0  0  0  0  0  0  0  0  0  0  0
   -1.8590   21.2645  -18.1253 C   0  0  0  0  0  0  0  0  0  0  0  0
 24 25  2  0  0  0
 25 23  1  0  0  0
 23  1  1  0  0  0
  1  2  1  0  0  0
  2  3  2  0  0  0
  3  4  1  0  0  0
  4  5  2  0  0  0
  5  6  1  0  0  0
  6  7  2  0  0  0
  7  8  1  0  0  0
  8  9  2  0  0  0
  9 11  1  0  0  0
 11 12  1  0  0  0
 12 13  1  0  0  0
 13 14  1  0  0  0
 14 15  1  0  0  0
 15 16  1  0  0  0
  9 10  1  0  0  0
 10 17  1  0  0  0
 17 18  2  0  0  0
 18 19  1  0  0  0
 19 20  2  0  0  0
 20 21  1  0  0  0
 21 22  2  0  0  0
 25 26  1  0  0  0
 26 28  1  0  0  0
 28 29  1  0  0  0
 29 30  2  0  0  0
 30 31  1  0  0  0
 31 32  2  0  0  0
 32 33  1  0  0  0
 33 34  2  0  0  0
 10  1  1  0  0  0
 22 17  1  0  0  0
 34 29  1  0  0  0
  7  2  1  0  0  0
 16 11  1  0  0  0
 26 27  1  0  0  0
M  END
> <minimizedAffinity>
-8.86800

> <CNNscore>
0.2044840753

> <CNNaffinity>
6.7181906700

> <CNN_VS>
1.3737629652

> <CNNaffinity_variance>
0.0414142646

$$$$
[H]c1c([H])c([H])c(N2C(N3C([H])([H])C([H])([H])C([H])([H])C([H])([H])C3([H])[H])=Nc3c([H])c([H])c([H])c([H])c3C2([H])C([H])([H])C(=O)N([H])C([H])([H])c2c([H])c([H])c([H])c([H])c2[H])c([H])c1[H]


 34 38  0  0  0  0  0  0  0  0999 V2000
   -0.9412   20.5447  -18.9843 C   0  0  0  0  0  0  0  0  0  0  0  0
   -1.6861   20.1890  -17.7723 C   0  0  0  0  0  0  0  0  0  0  0  0
   -2.4674   21.0685  -17.0509 C   0  0  0  0  0  0  0  0  0  0  0  0
   -3.2399   20.5834  -15.9990 C   0  0  0  0  0  0  0  0  0  0  0  0
   -3.2483   19.2540  -15.6539 C   0  0  0  0  0  0  0  0  0  0  0  0
   -2.4739   18.3721  -16.3583 C   0  0  0  0  0  0  0  0  0  0  0  0
   -1.6829   18.8482  -17.4258 C   0  0  0  0  0  0  0  0  0  0  0  0
   -0.7453   17.9449  -18.0030 N   0  0  0  0  0  0  0  0  0  0  0  0
    0.1392   18.3708  -18.8576 C   0  0  0  0  0  0  0  0  0  0  0  0
    0.2291   19.7523  -19.1689 N   0  0  0  0  0  0  0  0  0  0  0  0
    1.0440   17.4121  -19.4043 N   0  0  0  0  0  0  0  0  0  0  0  0
    0.7434   16.8367  -20.6805 C   0  0  0  0  0  0  0  0  0  0  0  0
    2.0274   16.6617  -21.5131 C   0  0  0  0  0  0  0  0  0  0  0  0
    2.9534   15.8214  -20.6627 C   0  0  0  0  0  0  0  0  0  0  0  0
    3.3663   16.6189  -19.4757 C   0  0  0  0  0  0  0  0  0  0  0  0
    2.2168   17.0947  -18.6254 C   0  0  0  0  0  0  0  0  0  0  0  0
    1.4432   20.3008  -19.6398 C   0  0  0  0  0  0  0  0  0  0  0  0
    1.7207   20.4704  -20.9777 C   0  0  0  0  0  0  0  0  0  0  0  0
    2.9164   21.0043  -21.3948 C   0  0  0  0  0  0  0  0  0  0  0  0
    3.8923   21.3949  -20.5088 C   0  0  0  0  0  0  0  0  0  0  0  0
    3.6099   21.2232  -19.1709 C   0  0  0  0  0  0  0  0  0  0  0  0
    2.4269   20.6942  -18.7372 C   0  0  0  0  0  0  0  0  0  0  0  0
   -0.8877   21.9513  -19.4091 C   0  0  0  0  0  0  0  0  0  0  0  0
   -2.0584   23.4171  -20.8759 O   0  0  0  0  0  0  0  0  0  0  0  0
   -1.6114   22.2609  -20.6598 C   0  0  0  0  0  0  0  0  0  0  0  0
   -1.8336   21.2751  -21.6668 N   0  0  0  0  0  0  0  0  0  0  0  0
   -1.4899   20.2895  -21.5564 H   0  0  0  0  0  0  0  0  0  0  0  0
   -2.5456   21.6178  -22.8723 C   0  0  0  0  0  0  0  0  0  0  0  0
   -1.6492   21.8239  -24.0338 C   0  0  0  0  0  0  0  0  0  0  0  0
   -2.1947   22.0404  -25.2739 C   0  0  0  0  0  0  0  0  0  0  0  0
   -1.3951   22.2423  -26.3972 C   0  0  0  0  0  0  0  0  0  0  0  0
   -0.0202   22.2257  -26.2688 C   0  0  0  0  0  0  0  0  0  0  0  0
    0.5293   22.0055  -25.0079 C   0  0  0  0  0  0  0  0  0  0  0  0
   -0.2845   21.8056  -23.8963 C   0  0  0  0  0  0  0  0  0  0  0  0
 24 25  2  0  0  0
 25 23  1  0  0  0
 23  1  1  0  0  0
  1  2  1  0  0  0
  2  3  2  0  0  0
  3  4  1  0  0  0
  4  5  2  0  0  0
  5  6  1  0  0  0
  6  7  2  0  0  0
  7  8  1  0  0  0
  8  9  2  0  0  0
  9 11  1  0  0  0
 11 12  1  0  0  0
 12 13  1  0  0  0
 13 14  1  0  0  0
 14 15  1  0  0  0
 15 16  1  0  0  0
  9 10  1  0  0  0
 10 17  1  0  0  0
 17 18  2  0  0  0
 18 19  1  0  0  0
 19 20  2  0  0  0
 20 21  1  0  0  0
 21 22  2  0  0  0
 25 26  1  0  0  0
 26 28  1  0  0  0
 28 29  1  0  0  0
 29 30  2  0  0  0
 30 31  1  0  0  0
 31 32  2  0  0  0
 32 33  1  0  0  0
 33 34  2  0  0  0
 10  1  1  0  0  0
 22 17  1  0  0  0
 34 29  1  0  0  0
  7  2  1  0  0  0
 16 11  1  0  0  0
 26 27  1  0  0  0
M  END
> <minimizedAffinity>
-6.36168

> <CNNscore>
0.1984875202

> <CNNaffinity>
5.4690356255

> <CNN_VS>
1.0855352879

> <CNNaffinity_variance>
0.2664818168

$$$$
[H]c1c([H])c([H])c(N2C(N3C([H])([H])C([H])([H])C([H])([H])C([H])([H])C3([H])[H])=Nc3c([H])c([H])c([H])c([H])c3C2([H])C([H])([H])C(=O)N([H])C([H])([H])c2c([H])c([H])c([H])c([H])c2[H])c([H])c1[H]


 34 38  0  0  0  0  0  0  0  0999 V2000
   -1.1461   21.5031  -19.6313 C   0  0  0  0  0  0  0  0  0  0  0  0
   -1.9770   21.5411  -18.4236 C   0  0  0  0  0  0  0  0  0  0  0  0
   -2.6276   22.6662  -17.9597 C   0  0  0  0  0  0  0  0  0  0  0  0
   -3.5016   22.5484  -16.8824 C   0  0  0  0  0  0  0  0  0  0  0  0
   -3.7370   21.3450  -16.2635 C   0  0  0  0  0  0  0  0  0  0  0  0
   -3.0942   20.2224  -16.7108 C   0  0  0  0  0  0  0  0  0  0  0  0
   -2.2028   20.3253  -17.8001 C   0  0  0  0  0  0  0  0  0  0  0  0
   -1.4067   19.1854  -18.1080 N   0  0  0  0  0  0  0  0  0  0  0  0
   -0.4381   19.2728  -18.9730 C   0  0  0  0  0  0  0  0  0  0  0  0
   -0.1149   20.5215  -19.5647 N   0  0  0  0  0  0  0  0  0  0  0  0
    0.3158   18.0913  -19.2415 N   0  0  0  0  0  0  0  0  0  0  0  0
   -0.0122   17.3185  -20.4015 C   0  0  0  0  0  0  0  0  0  0  0  0
    1.2643   16.7744  -21.0701 C   0  0  0  0  0  0  0  0  0  0  0  0
    1.9865   15.9935  -19.9953 C   0  0  0  0  0  0  0  0  0  0  0  0
    2.4677   16.9444  -18.9563 C   0  0  0  0  0  0  0  0  0  0  0  0
    1.3744   17.7614  -18.3176 C   0  0  0  0  0  0  0  0  0  0  0  0
    1.1865   20.7618  -20.0598 C   0  0  0  0  0  0  0  0  0  0  0  0
    2.2103   21.2440  -19.2755 C   0  0  0  0  0  0  0  0  0  0  0  0
    3.4619   21.4683  -19.7970 C   0  0  0  0  0  0  0  0  0  0  0  0
    3.7587   21.2263  -21.1174 C   0  0  0  0  0  0  0  0  0  0  0  0
    2.7308   20.7439  -21.8983 C   0  0  0  0  0  0  0  0  0  0  0  0
    1.4801   20.5147  -21.3977 C   0  0  0  0  0  0  0  0  0  0  0  0
   -0.8512   22.7564  -20.3413 C   0  0  0  0  0  0  0  0  0  0  0  0
   -1.8928   24.0582  -22.0417 O   0  0  0  0  0  0  0  0  0  0  0  0
   -1.5333   22.9205  -21.6420 C   0  0  0  0  0  0  0  0  0  0  0  0
   -1.8119   21.8101  -22.4933 N   0  0  0  0  0  0  0  0  0  0  0  0
   -1.5417   20.8316  -22.2264 H   0  0  0  0  0  0  0  0  0  0  0  0
   -2.4806   22.0130  -23.7540 C   0  0  0  0  0  0  0  0  0  0  0  0
   -1.5438   22.0860  -24.8995 C   0  0  0  0  0  0  0  0  0  0  0  0
   -2.0306   22.3779  -26.1485 C   0  0  0  0  0  0  0  0  0  0  0  0
   -1.1909   22.4609  -27.2575 C   0  0  0  0  0  0  0  0  0  0  0  0
    0.1647   22.2456  -27.1054 C   0  0  0  0  0  0  0  0  0  0  0  0
    0.6546   21.9494  -25.8355 C   0  0  0  0  0  0  0  0  0  0  0  0
   -0.1988   21.8705  -24.7384 C   0  0  0  0  0  0  0  0  0  0  0  0
 24 25  2  0  0  0
 25 23  1  0  0  0
 23  1  1  0  0  0
  1  2  1  0  0  0
  2  3  2  0  0  0
  3  4  1  0  0  0
  4  5  2  0  0  0
  5  6  1  0  0  0
  6  7  2  0  0  0
  7  8  1  0  0  0
  8  9  2  0  0  0
  9 11  1  0  0  0
 11 12  1  0  0  0
 12 13  1  0  0  0
 13 14  1  0  0  0
 14 15  1  0  0  0
 15 16  1  0  0  0
  9 10  1  0  0  0
 10 17  1  0  0  0
 17 18  2  0  0  0
 18 19  1  0  0  0
 19 20  2  0  0  0
 20 21  1  0  0  0
 21 22  2  0  0  0
 25 26  1  0  0  0
 26 28  1  0  0  0
 28 29  1  0  0  0
 29 30  2  0  0  0
 30 31  1  0  0  0
 31 32  2  0  0  0
 32 33  1  0  0  0
 33 34  2  0  0  0
 10  1  1  0  0  0
 22 17  1  0  0  0
 34 29  1  0  0  0
  7  2  1  0  0  0
 16 11  1  0  0  0
 26 27  1  0  0  0
M  END
> <minimizedAffinity>
-7.19162

> <CNNscore>
0.1929674149

> <CNNaffinity>
5.4411859512

> <CNN_VS>
1.0499715805

> <CNNaffinity_variance>
0.4838856757

$$$$
[H]c1c([H])c([H])c(C([H])(N2C([H])([H])C([H])([H])N(C([H])([H])C#N)C([H])([H])C2([H])[H])C([H])([H])OC([H])([H])c2c([H])c(C(F)(F)F)c([H])c(C(F)(F)F)c2[H])c([H])c1[H]


 33 35  0  0  0  0  0  0  0  0999 V2000
   -1.2083   21.9853  -25.5842 C   0  0  0  0  0  0  0  0  0  0  0  0
   -1.4246   22.5925  -24.2392 C   0  0  0  0  0  0  0  0  0  0  0  0
    0.9619   20.6120  -21.3942 N   0  0  0  0  0  0  0  0  0  0  0  0
    1.5763   21.1388  -22.5586 C   0  0  0  0  0  0  0  0  0  0  0  0
    0.5729   21.3037  -23.6967 C   0  0  0  0  0  0  0  0  0  0  0  0
   -0.5590   22.0427  -23.2766 N   0  0  0  0  0  0  0  0  0  0  0  0
   -1.1429   21.7139  -22.0239 C   0  0  0  0  0  0  0  0  0  0  0  0
   -0.4547   20.4972  -21.4658 C   0  0  0  0  0  0  0  0  0  0  0  0
    1.6628   19.6259  -20.6605 C   0  0  0  0  0  0  0  0  0  0  0  0
    0.3582   17.3254  -20.8236 N   0  0  0  0  0  0  0  0  0  0  0  0
    0.9298   18.3527  -20.7458 C   0  0  0  0  0  0  0  0  0  0  0  0
   -2.8691   22.5364  -23.9021 C   0  0  0  0  0  0  0  0  0  0  0  0
   -3.5355   23.5165  -23.2004 C   0  0  0  0  0  0  0  0  0  0  0  0
   -4.8736   23.4071  -22.8736 C   0  0  0  0  0  0  0  0  0  0  0  0
   -5.6098   22.3040  -23.2363 C   0  0  0  0  0  0  0  0  0  0  0  0
   -4.9587   21.3101  -23.9441 C   0  0  0  0  0  0  0  0  0  0  0  0
   -3.6183   21.4338  -24.2630 C   0  0  0  0  0  0  0  0  0  0  0  0
   -1.1257   22.8888  -26.6406 O   0  0  0  0  0  0  0  0  0  0  0  0
   -2.2545   22.5631  -27.4352 C   0  0  0  0  0  0  0  0  0  0  0  0
   -3.1937   23.6533  -27.6085 C   0  0  0  0  0  0  0  0  0  0  0  0
   -3.6572   23.9809  -28.9020 C   0  0  0  0  0  0  0  0  0  0  0  0
   -4.5425   24.9886  -29.1347 C   0  0  0  0  0  0  0  0  0  0  0  0
   -5.0156   25.7279  -28.0790 C   0  0  0  0  0  0  0  0  0  0  0  0
   -4.5746   25.4230  -26.8131 C   0  0  0  0  0  0  0  0  0  0  0  0
   -3.6672   24.3922  -26.5578 C   0  0  0  0  0  0  0  0  0  0  0  0
   -5.0315   25.3368  -30.5026 C   0  0  0  0  0  0  0  0  0  0  0  0
   -4.0396   25.8092  -31.2924 F   0  0  0  0  0  0  0  0  0  0  0  0
   -6.0535   26.2575  -30.3181 F   0  0  0  0  0  0  0  0  0  0  0  0
   -5.6333   24.1970  -31.0127 F   0  0  0  0  0  0  0  0  0  0  0  0
   -5.1312   26.2532  -25.6976 C   0  0  0  0  0  0  0  0  0  0  0  0
   -4.1625   26.4189  -24.6989 F   0  0  0  0  0  0  0  0  0  0  0  0
   -5.4164   27.4862  -26.2243 F   0  0  0  0  0  0  0  0  0  0  0  0
   -6.2417   25.6877  -25.1067 F   0  0  0  0  0  0  0  0  0  0  0  0
 10 11  3  0  0  0
 11  9  1  0  0  0
  9  3  1  0  0  0
  3  4  1  0  0  0
  4  5  1  0  0  0
  5  6  1  0  0  0
  6  2  1  0  0  0
  2  1  1  0  0  0
  1 18  1  0  0  0
 18 19  1  0  0  0
 19 20  1  0  0  0
 20 21  2  0  0  0
 21 22  1  0  0  0
 22 26  1  0  0  0
 26 27  1  0  0  0
 26 28  1  0  0  0
 26 29  1  0  0  0
 22 23  2  0  0  0
 23 24  1  0  0  0
 24 30  1  0  0  0
 30 31  1  0  0  0
 30 32  1  0  0  0
 30 33  1  0  0  0
 24 25  2  0  0  0
  2 12  1  0  0  0
 12 13  2  0  0  0
 13 14  1  0  0  0
 14 15  2  0  0  0
 15 16  1  0  0  0
 16 17  2  0  0  0
  6  7  1  0  0  0
  7  8  1  0  0  0
  8  3  1  0  0  0
 25 20  1  0  0  0
 17 12  1  0  0  0
M  END
> <minimizedAffinity>
-8.08059

> <CNNscore>
0.3402268291

> <CNNaffinity>
6.5602164268

> <CNN_VS>
2.2319617271

> <CNNaffinity_variance>
0.3072140515

$$$$
[H]c1c([H])c([H])c(C([H])(N2C([H])([H])C([H])([H])N(C([H])([H])C#N)C([H])([H])C2([H])[H])C([H])([H])OC([H])([H])c2c([H])c(C(F)(F)F)c([H])c(C(F)(F)F)c2[H])c([H])c1[H]


 33 35  0  0  0  0  0  0  0  0999 V2000
   -5.0045   23.0884  -22.9918 C   0  0  0  0  0  0  0  0  0  0  0  0
   -5.5280   24.4814  -22.8937 C   0  0  0  0  0  0  0  0  0  0  0  0
   -9.3872   24.6868  -21.2275 N   0  0  0  0  0  0  0  0  0  0  0  0
   -8.6420   23.4885  -21.0881 C   0  0  0  0  0  0  0  0  0  0  0  0
   -7.5707   23.3651  -22.1681 C   0  0  0  0  0  0  0  0  0  0  0  0
   -6.7619   24.5257  -22.2201 N   0  0  0  0  0  0  0  0  0  0  0  0
   -7.4070   25.7907  -22.1767 C   0  0  0  0  0  0  0  0  0  0  0  0
   -8.8972   25.5835  -22.2179 C   0  0  0  0  0  0  0  0  0  0  0  0
  -10.7876   24.6254  -21.0346 C   0  0  0  0  0  0  0  0  0  0  0  0
  -11.2700   23.9379  -18.5216 N   0  0  0  0  0  0  0  0  0  0  0  0
  -11.0638   24.2374  -19.6422 C   0  0  0  0  0  0  0  0  0  0  0  0
   -5.5151   25.1064  -24.2400 C   0  0  0  0  0  0  0  0  0  0  0  0
   -6.4832   24.8959  -25.1968 C   0  0  0  0  0  0  0  0  0  0  0  0
   -6.4132   25.4674  -26.4529 C   0  0  0  0  0  0  0  0  0  0  0  0
   -5.3637   26.2804  -26.8106 C   0  0  0  0  0  0  0  0  0  0  0  0
   -4.3828   26.5060  -25.8620 C   0  0  0  0  0  0  0  0  0  0  0  0
   -4.4666   25.9259  -24.6090 C   0  0  0  0  0  0  0  0  0  0  0  0
   -3.6540   22.9795  -23.3135 O   0  0  0  0  0  0  0  0  0  0  0  0
   -3.6272   21.9089  -24.2433 C   0  0  0  0  0  0  0  0  0  0  0  0
   -3.2388   22.2965  -25.5848 C   0  0  0  0  0  0  0  0  0  0  0  0
   -1.8697   22.4080  -25.9141 C   0  0  0  0  0  0  0  0  0  0  0  0
   -1.4363   22.7622  -27.1551 C   0  0  0  0  0  0  0  0  0  0  0  0
   -2.3552   23.0258  -28.1406 C   0  0  0  0  0  0  0  0  0  0  0  0
   -3.6921   22.9226  -27.8373 C   0  0  0  0  0  0  0  0  0  0  0  0
   -4.1527   22.5598  -26.5695 C   0  0  0  0  0  0  0  0  0  0  0  0
    0.0113   22.8822  -27.5034 C   0  0  0  0  0  0  0  0  0  0  0  0
    0.7006   23.5880  -26.5773 F   0  0  0  0  0  0  0  0  0  0  0  0
    0.0525   23.4664  -28.7616 F   0  0  0  0  0  0  0  0  0  0  0  0
    0.4900   21.5916  -27.6670 F   0  0  0  0  0  0  0  0  0  0  0  0
   -4.6504   23.2098  -28.9520 C   0  0  0  0  0  0  0  0  0  0  0  0
   -5.9626   23.2186  -28.4608 F   0  0  0  0  0  0  0  0  0  0  0  0
   -4.3586   24.4675  -29.4125 F   0  0  0  0  0  0  0  0  0  0  0  0
   -4.5944   22.2758  -29.9653 F   0  0  0  0  0  0  0  0  0  0  0  0
 10 11  3  0  0  0
 11  9  1  0  0  0
  9  3  1  0  0  0
  3  4  1  0  0  0
  4  5  1  0  0  0
  5  6  1  0  0  0
  6  2  1  0  0  0
  2  1  1  0  0  0
  1 18  1  0  0  0
 18 19  1  0  0  0
 19 20  1  0  0  0
 20 21  2  0  0  0
 21 22  1  0  0  0
 22 26  1  0  0  0
 26 27  1  0  0  0
 26 28  1  0  0  0
 26 29  1  0  0  0
 22 23  2  0  0  0
 23 24  1  0  0  0
 24 30  1  0  0  0
 30 31  1  0  0  0
 30 32  1  0  0  0
 30 33  1  0  0  0
 24 25  2  0  0  0
  2 12  1  0  0  0
 12 13  2  0  0  0
 13 14  1  0  0  0
 14 15  2  0  0  0
 15 16  1  0  0  0
 16 17  2  0  0  0
  6  7  1  0  0  0
  7  8  1  0  0  0
  8  3  1  0  0  0
 25 20  1  0  0  0
 17 12  1  0  0  0
M  END
> <minimizedAffinity>
-9.01590

> <CNNscore>
0.3051083684

> <CNNaffinity>
6.0394306183

> <CNN_VS>
1.8426808119

> <CNNaffinity_variance>
0.5132439733

$$$$
[H]c1c([H])c([H])c(C([H])(N2C([H])([H])C([H])([H])N(C([H])([H])C#N)C([H])([H])C2([H])[H])C([H])([H])OC([H])([H])c2c([H])c(C(F)(F)F)c([H])c(C(F)(F)F)c2[H])c([H])c1[H]


 33 35  0  0  0  0  0  0  0  0999 V2000
   -0.5495   21.9125  -25.4197 C   0  0  0  0  0  0  0  0  0  0  0  0
   -0.4377   22.3057  -23.9854 C   0  0  0  0  0  0  0  0  0  0  0  0
    2.4294   20.0965  -21.8380 N   0  0  0  0  0  0  0  0  0  0  0  0
    1.1060   20.1764  -21.3348 C   0  0  0  0  0  0  0  0  0  0  0  0
    0.3752   21.4043  -21.8706 C   0  0  0  0  0  0  0  0  0  0  0  0
    0.4424   21.4626  -23.2834 N   0  0  0  0  0  0  0  0  0  0  0  0
    1.6960   21.2105  -23.9024 C   0  0  0  0  0  0  0  0  0  0  0  0
    2.7480   21.0588  -22.8367 C   0  0  0  0  0  0  0  0  0  0  0  0
    3.4583   19.7132  -20.9456 C   0  0  0  0  0  0  0  0  0  0  0  0
    5.4692   18.7140  -22.3522 N   0  0  0  0  0  0  0  0  0  0  0  0
    4.5802   19.1553  -21.7175 C   0  0  0  0  0  0  0  0  0  0  0  0
   -1.7975   22.4320  -23.4038 C   0  0  0  0  0  0  0  0  0  0  0  0
   -2.7174   21.4076  -23.3646 C   0  0  0  0  0  0  0  0  0  0  0  0
   -3.9877   21.5783  -22.8485 C   0  0  0  0  0  0  0  0  0  0  0  0
   -4.3976   22.7905  -22.3455 C   0  0  0  0  0  0  0  0  0  0  0  0
   -3.4868   23.8310  -22.3735 C   0  0  0  0  0  0  0  0  0  0  0  0
   -2.2189   23.6445  -22.8945 C   0  0  0  0  0  0  0  0  0  0  0  0
   -0.8759   22.9431  -26.2974 O   0  0  0  0  0  0  0  0  0  0  0  0
   -1.7353   22.3126  -27.2330 C   0  0  0  0  0  0  0  0  0  0  0  0
   -3.0203   22.9640  -27.3924 C   0  0  0  0  0  0  0  0  0  0  0  0
   -3.3015   23.6802  -28.5770 C   0  0  0  0  0  0  0  0  0  0  0  0
   -4.4887   24.3104  -28.7933 C   0  0  0  0  0  0  0  0  0  0  0  0
   -5.4655   24.2578  -27.8300 C   0  0  0  0  0  0  0  0  0  0  0  0
   -5.2086   23.5654  -26.6705 C   0  0  0  0  0  0  0  0  0  0  0  0
   -3.9962   22.9133  -26.4337 C   0  0  0  0  0  0  0  0  0  0  0  0
   -4.7860   25.0696  -30.0450 C   0  0  0  0  0  0  0  0  0  0  0  0
   -5.3464   24.2853  -30.9947 F   0  0  0  0  0  0  0  0  0  0  0  0
   -3.5791   25.6219  -30.4505 F   0  0  0  0  0  0  0  0  0  0  0  0
   -5.5907   26.1380  -29.6812 F   0  0  0  0  0  0  0  0  0  0  0  0
   -6.3125   23.5305  -25.6589 C   0  0  0  0  0  0  0  0  0  0  0  0
   -6.3572   22.2709  -25.0468 F   0  0  0  0  0  0  0  0  0  0  0  0
   -6.0024   24.4600  -24.7004 F   0  0  0  0  0  0  0  0  0  0  0  0
   -7.5552   23.7676  -26.2083 F   0  0  0  0  0  0  0  0  0  0  0  0
 10 11  3  0  0  0
 11  9  1  0  0  0
  9  3  1  0  0  0
  3  4  1  0  0  0
  4  5  1  0  0  0
  5  6  1  0  0  0
  6  2  1  0  0  0
  2  1  1  0  0  0
  1 18  1  0  0  0
 18 19  1  0  0  0
 19 20  1  0  0  0
 20 21  2  0  0  0
 21 22  1  0  0  0
 22 26  1  0  0  0
 26 27  1  0  0  0
 26 28  1  0  0  0
 26 29  1  0  0  0
 22 23  2  0  0  0
 23 24  1  0  0  0
 24 30  1  0  0  0
 30 31  1  0  0  0
 30 32  1  0  0  0
 30 33  1  0  0  0
 24 25  2  0  0  0
  2 12  1  0  0  0
 12 13  2  0  0  0
 13 14  1  0  0  0
 14 15  2  0  0  0
 15 16  1  0  0  0
 16 17  2  0  0  0
  6  7  1  0  0  0
  7  8  1  0  0  0
  8  3  1  0  0  0
 25 20  1  0  0  0
 17 12  1  0  0  0
M  END
> <minimizedAffinity>
-8.15109

> <CNNscore>
0.2858594954

> <CNNaffinity>
6.3394217491

> <CNN_VS>
1.8121838570

> <CNNaffinity_variance>
0.3612091839

$$$$
[H]c1c([H])c([H])c(C([H])(N2C([H])([H])C([H])([H])N(C([H])([H])C#N)C([H])([H])C2([H])[H])C([H])([H])OC([H])([H])c2c([H])c(C(F)(F)F)c([H])c(C(F)(F)F)c2[H])c([H])c1[H]


 33 35  0  0  0  0  0  0  0  0999 V2000
   -0.7470   21.9575  -25.4622 C   0  0  0  0  0  0  0  0  0  0  0  0
   -0.6035   22.3804  -24.0393 C   0  0  0  0  0  0  0  0  0  0  0  0
    2.2871   20.1766  -21.9180 N   0  0  0  0  0  0  0  0  0  0  0  0
    0.9984   20.3439  -21.3505 C   0  0  0  0  0  0  0  0  0  0  0  0
    0.2892   21.5693  -21.9202 C   0  0  0  0  0  0  0  0  0  0  0  0
    0.2795   21.5418  -23.3354 N   0  0  0  0  0  0  0  0  0  0  0  0
    1.4852   21.1992  -24.0042 C   0  0  0  0  0  0  0  0  0  0  0  0
    2.5881   21.0640  -22.9890 C   0  0  0  0  0  0  0  0  0  0  0  0
    3.3480   19.8014  -21.0602 C   0  0  0  0  0  0  0  0  0  0  0  0
    4.1989   21.9439  -19.7539 N   0  0  0  0  0  0  0  0  0  0  0  0
    3.8287   20.9924  -20.3419 C   0  0  0  0  0  0  0  0  0  0  0  0
   -1.9506   22.5361  -23.4354 C   0  0  0  0  0  0  0  0  0  0  0  0
   -2.4061   23.7001  -22.8570 C   0  0  0  0  0  0  0  0  0  0  0  0
   -3.6541   23.7915  -22.2709 C   0  0  0  0  0  0  0  0  0  0  0  0
   -4.5080   22.7144  -22.2367 C   0  0  0  0  0  0  0  0  0  0  0  0
   -4.0694   21.5371  -22.8152 C   0  0  0  0  0  0  0  0  0  0  0  0
   -2.8167   21.4612  -23.3972 C   0  0  0  0  0  0  0  0  0  0  0  0
   -1.0246   22.9815  -26.3642 O   0  0  0  0  0  0  0  0  0  0  0  0
   -1.8349   22.3449  -27.3387 C   0  0  0  0  0  0  0  0  0  0  0  0
   -3.1286   22.9682  -27.5349 C   0  0  0  0  0  0  0  0  0  0  0  0
   -4.0899   22.9298  -26.5007 C   0  0  0  0  0  0  0  0  0  0  0  0
   -5.3212   23.4989  -26.6170 C   0  0  0  0  0  0  0  0  0  0  0  0
   -5.6597   24.1417  -27.7819 C   0  0  0  0  0  0  0  0  0  0  0  0
   -4.7363   24.1882  -28.7993 C   0  0  0  0  0  0  0  0  0  0  0  0
   -3.4690   23.6099  -28.6953 C   0  0  0  0  0  0  0  0  0  0  0  0
   -6.3389   23.4569  -25.5244 C   0  0  0  0  0  0  0  0  0  0  0  0
   -6.4165   22.2350  -24.9482 F   0  0  0  0  0  0  0  0  0  0  0  0
   -7.5361   23.8524  -26.1044 F   0  0  0  0  0  0  0  0  0  0  0  0
   -6.0015   24.4581  -24.6270 F   0  0  0  0  0  0  0  0  0  0  0  0
   -5.1534   24.9114  -30.0428 C   0  0  0  0  0  0  0  0  0  0  0  0
   -4.0421   25.5346  -30.6260 F   0  0  0  0  0  0  0  0  0  0  0  0
   -5.6185   23.9633  -30.9166 F   0  0  0  0  0  0  0  0  0  0  0  0
   -6.0987   25.8878  -29.8073 F   0  0  0  0  0  0  0  0  0  0  0  0
 10 11  3  0  0  0
 11  9  1  0  0  0
  9  3  1  0  0  0
  3  4  1  0  0  0
  4  5  1  0  0  0
  5  6  1  0  0  0
  6  2  1  0  0  0
  2  1  1  0  0  0
  1 18  1  0  0  0
 18 19  1  0  0  0
 19 20  1  0  0  0
 20 21  2  0  0  0
 21 22  1  0  0  0
 22 26  1  0  0  0
 26 27  1  0  0  0
 26 28  1  0  0  0
 26 29  1  0  0  0
 22 23  2  0  0  0
 23 24  1  0  0  0
 24 30  1  0  0  0
 30 31  1  0  0  0
 30 32  1  0  0  0
 30 33  1  0  0  0
 24 25  2  0  0  0
  2 12  1  0  0  0
 12 13  2  0  0  0
 13 14  1  0  0  0
 14 15  2  0  0  0
 15 16  1  0  0  0
 16 17  2  0  0  0
  6  7  1  0  0  0
  7  8  1  0  0  0
  8  3  1  0  0  0
 25 20  1  0  0  0
 17 12  1  0  0  0
M  END
> <minimizedAffinity>
-8.05267

> <CNNscore>
0.2729653418

> <CNNaffinity>
6.2913155556

> <CNN_VS>
1.7173111439

> <CNNaffinity_variance>
0.4769760966

$$$$
[H]c1c([H])c([H])c(C([H])(N2C([H])([H])C([H])([H])N(C([H])([H])C#N)C([H])([H])C2([H])[H])C([H])([H])OC([H])([H])c2c([H])c(C(F)(F)F)c([H])c(C(F)(F)F)c2[H])c([H])c1[H]


 33 35  0  0  0  0  0  0  0  0999 V2000
   -5.4667   23.1346  -23.0492 C   0  0  0  0  0  0  0  0  0  0  0  0
   -6.0614   24.5013  -23.0994 C   0  0  0  0  0  0  0  0  0  0  0  0
   -9.9435   24.5767  -21.4757 N   0  0  0  0  0  0  0  0  0  0  0  0
   -9.6186   25.4785  -22.5207 C   0  0  0  0  0  0  0  0  0  0  0  0
   -8.1141   25.7210  -22.6051 C   0  0  0  0  0  0  0  0  0  0  0  0
   -7.4032   24.4990  -22.6776 N   0  0  0  0  0  0  0  0  0  0  0  0
   -7.7794   23.4548  -21.7908 C   0  0  0  0  0  0  0  0  0  0  0  0
   -8.8238   23.9722  -20.8385 C   0  0  0  0  0  0  0  0  0  0  0  0
  -11.0755   24.8641  -20.6771 C   0  0  0  0  0  0  0  0  0  0  0  0
  -11.0550   27.4395  -20.0541 N   0  0  0  0  0  0  0  0  0  0  0  0
  -11.0726   26.2961  -20.3378 C   0  0  0  0  0  0  0  0  0  0  0  0
   -5.8162   25.0944  -24.4379 C   0  0  0  0  0  0  0  0  0  0  0  0
   -6.6262   24.8881  -25.5326 C   0  0  0  0  0  0  0  0  0  0  0  0
   -6.3405   25.4281  -26.7719 C   0  0  0  0  0  0  0  0  0  0  0  0
   -5.2232   26.2038  -26.9730 C   0  0  0  0  0  0  0  0  0  0  0  0
   -4.3987   26.4247  -25.8846 C   0  0  0  0  0  0  0  0  0  0  0  0
   -4.6979   25.8762  -24.6504 C   0  0  0  0  0  0  0  0  0  0  0  0
   -4.0800   23.0824  -23.1655 O   0  0  0  0  0  0  0  0  0  0  0  0
   -3.8652   21.9398  -23.9778 C   0  0  0  0  0  0  0  0  0  0  0  0
   -3.1752   22.2165  -25.2220 C   0  0  0  0  0  0  0  0  0  0  0  0
   -3.9179   22.5388  -26.3795 C   0  0  0  0  0  0  0  0  0  0  0  0
   -3.3334   22.8142  -27.5777 C   0  0  0  0  0  0  0  0  0  0  0  0
   -1.9650   22.7820  -27.6837 C   0  0  0  0  0  0  0  0  0  0  0  0
   -1.2263   22.4696  -26.5672 C   0  0  0  0  0  0  0  0  0  0  0  0
   -1.8109   22.1853  -25.3308 C   0  0  0  0  0  0  0  0  0  0  0  0
   -4.1184   23.1531  -28.8026 C   0  0  0  0  0  0  0  0  0  0  0  0
   -3.8265   24.3898  -29.2678 F   0  0  0  0  0  0  0  0  0  0  0  0
   -5.4533   23.0154  -28.4489 F   0  0  0  0  0  0  0  0  0  0  0  0
   -3.8645   22.1528  -29.7280 F   0  0  0  0  0  0  0  0  0  0  0  0
    0.2618   22.4601  -26.7361 C   0  0  0  0  0  0  0  0  0  0  0  0
    0.8276   21.4763  -25.9142 F   0  0  0  0  0  0  0  0  0  0  0  0
    0.5113   22.1216  -28.0407 F   0  0  0  0  0  0  0  0  0  0  0  0
    0.8498   23.6632  -26.4056 F   0  0  0  0  0  0  0  0  0  0  0  0
 10 11  3  0  0  0
 11  9  1  0  0  0
  9  3  1  0  0  0
  3  4  1  0  0  0
  4  5  1  0  0  0
  5  6  1  0  0  0
  6  2  1  0  0  0
  2  1  1  0  0  0
  1 18  1  0  0  0
 18 19  1  0  0  0
 19 20  1  0  0  0
 20 21  2  0  0  0
 21 22  1  0  0  0
 22 26  1  0  0  0
 26 27  1  0  0  0
 26 28  1  0  0  0
 26 29  1  0  0  0
 22 23  2  0  0  0
 23 24  1  0  0  0
 24 30  1  0  0  0
 30 31  1  0  0  0
 30 32  1  0  0  0
 30 33  1  0  0  0
 24 25  2  0  0  0
  2 12  1  0  0  0
 12 13  2  0  0  0
 13 14  1  0  0  0
 14 15  2  0  0  0
 15 16  1  0  0  0
 16 17  2  0  0  0
  6  7  1  0  0  0
  7  8  1  0  0  0
  8  3  1  0  0  0
 25 20  1  0  0  0
 17 12  1  0  0  0
M  END
> <minimizedAffinity>
-8.97774

> <CNNscore>
0.2518998981

> <CNNaffinity>
5.9670190811

> <CNN_VS>
1.5030914545

> <CNNaffinity_variance>
0.4127503932

$$$$
[H]c1c([H])c([H])c(C([H])(N2C([H])([H])C([H])([H])N(C([H])([H])C#N)C([H])([H])C2([H])[H])C([H])([H])OC([H])([H])c2c([H])c(C(F)(F)F)c([H])c(C(F)(F)F)c2[H])c([H])c1[H]


 33 35  0  0  0  0  0  0  0  0999 V2000
   -6.0085   26.0320  -24.0701 C   0  0  0  0  0  0  0  0  0  0  0  0
   -6.8744   24.8340  -23.8714 C   0  0  0  0  0  0  0  0  0  0  0  0
   -9.7594   25.9119  -21.0031 N   0  0  0  0  0  0  0  0  0  0  0  0
  -10.1753   25.2206  -22.1692 C   0  0  0  0  0  0  0  0  0  0  0  0
   -9.1796   25.3984  -23.3121 C   0  0  0  0  0  0  0  0  0  0  0  0
   -7.8662   25.0660  -22.9016 N   0  0  0  0  0  0  0  0  0  0  0  0
   -7.4141   25.5597  -21.6485 C   0  0  0  0  0  0  0  0  0  0  0  0
   -8.4579   26.4824  -21.0789 C   0  0  0  0  0  0  0  0  0  0  0  0
  -10.7391   26.6114  -20.2596 C   0  0  0  0  0  0  0  0  0  0  0  0
  -10.9384   29.0765  -21.2106 N   0  0  0  0  0  0  0  0  0  0  0  0
  -10.8599   27.9783  -20.7913 C   0  0  0  0  0  0  0  0  0  0  0  0
   -6.0190   23.6442  -23.6347 C   0  0  0  0  0  0  0  0  0  0  0  0
   -4.9746   23.6117  -22.7373 C   0  0  0  0  0  0  0  0  0  0  0  0
   -4.1778   22.4946  -22.5753 C   0  0  0  0  0  0  0  0  0  0  0  0
   -4.3913   21.3520  -23.3095 C   0  0  0  0  0  0  0  0  0  0  0  0
   -5.4376   21.3642  -24.2142 C   0  0  0  0  0  0  0  0  0  0  0  0
   -6.2258   22.4909  -24.3656 C   0  0  0  0  0  0  0  0  0  0  0  0
   -5.9547   26.5199  -25.3733 O   0  0  0  0  0  0  0  0  0  0  0  0
   -4.5817   26.4006  -25.7080 C   0  0  0  0  0  0  0  0  0  0  0  0
   -4.2475   25.1839  -26.4213 C   0  0  0  0  0  0  0  0  0  0  0  0
   -3.2632   24.3141  -25.9018 C   0  0  0  0  0  0  0  0  0  0  0  0
   -2.9052   23.1540  -26.5177 C   0  0  0  0  0  0  0  0  0  0  0  0
   -3.5167   22.7986  -27.6944 C   0  0  0  0  0  0  0  0  0  0  0  0
   -4.4767   23.6339  -28.2147 C   0  0  0  0  0  0  0  0  0  0  0  0
   -4.8555   24.8269  -27.5948 C   0  0  0  0  0  0  0  0  0  0  0  0
   -1.8630   22.2347  -25.9698 C   0  0  0  0  0  0  0  0  0  0  0  0
   -0.7809   22.1532  -26.7781 F   0  0  0  0  0  0  0  0  0  0  0  0
   -2.4917   21.0103  -25.7916 F   0  0  0  0  0  0  0  0  0  0  0  0
   -1.5557   22.6936  -24.6984 F   0  0  0  0  0  0  0  0  0  0  0  0
   -5.1192   23.1925  -29.4936 C   0  0  0  0  0  0  0  0  0  0  0  0
   -4.4369   22.0832  -30.0107 F   0  0  0  0  0  0  0  0  0  0  0  0
   -6.3956   22.8014  -29.1824 F   0  0  0  0  0  0  0  0  0  0  0  0
   -5.1141   24.1711  -30.4655 F   0  0  0  0  0  0  0  0  0  0  0  0
 10 11  3  0  0  0
 11  9  1  0  0  0
  9  3  1  0  0  0
  3  4  1  0  0  0
  4  5  1  0  0  0
  5  6  1  0  0  0
  6  2  1  0  0  0
  2  1  1  0  0  0
  1 18  1  0  0  0
 18 19  1  0  0  0
 19 20  1  0  0  0
 20 21  2  0  0  0
 21 22  1  0  0  0
 22 26  1  0  0  0
 26 27  1  0  0  0
 26 28  1  0  0  0
 26 29  1  0  0  0
 22 23  2  0  0  0
 23 24  1  0  0  0
 24 30  1  0  0  0
 30 31  1  0  0  0
 30 32  1  0  0  0
 30 33  1  0  0  0
 24 25  2  0  0  0
  2 12  1  0  0  0
 12 13  2  0  0  0
 13 14  1  0  0  0
 14 15  2  0  0  0
 15 16  1  0  0  0
 16 17  2  0  0  0
  6  7  1  0  0  0
  7  8  1  0  0  0
  8  3  1  0  0  0
 25 20  1  0  0  0
 17 12  1  0  0  0
M  END
> <minimizedAffinity>
-7.97020

> <CNNscore>
0.2328150272

> <CNNaffinity>
5.9072904587

> <CNN_VS>
1.3753060102

> <CNNaffinity_variance>
0.5482280850

$$$$
[H]c1c([H])c([H])c(C([H])(N2C([H])([H])C([H])([H])N(C([H])([H])C#N)C([H])([H])C2([H])[H])C([H])([H])OC([H])([H])c2c([H])c(C(F)(F)F)c([H])c(C(F)(F)F)c2[H])c([H])c1[H]


 33 35  0  0  0  0  0  0  0  0999 V2000
   -5.4367   22.9324  -22.9124 C   0  0  0  0  0  0  0  0  0  0  0  0
   -5.8404   24.3665  -22.8455 C   0  0  0  0  0  0  0  0  0  0  0  0
   -9.5697   24.7142  -20.9261 N   0  0  0  0  0  0  0  0  0  0  0  0
   -9.0236   25.8498  -21.5764 C   0  0  0  0  0  0  0  0  0  0  0  0
   -7.5076   25.7414  -21.7162 C   0  0  0  0  0  0  0  0  0  0  0  0
   -7.1368   24.5165  -22.3210 N   0  0  0  0  0  0  0  0  0  0  0  0
   -7.7695   23.3290  -21.8649 C   0  0  0  0  0  0  0  0  0  0  0  0
   -8.6439   23.6606  -20.6856 C   0  0  0  0  0  0  0  0  0  0  0  0
  -10.5883   24.9231  -19.9665 C   0  0  0  0  0  0  0  0  0  0  0  0
  -11.1939   22.6113  -18.8220 N   0  0  0  0  0  0  0  0  0  0  0  0
  -10.9149   23.6390  -19.3259 C   0  0  0  0  0  0  0  0  0  0  0  0
   -5.6109   25.0031  -24.1666 C   0  0  0  0  0  0  0  0  0  0  0  0
   -4.4688   25.6971  -24.4999 C   0  0  0  0  0  0  0  0  0  0  0  0
   -4.3111   26.3083  -25.7290 C   0  0  0  0  0  0  0  0  0  0  0  0
   -5.2964   26.2525  -26.6863 C   0  0  0  0  0  0  0  0  0  0  0  0
   -6.4499   25.5575  -26.3713 C   0  0  0  0  0  0  0  0  0  0  0  0
   -6.5932   24.9517  -25.1359 C   0  0  0  0  0  0  0  0  0  0  0  0
   -4.0647   22.7005  -22.9687 O   0  0  0  0  0  0  0  0  0  0  0  0
   -3.9506   21.6581  -23.9235 C   0  0  0  0  0  0  0  0  0  0  0  0
   -3.2489   22.0355  -25.1343 C   0  0  0  0  0  0  0  0  0  0  0  0
   -3.9803   22.4612  -26.2652 C   0  0  0  0  0  0  0  0  0  0  0  0
   -3.3845   22.8341  -27.4311 C   0  0  0  0  0  0  0  0  0  0  0  0
   -2.0155   22.8013  -27.5294 C   0  0  0  0  0  0  0  0  0  0  0  0
   -1.2878   22.3890  -26.4384 C   0  0  0  0  0  0  0  0  0  0  0  0
   -1.8840   22.0039  -25.2353 C   0  0  0  0  0  0  0  0  0  0  0  0
   -4.1575   23.2825  -28.6281 C   0  0  0  0  0  0  0  0  0  0  0  0
   -3.8135   24.5321  -29.0170 F   0  0  0  0  0  0  0  0  0  0  0  0
   -5.4961   23.1807  -28.2763 F   0  0  0  0  0  0  0  0  0  0  0  0
   -3.9499   22.3319  -29.6154 F   0  0  0  0  0  0  0  0  0  0  0  0
    0.2016   22.3833  -26.5965 C   0  0  0  0  0  0  0  0  0  0  0  0
    0.7790   21.5455  -25.6332 F   0  0  0  0  0  0  0  0  0  0  0  0
    0.4675   21.8575  -27.8341 F   0  0  0  0  0  0  0  0  0  0  0  0
    0.7644   23.6337  -26.4479 F   0  0  0  0  0  0  0  0  0  0  0  0
 10 11  3  0  0  0
 11  9  1  0  0  0
  9  3  1  0  0  0
  3  4  1  0  0  0
  4  5  1  0  0  0
  5  6  1  0  0  0
  6  2  1  0  0  0
  2  1  1  0  0  0
  1 18  1  0  0  0
 18 19  1  0  0  0
 19 20  1  0  0  0
 20 21  2  0  0  0
 21 22  1  0  0  0
 22 26  1  0  0  0
 26 27  1  0  0  0
 26 28  1  0  0  0
 26 29  1  0  0  0
 22 23  2  0  0  0
 23 24  1  0  0  0
 24 30  1  0  0  0
 30 31  1  0  0  0
 30 32  1  0  0  0
 30 33  1  0  0  0
 24 25  2  0  0  0
  2 12  1  0  0  0
 12 13  2  0  0  0
 13 14  1  0  0  0
 14 15  2  0  0  0
 15 16  1  0  0  0
 16 17  2  0  0  0
  6  7  1  0  0  0
  7  8  1  0  0  0
  8  3  1  0  0  0
 25 20  1  0  0  0
 17 12  1  0  0  0
M  END
> <minimizedAffinity>
-8.73900

> <CNNscore>
0.2174725235

> <CNNaffinity>
5.8467335701

> <CNN_VS>
1.2715039253

> <CNNaffinity_variance>
0.4532835484

$$$$
[H]c1c([H])c([H])c(C([H])(N2C([H])([H])C([H])([H])N(C([H])([H])C#N)C([H])([H])C2([H])[H])C([H])([H])OC([H])([H])c2c([H])c(C(F)(F)F)c([H])c(C(F)(F)F)c2[H])c([H])c1[H]


 33 35  0  0  0  0  0  0  0  0999 V2000
   -4.8992   21.9634  -22.7258 C   0  0  0  0  0  0  0  0  0  0  0  0
   -5.4308   23.2757  -22.2571 C   0  0  0  0  0  0  0  0  0  0  0  0
   -9.0012   22.5935  -20.1359 N   0  0  0  0  0  0  0  0  0  0  0  0
   -8.4699   23.9074  -20.1815 C   0  0  0  0  0  0  0  0  0  0  0  0
   -6.9717   23.8971  -20.4725 C   0  0  0  0  0  0  0  0  0  0  0  0
   -6.6813   23.1343  -21.6291 N   0  0  0  0  0  0  0  0  0  0  0  0
   -7.3143   21.8703  -21.7707 C   0  0  0  0  0  0  0  0  0  0  0  0
   -8.0919   21.5677  -20.5180 C   0  0  0  0  0  0  0  0  0  0  0  0
   -9.9419   22.2912  -19.1231 C   0  0  0  0  0  0  0  0  0  0  0  0
   -8.6642   21.7372  -16.8689 N   0  0  0  0  0  0  0  0  0  0  0  0
   -9.2228   21.9829  -17.8766 C   0  0  0  0  0  0  0  0  0  0  0  0
   -5.3870   24.2506  -23.3755 C   0  0  0  0  0  0  0  0  0  0  0  0
   -4.3707   25.1606  -23.5656 C   0  0  0  0  0  0  0  0  0  0  0  0
   -4.3875   26.0778  -24.5988 C   0  0  0  0  0  0  0  0  0  0  0  0
   -5.4298   26.1264  -25.4942 C   0  0  0  0  0  0  0  0  0  0  0  0
   -6.4588   25.2184  -25.3214 C   0  0  0  0  0  0  0  0  0  0  0  0
   -6.4278   24.3068  -24.2814 C   0  0  0  0  0  0  0  0  0  0  0  0
   -3.5777   21.9771  -23.1646 O   0  0  0  0  0  0  0  0  0  0  0  0
   -3.6159   21.1766  -24.3347 C   0  0  0  0  0  0  0  0  0  0  0  0
   -3.2517   21.8804  -25.5483 C   0  0  0  0  0  0  0  0  0  0  0  0
   -1.8953   21.9562  -25.9350 C   0  0  0  0  0  0  0  0  0  0  0  0
   -1.4852   22.5965  -27.0643 C   0  0  0  0  0  0  0  0  0  0  0  0
   -2.4161   23.1996  -27.8734 C   0  0  0  0  0  0  0  0  0  0  0  0
   -3.7409   23.1360  -27.5118 C   0  0  0  0  0  0  0  0  0  0  0  0
   -4.1776   22.4826  -26.3571 C   0  0  0  0  0  0  0  0  0  0  0  0
   -0.0507   22.6787  -27.4728 C   0  0  0  0  0  0  0  0  0  0  0  0
    0.5420   21.4625  -27.4961 F   0  0  0  0  0  0  0  0  0  0  0  0
    0.5508   23.5503  -26.5758 F   0  0  0  0  0  0  0  0  0  0  0  0
   -0.0227   23.3182  -28.7023 F   0  0  0  0  0  0  0  0  0  0  0  0
   -4.7145   23.8006  -28.4358 C   0  0  0  0  0  0  0  0  0  0  0  0
   -4.4860   25.1829  -28.4535 F   0  0  0  0  0  0  0  0  0  0  0  0
   -4.4674   23.3110  -29.6921 F   0  0  0  0  0  0  0  0  0  0  0  0
   -6.0288   23.6035  -28.0669 F   0  0  0  0  0  0  0  0  0  0  0  0
 10 11  3  0  0  0
 11  9  1  0  0  0
  9  3  1  0  0  0
  3  4  1  0  0  0
  4  5  1  0  0  0
  5  6  1  0  0  0
  6  2  1  0  0  0
  2  1  1  0  0  0
  1 18  1  0  0  0
 18 19  1  0  0  0
 19 20  1  0  0  0
 20 21  2  0  0  0
 21 22  1  0  0  0
 22 26  1  0  0  0
 26 27  1  0  0  0
 26 28  1  0  0  0
 26 29  1  0  0  0
 22 23  2  0  0  0
 23 24  1  0  0  0
 24 30  1  0  0  0
 30 31  1  0  0  0
 30 32  1  0  0  0
 30 33  1  0  0  0
 24 25  2  0  0  0
  2 12  1  0  0  0
 12 13  2  0  0  0
 13 14  1  0  0  0
 14 15  2  0  0  0
 15 16  1  0  0  0
 16 17  2  0  0  0
  6  7  1  0  0  0
  7  8  1  0  0  0
  8  3  1  0  0  0
 25 20  1  0  0  0
 17 12  1  0  0  0
M  END
> <minimizedAffinity>
-8.20956

> <CNNscore>
0.1989843994

> <CNNaffinity>
5.7845597267

> <CNN_VS>
1.1510370970

> <CNNaffinity_variance>
0.4492618144

$$$$
[H]c1c([H])c([H])c(C([H])(N2C([H])([H])C([H])([H])N(C([H])([H])C#N)C([H])([H])C2([H])[H])C([H])([H])OC([H])([H])c2c([H])c(C(F)(F)F)c([H])c(C(F)(F)F)c2[H])c([H])c1[H]


 33 35  0  0  0  0  0  0  0  0999 V2000
   -6.3395   25.1455  -23.6236 C   0  0  0  0  0  0  0  0  0  0  0  0
   -6.4351   23.7637  -23.0707 C   0  0  0  0  0  0  0  0  0  0  0  0
   -7.0114   23.6043  -18.9048 N   0  0  0  0  0  0  0  0  0  0  0  0
   -6.9573   24.8696  -19.5426 C   0  0  0  0  0  0  0  0  0  0  0  0
   -6.2129   24.7960  -20.8729 C   0  0  0  0  0  0  0  0  0  0  0  0
   -6.7412   23.7743  -21.6980 N   0  0  0  0  0  0  0  0  0  0  0  0
   -7.0093   22.5109  -21.1060 C   0  0  0  0  0  0  0  0  0  0  0  0
   -6.5170   22.5209  -19.6837 C   0  0  0  0  0  0  0  0  0  0  0  0
   -6.8020   23.5549  -17.5063 C   0  0  0  0  0  0  0  0  0  0  0  0
   -4.4240   24.5767  -16.9389 N   0  0  0  0  0  0  0  0  0  0  0  0
   -5.4769   24.1165  -17.1992 C   0  0  0  0  0  0  0  0  0  0  0  0
   -5.2188   22.9998  -23.4456 C   0  0  0  0  0  0  0  0  0  0  0  0
   -5.2383   21.8164  -24.1500 C   0  0  0  0  0  0  0  0  0  0  0  0
   -4.0842   21.1164  -24.4452 C   0  0  0  0  0  0  0  0  0  0  0  0
   -2.8501   21.5722  -24.0456 C   0  0  0  0  0  0  0  0  0  0  0  0
   -2.8098   22.7607  -23.3395 C   0  0  0  0  0  0  0  0  0  0  0  0
   -3.9742   23.4494  -23.0507 C   0  0  0  0  0  0  0  0  0  0  0  0
   -6.6060   25.2632  -24.9854 O   0  0  0  0  0  0  0  0  0  0  0  0
   -5.4752   25.9633  -25.4780 C   0  0  0  0  0  0  0  0  0  0  0  0
   -4.8832   25.3766  -26.6638 C   0  0  0  0  0  0  0  0  0  0  0  0
   -3.8257   24.4492  -26.5344 C   0  0  0  0  0  0  0  0  0  0  0  0
   -3.2288   23.8575  -27.6053 C   0  0  0  0  0  0  0  0  0  0  0  0
   -3.6604   24.1634  -28.8722 C   0  0  0  0  0  0  0  0  0  0  0  0
   -4.6885   25.0646  -29.0167 C   0  0  0  0  0  0  0  0  0  0  0  0
   -5.3115   25.6796  -27.9283 C   0  0  0  0  0  0  0  0  0  0  0  0
   -2.1090   22.8782  -27.4692 C   0  0  0  0  0  0  0  0  0  0  0  0
   -2.5568   21.6067  -27.3510 F   0  0  0  0  0  0  0  0  0  0  0  0
   -1.3740   23.2916  -26.3670 F   0  0  0  0  0  0  0  0  0  0  0  0
   -1.2838   23.0615  -28.5678 F   0  0  0  0  0  0  0  0  0  0  0  0
   -5.1271   25.3530  -30.4194 C   0  0  0  0  0  0  0  0  0  0  0  0
   -6.0518   26.4057  -30.4217 F   0  0  0  0  0  0  0  0  0  0  0  0
   -4.0141   25.7611  -31.1076 F   0  0  0  0  0  0  0  0  0  0  0  0
   -5.7293   24.2723  -31.0291 F   0  0  0  0  0  0  0  0  0  0  0  0
 10 11  3  0  0  0
 11  9  1  0  0  0
  9  3  1  0  0  0
  3  4  1  0  0  0
  4  5  1  0  0  0
  5  6  1  0  0  0
  6  2  1  0  0  0
  2  1  1  0  0  0
  1 18  1  0  0  0
 18 19  1  0  0  0
 19 20  1  0  0  0
 20 21  2  0  0  0
 21 22  1  0  0  0
 22 26  1  0  0  0
 26 27  1  0  0  0
 26 28  1  0  0  0
 26 29  1  0  0  0
 22 23  2  0  0  0
 23 24  1  0  0  0
 24 30  1  0  0  0
 30 31  1  0  0  0
 30 32  1  0  0  0
 30 33  1  0  0  0
 24 25  2  0  0  0
  2 12  1  0  0  0
 12 13  2  0  0  0
 13 14  1  0  0  0
 14 15  2  0  0  0
 15 16  1  0  0  0
 16 17  2  0  0  0
  6  7  1  0  0  0
  7  8  1  0  0  0
  8  3  1  0  0  0
 25 20  1  0  0  0
 17 12  1  0  0  0
M  END
> <minimizedAffinity>
-8.12759

> <CNNscore>
0.1921992600

> <CNNaffinity>
6.0046668053

> <CNN_VS>
1.1540925503

> <CNNaffinity_variance>
0.4118917584

$$$$
[H]OC(=O)c1c([H])c([H])c([H])c(O[H])c1C(=O)c1c(O[H])c([H])c(C(=O)OC([H])([H])[C@]2([H])C([H])([H])C([H])([H])C([H])([H])[C@@]2([H])N([H])C(=O)c2c([H])c([H])c(O[H])c([H])c2[H])c([H])c1O[H]


 45 48  0  0  0  0  0  0  0  0999 V2000
   -0.4645   22.2412  -25.6369 C   0  0  0  0  0  0  0  0  0  0  0  0
    0.7996   22.0835  -25.1528 C   0  0  0  0  0  0  0  0  0  0  0  0
    1.0285   21.6189  -23.8501 C   0  0  0  0  0  0  0  0  0  0  0  0
    2.3425   21.4931  -23.4706 O   0  0  0  0  0  0  0  0  0  0  0  0
   -0.0094   21.3026  -23.0019 C   0  0  0  0  0  0  0  0  0  0  0  0
   -1.3062   21.4689  -23.5079 C   0  0  0  0  0  0  0  0  0  0  0  0
   -2.4470   21.1862  -22.7343 O   0  0  0  0  0  0  0  0  0  0  0  0
   -1.4995   21.9250  -24.7902 C   0  0  0  0  0  0  0  0  0  0  0  0
    2.7545   21.1760  -22.6443 H   0  0  0  0  0  0  0  0  0  0  0  0
   -3.3528   21.3104  -23.1123 H   0  0  0  0  0  0  0  0  0  0  0  0
   -0.7210   22.7280  -27.0117 C   0  0  0  0  0  0  0  0  0  0  0  0
    0.2609   23.0001  -27.7145 O   0  0  0  0  0  0  0  0  0  0  0  0
   -1.9479   22.8668  -27.4696 O   0  0  0  0  0  0  0  0  0  0  0  0
   -2.6662   23.2962  -28.5218 C   0  0  0  0  0  0  0  0  0  0  0  0
   -4.8250   24.1700  -27.8450 C   0  0  0  0  0  0  0  0  0  0  0  0
   -5.6291   24.8327  -28.9372 C   0  0  0  0  0  0  0  0  0  0  0  0
   -5.7043   23.9014  -30.0983 C   0  0  0  0  0  0  0  0  0  0  0  0
   -4.7477   22.7493  -29.8218 C   0  0  0  0  0  0  0  0  0  0  0  0
   -4.1171   22.9994  -28.5360 C   0  0  0  0  0  0  0  0  0  0  0  0
   -4.0345   24.2878  -25.2356 O   0  0  0  0  0  0  0  0  0  0  0  0
   -5.1933   23.8186  -25.4343 C   0  0  0  0  0  0  0  0  0  0  0  0
   -5.6653   23.7270  -26.7498 N   0  0  0  0  0  0  0  0  0  0  0  0
   -6.6248   23.3371  -26.9403 H   0  0  0  0  0  0  0  0  0  0  0  0
   -5.9680   23.4030  -24.2975 C   0  0  0  0  0  0  0  0  0  0  0  0
   -6.8273   24.2774  -23.6797 C   0  0  0  0  0  0  0  0  0  0  0  0
   -7.5839   23.8849  -22.5727 C   0  0  0  0  0  0  0  0  0  0  0  0
   -7.4653   22.6027  -22.0958 C   0  0  0  0  0  0  0  0  0  0  0  0
   -8.2131   22.1904  -20.9903 O   0  0  0  0  0  0  0  0  0  0  0  0
   -6.6012   21.7256  -22.7180 C   0  0  0  0  0  0  0  0  0  0  0  0
   -5.8520   22.1034  -23.8090 C   0  0  0  0  0  0  0  0  0  0  0  0
   -9.1243   21.7834  -21.0911 H   0  0  0  0  0  0  0  0  0  0  0  0
    0.1080   20.9787  -21.6176 C   0  0  0  0  0  0  0  0  0  0  0  0
   -0.2644   19.7462  -21.3557 O   0  0  0  0  0  0  0  0  0  0  0  0
    0.5644   21.7299  -20.4774 C   0  0  0  0  0  0  0  0  0  0  0  0
    1.8341   21.3138  -19.9996 C   0  0  0  0  0  0  0  0  0  0  0  0
    2.4995   20.2813  -20.6453 O   0  0  0  0  0  0  0  0  0  0  0  0
    2.4302   21.8935  -18.9228 C   0  0  0  0  0  0  0  0  0  0  0  0
    1.7465   22.9121  -18.3060 C   0  0  0  0  0  0  0  0  0  0  0  0
    0.5275   23.3293  -18.7389 C   0  0  0  0  0  0  0  0  0  0  0  0
   -0.1104   22.7265  -19.8648 C   0  0  0  0  0  0  0  0  0  0  0  0
    3.3982   19.9963  -20.2974 H   0  0  0  0  0  0  0  0  0  0  0  0
   -1.4893   23.0922  -20.0977 C   0  0  0  0  0  0  0  0  0  0  0  0
   -1.7388   23.8261  -21.1141 O   0  0  0  0  0  0  0  0  0  0  0  0
   -2.5656   22.7573  -19.3554 O   0  0  0  0  0  0  0  0  0  0  0  0
   -3.4759   23.1718  -19.3828 H   0  0  0  0  0  0  0  0  0  0  0  0
 20 21  2  0  0  0
 21 22  1  0  0  0
 22 15  1  0  0  0
 15 16  1  0  0  0
 16 17  1  0  0  0
 17 18  1  0  0  0
 18 19  1  0  0  0
 19 14  1  0  0  0
 14 13  1  0  0  0
 13 11  1  0  0  0
 11 12  2  0  0  0
 11  1  1  0  0  0
  1  2  2  0  0  0
  2  3  1  0  0  0
  3  4  1  0  0  0
  3  5  2  0  0  0
  5 32  1  0  0  0
 32 33  2  0  0  0
 32 34  1  0  0  0
 34 35  2  0  0  0
 35 36  1  0  0  0
 35 37  1  0  0  0
 37 38  2  0  0  0
 38 39  1  0  0  0
 39 40  2  0  0  0
 40 42  1  0  0  0
 42 43  2  0  0  0
 42 44  1  0  0  0
  5  6  1  0  0  0
  6  7  1  0  0  0
  6  8  2  0  0  0
 21 24  1  0  0  0
 24 25  2  0  0  0
 25 26  1  0  0  0
 26 27  2  0  0  0
 27 28  1  0  0  0
 27 29  1  0  0  0
 29 30  2  0  0  0
 19 15  1  0  0  0
  8  1  1  0  0  0
 30 24  1  0  0  0
 40 34  1  0  0  0
 22 23  1  0  0  0
  4  9  1  0  0  0
 36 41  1  0  0  0
 44 45  1  0  0  0
  7 10  1  0  0  0
 28 31  1  0  0  0
M  END
> <minimizedAffinity>
-10.12812

> <CNNscore>
0.7351610661

> <CNNaffinity>
6.7868337631

> <CNN_VS>
4.9894161224

> <CNNaffinity_variance>
0.0752916858

$$$$
[H]OC(=O)c1c([H])c([H])c([H])c(O[H])c1C(=O)c1c(O[H])c([H])c(C(=O)OC([H])([H])[C@]2([H])C([H])([H])C([H])([H])C([H])([H])[C@@]2([H])N([H])C(=O)c2c([H])c([H])c(O[H])c([H])c2[H])c([H])c1O[H]


 45 48  0  0  0  0  0  0  0  0999 V2000
   -0.9368   22.6387  -19.3718 C   0  0  0  0  0  0  0  0  0  0  0  0
    0.2924   23.2137  -19.2467 C   0  0  0  0  0  0  0  0  0  0  0  0
    1.1559   22.8674  -18.1981 C   0  0  0  0  0  0  0  0  0  0  0  0
    2.3716   23.5059  -18.1744 O   0  0  0  0  0  0  0  0  0  0  0  0
    0.8030   21.9345  -17.2484 C   0  0  0  0  0  0  0  0  0  0  0  0
   -0.4636   21.3489  -17.3843 C   0  0  0  0  0  0  0  0  0  0  0  0
   -0.9393   20.3888  -16.4724 O   0  0  0  0  0  0  0  0  0  0  0  0
   -1.2880   21.7077  -18.4241 C   0  0  0  0  0  0  0  0  0  0  0  0
    3.1386   23.4246  -17.5759 H   0  0  0  0  0  0  0  0  0  0  0  0
   -1.8365   19.9883  -16.5882 H   0  0  0  0  0  0  0  0  0  0  0  0
   -1.8578   22.9927  -20.4759 C   0  0  0  0  0  0  0  0  0  0  0  0
   -1.5148   23.9077  -21.2357 O   0  0  0  0  0  0  0  0  0  0  0  0
   -2.9996   22.3581  -20.6433 O   0  0  0  0  0  0  0  0  0  0  0  0
   -4.3236   22.5377  -20.7926 C   0  0  0  0  0  0  0  0  0  0  0  0
   -4.8574   22.1128  -23.1200 C   0  0  0  0  0  0  0  0  0  0  0  0
   -6.3265   21.9628  -23.4327 C   0  0  0  0  0  0  0  0  0  0  0  0
   -7.0516   23.1335  -22.8626 C   0  0  0  0  0  0  0  0  0  0  0  0
   -6.0669   23.8986  -21.9887 C   0  0  0  0  0  0  0  0  0  0  0  0
   -4.7970   23.1925  -22.0338 C   0  0  0  0  0  0  0  0  0  0  0  0
   -2.3104   21.2344  -23.5551 O   0  0  0  0  0  0  0  0  0  0  0  0
   -2.7881   21.9895  -24.4517 C   0  0  0  0  0  0  0  0  0  0  0  0
   -4.0906   22.4798  -24.2944 N   0  0  0  0  0  0  0  0  0  0  0  0
   -4.5085   23.1122  -25.0255 H   0  0  0  0  0  0  0  0  0  0  0  0
   -1.9681   22.3062  -25.5886 C   0  0  0  0  0  0  0  0  0  0  0  0
   -2.5390   22.6773  -26.7807 C   0  0  0  0  0  0  0  0  0  0  0  0
   -1.7518   22.9854  -27.8930 C   0  0  0  0  0  0  0  0  0  0  0  0
   -0.3842   22.9158  -27.7907 C   0  0  0  0  0  0  0  0  0  0  0  0
    0.4207   23.2202  -28.8911 O   0  0  0  0  0  0  0  0  0  0  0  0
    0.1875   22.5428  -26.5920 C   0  0  0  0  0  0  0  0  0  0  0  0
   -0.5800   22.2374  -25.4911 C   0  0  0  0  0  0  0  0  0  0  0  0
    0.7485   24.1523  -29.0641 H   0  0  0  0  0  0  0  0  0  0  0  0
    1.5325   21.6293  -16.0612 C   0  0  0  0  0  0  0  0  0  0  0  0
    2.2142   20.5108  -16.1627 O   0  0  0  0  0  0  0  0  0  0  0  0
    1.6719   22.3127  -14.8017 C   0  0  0  0  0  0  0  0  0  0  0  0
    2.8923   23.0260  -14.6792 C   0  0  0  0  0  0  0  0  0  0  0  0
    3.7953   23.0161  -15.7329 O   0  0  0  0  0  0  0  0  0  0  0  0
    3.2148   23.7261  -13.5581 C   0  0  0  0  0  0  0  0  0  0  0  0
    2.3006   23.7162  -12.5335 C   0  0  0  0  0  0  0  0  0  0  0  0
    1.1254   23.0389  -12.6209 C   0  0  0  0  0  0  0  0  0  0  0  0
    0.7773   22.2973  -13.7899 C   0  0  0  0  0  0  0  0  0  0  0  0
    4.6558   23.5257  -15.6339 H   0  0  0  0  0  0  0  0  0  0  0  0
   -0.3820   21.4398  -13.6890 C   0  0  0  0  0  0  0  0  0  0  0  0
   -0.1757   20.1938  -13.4920 O   0  0  0  0  0  0  0  0  0  0  0  0
   -1.6798   21.7964  -13.7894 O   0  0  0  0  0  0  0  0  0  0  0  0
   -2.4663   21.1946  -13.9330 H   0  0  0  0  0  0  0  0  0  0  0  0
 20 21  2  0  0  0
 21 22  1  0  0  0
 22 15  1  0  0  0
 15 16  1  0  0  0
 16 17  1  0  0  0
 17 18  1  0  0  0
 18 19  1  0  0  0
 19 14  1  0  0  0
 14 13  1  0  0  0
 13 11  1  0  0  0
 11 12  2  0  0  0
 11  1  1  0  0  0
  1  2  2  0  0  0
  2  3  1  0  0  0
  3  4  1  0  0  0
  3  5  2  0  0  0
  5 32  1  0  0  0
 32 33  2  0  0  0
 32 34  1  0  0  0
 34 35  2  0  0  0
 35 36  1  0  0  0
 35 37  1  0  0  0
 37 38  2  0  0  0
 38 39  1  0  0  0
 39 40  2  0  0  0
 40 42  1  0  0  0
 42 43  2  0  0  0
 42 44  1  0  0  0
  5  6  1  0  0  0
  6  7  1  0  0  0
  6  8  2  0  0  0
 21 24  1  0  0  0
 24 25  2  0  0  0
 25 26  1  0  0  0
 26 27  2  0  0  0
 27 28  1  0  0  0
 27 29  1  0  0  0
 29 30  2  0  0  0
 19 15  1  0  0  0
  8  1  1  0  0  0
 30 24  1  0  0  0
 40 34  1  0  0  0
 22 23  1  0  0  0
  4  9  1  0  0  0
 36 41  1  0  0  0
 44 45  1  0  0  0
  7 10  1  0  0  0
 28 31  1  0  0  0
M  END
> <minimizedAffinity>
-7.95708

> <CNNscore>
0.5607621670

> <CNNaffinity>
5.8818650246

> <CNN_VS>
3.2983274460

> <CNNaffinity_variance>
0.1040182859

$$$$
[H]OC(=O)c1c([H])c([H])c([H])c(O[H])c1C(=O)c1c(O[H])c([H])c(C(=O)OC([H])([H])[C@]2([H])C([H])([H])C([H])([H])C([H])([H])[C@@]2([H])N([H])C(=O)c2c([H])c([H])c(O[H])c([H])c2[H])c([H])c1O[H]


 45 48  0  0  0  0  0  0  0  0999 V2000
   -0.4426   22.2721  -25.6527 C   0  0  0  0  0  0  0  0  0  0  0  0
    0.8228   22.0975  -25.1781 C   0  0  0  0  0  0  0  0  0  0  0  0
    1.0554   21.6025  -23.8873 C   0  0  0  0  0  0  0  0  0  0  0  0
    2.3704   21.4618  -23.5169 O   0  0  0  0  0  0  0  0  0  0  0  0
    0.0198   21.2720  -23.0417 C   0  0  0  0  0  0  0  0  0  0  0  0
   -1.2785   21.4558  -23.5378 C   0  0  0  0  0  0  0  0  0  0  0  0
   -2.4171   21.1611  -22.7655 O   0  0  0  0  0  0  0  0  0  0  0  0
   -1.4754   21.9418  -24.8086 C   0  0  0  0  0  0  0  0  0  0  0  0
    2.7846   21.1241  -22.6999 H   0  0  0  0  0  0  0  0  0  0  0  0
   -3.3240   21.2982  -23.1364 H   0  0  0  0  0  0  0  0  0  0  0  0
   -0.7030   22.7911  -27.0149 C   0  0  0  0  0  0  0  0  0  0  0  0
    0.2734   23.1450  -27.6884 O   0  0  0  0  0  0  0  0  0  0  0  0
   -1.9276   22.8736  -27.4921 O   0  0  0  0  0  0  0  0  0  0  0  0
   -2.6523   23.3059  -28.5388 C   0  0  0  0  0  0  0  0  0  0  0  0
   -4.8146   24.1667  -27.8562 C   0  0  0  0  0  0  0  0  0  0  0  0
   -5.6251   24.8254  -28.9460 C   0  0  0  0  0  0  0  0  0  0  0  0
   -5.6978   23.8943  -30.1075 C   0  0  0  0  0  0  0  0  0  0  0  0
   -4.7338   22.7477  -29.8341 C   0  0  0  0  0  0  0  0  0  0  0  0
   -4.1015   23.0006  -28.5497 C   0  0  0  0  0  0  0  0  0  0  0  0
   -4.0163   24.2827  -25.2490 O   0  0  0  0  0  0  0  0  0  0  0  0
   -5.1738   23.8091  -25.4450 C   0  0  0  0  0  0  0  0  0  0  0  0
   -5.6495   23.7180  -26.7592 N   0  0  0  0  0  0  0  0  0  0  0  0
   -6.6081   23.3246  -26.9475 H   0  0  0  0  0  0  0  0  0  0  0  0
   -5.9432   23.3881  -24.3066 C   0  0  0  0  0  0  0  0  0  0  0  0
   -6.7792   24.2672  -23.6640 C   0  0  0  0  0  0  0  0  0  0  0  0
   -7.5304   23.8695  -22.5552 C   0  0  0  0  0  0  0  0  0  0  0  0
   -7.4302   22.5772  -22.1018 C   0  0  0  0  0  0  0  0  0  0  0  0
   -8.1730   22.1596  -20.9949 O   0  0  0  0  0  0  0  0  0  0  0  0
   -6.5896   21.6954  -22.7489 C   0  0  0  0  0  0  0  0  0  0  0  0
   -5.8458   22.0783  -23.8418 C   0  0  0  0  0  0  0  0  0  0  0  0
   -9.0927   21.7712  -21.0921 H   0  0  0  0  0  0  0  0  0  0  0  0
    0.1419   20.9162  -21.6657 C   0  0  0  0  0  0  0  0  0  0  0  0
   -0.3023   19.7049  -21.4176 O   0  0  0  0  0  0  0  0  0  0  0  0
    0.6653   21.6167  -20.5219 C   0  0  0  0  0  0  0  0  0  0  0  0
   -0.2927   22.4436  -19.8801 C   0  0  0  0  0  0  0  0  0  0  0  0
   -1.5882   22.4948  -20.3749 O   0  0  0  0  0  0  0  0  0  0  0  0
    0.0124   23.1953  -18.7880 C   0  0  0  0  0  0  0  0  0  0  0  0
    1.3023   23.1227  -18.3228 C   0  0  0  0  0  0  0  0  0  0  0  0
    2.2421   22.3426  -18.9192 C   0  0  0  0  0  0  0  0  0  0  0  0
    1.9357   21.5526  -20.0680 C   0  0  0  0  0  0  0  0  0  0  0  0
   -2.2574   23.0839  -19.9111 H   0  0  0  0  0  0  0  0  0  0  0  0
    3.0552   20.9421  -20.7489 C   0  0  0  0  0  0  0  0  0  0  0  0
    3.0395   19.6709  -20.8821 O   0  0  0  0  0  0  0  0  0  0  0  0
    4.1409   21.5581  -21.2620 O   0  0  0  0  0  0  0  0  0  0  0  0
    5.0052   21.1365  -21.5386 H   0  0  0  0  0  0  0  0  0  0  0  0
 20 21  2  0  0  0
 21 22  1  0  0  0
 22 15  1  0  0  0
 15 16  1  0  0  0
 16 17  1  0  0  0
 17 18  1  0  0  0
 18 19  1  0  0  0
 19 14  1  0  0  0
 14 13  1  0  0  0
 13 11  1  0  0  0
 11 12  2  0  0  0
 11  1  1  0  0  0
  1  2  2  0  0  0
  2  3  1  0  0  0
  3  4  1  0  0  0
  3  5  2  0  0  0
  5 32  1  0  0  0
 32 33  2  0  0  0
 32 34  1  0  0  0
 34 35  2  0  0  0
 35 36  1  0  0  0
 35 37  1  0  0  0
 37 38  2  0  0  0
 38 39  1  0  0  0
 39 40  2  0  0  0
 40 42  1  0  0  0
 42 43  2  0  0  0
 42 44  1  0  0  0
  5  6  1  0  0  0
  6  7  1  0  0  0
  6  8  2  0  0  0
 21 24  1  0  0  0
 24 25  2  0  0  0
 25 26  1  0  0  0
 26 27  2  0  0  0
 27 28  1  0  0  0
 27 29  1  0  0  0
 29 30  2  0  0  0
 19 15  1  0  0  0
  8  1  1  0  0  0
 30 24  1  0  0  0
 40 34  1  0  0  0
 22 23  1  0  0  0
  4  9  1  0  0  0
 36 41  1  0  0  0
 44 45  1  0  0  0
  7 10  1  0  0  0
 28 31  1  0  0  0
M  END
> <minimizedAffinity>
-10.00197

> <CNNscore>
0.5547000170

> <CNNaffinity>
6.7060499191

> <CNN_VS>
3.7198460102

> <CNNaffinity_variance>
0.0796577334

$$$$
[H]OC(=O)c1c([H])c([H])c([H])c(O[H])c1C(=O)c1c(O[H])c([H])c(C(=O)OC([H])([H])[C@]2([H])C([H])([H])C([H])([H])C([H])([H])[C@@]2([H])N([H])C(=O)c2c([H])c([H])c(O[H])c([H])c2[H])c([H])c1O[H]


 45 48  0  0  0  0  0  0  0  0999 V2000
   -0.5508   22.0766  -25.2966 C   0  0  0  0  0  0  0  0  0  0  0  0
    0.7716   21.9791  -24.9820 C   0  0  0  0  0  0  0  0  0  0  0  0
    1.1896   21.5934  -23.7007 C   0  0  0  0  0  0  0  0  0  0  0  0
    2.5462   21.5231  -23.4982 O   0  0  0  0  0  0  0  0  0  0  0  0
    0.2867   21.2974  -22.7037 C   0  0  0  0  0  0  0  0  0  0  0  0
   -1.0714   21.4015  -23.0359 C   0  0  0  0  0  0  0  0  0  0  0  0
   -2.0873   21.1322  -22.1004 O   0  0  0  0  0  0  0  0  0  0  0  0
   -1.4510   21.7808  -24.3015 C   0  0  0  0  0  0  0  0  0  0  0  0
    3.0762   21.2630  -22.7207 H   0  0  0  0  0  0  0  0  0  0  0  0
   -3.0394   21.2116  -22.3571 H   0  0  0  0  0  0  0  0  0  0  0  0
   -1.0065   22.4799  -26.6465 C   0  0  0  0  0  0  0  0  0  0  0  0
   -0.1458   22.6037  -27.5274 O   0  0  0  0  0  0  0  0  0  0  0  0
   -2.2799   22.6990  -26.9007 O   0  0  0  0  0  0  0  0  0  0  0  0
   -3.1532   22.9745  -27.8850 C   0  0  0  0  0  0  0  0  0  0  0  0
   -4.3856   24.3127  -26.2810 C   0  0  0  0  0  0  0  0  0  0  0  0
   -4.8302   25.6692  -26.7719 C   0  0  0  0  0  0  0  0  0  0  0  0
   -5.5445   25.4906  -28.0677 C   0  0  0  0  0  0  0  0  0  0  0  0
   -5.3416   24.0463  -28.5053 C   0  0  0  0  0  0  0  0  0  0  0  0
   -4.5207   23.3924  -27.4992 C   0  0  0  0  0  0  0  0  0  0  0  0
   -3.5131   24.4216  -23.6974 O   0  0  0  0  0  0  0  0  0  0  0  0
   -4.6733   23.9427  -23.8621 C   0  0  0  0  0  0  0  0  0  0  0  0
   -5.1863   23.8549  -25.1625 N   0  0  0  0  0  0  0  0  0  0  0  0
   -6.1478   23.4571  -25.3248 H   0  0  0  0  0  0  0  0  0  0  0  0
   -5.4073   23.5126  -22.7039 C   0  0  0  0  0  0  0  0  0  0  0  0
   -6.6723   22.9945  -22.8307 C   0  0  0  0  0  0  0  0  0  0  0  0
   -7.3959   22.5750  -21.7116 C   0  0  0  0  0  0  0  0  0  0  0  0
   -6.8311   22.6831  -20.4646 C   0  0  0  0  0  0  0  0  0  0  0  0
   -7.5378   22.2692  -19.3330 O   0  0  0  0  0  0  0  0  0  0  0  0
   -5.5599   23.2040  -20.3394 C   0  0  0  0  0  0  0  0  0  0  0  0
   -4.8397   23.6198  -21.4361 C   0  0  0  0  0  0  0  0  0  0  0  0
   -7.4764   21.3300  -18.9862 H   0  0  0  0  0  0  0  0  0  0  0  0
    0.6005   21.0537  -21.3337 C   0  0  0  0  0  0  0  0  0  0  0  0
    1.8949   20.9945  -21.1165 O   0  0  0  0  0  0  0  0  0  0  0  0
   -0.2197   20.8793  -20.1634 C   0  0  0  0  0  0  0  0  0  0  0  0
   -0.5187   19.5211  -19.8816 C   0  0  0  0  0  0  0  0  0  0  0  0
   -0.0115   18.5272  -20.7066 O   0  0  0  0  0  0  0  0  0  0  0  0
   -1.2907   19.1519  -18.8239 C   0  0  0  0  0  0  0  0  0  0  0  0
   -1.7772   20.1586  -18.0269 C   0  0  0  0  0  0  0  0  0  0  0  0
   -1.5107   21.4682  -18.2743 C   0  0  0  0  0  0  0  0  0  0  0  0
   -0.7057   21.8688  -19.3831 C   0  0  0  0  0  0  0  0  0  0  0  0
   -0.2302   17.5691  -20.4960 H   0  0  0  0  0  0  0  0  0  0  0  0
   -0.6733   23.2831  -19.6798 C   0  0  0  0  0  0  0  0  0  0  0  0
   -1.4567   23.7094  -20.5955 O   0  0  0  0  0  0  0  0  0  0  0  0
    0.1036   24.2260  -19.1064 O   0  0  0  0  0  0  0  0  0  0  0  0
    0.2864   25.1505  -19.4430 H   0  0  0  0  0  0  0  0  0  0  0  0
 20 21  2  0  0  0
 21 22  1  0  0  0
 22 15  1  0  0  0
 15 16  1  0  0  0
 16 17  1  0  0  0
 17 18  1  0  0  0
 18 19  1  0  0  0
 19 14  1  0  0  0
 14 13  1  0  0  0
 13 11  1  0  0  0
 11 12  2  0  0  0
 11  1  1  0  0  0
  1  2  2  0  0  0
  2  3  1  0  0  0
  3  4  1  0  0  0
  3  5  2  0  0  0
  5 32  1  0  0  0
 32 33  2  0  0  0
 32 34  1  0  0  0
 34 35  2  0  0  0
 35 36  1  0  0  0
 35 37  1  0  0  0
 37 38  2  0  0  0
 38 39  1  0  0  0
 39 40  2  0  0  0
 40 42  1  0  0  0
 42 43  2  0  0  0
 42 44  1  0  0  0
  5  6  1  0  0  0
  6  7  1  0  0  0
  6  8  2  0  0  0
 21 24  1  0  0  0
 24 25  2  0  0  0
 25 26  1  0  0  0
 26 27  2  0  0  0
 27 28  1  0  0  0
 27 29  1  0  0  0
 29 30  2  0  0  0
 19 15  1  0  0  0
  8  1  1  0  0  0
 30 24  1  0  0  0
 40 34  1  0  0  0
 22 23  1  0  0  0
  4  9  1  0  0  0
 36 41  1  0  0  0
 44 45  1  0  0  0
  7 10  1  0  0  0
 28 31  1  0  0  0
M  END
> <minimizedAffinity>
-9.30925

> <CNNscore>
0.4921761751

> <CNNaffinity>
6.5601930618

> <CNN_VS>
3.2287707329

> <CNNaffinity_variance>
0.0861576647

$$$$
[H]OC(=O)c1c([H])c([H])c([H])c(O[H])c1C(=O)c1c(O[H])c([H])c(C(=O)OC([H])([H])[C@]2([H])C([H])([H])C([H])([H])C([H])([H])[C@@]2([H])N([H])C(=O)c2c([H])c([H])c(O[H])c([H])c2[H])c([H])c1O[H]


 45 48  0  0  0  0  0  0  0  0999 V2000
   -6.6367   23.8564  -21.9702 C   0  0  0  0  0  0  0  0  0  0  0  0
   -7.3749   22.7146  -21.8779 C   0  0  0  0  0  0  0  0  0  0  0  0
   -7.8756   22.2677  -20.6471 C   0  0  0  0  0  0  0  0  0  0  0  0
   -8.6111   21.1082  -20.6739 O   0  0  0  0  0  0  0  0  0  0  0  0
   -7.6447   22.9586  -19.4783 C   0  0  0  0  0  0  0  0  0  0  0  0
   -6.8836   24.1313  -19.5825 C   0  0  0  0  0  0  0  0  0  0  0  0
   -6.5748   24.9184  -18.4578 O   0  0  0  0  0  0  0  0  0  0  0  0
   -6.4071   24.5454  -20.8037 C   0  0  0  0  0  0  0  0  0  0  0  0
   -9.0763   20.6154  -19.9711 H   0  0  0  0  0  0  0  0  0  0  0  0
   -6.0364   25.7427  -18.5550 H   0  0  0  0  0  0  0  0  0  0  0  0
   -6.1042   24.3418  -23.2638 C   0  0  0  0  0  0  0  0  0  0  0  0
   -4.9077   24.6559  -23.3081 O   0  0  0  0  0  0  0  0  0  0  0  0
   -6.8746   24.4362  -24.3277 O   0  0  0  0  0  0  0  0  0  0  0  0
   -6.9047   24.2539  -25.6594 C   0  0  0  0  0  0  0  0  0  0  0  0
   -5.1140   23.3996  -27.0543 C   0  0  0  0  0  0  0  0  0  0  0  0
   -5.3179   23.5563  -28.5417 C   0  0  0  0  0  0  0  0  0  0  0  0
   -5.6609   24.9791  -28.8231 C   0  0  0  0  0  0  0  0  0  0  0  0
   -5.9025   25.6635  -27.4844 C   0  0  0  0  0  0  0  0  0  0  0  0
   -5.7170   24.6683  -26.4411 C   0  0  0  0  0  0  0  0  0  0  0  0
   -4.2553   21.8025  -25.0146 O   0  0  0  0  0  0  0  0  0  0  0  0
   -3.3456   22.4064  -25.6552 C   0  0  0  0  0  0  0  0  0  0  0  0
   -3.7129   23.2450  -26.7152 N   0  0  0  0  0  0  0  0  0  0  0  0
   -2.9742   23.7604  -27.2609 H   0  0  0  0  0  0  0  0  0  0  0  0
   -1.9789   22.2003  -25.2619 C   0  0  0  0  0  0  0  0  0  0  0  0
   -0.9571   22.3906  -26.1588 C   0  0  0  0  0  0  0  0  0  0  0  0
    0.3751   22.1913  -25.7881 C   0  0  0  0  0  0  0  0  0  0  0  0
    0.6659   21.7989  -24.5047 C   0  0  0  0  0  0  0  0  0  0  0  0
    1.9914   21.5945  -24.1140 O   0  0  0  0  0  0  0  0  0  0  0  0
   -0.3622   21.6082  -23.6050 C   0  0  0  0  0  0  0  0  0  0  0  0
   -1.6774   21.8021  -23.9613 C   0  0  0  0  0  0  0  0  0  0  0  0
    2.5487   22.3344  -23.7290 H   0  0  0  0  0  0  0  0  0  0  0  0
   -7.9675   22.5119  -18.1626 C   0  0  0  0  0  0  0  0  0  0  0  0
   -7.2905   23.1492  -17.2344 O   0  0  0  0  0  0  0  0  0  0  0  0
   -8.8904   21.5231  -17.6694 C   0  0  0  0  0  0  0  0  0  0  0  0
   -8.2619   20.3166  -17.2661 C   0  0  0  0  0  0  0  0  0  0  0  0
   -6.8823   20.2021  -17.3637 O   0  0  0  0  0  0  0  0  0  0  0  0
   -8.9659   19.2575  -16.7827 C   0  0  0  0  0  0  0  0  0  0  0  0
  -10.3287   19.4022  -16.6985 C   0  0  0  0  0  0  0  0  0  0  0  0
  -10.9586   20.5444  -17.0808 C   0  0  0  0  0  0  0  0  0  0  0  0
  -10.2318   21.6609  -17.5935 C   0  0  0  0  0  0  0  0  0  0  0  0
   -6.4493   19.3426  -17.0744 H   0  0  0  0  0  0  0  0  0  0  0  0
  -11.0140   22.7287  -18.1744 C   0  0  0  0  0  0  0  0  0  0  0  0
  -11.1951   22.7031  -19.4395 O   0  0  0  0  0  0  0  0  0  0  0  0
  -11.5790   23.7752  -17.5363 O   0  0  0  0  0  0  0  0  0  0  0  0
  -11.9327   24.6174  -17.9448 H   0  0  0  0  0  0  0  0  0  0  0  0
 20 21  2  0  0  0
 21 22  1  0  0  0
 22 15  1  0  0  0
 15 16  1  0  0  0
 16 17  1  0  0  0
 17 18  1  0  0  0
 18 19  1  0  0  0
 19 14  1  0  0  0
 14 13  1  0  0  0
 13 11  1  0  0  0
 11 12  2  0  0  0
 11  1  1  0  0  0
  1  2  2  0  0  0
  2  3  1  0  0  0
  3  4  1  0  0  0
  3  5  2  0  0  0
  5 32  1  0  0  0
 32 33  2  0  0  0
 32 34  1  0  0  0
 34 35  2  0  0  0
 35 36  1  0  0  0
 35 37  1  0  0  0
 37 38  2  0  0  0
 38 39  1  0  0  0
 39 40  2  0  0  0
 40 42  1  0  0  0
 42 43  2  0  0  0
 42 44  1  0  0  0
  5  6  1  0  0  0
  6  7  1  0  0  0
  6  8  2  0  0  0
 21 24  1  0  0  0
 24 25  2  0  0  0
 25 26  1  0  0  0
 26 27  2  0  0  0
 27 28  1  0  0  0
 27 29  1  0  0  0
 29 30  2  0  0  0
 19 15  1  0  0  0
  8  1  1  0  0  0
 30 24  1  0  0  0
 40 34  1  0  0  0
 22 23  1  0  0  0
  4  9  1  0  0  0
 36 41  1  0  0  0
 44 45  1  0  0  0
  7 10  1  0  0  0
 28 31  1  0  0  0
M  END
> <minimizedAffinity>
-9.01552

> <CNNscore>
0.3044902384

> <CNNaffinity>
5.9772620201

> <CNN_VS>
1.8200179338

> <CNNaffinity_variance>
0.0717460066

$$$$
[H]OC(=O)c1c([H])c([H])c([H])c(O[H])c1C(=O)c1c(O[H])c([H])c(C(=O)OC([H])([H])[C@]2([H])C([H])([H])C([H])([H])C([H])([H])[C@@]2([H])N([H])C(=O)c2c([H])c([H])c(O[H])c([H])c2[H])c([H])c1O[H]


 45 48  0  0  0  0  0  0  0  0999 V2000
   -5.5997   25.8386  -24.6922 C   0  0  0  0  0  0  0  0  0  0  0  0
   -6.8807   26.0610  -24.2842 C   0  0  0  0  0  0  0  0  0  0  0  0
   -7.2940   25.7549  -22.9801 C   0  0  0  0  0  0  0  0  0  0  0  0
   -8.6059   26.0264  -22.6775 O   0  0  0  0  0  0  0  0  0  0  0  0
   -6.4282   25.2160  -22.0545 C   0  0  0  0  0  0  0  0  0  0  0  0
   -5.1127   24.9896  -22.4832 C   0  0  0  0  0  0  0  0  0  0  0  0
   -4.1390   24.4364  -21.6313 O   0  0  0  0  0  0  0  0  0  0  0  0
   -4.7362   25.3013  -23.7681 C   0  0  0  0  0  0  0  0  0  0  0  0
   -9.1178   25.9282  -21.8521 H   0  0  0  0  0  0  0  0  0  0  0  0
   -3.2164   24.2859  -21.9552 H   0  0  0  0  0  0  0  0  0  0  0  0
   -5.1487   26.1599  -26.0655 C   0  0  0  0  0  0  0  0  0  0  0  0
   -3.9390   26.3569  -26.2388 O   0  0  0  0  0  0  0  0  0  0  0  0
   -6.0025   26.2337  -27.0654 O   0  0  0  0  0  0  0  0  0  0  0  0
   -6.2559   25.7801  -28.3054 C   0  0  0  0  0  0  0  0  0  0  0  0
   -5.0342   23.6875  -28.4097 C   0  0  0  0  0  0  0  0  0  0  0  0
   -5.4560   22.7430  -29.5090 C   0  0  0  0  0  0  0  0  0  0  0  0
   -5.4601   23.4916  -30.7977 C   0  0  0  0  0  0  0  0  0  0  0  0
   -5.2678   24.9661  -30.4695 C   0  0  0  0  0  0  0  0  0  0  0  0
   -5.1631   25.0856  -29.0244 C   0  0  0  0  0  0  0  0  0  0  0  0
   -4.4951   22.5079  -26.0084 O   0  0  0  0  0  0  0  0  0  0  0  0
   -3.4841   22.8065  -26.7091 C   0  0  0  0  0  0  0  0  0  0  0  0
   -3.6849   23.4165  -27.9539 N   0  0  0  0  0  0  0  0  0  0  0  0
   -2.8591   23.6770  -28.5533 H   0  0  0  0  0  0  0  0  0  0  0  0
   -2.1783   22.5037  -26.1911 C   0  0  0  0  0  0  0  0  0  0  0  0
   -2.0227   22.0688  -24.8983 C   0  0  0  0  0  0  0  0  0  0  0  0
   -0.7579   21.7734  -24.3835 C   0  0  0  0  0  0  0  0  0  0  0  0
    0.3472   21.9206  -25.1852 C   0  0  0  0  0  0  0  0  0  0  0  0
    1.6206   21.6303  -24.6897 O   0  0  0  0  0  0  0  0  0  0  0  0
    0.1887   22.3578  -26.4840 C   0  0  0  0  0  0  0  0  0  0  0  0
   -1.0533   22.6511  -26.9996 C   0  0  0  0  0  0  0  0  0  0  0  0
    2.0198   20.7131  -24.7640 H   0  0  0  0  0  0  0  0  0  0  0  0
   -6.7816   24.7225  -20.7636 C   0  0  0  0  0  0  0  0  0  0  0  0
   -6.2380   25.4199  -19.7919 O   0  0  0  0  0  0  0  0  0  0  0  0
   -7.6194   23.6335  -20.3337 C   0  0  0  0  0  0  0  0  0  0  0  0
   -6.9277   22.3994  -20.2237 C   0  0  0  0  0  0  0  0  0  0  0  0
   -5.5711   22.3513  -20.5120 O   0  0  0  0  0  0  0  0  0  0  0  0
   -7.5488   21.2504  -19.8429 C   0  0  0  0  0  0  0  0  0  0  0  0
   -8.8910   21.3310  -19.5647 C   0  0  0  0  0  0  0  0  0  0  0  0
   -9.5804   22.4981  -19.6650 C   0  0  0  0  0  0  0  0  0  0  0  0
   -8.9413   23.7095  -20.0675 C   0  0  0  0  0  0  0  0  0  0  0  0
   -5.0927   21.4714  -20.4298 H   0  0  0  0  0  0  0  0  0  0  0  0
   -9.8065   24.8310  -20.3554 C   0  0  0  0  0  0  0  0  0  0  0  0
  -10.7188   24.6589  -21.2340 O   0  0  0  0  0  0  0  0  0  0  0  0
   -9.7634   26.0644  -19.8090 O   0  0  0  0  0  0  0  0  0  0  0  0
  -10.2078   26.8948  -20.1466 H   0  0  0  0  0  0  0  0  0  0  0  0
 20 21  2  0  0  0
 21 22  1  0  0  0
 22 15  1  0  0  0
 15 16  1  0  0  0
 16 17  1  0  0  0
 17 18  1  0  0  0
 18 19  1  0  0  0
 19 14  1  0  0  0
 14 13  1  0  0  0
 13 11  1  0  0  0
 11 12  2  0  0  0
 11  1  1  0  0  0
  1  2  2  0  0  0
  2  3  1  0  0  0
  3  4  1  0  0  0
  3  5  2  0  0  0
  5 32  1  0  0  0
 32 33  2  0  0  0
 32 34  1  0  0  0
 34 35  2  0  0  0
 35 36  1  0  0  0
 35 37  1  0  0  0
 37 38  2  0  0  0
 38 39  1  0  0  0
 39 40  2  0  0  0
 40 42  1  0  0  0
 42 43  2  0  0  0
 42 44  1  0  0  0
  5  6  1  0  0  0
  6  7  1  0  0  0
  6  8  2  0  0  0
 21 24  1  0  0  0
 24 25  2  0  0  0
 25 26  1  0  0  0
 26 27  2  0  0  0
 27 28  1  0  0  0
 27 29  1  0  0  0
 29 30  2  0  0  0
 19 15  1  0  0  0
  8  1  1  0  0  0
 30 24  1  0  0  0
 40 34  1  0  0  0
 22 23  1  0  0  0
  4  9  1  0  0  0
 36 41  1  0  0  0
 44 45  1  0  0  0
  7 10  1  0  0  0
 28 31  1  0  0  0
M  END
> <minimizedAffinity>
-10.22797

> <CNNscore>
0.3015337884

> <CNNaffinity>
6.2789397240

> <CNN_VS>
1.8933124542

> <CNNaffinity_variance>
0.1153663769

$$$$
[H]OC(=O)c1c([H])c([H])c([H])c(O[H])c1C(=O)c1c(O[H])c([H])c(C(=O)OC([H])([H])[C@]2([H])C([H])([H])C([H])([H])C([H])([H])[C@@]2([H])N([H])C(=O)c2c([H])c([H])c(O[H])c([H])c2[H])c([H])c1O[H]


 45 48  0  0  0  0  0  0  0  0999 V2000
   -1.5114   22.4558  -25.2826 C   0  0  0  0  0  0  0  0  0  0  0  0
   -0.4987   21.8761  -24.5787 C   0  0  0  0  0  0  0  0  0  0  0  0
   -0.5019   21.8587  -23.1770 C   0  0  0  0  0  0  0  0  0  0  0  0
    0.5665   21.2421  -22.5732 O   0  0  0  0  0  0  0  0  0  0  0  0
   -1.5242   22.4257  -22.4488 C   0  0  0  0  0  0  0  0  0  0  0  0
   -2.5612   23.0207  -23.1810 C   0  0  0  0  0  0  0  0  0  0  0  0
   -3.6562   23.6387  -22.5496 O   0  0  0  0  0  0  0  0  0  0  0  0
   -2.5312   23.0210  -24.5554 C   0  0  0  0  0  0  0  0  0  0  0  0
    0.7804   21.0809  -21.6344 H   0  0  0  0  0  0  0  0  0  0  0  0
   -4.3771   24.0520  -23.0866 H   0  0  0  0  0  0  0  0  0  0  0  0
   -1.5224   22.4788  -26.7631 C   0  0  0  0  0  0  0  0  0  0  0  0
   -0.4916   22.1225  -27.3484 O   0  0  0  0  0  0  0  0  0  0  0  0
   -2.5890   22.8643  -27.4326 O   0  0  0  0  0  0  0  0  0  0  0  0
   -3.1743   22.8343  -28.6426 C   0  0  0  0  0  0  0  0  0  0  0  0
   -4.8361   24.5207  -28.1165 C   0  0  0  0  0  0  0  0  0  0  0  0
   -5.2842   25.3756  -29.2771 C   0  0  0  0  0  0  0  0  0  0  0  0
   -5.6852   24.4774  -30.3969 C   0  0  0  0  0  0  0  0  0  0  0  0
   -5.2653   23.0631  -30.0200 C   0  0  0  0  0  0  0  0  0  0  0  0
   -4.6244   23.1264  -28.7167 C   0  0  0  0  0  0  0  0  0  0  0  0
   -4.4760   25.8702  -25.7719 O   0  0  0  0  0  0  0  0  0  0  0  0
   -5.5617   25.2267  -25.8702 C   0  0  0  0  0  0  0  0  0  0  0  0
   -5.8139   24.5089  -27.0462 N   0  0  0  0  0  0  0  0  0  0  0  0
   -6.7087   23.9634  -27.1499 H   0  0  0  0  0  0  0  0  0  0  0  0
   -6.4829   25.2655  -24.7680 C   0  0  0  0  0  0  0  0  0  0  0  0
   -6.0648   25.6592  -23.5210 C   0  0  0  0  0  0  0  0  0  0  0  0
   -6.9511   25.6989  -22.4418 C   0  0  0  0  0  0  0  0  0  0  0  0
   -8.2622   25.3380  -22.6329 C   0  0  0  0  0  0  0  0  0  0  0  0
   -9.1643   25.3710  -21.5669 O   0  0  0  0  0  0  0  0  0  0  0  0
   -8.6803   24.9427  -23.8866 C   0  0  0  0  0  0  0  0  0  0  0  0
   -7.8143   24.9006  -24.9555 C   0  0  0  0  0  0  0  0  0  0  0  0
   -9.7002   26.1917  -21.3536 H   0  0  0  0  0  0  0  0  0  0  0  0
   -1.5468   22.6041  -21.0337 C   0  0  0  0  0  0  0  0  0  0  0  0
   -1.1151   23.7901  -20.6688 O   0  0  0  0  0  0  0  0  0  0  0  0
   -1.9613   21.7498  -19.9514 C   0  0  0  0  0  0  0  0  0  0  0  0
   -0.8971   21.0020  -19.3841 C   0  0  0  0  0  0  0  0  0  0  0  0
    0.3875   21.1584  -19.8851 O   0  0  0  0  0  0  0  0  0  0  0  0
   -1.0892   20.1293  -18.3582 C   0  0  0  0  0  0  0  0  0  0  0  0
   -2.3714   19.9973  -17.8850 C   0  0  0  0  0  0  0  0  0  0  0  0
   -3.4109   20.6973  -18.4110 C   0  0  0  0  0  0  0  0  0  0  0  0
   -3.2232   21.6128  -19.4902 C   0  0  0  0  0  0  0  0  0  0  0  0
    1.1325   20.6234  -19.4744 H   0  0  0  0  0  0  0  0  0  0  0  0
   -4.4204   22.1293  -20.1142 C   0  0  0  0  0  0  0  0  0  0  0  0
   -4.7505   23.3343  -19.8443 O   0  0  0  0  0  0  0  0  0  0  0  0
   -5.2549   21.4816  -20.9542 O   0  0  0  0  0  0  0  0  0  0  0  0
   -6.1820   21.7507  -21.2176 H   0  0  0  0  0  0  0  0  0  0  0  0
 20 21  2  0  0  0
 21 22  1  0  0  0
 22 15  1  0  0  0
 15 16  1  0  0  0
 16 17  1  0  0  0
 17 18  1  0  0  0
 18 19  1  0  0  0
 19 14  1  0  0  0
 14 13  1  0  0  0
 13 11  1  0  0  0
 11 12  2  0  0  0
 11  1  1  0  0  0
  1  2  2  0  0  0
  2  3  1  0  0  0
  3  4  1  0  0  0
  3  5  2  0  0  0
  5 32  1  0  0  0
 32 33  2  0  0  0
 32 34  1  0  0  0
 34 35  2  0  0  0
 35 36  1  0  0  0
 35 37  1  0  0  0
 37 38  2  0  0  0
 38 39  1  0  0  0
 39 40  2  0  0  0
 40 42  1  0  0  0
 42 43  2  0  0  0
 42 44  1  0  0  0
  5  6  1  0  0  0
  6  7  1  0  0  0
  6  8  2  0  0  0
 21 24  1  0  0  0
 24 25  2  0  0  0
 25 26  1  0  0  0
 26 27  2  0  0  0
 27 28  1  0  0  0
 27 29  1  0  0  0
 29 30  2  0  0  0
 19 15  1  0  0  0
  8  1  1  0  0  0
 30 24  1  0  0  0
 40 34  1  0  0  0
 22 23  1  0  0  0
  4  9  1  0  0  0
 36 41  1  0  0  0
 44 45  1  0  0  0
  7 10  1  0  0  0
 28 31  1  0  0  0
M  END
> <minimizedAffinity>
-8.93263

> <CNNscore>
0.2943106890

> <CNNaffinity>
6.3649377823

> <CNN_VS>
1.8732692003

> <CNNaffinity_variance>
0.3126916289

$$$$
[H]OC(=O)c1c([H])c([H])c([H])c(O[H])c1C(=O)c1c(O[H])c([H])c(C(=O)OC([H])([H])[C@]2([H])C([H])([H])C([H])([H])C([H])([H])[C@@]2([H])N([H])C(=O)c2c([H])c([H])c(O[H])c([H])c2[H])c([H])c1O[H]


 45 48  0  0  0  0  0  0  0  0999 V2000
   -6.7286   22.2579  -22.0999 C   0  0  0  0  0  0  0  0  0  0  0  0
   -5.8142   21.4906  -22.7574 C   0  0  0  0  0  0  0  0  0  0  0  0
   -5.0111   22.0248  -23.7747 C   0  0  0  0  0  0  0  0  0  0  0  0
   -4.1204   21.1613  -24.3639 O   0  0  0  0  0  0  0  0  0  0  0  0
   -5.1093   23.3444  -24.1563 C   0  0  0  0  0  0  0  0  0  0  0  0
   -6.0533   24.1260  -23.4754 C   0  0  0  0  0  0  0  0  0  0  0  0
   -6.2510   25.4851  -23.7807 O   0  0  0  0  0  0  0  0  0  0  0  0
   -6.8258   23.5745  -22.4809 C   0  0  0  0  0  0  0  0  0  0  0  0
   -3.4506   21.2924  -25.0620 H   0  0  0  0  0  0  0  0  0  0  0  0
   -6.9226   26.0177  -23.2867 H   0  0  0  0  0  0  0  0  0  0  0  0
   -7.5813   21.7077  -21.0215 C   0  0  0  0  0  0  0  0  0  0  0  0
   -8.7078   21.3011  -21.3343 O   0  0  0  0  0  0  0  0  0  0  0  0
   -7.1574   21.6533  -19.7759 O   0  0  0  0  0  0  0  0  0  0  0  0
   -6.8488   20.8096  -18.7756 C   0  0  0  0  0  0  0  0  0  0  0  0
   -4.4374   20.9944  -18.5927 C   0  0  0  0  0  0  0  0  0  0  0  0
   -3.8440   20.4959  -17.2973 C   0  0  0  0  0  0  0  0  0  0  0  0
   -4.3537   19.1183  -17.0448 C   0  0  0  0  0  0  0  0  0  0  0  0
   -5.4517   18.8442  -18.0636 C   0  0  0  0  0  0  0  0  0  0  0  0
   -5.5932   20.0324  -18.8891 C   0  0  0  0  0  0  0  0  0  0  0  0
   -3.9458   23.2126  -20.1047 O   0  0  0  0  0  0  0  0  0  0  0  0
   -3.2587   22.1901  -20.3960 C   0  0  0  0  0  0  0  0  0  0  0  0
   -3.4587   21.0140  -19.6621 N   0  0  0  0  0  0  0  0  0  0  0  0
   -2.9012   20.1496  -19.8880 H   0  0  0  0  0  0  0  0  0  0  0  0
   -2.3058   22.2878  -21.4672 C   0  0  0  0  0  0  0  0  0  0  0  0
   -1.6206   21.1784  -21.8967 C   0  0  0  0  0  0  0  0  0  0  0  0
   -0.6905   21.2621  -22.9358 C   0  0  0  0  0  0  0  0  0  0  0  0
   -0.4591   22.4747  -23.5371 C   0  0  0  0  0  0  0  0  0  0  0  0
    0.4666   22.5795  -24.5779 O   0  0  0  0  0  0  0  0  0  0  0  0
   -1.1487   23.5883  -23.1041 C   0  0  0  0  0  0  0  0  0  0  0  0
   -2.0666   23.5154  -22.0812 C   0  0  0  0  0  0  0  0  0  0  0  0
    0.1993   22.4567  -25.5369 H   0  0  0  0  0  0  0  0  0  0  0  0
   -4.4611   23.9437  -25.2768 C   0  0  0  0  0  0  0  0  0  0  0  0
   -3.6906   24.9509  -24.9332 O   0  0  0  0  0  0  0  0  0  0  0  0
   -4.4801   23.6473  -26.6855 C   0  0  0  0  0  0  0  0  0  0  0  0
   -3.2879   23.0327  -27.1485 C   0  0  0  0  0  0  0  0  0  0  0  0
   -2.2634   22.7712  -26.2497 O   0  0  0  0  0  0  0  0  0  0  0  0
   -3.1083   22.6865  -28.4519 C   0  0  0  0  0  0  0  0  0  0  0  0
   -4.1402   22.9584  -29.3160 C   0  0  0  0  0  0  0  0  0  0  0  0
   -5.2920   23.5496  -28.9021 C   0  0  0  0  0  0  0  0  0  0  0  0
   -5.4909   23.9214  -27.5383 C   0  0  0  0  0  0  0  0  0  0  0  0
   -1.4244   22.3351  -26.5900 H   0  0  0  0  0  0  0  0  0  0  0  0
   -6.6487   24.7389  -27.2543 C   0  0  0  0  0  0  0  0  0  0  0  0
   -6.6953   25.8980  -27.7912 O   0  0  0  0  0  0  0  0  0  0  0  0
   -7.7018   24.4288  -26.4693 O   0  0  0  0  0  0  0  0  0  0  0  0
   -8.3904   25.0543  -26.1006 H   0  0  0  0  0  0  0  0  0  0  0  0
 20 21  2  0  0  0
 21 22  1  0  0  0
 22 15  1  0  0  0
 15 16  1  0  0  0
 16 17  1  0  0  0
 17 18  1  0  0  0
 18 19  1  0  0  0
 19 14  1  0  0  0
 14 13  1  0  0  0
 13 11  1  0  0  0
 11 12  2  0  0  0
 11  1  1  0  0  0
  1  2  2  0  0  0
  2  3  1  0  0  0
  3  4  1  0  0  0
  3  5  2  0  0  0
  5 32  1  0  0  0
 32 33  2  0  0  0
 32 34  1  0  0  0
 34 35  2  0  0  0
 35 36  1  0  0  0
 35 37  1  0  0  0
 37 38  2  0  0  0
 38 39  1  0  0  0
 39 40  2  0  0  0
 40 42  1  0  0  0
 42 43  2  0  0  0
 42 44  1  0  0  0
  5  6  1  0  0  0
  6  7  1  0  0  0
  6  8  2  0  0  0
 21 24  1  0  0  0
 24 25  2  0  0  0
 25 26  1  0  0  0
 26 27  2  0  0  0
 27 28  1  0  0  0
 27 29  1  0  0  0
 29 30  2  0  0  0
 19 15  1  0  0  0
  8  1  1  0  0  0
 30 24  1  0  0  0
 40 34  1  0  0  0
 22 23  1  0  0  0
  4  9  1  0  0  0
 36 41  1  0  0  0
 44 45  1  0  0  0
  7 10  1  0  0  0
 28 31  1  0  0  0
M  END
> <minimizedAffinity>
-8.29980

> <CNNscore>
0.2888999581

> <CNNaffinity>
5.9192795753

> <CNN_VS>
1.7100796700

> <CNNaffinity_variance>
0.0658935681

$$$$
[H]OC(=O)c1c([H])c([H])c([H])c(O[H])c1C(=O)c1c(O[H])c([H])c(C(=O)OC([H])([H])[C@]2([H])C([H])([H])C([H])([H])C([H])([H])[C@@]2([H])N([H])C(=O)c2c([H])c([H])c(O[H])c([H])c2[H])c([H])c1O[H]


 45 48  0  0  0  0  0  0  0  0999 V2000
   -6.2357   24.6814  -22.2617 C   0  0  0  0  0  0  0  0  0  0  0  0
   -6.1110   25.6678  -23.1937 C   0  0  0  0  0  0  0  0  0  0  0  0
   -6.0928   25.3769  -24.5649 C   0  0  0  0  0  0  0  0  0  0  0  0
   -5.9688   26.4498  -25.4133 O   0  0  0  0  0  0  0  0  0  0  0  0
   -6.1985   24.0857  -25.0321 C   0  0  0  0  0  0  0  0  0  0  0  0
   -6.3253   23.0774  -24.0663 C   0  0  0  0  0  0  0  0  0  0  0  0
   -6.4334   21.7198  -24.4200 O   0  0  0  0  0  0  0  0  0  0  0  0
   -6.3415   23.3934  -22.7285 C   0  0  0  0  0  0  0  0  0  0  0  0
   -5.9549   26.5118  -26.3875 H   0  0  0  0  0  0  0  0  0  0  0  0
   -6.5226   21.0250  -23.7214 H   0  0  0  0  0  0  0  0  0  0  0  0
   -6.2594   24.9744  -20.8104 C   0  0  0  0  0  0  0  0  0  0  0  0
   -7.0478   25.8429  -20.4151 O   0  0  0  0  0  0  0  0  0  0  0  0
   -5.4709   24.3352  -19.9713 O   0  0  0  0  0  0  0  0  0  0  0  0
   -5.4071   23.2823  -19.1378 C   0  0  0  0  0  0  0  0  0  0  0  0
   -3.5149   21.7941  -19.4336 C   0  0  0  0  0  0  0  0  0  0  0  0
   -3.4356   20.6427  -18.4607 C   0  0  0  0  0  0  0  0  0  0  0  0
   -4.7488   19.9379  -18.4566 C   0  0  0  0  0  0  0  0  0  0  0  0
   -5.7270   20.7910  -19.2530 C   0  0  0  0  0  0  0  0  0  0  0  0
   -5.0125   21.9730  -19.7067 C   0  0  0  0  0  0  0  0  0  0  0  0
   -1.7267   23.5650  -20.4891 O   0  0  0  0  0  0  0  0  0  0  0  0
   -1.8665   22.4827  -21.1305 C   0  0  0  0  0  0  0  0  0  0  0  0
   -2.7692   21.5267  -20.6478 N   0  0  0  0  0  0  0  0  0  0  0  0
   -2.9050   20.6200  -21.1659 H   0  0  0  0  0  0  0  0  0  0  0  0
   -1.0901   22.2888  -22.3241 C   0  0  0  0  0  0  0  0  0  0  0  0
   -1.4939   22.8350  -23.5171 C   0  0  0  0  0  0  0  0  0  0  0  0
   -0.7480   22.6514  -24.6842 C   0  0  0  0  0  0  0  0  0  0  0  0
    0.4083   21.9123  -24.6356 C   0  0  0  0  0  0  0  0  0  0  0  0
    1.1686   21.7171  -25.7911 O   0  0  0  0  0  0  0  0  0  0  0  0
    0.8123   21.3643  -23.4358 C   0  0  0  0  0  0  0  0  0  0  0  0
    0.0840   21.5399  -22.2812 C   0  0  0  0  0  0  0  0  0  0  0  0
    1.9005   22.3502  -26.0550 H   0  0  0  0  0  0  0  0  0  0  0  0
   -6.0311   23.6674  -26.3855 C   0  0  0  0  0  0  0  0  0  0  0  0
   -7.1384   23.1873  -26.9048 O   0  0  0  0  0  0  0  0  0  0  0  0
   -4.9012   23.6868  -27.2777 C   0  0  0  0  0  0  0  0  0  0  0  0
   -3.8676   22.7918  -26.8982 C   0  0  0  0  0  0  0  0  0  0  0  0
   -4.0298   22.0053  -25.7663 O   0  0  0  0  0  0  0  0  0  0  0  0
   -2.7128   22.6734  -27.6076 C   0  0  0  0  0  0  0  0  0  0  0  0
   -2.5830   23.4650  -28.7220 C   0  0  0  0  0  0  0  0  0  0  0  0
   -3.5543   24.3341  -29.1076 C   0  0  0  0  0  0  0  0  0  0  0  0
   -4.7685   24.4706  -28.3695 C   0  0  0  0  0  0  0  0  0  0  0  0
   -3.2906   21.3751  -25.5085 H   0  0  0  0  0  0  0  0  0  0  0  0
   -5.6267   25.5743  -28.7369 C   0  0  0  0  0  0  0  0  0  0  0  0
   -5.2046   26.3701  -29.6437 O   0  0  0  0  0  0  0  0  0  0  0  0
   -6.8369   25.8809  -28.2242 O   0  0  0  0  0  0  0  0  0  0  0  0
   -7.3347   26.7442  -28.3149 H   0  0  0  0  0  0  0  0  0  0  0  0
 20 21  2  0  0  0
 21 22  1  0  0  0
 22 15  1  0  0  0
 15 16  1  0  0  0
 16 17  1  0  0  0
 17 18  1  0  0  0
 18 19  1  0  0  0
 19 14  1  0  0  0
 14 13  1  0  0  0
 13 11  1  0  0  0
 11 12  2  0  0  0
 11  1  1  0  0  0
  1  2  2  0  0  0
  2  3  1  0  0  0
  3  4  1  0  0  0
  3  5  2  0  0  0
  5 32  1  0  0  0
 32 33  2  0  0  0
 32 34  1  0  0  0
 34 35  2  0  0  0
 35 36  1  0  0  0
 35 37  1  0  0  0
 37 38  2  0  0  0
 38 39  1  0  0  0
 39 40  2  0  0  0
 40 42  1  0  0  0
 42 43  2  0  0  0
 42 44  1  0  0  0
  5  6  1  0  0  0
  6  7  1  0  0  0
  6  8  2  0  0  0
 21 24  1  0  0  0
 24 25  2  0  0  0
 25 26  1  0  0  0
 26 27  2  0  0  0
 27 28  1  0  0  0
 27 29  1  0  0  0
 29 30  2  0  0  0
 19 15  1  0  0  0
  8  1  1  0  0  0
 30 24  1  0  0  0
 40 34  1  0  0  0
 22 23  1  0  0  0
  4  9  1  0  0  0
 36 41  1  0  0  0
 44 45  1  0  0  0
  7 10  1  0  0  0
 28 31  1  0  0  0
M  END
> <minimizedAffinity>
-9.29175

> <CNNscore>
0.2744179666

> <CNNaffinity>
6.3163952827

> <CNN_VS>
1.7333323956

> <CNNaffinity_variance>
0.0389336273

$$$$
[H]OC(=O)C([H])([H])C([H])([H])c1c2c(n([H])c1C([H])=C1C(=O)N([H])c3c([H])c([H])c(S(=O)(=O)N([H])C([H])([H])[H])c([H])c31)C([H])([H])C([H])([H])C([H])([H])C2=O


 35 38  0  0  0  0  0  0  0  0999 V2000
   -4.7723   24.0751  -27.2809 C   0  0  0  0  0  0  0  0  0  0  0  0
   -4.4837   24.1644  -28.6259 C   0  0  0  0  0  0  0  0  0  0  0  0
   -3.2522   23.8038  -29.1160 C   0  0  0  0  0  0  0  0  0  0  0  0
   -2.2371   23.3304  -28.2752 C   0  0  0  0  0  0  0  0  0  0  0  0
   -2.5194   23.2391  -26.9313 C   0  0  0  0  0  0  0  0  0  0  0  0
   -3.7801   23.6140  -26.4688 C   0  0  0  0  0  0  0  0  0  0  0  0
   -1.3497   22.7212  -26.1916 C   0  0  0  0  0  0  0  0  0  0  0  0
   -1.2933   22.4903  -24.9052 C   0  0  0  0  0  0  0  0  0  0  0  0
   -0.3585   22.5192  -27.2367 C   0  0  0  0  0  0  0  0  0  0  0  0
    0.8127   22.0831  -27.0966 O   0  0  0  0  0  0  0  0  0  0  0  0
   -0.9137   22.8967  -28.5101 N   0  0  0  0  0  0  0  0  0  0  0  0
   -0.4504   22.8652  -29.4370 H   0  0  0  0  0  0  0  0  0  0  0  0
   -0.1602   21.9871  -24.1542 C   0  0  0  0  0  0  0  0  0  0  0  0
    1.1259   21.8096  -24.4492 N   0  0  0  0  0  0  0  0  0  0  0  0
    1.7990   21.2795  -23.4098 C   0  0  0  0  0  0  0  0  0  0  0  0
    0.9124   21.0967  -22.3702 C   0  0  0  0  0  0  0  0  0  0  0  0
   -0.3057   21.5384  -22.8370 C   0  0  0  0  0  0  0  0  0  0  0  0
    1.4168   20.5313  -21.1316 C   0  0  0  0  0  0  0  0  0  0  0  0
    0.8273   20.8418  -20.0680 O   0  0  0  0  0  0  0  0  0  0  0  0
    2.5890   19.6126  -21.0895 C   0  0  0  0  0  0  0  0  0  0  0  0
    3.1457   19.4837  -22.5141 C   0  0  0  0  0  0  0  0  0  0  0  0
    3.2158   20.8735  -23.1591 C   0  0  0  0  0  0  0  0  0  0  0  0
    1.5911   22.0458  -25.3305 H   0  0  0  0  0  0  0  0  0  0  0  0
   -1.5350   21.5264  -22.0439 C   0  0  0  0  0  0  0  0  0  0  0  0
   -1.8687   22.8545  -21.4026 C   0  0  0  0  0  0  0  0  0  0  0  0
   -3.2685   23.1707  -21.7584 C   0  0  0  0  0  0  0  0  0  0  0  0
   -3.6930   24.3412  -21.7289 O   0  0  0  0  0  0  0  0  0  0  0  0
   -4.1216   22.1513  -22.1300 O   0  0  0  0  0  0  0  0  0  0  0  0
   -4.3406   21.3567  -21.5438 H   0  0  0  0  0  0  0  0  0  0  0  0
   -6.3256   24.5158  -26.6307 S   0  0  0  0  0  0  0  0  0  0  0  0
   -7.1936   23.2898  -26.6820 O   0  0  0  0  0  0  0  0  0  0  0  0
   -6.9727   25.5758  -27.4484 O   0  0  0  0  0  0  0  0  0  0  0  0
   -5.9547   26.4435  -24.8785 C   0  0  0  0  0  0  0  0  0  0  0  0
   -6.2469   25.0267  -24.9939 N   0  0  0  0  0  0  0  0  0  0  0  0
   -5.6601   24.4403  -24.3968 H   0  0  0  0  0  0  0  0  0  0  0  0
 33 34  1  0  0  0
 34 30  1  0  0  0
 30 31  2  0  0  0
 30 32  2  0  0  0
 30  1  1  0  0  0
  1  2  2  0  0  0
  2  3  1  0  0  0
  3  4  2  0  0  0
  4  5  1  0  0  0
  5  6  2  0  0  0
  5  7  1  0  0  0
  7  8  2  0  0  0
  8 13  1  0  0  0
 13 14  1  0  0  0
 14 15  1  0  0  0
 15 16  2  0  0  0
 16 17  1  0  0  0
 17 24  1  0  0  0
 24 25  1  0  0  0
 25 26  1  0  0  0
 26 27  2  0  0  0
 26 28  1  0  0  0
 16 18  1  0  0  0
 18 19  2  0  0  0
 18 20  1  0  0  0
 20 21  1  0  0  0
 21 22  1  0  0  0
  7  9  1  0  0  0
  9 10  2  0  0  0
  9 11  1  0  0  0
  6  1  1  0  0  0
 17 13  2  0  0  0
 11  4  1  0  0  0
 22 15  1  0  0  0
 34 35  1  0  0  0
 14 23  1  0  0  0
 28 29  1  0  0  0
 11 12  1  0  0  0
M  END
> <minimizedAffinity>
-8.93282

> <CNNscore>
0.9624688029

> <CNNaffinity>
7.2609291077

> <CNN_VS>
6.9884176254

> <CNNaffinity_variance>
0.0891780704

$$$$
[H]OC(=O)C([H])([H])C([H])([H])c1c2c(n([H])c1C([H])=C1C(=O)N([H])c3c([H])c([H])c(S(=O)(=O)N([H])C([H])([H])[H])c([H])c31)C([H])([H])C([H])([H])C([H])([H])C2=O


 35 38  0  0  0  0  0  0  0  0999 V2000
   -0.2130   21.0611  -20.8342 C   0  0  0  0  0  0  0  0  0  0  0  0
    1.1223   20.7701  -21.0144 C   0  0  0  0  0  0  0  0  0  0  0  0
    1.7239   20.9142  -22.2408 C   0  0  0  0  0  0  0  0  0  0  0  0
    1.0112   21.3619  -23.3603 C   0  0  0  0  0  0  0  0  0  0  0  0
   -0.3223   21.6540  -23.1864 C   0  0  0  0  0  0  0  0  0  0  0  0
   -0.9002   21.4960  -21.9275 C   0  0  0  0  0  0  0  0  0  0  0  0
   -0.9204   22.1142  -24.4570 C   0  0  0  0  0  0  0  0  0  0  0  0
   -2.1598   22.4954  -24.6305 C   0  0  0  0  0  0  0  0  0  0  0  0
    0.1960   22.0620  -25.3877 C   0  0  0  0  0  0  0  0  0  0  0  0
    0.1806   22.3665  -26.6079 O   0  0  0  0  0  0  0  0  0  0  0  0
    1.3751   21.5987  -24.7042 N   0  0  0  0  0  0  0  0  0  0  0  0
    2.3225   21.4576  -25.1010 H   0  0  0  0  0  0  0  0  0  0  0  0
   -2.7730   22.9469  -25.8638 C   0  0  0  0  0  0  0  0  0  0  0  0
   -2.2950   23.2182  -27.0765 N   0  0  0  0  0  0  0  0  0  0  0  0
   -3.2701   23.6385  -27.9053 C   0  0  0  0  0  0  0  0  0  0  0  0
   -4.4576   23.6454  -27.2054 C   0  0  0  0  0  0  0  0  0  0  0  0
   -4.1444   23.2142  -25.9355 C   0  0  0  0  0  0  0  0  0  0  0  0
   -5.6600   24.0674  -27.9014 C   0  0  0  0  0  0  0  0  0  0  0  0
   -6.7550   23.5957  -27.5090 O   0  0  0  0  0  0  0  0  0  0  0  0
   -5.6307   25.0241  -29.0431 C   0  0  0  0  0  0  0  0  0  0  0  0
   -4.1640   25.3612  -29.3455 C   0  0  0  0  0  0  0  0  0  0  0  0
   -3.3344   24.0712  -29.3349 C   0  0  0  0  0  0  0  0  0  0  0  0
   -1.3249   23.1192  -27.3895 H   0  0  0  0  0  0  0  0  0  0  0  0
   -5.1250   23.0686  -24.8596 C   0  0  0  0  0  0  0  0  0  0  0  0
   -4.9996   24.1049  -23.7657 C   0  0  0  0  0  0  0  0  0  0  0  0
   -5.2221   23.4102  -22.4797 C   0  0  0  0  0  0  0  0  0  0  0  0
   -4.2671   22.9893  -21.8001 O   0  0  0  0  0  0  0  0  0  0  0  0
   -6.5112   23.2239  -22.0227 O   0  0  0  0  0  0  0  0  0  0  0  0
   -7.2250   22.7237  -22.5356 H   0  0  0  0  0  0  0  0  0  0  0  0
   -1.0017   20.8973  -19.2911 S   0  0  0  0  0  0  0  0  0  0  0  0
   -0.3548   21.8787  -18.3543 O   0  0  0  0  0  0  0  0  0  0  0  0
   -0.8163   19.5321  -18.7318 O   0  0  0  0  0  0  0  0  0  0  0  0
   -3.2373   21.4758  -18.0297 C   0  0  0  0  0  0  0  0  0  0  0  0
   -2.6770   21.2658  -19.3518 N   0  0  0  0  0  0  0  0  0  0  0  0
   -3.2282   20.6290  -19.9308 H   0  0  0  0  0  0  0  0  0  0  0  0
 33 34  1  0  0  0
 34 30  1  0  0  0
 30 31  2  0  0  0
 30 32  2  0  0  0
 30  1  1  0  0  0
  1  2  2  0  0  0
  2  3  1  0  0  0
  3  4  2  0  0  0
  4  5  1  0  0  0
  5  6  2  0  0  0
  5  7  1  0  0  0
  7  8  2  0  0  0
  8 13  1  0  0  0
 13 14  1  0  0  0
 14 15  1  0  0  0
 15 16  2  0  0  0
 16 17  1  0  0  0
 17 24  1  0  0  0
 24 25  1  0  0  0
 25 26  1  0  0  0
 26 27  2  0  0  0
 26 28  1  0  0  0
 16 18  1  0  0  0
 18 19  2  0  0  0
 18 20  1  0  0  0
 20 21  1  0  0  0
 21 22  1  0  0  0
  7  9  1  0  0  0
  9 10  2  0  0  0
  9 11  1  0  0  0
  6  1  1  0  0  0
 17 13  2  0  0  0
 11  4  1  0  0  0
 22 15  1  0  0  0
 34 35  1  0  0  0
 14 23  1  0  0  0
 28 29  1  0  0  0
 11 12  1  0  0  0
M  END
> <minimizedAffinity>
-8.13810

> <CNNscore>
0.8145644665

> <CNNaffinity>
7.1140356064

> <CNN_VS>
5.7948408127

> <CNNaffinity_variance>
0.1940123141

$$$$
[H]OC(=O)C([H])([H])C([H])([H])c1c2c(n([H])c1C([H])=C1C(=O)N([H])c3c([H])c([H])c(S(=O)(=O)N([H])C([H])([H])[H])c([H])c31)C([H])([H])C([H])([H])C([H])([H])C2=O


 35 38  0  0  0  0  0  0  0  0999 V2000
    0.1754   21.0630  -21.6324 C   0  0  0  0  0  0  0  0  0  0  0  0
    1.4855   20.9128  -22.0339 C   0  0  0  0  0  0  0  0  0  0  0  0
    1.8711   21.1844  -23.3240 C   0  0  0  0  0  0  0  0  0  0  0  0
    0.9546   21.6250  -24.2871 C   0  0  0  0  0  0  0  0  0  0  0  0
   -0.3549   21.7767  -23.8920 C   0  0  0  0  0  0  0  0  0  0  0  0
   -0.7108   21.4916  -22.5745 C   0  0  0  0  0  0  0  0  0  0  0  0
   -1.1837   22.2493  -25.0205 C   0  0  0  0  0  0  0  0  0  0  0  0
   -2.4631   22.5187  -24.9758 C   0  0  0  0  0  0  0  0  0  0  0  0
   -0.2281   22.3585  -26.1115 C   0  0  0  0  0  0  0  0  0  0  0  0
   -0.4622   22.7297  -27.2901 O   0  0  0  0  0  0  0  0  0  0  0  0
    1.0798   21.9725  -25.6502 N   0  0  0  0  0  0  0  0  0  0  0  0
    1.9612   21.9463  -26.1955 H   0  0  0  0  0  0  0  0  0  0  0  0
   -3.3001   22.9790  -26.0660 C   0  0  0  0  0  0  0  0  0  0  0  0
   -3.5288   22.5262  -27.2970 N   0  0  0  0  0  0  0  0  0  0  0  0
   -4.3864   23.3245  -27.9618 C   0  0  0  0  0  0  0  0  0  0  0  0
   -4.7459   24.3609  -27.1271 C   0  0  0  0  0  0  0  0  0  0  0  0
   -4.0682   24.1424  -25.9482 C   0  0  0  0  0  0  0  0  0  0  0  0
   -5.6727   25.3575  -27.6331 C   0  0  0  0  0  0  0  0  0  0  0  0
   -6.4007   25.9507  -26.8004 O   0  0  0  0  0  0  0  0  0  0  0  0
   -5.7807   25.6883  -29.0818 C   0  0  0  0  0  0  0  0  0  0  0  0
   -4.8383   24.7561  -29.8557 C   0  0  0  0  0  0  0  0  0  0  0  0
   -4.9944   23.3246  -29.3276 C   0  0  0  0  0  0  0  0  0  0  0  0
   -3.1405   21.6785  -27.7206 H   0  0  0  0  0  0  0  0  0  0  0  0
   -4.1679   25.0143  -24.7776 C   0  0  0  0  0  0  0  0  0  0  0  0
   -5.0723   24.4838  -23.6882 C   0  0  0  0  0  0  0  0  0  0  0  0
   -4.4329   24.8074  -22.3950 C   0  0  0  0  0  0  0  0  0  0  0  0
   -3.3042   24.3678  -22.1055 O   0  0  0  0  0  0  0  0  0  0  0  0
   -5.0978   25.6111  -21.4910 O   0  0  0  0  0  0  0  0  0  0  0  0
   -6.0074   25.3944  -21.1055 H   0  0  0  0  0  0  0  0  0  0  0  0
   -0.3425   20.7355  -20.0031 S   0  0  0  0  0  0  0  0  0  0  0  0
   -0.1637   19.2619  -19.7670 O   0  0  0  0  0  0  0  0  0  0  0  0
   -1.7809   21.0631  -19.8173 O   0  0  0  0  0  0  0  0  0  0  0  0
    0.2824   22.9840  -18.7875 C   0  0  0  0  0  0  0  0  0  0  0  0
    0.5882   21.5659  -18.8239 N   0  0  0  0  0  0  0  0  0  0  0  0
    1.5900   21.3666  -18.8605 H   0  0  0  0  0  0  0  0  0  0  0  0
 33 34  1  0  0  0
 34 30  1  0  0  0
 30 31  2  0  0  0
 30 32  2  0  0  0
 30  1  1  0  0  0
  1  2  2  0  0  0
  2  3  1  0  0  0
  3  4  2  0  0  0
  4  5  1  0  0  0
  5  6  2  0  0  0
  5  7  1  0  0  0
  7  8  2  0  0  0
  8 13  1  0  0  0
 13 14  1  0  0  0
 14 15  1  0  0  0
 15 16  2  0  0  0
 16 17  1  0  0  0
 17 24  1  0  0  0
 24 25  1  0  0  0
 25 26  1  0  0  0
 26 27  2  0  0  0
 26 28  1  0  0  0
 16 18  1  0  0  0
 18 19  2  0  0  0
 18 20  1  0  0  0
 20 21  1  0  0  0
 21 22  1  0  0  0
  7  9  1  0  0  0
  9 10  2  0  0  0
  9 11  1  0  0  0
  6  1  1  0  0  0
 17 13  2  0  0  0
 11  4  1  0  0  0
 22 15  1  0  0  0
 34 35  1  0  0  0
 14 23  1  0  0  0
 28 29  1  0  0  0
 11 12  1  0  0  0
M  END
> <minimizedAffinity>
-9.34131

> <CNNscore>
0.7985185385

> <CNNaffinity>
6.9448637962

> <CNN_VS>
5.5456023216

> <CNNaffinity_variance>
0.0619376302

$$$$
[H]OC(=O)C([H])([H])C([H])([H])c1c2c(n([H])c1C([H])=C1C(=O)N([H])c3c([H])c([H])c(S(=O)(=O)N([H])C([H])([H])[H])c([H])c31)C([H])([H])C([H])([H])C([H])([H])C2=O


 35 38  0  0  0  0  0  0  0  0999 V2000
   -0.1001   21.2362  -22.1286 C   0  0  0  0  0  0  0  0  0  0  0  0
    1.2211   21.1096  -22.5010 C   0  0  0  0  0  0  0  0  0  0  0  0
    1.6299   21.3862  -23.7829 C   0  0  0  0  0  0  0  0  0  0  0  0
    0.7268   21.8082  -24.7667 C   0  0  0  0  0  0  0  0  0  0  0  0
   -0.5937   21.9363  -24.4008 C   0  0  0  0  0  0  0  0  0  0  0  0
   -0.9732   21.6468  -23.0908 C   0  0  0  0  0  0  0  0  0  0  0  0
   -1.4060   22.3916  -25.5482 C   0  0  0  0  0  0  0  0  0  0  0  0
   -2.6909   22.6373  -25.5321 C   0  0  0  0  0  0  0  0  0  0  0  0
   -0.4288   22.5167  -26.6182 C   0  0  0  0  0  0  0  0  0  0  0  0
   -0.6439   22.8816  -27.8024 O   0  0  0  0  0  0  0  0  0  0  0  0
    0.8754   22.1557  -26.1275 N   0  0  0  0  0  0  0  0  0  0  0  0
    1.7689   22.1451  -26.6532 H   0  0  0  0  0  0  0  0  0  0  0  0
   -3.5121   23.0804  -26.6414 C   0  0  0  0  0  0  0  0  0  0  0  0
   -3.7321   22.6017  -27.8641 N   0  0  0  0  0  0  0  0  0  0  0  0
   -4.5752   23.3924  -28.5559 C   0  0  0  0  0  0  0  0  0  0  0  0
   -4.9337   24.4508  -27.7489 C   0  0  0  0  0  0  0  0  0  0  0  0
   -4.2704   24.2531  -26.5582 C   0  0  0  0  0  0  0  0  0  0  0  0
   -5.8457   25.4441  -28.2873 C   0  0  0  0  0  0  0  0  0  0  0  0
   -6.5768   26.0627  -27.4760 O   0  0  0  0  0  0  0  0  0  0  0  0
   -5.9355   25.7428  -29.7441 C   0  0  0  0  0  0  0  0  0  0  0  0
   -4.9939   24.7846  -30.4866 C   0  0  0  0  0  0  0  0  0  0  0  0
   -5.1688   23.3670  -29.9278 C   0  0  0  0  0  0  0  0  0  0  0  0
   -3.3474   21.7410  -28.2642 H   0  0  0  0  0  0  0  0  0  0  0  0
   -4.3742   25.1523  -25.4088 C   0  0  0  0  0  0  0  0  0  0  0  0
   -5.4980   24.8101  -24.4569 C   0  0  0  0  0  0  0  0  0  0  0  0
   -6.1979   26.0725  -24.1370 C   0  0  0  0  0  0  0  0  0  0  0  0
   -7.1254   26.1034  -23.3064 O   0  0  0  0  0  0  0  0  0  0  0  0
   -5.8177   27.2389  -24.7697 O   0  0  0  0  0  0  0  0  0  0  0  0
   -5.8281   27.3659  -25.7730 H   0  0  0  0  0  0  0  0  0  0  0  0
   -0.6475   20.9018  -20.5105 S   0  0  0  0  0  0  0  0  0  0  0  0
    0.0126   21.9009  -19.6021 O   0  0  0  0  0  0  0  0  0  0  0  0
   -0.2418   19.5397  -20.0734 O   0  0  0  0  0  0  0  0  0  0  0  0
   -2.6875   22.1796  -19.4477 C   0  0  0  0  0  0  0  0  0  0  0  0
   -2.3451   21.0773  -20.3272 N   0  0  0  0  0  0  0  0  0  0  0  0
   -2.8369   20.2099  -20.1027 H   0  0  0  0  0  0  0  0  0  0  0  0
 33 34  1  0  0  0
 34 30  1  0  0  0
 30 31  2  0  0  0
 30 32  2  0  0  0
 30  1  1  0  0  0
  1  2  2  0  0  0
  2  3  1  0  0  0
  3  4  2  0  0  0
  4  5  1  0  0  0
  5  6  2  0  0  0
  5  7  1  0  0  0
  7  8  2  0  0  0
  8 13  1  0  0  0
 13 14  1  0  0  0
 14 15  1  0  0  0
 15 16  2  0  0  0
 16 17  1  0  0  0
 17 24  1  0  0  0
 24 25  1  0  0  0
 25 26  1  0  0  0
 26 27  2  0  0  0
 26 28  1  0  0  0
 16 18  1  0  0  0
 18 19  2  0  0  0
 18 20  1  0  0  0
 20 21  1  0  0  0
 21 22  1  0  0  0
  7  9  1  0  0  0
  9 10  2  0  0  0
  9 11  1  0  0  0
  6  1  1  0  0  0
 17 13  2  0  0  0
 11  4  1  0  0  0
 22 15  1  0  0  0
 34 35  1  0  0  0
 14 23  1  0  0  0
 28 29  1  0  0  0
 11 12  1  0  0  0
M  END
> <minimizedAffinity>
-9.51326

> <CNNscore>
0.7279858589

> <CNNaffinity>
7.1114134789

> <CNN_VS>
5.1770086288

> <CNNaffinity_variance>
0.2106701434

$$$$
[H]OC(=O)C([H])([H])C([H])([H])c1c2c(n([H])c1C([H])=C1C(=O)N([H])c3c([H])c([H])c(S(=O)(=O)N([H])C([H])([H])[H])c([H])c31)C([H])([H])C([H])([H])C([H])([H])C2=O


 35 38  0  0  0  0  0  0  0  0999 V2000
   -5.2156   24.9686  -27.1342 C   0  0  0  0  0  0  0  0  0  0  0  0
   -5.9151   25.9617  -26.4826 C   0  0  0  0  0  0  0  0  0  0  0  0
   -5.7510   26.1835  -25.1370 C   0  0  0  0  0  0  0  0  0  0  0  0
   -4.8686   25.4141  -24.3681 C   0  0  0  0  0  0  0  0  0  0  0  0
   -4.1675   24.4211  -25.0133 C   0  0  0  0  0  0  0  0  0  0  0  0
   -4.3592   24.2239  -26.3801 C   0  0  0  0  0  0  0  0  0  0  0  0
   -3.2840   23.7122  -24.0643 C   0  0  0  0  0  0  0  0  0  0  0  0
   -2.4655   22.7349  -24.3582 C   0  0  0  0  0  0  0  0  0  0  0  0
   -3.5391   24.3902  -22.8031 C   0  0  0  0  0  0  0  0  0  0  0  0
   -3.0127   24.1410  -21.6884 O   0  0  0  0  0  0  0  0  0  0  0  0
   -4.5129   25.4316  -23.0014 N   0  0  0  0  0  0  0  0  0  0  0  0
   -4.8959   26.0835  -22.2921 H   0  0  0  0  0  0  0  0  0  0  0  0
   -1.5920   22.0202  -23.4486 C   0  0  0  0  0  0  0  0  0  0  0  0
   -1.8058   21.3219  -22.3353 N   0  0  0  0  0  0  0  0  0  0  0  0
   -0.6519   20.8566  -21.8190 C   0  0  0  0  0  0  0  0  0  0  0  0
    0.3815   21.2674  -22.6336 C   0  0  0  0  0  0  0  0  0  0  0  0
   -0.2074   21.9911  -23.6467 C   0  0  0  0  0  0  0  0  0  0  0  0
    1.7334   20.8802  -22.2723 C   0  0  0  0  0  0  0  0  0  0  0  0
    2.5714   20.7605  -23.1990 O   0  0  0  0  0  0  0  0  0  0  0  0
    2.1444   20.6269  -20.8628 C   0  0  0  0  0  0  0  0  0  0  0  0
    0.9031   20.7684  -19.9710 C   0  0  0  0  0  0  0  0  0  0  0  0
   -0.2771   20.0389  -20.6249 C   0  0  0  0  0  0  0  0  0  0  0  0
   -2.7115   21.1233  -21.9004 H   0  0  0  0  0  0  0  0  0  0  0  0
    0.5364   22.6123  -24.7426 C   0  0  0  0  0  0  0  0  0  0  0  0
    0.6410   21.7532  -25.9825 C   0  0  0  0  0  0  0  0  0  0  0  0
    0.0277   22.5133  -27.0925 C   0  0  0  0  0  0  0  0  0  0  0  0
    0.6865   23.3419  -27.7484 O   0  0  0  0  0  0  0  0  0  0  0  0
   -1.2992   22.3019  -27.4086 O   0  0  0  0  0  0  0  0  0  0  0  0
   -2.0623   22.4342  -26.7582 H   0  0  0  0  0  0  0  0  0  0  0  0
   -5.3949   24.6688  -28.8395 S   0  0  0  0  0  0  0  0  0  0  0  0
   -6.1579   23.3823  -28.9873 O   0  0  0  0  0  0  0  0  0  0  0  0
   -4.0736   24.5022  -29.5007 O   0  0  0  0  0  0  0  0  0  0  0  0
   -5.5949   26.3842  -30.8247 C   0  0  0  0  0  0  0  0  0  0  0  0
   -6.2854   25.8948  -29.6459 N   0  0  0  0  0  0  0  0  0  0  0  0
   -6.6254   26.6402  -29.0348 H   0  0  0  0  0  0  0  0  0  0  0  0
 33 34  1  0  0  0
 34 30  1  0  0  0
 30 31  2  0  0  0
 30 32  2  0  0  0
 30  1  1  0  0  0
  1  2  2  0  0  0
  2  3  1  0  0  0
  3  4  2  0  0  0
  4  5  1  0  0  0
  5  6  2  0  0  0
  5  7  1  0  0  0
  7  8  2  0  0  0
  8 13  1  0  0  0
 13 14  1  0  0  0
 14 15  1  0  0  0
 15 16  2  0  0  0
 16 17  1  0  0  0
 17 24  1  0  0  0
 24 25  1  0  0  0
 25 26  1  0  0  0
 26 27  2  0  0  0
 26 28  1  0  0  0
 16 18  1  0  0  0
 18 19  2  0  0  0
 18 20  1  0  0  0
 20 21  1  0  0  0
 21 22  1  0  0  0
  7  9  1  0  0  0
  9 10  2  0  0  0
  9 11  1  0  0  0
  6  1  1  0  0  0
 17 13  2  0  0  0
 11  4  1  0  0  0
 22 15  1  0  0  0
 34 35  1  0  0  0
 14 23  1  0  0  0
 28 29  1  0  0  0
 11 12  1  0  0  0
M  END
> <minimizedAffinity>
-9.77663

> <CNNscore>
0.5952917337

> <CNNaffinity>
6.7570924759

> <CNN_VS>
4.0224413872

> <CNNaffinity_variance>
0.2075734884

$$$$
[H]OC(=O)C([H])([H])C([H])([H])c1c2c(n([H])c1C([H])=C1C(=O)N([H])c3c([H])c([H])c(S(=O)(=O)N([H])C([H])([H])[H])c([H])c31)C([H])([H])C([H])([H])C([H])([H])C2=O


 35 38  0  0  0  0  0  0  0  0999 V2000
    0.7737   20.7456  -20.8933 C   0  0  0  0  0  0  0  0  0  0  0  0
    2.0241   20.4817  -21.4099 C   0  0  0  0  0  0  0  0  0  0  0  0
    2.3218   20.7438  -22.7250 C   0  0  0  0  0  0  0  0  0  0  0  0
    1.3724   21.2896  -23.5982 C   0  0  0  0  0  0  0  0  0  0  0  0
    0.1221   21.5552  -23.0880 C   0  0  0  0  0  0  0  0  0  0  0  0
   -0.1450   21.2762  -21.7484 C   0  0  0  0  0  0  0  0  0  0  0  0
   -0.7513   22.1282  -24.1332 C   0  0  0  0  0  0  0  0  0  0  0  0
   -1.9905   22.5157  -23.9731 C   0  0  0  0  0  0  0  0  0  0  0  0
    0.1132   22.1708  -25.3021 C   0  0  0  0  0  0  0  0  0  0  0  0
   -0.1846   22.5880  -26.4505 O   0  0  0  0  0  0  0  0  0  0  0  0
    1.4129   21.6534  -24.9622 N   0  0  0  0  0  0  0  0  0  0  0  0
    2.2377   21.5564  -25.5828 H   0  0  0  0  0  0  0  0  0  0  0  0
   -2.8701   23.0765  -24.9796 C   0  0  0  0  0  0  0  0  0  0  0  0
   -2.6557   23.6900  -26.1417 N   0  0  0  0  0  0  0  0  0  0  0  0
   -3.8137   24.0602  -26.7218 C   0  0  0  0  0  0  0  0  0  0  0  0
   -4.8507   23.6709  -25.9013 C   0  0  0  0  0  0  0  0  0  0  0  0
   -4.2597   23.0588  -24.8183 C   0  0  0  0  0  0  0  0  0  0  0  0
   -6.2074   23.9671  -26.3254 C   0  0  0  0  0  0  0  0  0  0  0  0
   -7.1210   23.2046  -25.9265 O   0  0  0  0  0  0  0  0  0  0  0  0
   -6.5377   25.1261  -27.2014 C   0  0  0  0  0  0  0  0  0  0  0  0
   -5.2247   25.8194  -27.5907 C   0  0  0  0  0  0  0  0  0  0  0  0
   -4.1900   24.7594  -27.9885 C   0  0  0  0  0  0  0  0  0  0  0  0
   -1.7491   23.8646  -26.5848 H   0  0  0  0  0  0  0  0  0  0  0  0
   -5.0066   22.4885  -23.6971 C   0  0  0  0  0  0  0  0  0  0  0  0
   -5.6495   23.5187  -22.7961 C   0  0  0  0  0  0  0  0  0  0  0  0
   -4.5695   24.1279  -21.9908 C   0  0  0  0  0  0  0  0  0  0  0  0
   -4.2043   25.3027  -22.1850 O   0  0  0  0  0  0  0  0  0  0  0  0
   -3.9539   23.3825  -21.0056 O   0  0  0  0  0  0  0  0  0  0  0  0
   -3.4755   22.5078  -21.1757 H   0  0  0  0  0  0  0  0  0  0  0  0
    0.3685   20.4329  -19.2296 S   0  0  0  0  0  0  0  0  0  0  0  0
    0.9430   19.0896  -18.8767 O   0  0  0  0  0  0  0  0  0  0  0  0
   -1.1043   20.3725  -19.0343 O   0  0  0  0  0  0  0  0  0  0  0  0
    0.6592   22.9417  -18.4911 C   0  0  0  0  0  0  0  0  0  0  0  0
    1.0402   21.5841  -18.1481 N   0  0  0  0  0  0  0  0  0  0  0  0
    2.0426   21.4724  -17.9825 H   0  0  0  0  0  0  0  0  0  0  0  0
 33 34  1  0  0  0
 34 30  1  0  0  0
 30 31  2  0  0  0
 30 32  2  0  0  0
 30  1  1  0  0  0
  1  2  2  0  0  0
  2  3  1  0  0  0
  3  4  2  0  0  0
  4  5  1  0  0  0
  5  6  2  0  0  0
  5  7  1  0  0  0
  7  8  2  0  0  0
  8 13  1  0  0  0
 13 14  1  0  0  0
 14 15  1  0  0  0
 15 16  2  0  0  0
 16 17  1  0  0  0
 17 24  1  0  0  0
 24 25  1  0  0  0
 25 26  1  0  0  0
 26 27  2  0  0  0
 26 28  1  0  0  0
 16 18  1  0  0  0
 18 19  2  0  0  0
 18 20  1  0  0  0
 20 21  1  0  0  0
 21 22  1  0  0  0
  7  9  1  0  0  0
  9 10  2  0  0  0
  9 11  1  0  0  0
  6  1  1  0  0  0
 17 13  2  0  0  0
 11  4  1  0  0  0
 22 15  1  0  0  0
 34 35  1  0  0  0
 14 23  1  0  0  0
 28 29  1  0  0  0
 11 12  1  0  0  0
M  END
> <minimizedAffinity>
-7.62963

> <CNNscore>
0.5602704287

> <CNNaffinity>
6.4909324646

> <CNN_VS>
3.6366775036

> <CNNaffinity_variance>
0.0888017565

$$$$
[H]OC(=O)C([H])([H])C([H])([H])c1c2c(n([H])c1C([H])=C1C(=O)N([H])c3c([H])c([H])c(S(=O)(=O)N([H])C([H])([H])[H])c([H])c31)C([H])([H])C([H])([H])C([H])([H])C2=O


 35 38  0  0  0  0  0  0  0  0999 V2000
   -2.8710   23.1621  -28.1214 C   0  0  0  0  0  0  0  0  0  0  0  0
   -1.7524   23.2818  -28.9178 C   0  0  0  0  0  0  0  0  0  0  0  0
   -0.4940   23.0484  -28.4190 C   0  0  0  0  0  0  0  0  0  0  0  0
   -0.2904   22.6794  -27.0833 C   0  0  0  0  0  0  0  0  0  0  0  0
   -1.4036   22.5584  -26.2832 C   0  0  0  0  0  0  0  0  0  0  0  0
   -2.6655   22.8030  -26.8231 C   0  0  0  0  0  0  0  0  0  0  0  0
   -1.0151   22.1608  -24.9140 C   0  0  0  0  0  0  0  0  0  0  0  0
   -1.8319   21.9352  -23.9173 C   0  0  0  0  0  0  0  0  0  0  0  0
    0.4336   22.0615  -24.9954 C   0  0  0  0  0  0  0  0  0  0  0  0
    1.2251   21.7462  -24.0702 O   0  0  0  0  0  0  0  0  0  0  0  0
    0.8668   22.3824  -26.3302 N   0  0  0  0  0  0  0  0  0  0  0  0
    1.8376   22.3991  -26.6938 H   0  0  0  0  0  0  0  0  0  0  0  0
   -1.4789   21.5487  -22.5656 C   0  0  0  0  0  0  0  0  0  0  0  0
   -0.7992   20.5235  -22.0561 N   0  0  0  0  0  0  0  0  0  0  0  0
   -0.7551   20.5843  -20.7111 C   0  0  0  0  0  0  0  0  0  0  0  0
   -1.4411   21.7097  -20.3077 C   0  0  0  0  0  0  0  0  0  0  0  0
   -1.8899   22.3075  -21.4644 C   0  0  0  0  0  0  0  0  0  0  0  0
   -1.5279   21.9852  -18.8847 C   0  0  0  0  0  0  0  0  0  0  0  0
   -1.6443   23.1837  -18.5304 O   0  0  0  0  0  0  0  0  0  0  0  0
   -1.4839   20.9082  -17.8562 C   0  0  0  0  0  0  0  0  0  0  0  0
   -1.2562   19.5711  -18.5749 C   0  0  0  0  0  0  0  0  0  0  0  0
   -0.1563   19.7431  -19.6299 C   0  0  0  0  0  0  0  0  0  0  0  0
   -0.3382   19.7730  -22.5786 H   0  0  0  0  0  0  0  0  0  0  0  0
   -2.6687   23.5456  -21.4924 C   0  0  0  0  0  0  0  0  0  0  0  0
   -4.1638   23.3364  -21.4051 C   0  0  0  0  0  0  0  0  0  0  0  0
   -4.8049   24.4897  -22.0720 C   0  0  0  0  0  0  0  0  0  0  0  0
   -5.0569   24.4714  -23.2915 O   0  0  0  0  0  0  0  0  0  0  0  0
   -5.1305   25.6077  -21.3310 O   0  0  0  0  0  0  0  0  0  0  0  0
   -4.4590   26.1519  -20.8057 H   0  0  0  0  0  0  0  0  0  0  0  0
   -4.4790   23.4423  -28.7262 S   0  0  0  0  0  0  0  0  0  0  0  0
   -5.4115   23.3984  -27.5482 O   0  0  0  0  0  0  0  0  0  0  0  0
   -4.8897   22.3796  -29.6817 O   0  0  0  0  0  0  0  0  0  0  0  0
   -5.4044   24.8991  -30.7124 C   0  0  0  0  0  0  0  0  0  0  0  0
   -4.6571   24.9785  -29.4710 N   0  0  0  0  0  0  0  0  0  0  0  0
   -3.7884   25.5109  -29.5523 H   0  0  0  0  0  0  0  0  0  0  0  0
 33 34  1  0  0  0
 34 30  1  0  0  0
 30 31  2  0  0  0
 30 32  2  0  0  0
 30  1  1  0  0  0
  1  2  2  0  0  0
  2  3  1  0  0  0
  3  4  2  0  0  0
  4  5  1  0  0  0
  5  6  2  0  0  0
  5  7  1  0  0  0
  7  8  2  0  0  0
  8 13  1  0  0  0
 13 14  1  0  0  0
 14 15  1  0  0  0
 15 16  2  0  0  0
 16 17  1  0  0  0
 17 24  1  0  0  0
 24 25  1  0  0  0
 25 26  1  0  0  0
 26 27  2  0  0  0
 26 28  1  0  0  0
 16 18  1  0  0  0
 18 19  2  0  0  0
 18 20  1  0  0  0
 20 21  1  0  0  0
 21 22  1  0  0  0
  7  9  1  0  0  0
  9 10  2  0  0  0
  9 11  1  0  0  0
  6  1  1  0  0  0
 17 13  2  0  0  0
 11  4  1  0  0  0
 22 15  1  0  0  0
 34 35  1  0  0  0
 14 23  1  0  0  0
 28 29  1  0  0  0
 11 12  1  0  0  0
M  END
> <minimizedAffinity>
-9.04640

> <CNNscore>
0.4803383946

> <CNNaffinity>
6.6630334854

> <CNN_VS>
3.2005107403

> <CNNaffinity_variance>
0.0573271327

$$$$
[H]OC(=O)C([H])([H])C([H])([H])c1c2c(n([H])c1C([H])=C1C(=O)N([H])c3c([H])c([H])c(S(=O)(=O)N([H])C([H])([H])[H])c([H])c31)C([H])([H])C([H])([H])C([H])([H])C2=O


 35 38  0  0  0  0  0  0  0  0999 V2000
   -2.6143   23.2395  -28.1336 C   0  0  0  0  0  0  0  0  0  0  0  0
   -1.4603   23.2734  -28.8868 C   0  0  0  0  0  0  0  0  0  0  0  0
   -0.2414   22.9575  -28.3378 C   0  0  0  0  0  0  0  0  0  0  0  0
   -0.1155   22.5875  -26.9929 C   0  0  0  0  0  0  0  0  0  0  0  0
   -1.2642   22.5519  -26.2359 C   0  0  0  0  0  0  0  0  0  0  0  0
   -2.4843   22.8790  -26.8260 C   0  0  0  0  0  0  0  0  0  0  0  0
   -0.9573   22.1409  -24.8500 C   0  0  0  0  0  0  0  0  0  0  0  0
   -1.8255   21.9822  -23.8843 C   0  0  0  0  0  0  0  0  0  0  0  0
    0.4830   21.9400  -24.8744 C   0  0  0  0  0  0  0  0  0  0  0  0
    1.2143   21.5788  -23.9171 O   0  0  0  0  0  0  0  0  0  0  0  0
    0.9884   22.2174  -26.1934 N   0  0  0  0  0  0  0  0  0  0  0  0
    1.9711   22.1629  -26.5191 H   0  0  0  0  0  0  0  0  0  0  0  0
   -1.5525   21.5845  -22.5175 C   0  0  0  0  0  0  0  0  0  0  0  0
   -0.8069   20.6231  -21.9767 N   0  0  0  0  0  0  0  0  0  0  0  0
   -0.8907   20.6350  -20.6324 C   0  0  0  0  0  0  0  0  0  0  0  0
   -1.7360   21.6590  -20.2621 C   0  0  0  0  0  0  0  0  0  0  0  0
   -2.1456   22.2478  -21.4378 C   0  0  0  0  0  0  0  0  0  0  0  0
   -1.9812   21.8662  -18.8461 C   0  0  0  0  0  0  0  0  0  0  0  0
   -2.2670   23.0288  -18.4694 O   0  0  0  0  0  0  0  0  0  0  0  0
   -1.9048   20.7610  -17.8499 C   0  0  0  0  0  0  0  0  0  0  0  0
   -1.4603   19.4877  -18.5829 C   0  0  0  0  0  0  0  0  0  0  0  0
   -0.2976   19.8244  -19.5249 C   0  0  0  0  0  0  0  0  0  0  0  0
   -0.2171   19.9507  -22.4756 H   0  0  0  0  0  0  0  0  0  0  0  0
   -3.0571   23.3903  -21.5023 C   0  0  0  0  0  0  0  0  0  0  0  0
   -4.5204   23.0178  -21.4212 C   0  0  0  0  0  0  0  0  0  0  0  0
   -5.1469   23.9245  -20.4357 C   0  0  0  0  0  0  0  0  0  0  0  0
   -5.7401   24.9585  -20.7963 O   0  0  0  0  0  0  0  0  0  0  0  0
   -5.0740   23.6208  -19.0912 O   0  0  0  0  0  0  0  0  0  0  0  0
   -4.2061   23.5021  -18.5857 H   0  0  0  0  0  0  0  0  0  0  0  0
   -4.1743   23.6257  -28.8023 S   0  0  0  0  0  0  0  0  0  0  0  0
   -4.6187   22.4382  -29.6095 O   0  0  0  0  0  0  0  0  0  0  0  0
   -4.0970   24.8003  -29.7107 O   0  0  0  0  0  0  0  0  0  0  0  0
   -5.6849   25.3214  -27.4733 C   0  0  0  0  0  0  0  0  0  0  0  0
   -5.3667   23.9114  -27.6011 N   0  0  0  0  0  0  0  0  0  0  0  0
   -5.1821   23.4532  -26.7063 H   0  0  0  0  0  0  0  0  0  0  0  0
 33 34  1  0  0  0
 34 30  1  0  0  0
 30 31  2  0  0  0
 30 32  2  0  0  0
 30  1  1  0  0  0
  1  2  2  0  0  0
  2  3  1  0  0  0
  3  4  2  0  0  0
  4  5  1  0  0  0
  5  6  2  0  0  0
  5  7  1  0  0  0
  7  8  2  0  0  0
  8 13  1  0  0  0
 13 14  1  0  0  0
 14 15  1  0  0  0
 15 16  2  0  0  0
 16 17  1  0  0  0
 17 24  1  0  0  0
 24 25  1  0  0  0
 25 26  1  0  0  0
 26 27  2  0  0  0
 26 28  1  0  0  0
 16 18  1  0  0  0
 18 19  2  0  0  0
 18 20  1  0  0  0
 20 21  1  0  0  0
 21 22  1  0  0  0
  7  9  1  0  0  0
  9 10  2  0  0  0
  9 11  1  0  0  0
  6  1  1  0  0  0
 17 13  2  0  0  0
 11  4  1  0  0  0
 22 15  1  0  0  0
 34 35  1  0  0  0
 14 23  1  0  0  0
 28 29  1  0  0  0
 11 12  1  0  0  0
M  END
> <minimizedAffinity>
-8.41987

> <CNNscore>
0.4060547054

> <CNNaffinity>
6.6151833534

> <CNN_VS>
2.6861262321

> <CNNaffinity_variance>
0.1240758896

$$$$
[H]OC(=O)C([H])([H])C([H])([H])c1c2c(n([H])c1C([H])=C1C(=O)N([H])c3c([H])c([H])c(S(=O)(=O)N([H])C([H])([H])[H])c([H])c31)C([H])([H])C([H])([H])C([H])([H])C2=O


 35 38  0  0  0  0  0  0  0  0999 V2000
   -1.4425   21.4472  -20.2922 C   0  0  0  0  0  0  0  0  0  0  0  0
   -0.1413   20.9928  -20.3139 C   0  0  0  0  0  0  0  0  0  0  0  0
    0.5899   20.9804  -21.4767 C   0  0  0  0  0  0  0  0  0  0  0  0
    0.0493   21.4274  -22.6890 C   0  0  0  0  0  0  0  0  0  0  0  0
   -1.2495   21.8822  -22.6734 C   0  0  0  0  0  0  0  0  0  0  0  0
   -1.9621   21.8803  -21.4751 C   0  0  0  0  0  0  0  0  0  0  0  0
   -1.6607   22.3178  -24.0243 C   0  0  0  0  0  0  0  0  0  0  0  0
   -2.8217   22.8258  -24.3489 C   0  0  0  0  0  0  0  0  0  0  0  0
   -0.4736   22.0725  -24.8281 C   0  0  0  0  0  0  0  0  0  0  0  0
   -0.3330   22.2904  -26.0587 O   0  0  0  0  0  0  0  0  0  0  0  0
    0.5684   21.5259  -23.9987 N   0  0  0  0  0  0  0  0  0  0  0  0
    1.5257   21.2494  -24.2849 H   0  0  0  0  0  0  0  0  0  0  0  0
   -3.2525   23.2570  -25.6639 C   0  0  0  0  0  0  0  0  0  0  0  0
   -3.0901   22.7591  -26.8880 N   0  0  0  0  0  0  0  0  0  0  0  0
   -3.6659   23.5455  -27.8178 C   0  0  0  0  0  0  0  0  0  0  0  0
   -4.2412   24.6213  -27.1762 C   0  0  0  0  0  0  0  0  0  0  0  0
   -3.9822   24.4383  -25.8360 C   0  0  0  0  0  0  0  0  0  0  0  0
   -4.9272   25.6136  -27.9843 C   0  0  0  0  0  0  0  0  0  0  0  0
   -5.8644   26.2535  -27.4481 O   0  0  0  0  0  0  0  0  0  0  0  0
   -4.5571   25.8875  -29.4013 C   0  0  0  0  0  0  0  0  0  0  0  0
   -3.4459   24.9074  -29.8022 C   0  0  0  0  0  0  0  0  0  0  0  0
   -3.8059   23.5016  -29.3056 C   0  0  0  0  0  0  0  0  0  0  0  0
   -2.6130   21.8878  -27.1373 H   0  0  0  0  0  0  0  0  0  0  0  0
   -4.4236   25.3586  -24.7878 C   0  0  0  0  0  0  0  0  0  0  0  0
   -5.6265   24.8758  -24.0091 C   0  0  0  0  0  0  0  0  0  0  0  0
   -6.7872   25.6718  -24.4624 C   0  0  0  0  0  0  0  0  0  0  0  0
   -6.9774   26.8300  -24.0459 O   0  0  0  0  0  0  0  0  0  0  0  0
   -7.6770   25.1226  -25.3634 O   0  0  0  0  0  0  0  0  0  0  0  0
   -8.1947   24.2699  -25.1970 H   0  0  0  0  0  0  0  0  0  0  0  0
   -2.3917   21.4837  -18.8336 S   0  0  0  0  0  0  0  0  0  0  0  0
   -3.7192   20.8539  -19.1507 O   0  0  0  0  0  0  0  0  0  0  0  0
   -2.6371   22.8794  -18.3834 O   0  0  0  0  0  0  0  0  0  0  0  0
   -1.9775   21.1685  -16.2543 C   0  0  0  0  0  0  0  0  0  0  0  0
   -1.6859   20.5869  -17.5515 N   0  0  0  0  0  0  0  0  0  0  0  0
   -0.6968   20.3666  -17.6855 H   0  0  0  0  0  0  0  0  0  0  0  0
 33 34  1  0  0  0
 34 30  1  0  0  0
 30 31  2  0  0  0
 30 32  2  0  0  0
 30  1  1  0  0  0
  1  2  2  0  0  0
  2  3  1  0  0  0
  3  4  2  0  0  0
  4  5  1  0  0  0
  5  6  2  0  0  0
  5  7  1  0  0  0
  7  8  2  0  0  0
  8 13  1  0  0  0
 13 14  1  0  0  0
 14 15  1  0  0  0
 15 16  2  0  0  0
 16 17  1  0  0  0
 17 24  1  0  0  0
 24 25  1  0  0  0
 25 26  1  0  0  0
 26 27  2  0  0  0
 26 28  1  0  0  0
 16 18  1  0  0  0
 18 19  2  0  0  0
 18 20  1  0  0  0
 20 21  1  0  0  0
 21 22  1  0  0  0
  7  9  1  0  0  0
  9 10  2  0  0  0
  9 11  1  0  0  0
  6  1  1  0  0  0
 17 13  2  0  0  0
 11  4  1  0  0  0
 22 15  1  0  0  0
 34 35  1  0  0  0
 14 23  1  0  0  0
 28 29  1  0  0  0
 11 12  1  0  0  0
M  END
> <minimizedAffinity>
-8.20261

> <CNNscore>
0.2297927737

> <CNNaffinity>
6.5672125816

> <CNN_VS>
1.5090980530

> <CNNaffinity_variance>
0.3820082247

$$$$
[H]c1nc(OC([H])([H])[H])c(N([H])S(=O)(=O)c2c([H])c([H])c(F)c([H])c2F)c([H])c1-c1nc([H])c2nc(N([H])[H])c(-c3c([H])c([H])c([H])c([H])c3[H])c([H])c2c1[H]


 40 44  0  0  0  0  0  0  0  0999 V2000
   -2.1518   21.1915  -19.3956 C   0  0  0  0  0  0  0  0  0  0  0  0
   -1.0594   20.6652  -19.9676 N   0  0  0  0  0  0  0  0  0  0  0  0
   -0.7191   20.8927  -21.2749 C   0  0  0  0  0  0  0  0  0  0  0  0
   -1.4993   21.6877  -22.0762 C   0  0  0  0  0  0  0  0  0  0  0  0
   -2.6297   22.2350  -21.4925 C   0  0  0  0  0  0  0  0  0  0  0  0
   -2.9641   21.9955  -20.1612 C   0  0  0  0  0  0  0  0  0  0  0  0
   -1.1883   21.9687  -23.4821 C   0  0  0  0  0  0  0  0  0  0  0  0
   -2.1406   22.3680  -24.3583 C   0  0  0  0  0  0  0  0  0  0  0  0
   -1.8326   22.6338  -25.6992 C   0  0  0  0  0  0  0  0  0  0  0  0
   -2.8198   23.0393  -26.5732 C   0  0  0  0  0  0  0  0  0  0  0  0
   -2.4575   23.2909  -27.8992 C   0  0  0  0  0  0  0  0  0  0  0  0
   -1.1380   23.1295  -28.2952 C   0  0  0  0  0  0  0  0  0  0  0  0
   -0.8253   23.4068  -29.6512 N   0  0  0  0  0  0  0  0  0  0  0  0
   -0.1890   22.7294  -27.4138 N   0  0  0  0  0  0  0  0  0  0  0  0
   -0.5336   22.4864  -26.1379 C   0  0  0  0  0  0  0  0  0  0  0  0
    0.4220   22.0743  -25.2120 C   0  0  0  0  0  0  0  0  0  0  0  0
    0.0857   21.8311  -23.9412 N   0  0  0  0  0  0  0  0  0  0  0  0
   -1.2217   24.2674  -30.0755 H   0  0  0  0  0  0  0  0  0  0  0  0
   -0.2273   22.7841  -30.2053 H   0  0  0  0  0  0  0  0  0  0  0  0
   -3.4921   23.7037  -28.8010 C   0  0  0  0  0  0  0  0  0  0  0  0
   -3.5528   24.9967  -29.2643 C   0  0  0  0  0  0  0  0  0  0  0  0
   -4.5320   25.4234  -30.1191 C   0  0  0  0  0  0  0  0  0  0  0  0
   -5.4975   24.5432  -30.5403 C   0  0  0  0  0  0  0  0  0  0  0  0
   -5.4725   23.2386  -30.0991 C   0  0  0  0  0  0  0  0  0  0  0  0
   -4.4654   22.8349  -29.2312 C   0  0  0  0  0  0  0  0  0  0  0  0
   -1.5997   20.1806  -17.2243 C   0  0  0  0  0  0  0  0  0  0  0  0
   -2.4455   20.9188  -18.0470 O   0  0  0  0  0  0  0  0  0  0  0  0
   -4.1226   22.5500  -19.5648 N   0  0  0  0  0  0  0  0  0  0  0  0
   -3.9810   23.1024  -18.6712 H   0  0  0  0  0  0  0  0  0  0  0  0
   -5.7178   22.3701  -20.2091 S   0  0  0  0  0  0  0  0  0  0  0  0
   -6.2212   20.9739  -19.9184 O   0  0  0  0  0  0  0  0  0  0  0  0
   -6.6382   23.3034  -19.4796 O   0  0  0  0  0  0  0  0  0  0  0  0
   -5.8022   22.6995  -21.9044 C   0  0  0  0  0  0  0  0  0  0  0  0
   -6.1126   21.7120  -22.8093 C   0  0  0  0  0  0  0  0  0  0  0  0
   -6.1750   22.0203  -24.1542 C   0  0  0  0  0  0  0  0  0  0  0  0
   -5.9315   23.2985  -24.5985 C   0  0  0  0  0  0  0  0  0  0  0  0
   -5.9888   23.6225  -25.9273 F   0  0  0  0  0  0  0  0  0  0  0  0
   -5.6165   24.3101  -23.7014 C   0  0  0  0  0  0  0  0  0  0  0  0
   -5.5621   23.9701  -22.3657 C   0  0  0  0  0  0  0  0  0  0  0  0
   -5.2578   24.9304  -21.4610 F   0  0  0  0  0  0  0  0  0  0  0  0
 26 27  1  0  0  0
 27  1  1  0  0  0
  1  2  2  0  0  0
  2  3  1  0  0  0
  3  4  2  0  0  0
  4  7  1  0  0  0
  7  8  2  0  0  0
  8  9  1  0  0  0
  9 10  2  0  0  0
 10 11  1  0  0  0
 11 20  1  0  0  0
 20 21  2  0  0  0
 21 22  1  0  0  0
 22 23  2  0  0  0
 23 24  1  0  0  0
 24 25  2  0  0  0
 11 12  2  0  0  0
 12 13  1  0  0  0
 12 14  1  0  0  0
 14 15  2  0  0  0
 15 16  1  0  0  0
 16 17  2  0  0  0
  4  5  1  0  0  0
  5  6  2  0  0  0
  6 28  1  0  0  0
 28 30  1  0  0  0
 30 31  2  0  0  0
 30 32  2  0  0  0
 30 33  1  0  0  0
 33 34  2  0  0  0
 34 35  1  0  0  0
 35 36  2  0  0  0
 36 37  1  0  0  0
 36 38  1  0  0  0
 38 39  2  0  0  0
 39 40  1  0  0  0
  6  1  1  0  0  0
 39 33  1  0  0  0
 17  7  1  0  0  0
 15  9  1  0  0  0
 25 20  1  0  0  0
 13 18  1  0  0  0
 13 19  1  0  0  0
 28 29  1  0  0  0
M  END
> <minimizedAffinity>
-9.92906

> <CNNscore>
0.6027519703

> <CNNaffinity>
7.7904410362

> <CNN_VS>
4.6957035065

> <CNNaffinity_variance>
0.1369043291

$$$$
[H]c1nc(OC([H])([H])[H])c(N([H])S(=O)(=O)c2c([H])c([H])c(F)c([H])c2F)c([H])c1-c1nc([H])c2nc(N([H])[H])c(-c3c([H])c([H])c([H])c([H])c3[H])c([H])c2c1[H]


 40 44  0  0  0  0  0  0  0  0999 V2000
   -0.3906   20.3169  -19.2050 C   0  0  0  0  0  0  0  0  0  0  0  0
    0.7573   20.1954  -19.8867 N   0  0  0  0  0  0  0  0  0  0  0  0
    0.8895   20.5705  -21.1976 C   0  0  0  0  0  0  0  0  0  0  0  0
   -0.1718   21.0998  -21.8877 C   0  0  0  0  0  0  0  0  0  0  0  0
   -1.3613   21.2284  -21.1902 C   0  0  0  0  0  0  0  0  0  0  0  0
   -1.4820   20.8429  -19.8567 C   0  0  0  0  0  0  0  0  0  0  0  0
   -0.0932   21.5198  -23.2911 C   0  0  0  0  0  0  0  0  0  0  0  0
   -1.1984   21.8489  -24.0012 C   0  0  0  0  0  0  0  0  0  0  0  0
   -1.1119   22.2489  -25.3414 C   0  0  0  0  0  0  0  0  0  0  0  0
   -2.2518   22.5794  -26.0443 C   0  0  0  0  0  0  0  0  0  0  0  0
   -2.1082   22.9716  -27.3779 C   0  0  0  0  0  0  0  0  0  0  0  0
   -0.8455   23.0178  -27.9501 C   0  0  0  0  0  0  0  0  0  0  0  0
   -0.7578   23.4308  -29.3048 N   0  0  0  0  0  0  0  0  0  0  0  0
    0.2573   22.6870  -27.2345 N   0  0  0  0  0  0  0  0  0  0  0  0
    0.1231   22.3093  -25.9519 C   0  0  0  0  0  0  0  0  0  0  0  0
    1.2399   21.9644  -25.1942 C   0  0  0  0  0  0  0  0  0  0  0  0
    1.1132   21.5880  -23.9178 N   0  0  0  0  0  0  0  0  0  0  0  0
   -1.3120   24.2583  -29.5976 H   0  0  0  0  0  0  0  0  0  0  0  0
   -0.1687   22.9354  -29.9829 H   0  0  0  0  0  0  0  0  0  0  0  0
   -3.2995   23.3048  -28.1018 C   0  0  0  0  0  0  0  0  0  0  0  0
   -3.9760   24.4750  -27.8507 C   0  0  0  0  0  0  0  0  0  0  0  0
   -5.1198   24.8176  -28.5186 C   0  0  0  0  0  0  0  0  0  0  0  0
   -5.6253   23.9752  -29.4773 C   0  0  0  0  0  0  0  0  0  0  0  0
   -4.9774   22.7927  -29.7588 C   0  0  0  0  0  0  0  0  0  0  0  0
   -3.8179   22.4722  -29.0636 C   0  0  0  0  0  0  0  0  0  0  0  0
   -0.1640   18.6179  -17.4434 C   0  0  0  0  0  0  0  0  0  0  0  0
   -0.4607   19.9125  -17.8593 O   0  0  0  0  0  0  0  0  0  0  0  0
   -2.6992   20.9689  -19.1441 N   0  0  0  0  0  0  0  0  0  0  0  0
   -3.3276   20.1155  -19.1191 H   0  0  0  0  0  0  0  0  0  0  0  0
   -3.1967   22.4147  -18.3351 S   0  0  0  0  0  0  0  0  0  0  0  0
   -2.0515   23.4025  -18.3247 O   0  0  0  0  0  0  0  0  0  0  0  0
   -4.2925   23.0581  -19.1325 O   0  0  0  0  0  0  0  0  0  0  0  0
   -3.7590   22.1282  -16.7254 C   0  0  0  0  0  0  0  0  0  0  0  0
   -3.7435   20.8675  -16.1771 C   0  0  0  0  0  0  0  0  0  0  0  0
   -4.1967   20.6845  -14.8852 C   0  0  0  0  0  0  0  0  0  0  0  0
   -4.6619   21.7439  -14.1426 C   0  0  0  0  0  0  0  0  0  0  0  0
   -5.1148   21.5816  -12.8610 F   0  0  0  0  0  0  0  0  0  0  0  0
   -4.6860   23.0249  -14.6773 C   0  0  0  0  0  0  0  0  0  0  0  0
   -4.2268   23.1745  -15.9694 C   0  0  0  0  0  0  0  0  0  0  0  0
   -4.2352   24.4092  -16.5248 F   0  0  0  0  0  0  0  0  0  0  0  0
 26 27  1  0  0  0
 27  1  1  0  0  0
  1  2  2  0  0  0
  2  3  1  0  0  0
  3  4  2  0  0  0
  4  7  1  0  0  0
  7  8  2  0  0  0
  8  9  1  0  0  0
  9 10  2  0  0  0
 10 11  1  0  0  0
 11 20  1  0  0  0
 20 21  2  0  0  0
 21 22  1  0  0  0
 22 23  2  0  0  0
 23 24  1  0  0  0
 24 25  2  0  0  0
 11 12  2  0  0  0
 12 13  1  0  0  0
 12 14  1  0  0  0
 14 15  2  0  0  0
 15 16  1  0  0  0
 16 17  2  0  0  0
  4  5  1  0  0  0
  5  6  2  0  0  0
  6 28  1  0  0  0
 28 30  1  0  0  0
 30 31  2  0  0  0
 30 32  2  0  0  0
 30 33  1  0  0  0
 33 34  2  0  0  0
 34 35  1  0  0  0
 35 36  2  0  0  0
 36 37  1  0  0  0
 36 38  1  0  0  0
 38 39  2  0  0  0
 39 40  1  0  0  0
  6  1  1  0  0  0
 39 33  1  0  0  0
 17  7  1  0  0  0
 15  9  1  0  0  0
 25 20  1  0  0  0
 13 18  1  0  0  0
 13 19  1  0  0  0
 28 29  1  0  0  0
M  END
> <minimizedAffinity>
-8.76462

> <CNNscore>
0.5169895887

> <CNNaffinity>
7.0325174332

> <CNN_VS>
3.6357383728

> <CNNaffinity_variance>
0.1648905277

$$$$
[H]c1nc(OC([H])([H])[H])c(N([H])S(=O)(=O)c2c([H])c([H])c(F)c([H])c2F)c([H])c1-c1nc([H])c2nc(N([H])[H])c(-c3c([H])c([H])c([H])c([H])c3[H])c([H])c2c1[H]


 40 44  0  0  0  0  0  0  0  0999 V2000
   -1.6500   21.1768  -19.3700 C   0  0  0  0  0  0  0  0  0  0  0  0
   -0.3976   21.2625  -19.8407 N   0  0  0  0  0  0  0  0  0  0  0  0
   -0.1111   21.5206  -21.1551 C   0  0  0  0  0  0  0  0  0  0  0  0
   -1.1164   21.7072  -22.0702 C   0  0  0  0  0  0  0  0  0  0  0  0
   -2.4130   21.6201  -21.5915 C   0  0  0  0  0  0  0  0  0  0  0  0
   -2.6905   21.3571  -20.2516 C   0  0  0  0  0  0  0  0  0  0  0  0
   -0.8739   21.9863  -23.4899 C   0  0  0  0  0  0  0  0  0  0  0  0
   -1.8715   22.3643  -24.3241 C   0  0  0  0  0  0  0  0  0  0  0  0
   -1.6287   22.6286  -25.6787 C   0  0  0  0  0  0  0  0  0  0  0  0
   -2.6611   23.0122  -26.5091 C   0  0  0  0  0  0  0  0  0  0  0  0
   -2.3633   23.2632  -27.8512 C   0  0  0  0  0  0  0  0  0  0  0  0
   -1.0602   23.1228  -28.3055 C   0  0  0  0  0  0  0  0  0  0  0  0
   -0.8136   23.3985  -29.6753 N   0  0  0  0  0  0  0  0  0  0  0  0
   -0.0657   22.7440  -27.4659 N   0  0  0  0  0  0  0  0  0  0  0  0
   -0.3483   22.5016  -26.1747 C   0  0  0  0  0  0  0  0  0  0  0  0
    0.6550   22.1111  -25.2909 C   0  0  0  0  0  0  0  0  0  0  0  0
    0.3805   21.8686  -24.0053 N   0  0  0  0  0  0  0  0  0  0  0  0
   -1.2438   24.2498  -30.0851 H   0  0  0  0  0  0  0  0  0  0  0  0
   -0.2302   22.7835  -30.2531 H   0  0  0  0  0  0  0  0  0  0  0  0
   -3.4445   23.6531  -28.7074 C   0  0  0  0  0  0  0  0  0  0  0  0
   -4.3395   22.7249  -29.1843 C   0  0  0  0  0  0  0  0  0  0  0  0
   -5.3768   23.0640  -30.0094 C   0  0  0  0  0  0  0  0  0  0  0  0
   -5.5460   24.3733  -30.3856 C   0  0  0  0  0  0  0  0  0  0  0  0
   -4.6707   25.3342  -29.9297 C   0  0  0  0  0  0  0  0  0  0  0  0
   -3.6268   24.9590  -29.0930 C   0  0  0  0  0  0  0  0  0  0  0  0
   -0.8507   20.6165  -17.1142 C   0  0  0  0  0  0  0  0  0  0  0  0
   -1.8771   20.9088  -18.0076 O   0  0  0  0  0  0  0  0  0  0  0  0
   -4.0158   21.2623  -19.7620 N   0  0  0  0  0  0  0  0  0  0  0  0
   -4.4228   20.2875  -19.6732 H   0  0  0  0  0  0  0  0  0  0  0  0
   -4.9780   22.6288  -19.3159 S   0  0  0  0  0  0  0  0  0  0  0  0
   -4.4081   23.2553  -18.0628 O   0  0  0  0  0  0  0  0  0  0  0  0
   -4.8612   23.6694  -20.3902 O   0  0  0  0  0  0  0  0  0  0  0  0
   -6.6457   22.2343  -19.0866 C   0  0  0  0  0  0  0  0  0  0  0  0
   -7.2728   22.4542  -17.8830 C   0  0  0  0  0  0  0  0  0  0  0  0
   -8.6083   22.1297  -17.7452 C   0  0  0  0  0  0  0  0  0  0  0  0
   -9.3167   21.5911  -18.7932 C   0  0  0  0  0  0  0  0  0  0  0  0
  -10.6405   21.2634  -18.6751 F   0  0  0  0  0  0  0  0  0  0  0  0
   -8.7024   21.3611  -20.0169 C   0  0  0  0  0  0  0  0  0  0  0  0
   -7.3684   21.6958  -20.1223 C   0  0  0  0  0  0  0  0  0  0  0  0
   -6.7353   21.4858  -21.3006 F   0  0  0  0  0  0  0  0  0  0  0  0
 26 27  1  0  0  0
 27  1  1  0  0  0
  1  2  2  0  0  0
  2  3  1  0  0  0
  3  4  2  0  0  0
  4  7  1  0  0  0
  7  8  2  0  0  0
  8  9  1  0  0  0
  9 10  2  0  0  0
 10 11  1  0  0  0
 11 20  1  0  0  0
 20 21  2  0  0  0
 21 22  1  0  0  0
 22 23  2  0  0  0
 23 24  1  0  0  0
 24 25  2  0  0  0
 11 12  2  0  0  0
 12 13  1  0  0  0
 12 14  1  0  0  0
 14 15  2  0  0  0
 15 16  1  0  0  0
 16 17  2  0  0  0
  4  5  1  0  0  0
  5  6  2  0  0  0
  6 28  1  0  0  0
 28 30  1  0  0  0
 30 31  2  0  0  0
 30 32  2  0  0  0
 30 33  1  0  0  0
 33 34  2  0  0  0
 34 35  1  0  0  0
 35 36  2  0  0  0
 36 37  1  0  0  0
 36 38  1  0  0  0
 38 39  2  0  0  0
 39 40  1  0  0  0
  6  1  1  0  0  0
 39 33  1  0  0  0
 17  7  1  0  0  0
 15  9  1  0  0  0
 25 20  1  0  0  0
 13 18  1  0  0  0
 13 19  1  0  0  0
 28 29  1  0  0  0
M  END
> <minimizedAffinity>
-9.38616

> <CNNscore>
0.5079863071

> <CNNaffinity>
7.4589052200

> <CNN_VS>
3.7890217304

> <CNNaffinity_variance>
0.2105170190

$$$$
[H]c1nc(OC([H])([H])[H])c(N([H])S(=O)(=O)c2c([H])c([H])c(F)c([H])c2F)c([H])c1-c1nc([H])c2nc(N([H])[H])c(-c3c([H])c([H])c([H])c([H])c3[H])c([H])c2c1[H]


 40 44  0  0  0  0  0  0  0  0999 V2000
   -2.7470   21.2090  -19.3507 C   0  0  0  0  0  0  0  0  0  0  0  0
   -1.4735   21.0617  -19.7429 N   0  0  0  0  0  0  0  0  0  0  0  0
   -1.0567   21.2968  -21.0265 C   0  0  0  0  0  0  0  0  0  0  0  0
   -1.9445   21.7029  -21.9906 C   0  0  0  0  0  0  0  0  0  0  0  0
   -3.2621   21.8572  -21.5931 C   0  0  0  0  0  0  0  0  0  0  0  0
   -3.6727   21.6148  -20.2839 C   0  0  0  0  0  0  0  0  0  0  0  0
   -1.5598   21.9701  -23.3809 C   0  0  0  0  0  0  0  0  0  0  0  0
   -2.4580   22.3932  -24.3019 C   0  0  0  0  0  0  0  0  0  0  0  0
   -2.0797   22.6457  -25.6273 C   0  0  0  0  0  0  0  0  0  0  0  0
   -3.0126   23.0760  -26.5477 C   0  0  0  0  0  0  0  0  0  0  0  0
   -2.5812   23.3127  -27.8557 C   0  0  0  0  0  0  0  0  0  0  0  0
   -1.2496   23.1126  -28.1886 C   0  0  0  0  0  0  0  0  0  0  0  0
   -0.8656   23.3764  -29.5289 N   0  0  0  0  0  0  0  0  0  0  0  0
   -0.3550   22.6889  -27.2626 N   0  0  0  0  0  0  0  0  0  0  0  0
   -0.7661   22.4600  -26.0039 C   0  0  0  0  0  0  0  0  0  0  0  0
    0.1326   22.0242  -25.0330 C   0  0  0  0  0  0  0  0  0  0  0  0
   -0.2700   21.7950  -23.7791 N   0  0  0  0  0  0  0  0  0  0  0  0
   -1.2169   24.2463  -29.9732 H   0  0  0  0  0  0  0  0  0  0  0  0
   -0.2601   22.7351  -30.0529 H   0  0  0  0  0  0  0  0  0  0  0  0
   -3.5600   23.7515  -28.8062 C   0  0  0  0  0  0  0  0  0  0  0  0
   -3.5651   25.0455  -29.2706 C   0  0  0  0  0  0  0  0  0  0  0  0
   -4.4905   25.4969  -30.1715 C   0  0  0  0  0  0  0  0  0  0  0  0
   -5.4566   24.6415  -30.6398 C   0  0  0  0  0  0  0  0  0  0  0  0
   -5.4864   23.3368  -30.1992 C   0  0  0  0  0  0  0  0  0  0  0  0
   -4.5332   22.9078  -29.2839 C   0  0  0  0  0  0  0  0  0  0  0  0
   -2.7607   21.7906  -16.9626 C   0  0  0  0  0  0  0  0  0  0  0  0
   -3.1107   20.9513  -18.0163 O   0  0  0  0  0  0  0  0  0  0  0  0
   -5.0206   21.7669  -19.8775 N   0  0  0  0  0  0  0  0  0  0  0  0
   -5.4510   20.9601  -19.3412 H   0  0  0  0  0  0  0  0  0  0  0  0
   -5.9741   23.1715  -20.2093 S   0  0  0  0  0  0  0  0  0  0  0  0
   -7.3973   22.9292  -19.7584 O   0  0  0  0  0  0  0  0  0  0  0  0
   -5.4620   24.3076  -19.3741 O   0  0  0  0  0  0  0  0  0  0  0  0
   -5.9408   23.6318  -21.8755 C   0  0  0  0  0  0  0  0  0  0  0  0
   -5.3593   24.8104  -22.2796 C   0  0  0  0  0  0  0  0  0  0  0  0
   -5.3497   25.1364  -23.6217 C   0  0  0  0  0  0  0  0  0  0  0  0
   -5.9126   24.2999  -24.5564 C   0  0  0  0  0  0  0  0  0  0  0  0
   -5.9124   24.6064  -25.8906 F   0  0  0  0  0  0  0  0  0  0  0  0
   -6.5048   23.1052  -24.1696 C   0  0  0  0  0  0  0  0  0  0  0  0
   -6.4981   22.8086  -22.8225 C   0  0  0  0  0  0  0  0  0  0  0  0
   -7.0665   21.6520  -22.4074 F   0  0  0  0  0  0  0  0  0  0  0  0
 26 27  1  0  0  0
 27  1  1  0  0  0
  1  2  2  0  0  0
  2  3  1  0  0  0
  3  4  2  0  0  0
  4  7  1  0  0  0
  7  8  2  0  0  0
  8  9  1  0  0  0
  9 10  2  0  0  0
 10 11  1  0  0  0
 11 20  1  0  0  0
 20 21  2  0  0  0
 21 22  1  0  0  0
 22 23  2  0  0  0
 23 24  1  0  0  0
 24 25  2  0  0  0
 11 12  2  0  0  0
 12 13  1  0  0  0
 12 14  1  0  0  0
 14 15  2  0  0  0
 15 16  1  0  0  0
 16 17  2  0  0  0
  4  5  1  0  0  0
  5  6  2  0  0  0
  6 28  1  0  0  0
 28 30  1  0  0  0
 30 31  2  0  0  0
 30 32  2  0  0  0
 30 33  1  0  0  0
 33 34  2  0  0  0
 34 35  1  0  0  0
 35 36  2  0  0  0
 36 37  1  0  0  0
 36 38  1  0  0  0
 38 39  2  0  0  0
 39 40  1  0  0  0
  6  1  1  0  0  0
 39 33  1  0  0  0
 17  7  1  0  0  0
 15  9  1  0  0  0
 25 20  1  0  0  0
 13 18  1  0  0  0
 13 19  1  0  0  0
 28 29  1  0  0  0
M  END
> <minimizedAffinity>
-10.16910

> <CNNscore>
0.4870873094

> <CNNaffinity>
7.7244558334

> <CNN_VS>
3.7624843121

> <CNNaffinity_variance>
0.2116413862

$$$$
[H]c1nc(OC([H])([H])[H])c(N([H])S(=O)(=O)c2c([H])c([H])c(F)c([H])c2F)c([H])c1-c1nc([H])c2nc(N([H])[H])c(-c3c([H])c([H])c([H])c([H])c3[H])c([H])c2c1[H]


 40 44  0  0  0  0  0  0  0  0999 V2000
   -3.0021   22.2024  -19.0413 C   0  0  0  0  0  0  0  0  0  0  0  0
   -3.7737   22.8350  -19.9367 N   0  0  0  0  0  0  0  0  0  0  0  0
   -3.4371   22.9538  -21.2593 C   0  0  0  0  0  0  0  0  0  0  0  0
   -2.2679   22.4183  -21.7379 C   0  0  0  0  0  0  0  0  0  0  0  0
   -1.4653   21.7633  -20.8188 C   0  0  0  0  0  0  0  0  0  0  0  0
   -1.8198   21.6495  -19.4761 C   0  0  0  0  0  0  0  0  0  0  0  0
   -1.8523   22.5124  -23.1417 C   0  0  0  0  0  0  0  0  0  0  0  0
   -2.7164   22.8741  -24.1197 C   0  0  0  0  0  0  0  0  0  0  0  0
   -2.3088   22.9610  -25.4576 C   0  0  0  0  0  0  0  0  0  0  0  0
   -3.2072   23.3316  -26.4365 C   0  0  0  0  0  0  0  0  0  0  0  0
   -2.7477   23.4022  -27.7544 C   0  0  0  0  0  0  0  0  0  0  0  0
   -1.4234   23.1033  -28.0389 C   0  0  0  0  0  0  0  0  0  0  0  0
   -1.0093   23.1994  -29.3927 N   0  0  0  0  0  0  0  0  0  0  0  0
   -0.5630   22.7416  -27.0559 N   0  0  0  0  0  0  0  0  0  0  0  0
   -1.0013   22.6725  -25.7875 C   0  0  0  0  0  0  0  0  0  0  0  0
   -0.1380   22.3036  -24.7585 C   0  0  0  0  0  0  0  0  0  0  0  0
   -0.5677   22.2331  -23.4946 N   0  0  0  0  0  0  0  0  0  0  0  0
   -1.3113   24.0310  -29.9357 H   0  0  0  0  0  0  0  0  0  0  0  0
   -0.4296   22.4762  -29.8323 H   0  0  0  0  0  0  0  0  0  0  0  0
   -3.6911   23.7801  -28.7649 C   0  0  0  0  0  0  0  0  0  0  0  0
   -3.7290   25.0650  -29.2526 C   0  0  0  0  0  0  0  0  0  0  0  0
   -4.6225   25.4587  -30.2109 C   0  0  0  0  0  0  0  0  0  0  0  0
   -5.5213   24.5523  -30.7156 C   0  0  0  0  0  0  0  0  0  0  0  0
   -5.5164   23.2547  -30.2534 C   0  0  0  0  0  0  0  0  0  0  0  0
   -4.5970   22.8848  -29.2796 C   0  0  0  0  0  0  0  0  0  0  0  0
   -4.1881   21.0728  -17.2086 C   0  0  0  0  0  0  0  0  0  0  0  0
   -3.4052   22.1151  -17.6962 O   0  0  0  0  0  0  0  0  0  0  0  0
   -0.9975   20.9848  -18.5342 N   0  0  0  0  0  0  0  0  0  0  0  0
   -1.4140   20.1383  -18.0510 H   0  0  0  0  0  0  0  0  0  0  0  0
    0.6135   21.4793  -18.1438 S   0  0  0  0  0  0  0  0  0  0  0  0
    1.5890   20.7824  -19.0657 O   0  0  0  0  0  0  0  0  0  0  0  0
    0.7480   22.9459  -18.4293 O   0  0  0  0  0  0  0  0  0  0  0  0
    1.0292   21.1821  -16.4920 C   0  0  0  0  0  0  0  0  0  0  0  0
    1.4618   22.1963  -15.6706 C   0  0  0  0  0  0  0  0  0  0  0  0
    1.7779   21.9156  -14.3557 C   0  0  0  0  0  0  0  0  0  0  0  0
    1.6657   20.6385  -13.8589 C   0  0  0  0  0  0  0  0  0  0  0  0
    1.9744   20.3416  -12.5586 F   0  0  0  0  0  0  0  0  0  0  0  0
    1.2308   19.6001  -14.6713 C   0  0  0  0  0  0  0  0  0  0  0  0
    0.9231   19.9130  -15.9791 C   0  0  0  0  0  0  0  0  0  0  0  0
    0.4956   18.9261  -16.8016 F   0  0  0  0  0  0  0  0  0  0  0  0
 26 27  1  0  0  0
 27  1  1  0  0  0
  1  2  2  0  0  0
  2  3  1  0  0  0
  3  4  2  0  0  0
  4  7  1  0  0  0
  7  8  2  0  0  0
  8  9  1  0  0  0
  9 10  2  0  0  0
 10 11  1  0  0  0
 11 20  1  0  0  0
 20 21  2  0  0  0
 21 22  1  0  0  0
 22 23  2  0  0  0
 23 24  1  0  0  0
 24 25  2  0  0  0
 11 12  2  0  0  0
 12 13  1  0  0  0
 12 14  1  0  0  0
 14 15  2  0  0  0
 15 16  1  0  0  0
 16 17  2  0  0  0
  4  5  1  0  0  0
  5  6  2  0  0  0
  6 28  1  0  0  0
 28 30  1  0  0  0
 30 31  2  0  0  0
 30 32  2  0  0  0
 30 33  1  0  0  0
 33 34  2  0  0  0
 34 35  1  0  0  0
 35 36  2  0  0  0
 36 37  1  0  0  0
 36 38  1  0  0  0
 38 39  2  0  0  0
 39 40  1  0  0  0
  6  1  1  0  0  0
 39 33  1  0  0  0
 17  7  1  0  0  0
 15  9  1  0  0  0
 25 20  1  0  0  0
 13 18  1  0  0  0
 13 19  1  0  0  0
 28 29  1  0  0  0
M  END
> <minimizedAffinity>
-8.24615

> <CNNscore>
0.4347950220

> <CNNaffinity>
7.1336379051

> <CNN_VS>
3.1016702652

> <CNNaffinity_variance>
0.5090358257

$$$$
[H]c1nc(OC([H])([H])[H])c(N([H])S(=O)(=O)c2c([H])c([H])c(F)c([H])c2F)c([H])c1-c1nc([H])c2nc(N([H])[H])c(-c3c([H])c([H])c([H])c([H])c3[H])c([H])c2c1[H]


 40 44  0  0  0  0  0  0  0  0999 V2000
   -3.4097   21.3631  -19.1982 C   0  0  0  0  0  0  0  0  0  0  0  0
   -4.2848   21.5745  -20.1916 N   0  0  0  0  0  0  0  0  0  0  0  0
   -3.9019   21.7945  -21.4884 C   0  0  0  0  0  0  0  0  0  0  0  0
   -2.5748   21.8088  -21.8366 C   0  0  0  0  0  0  0  0  0  0  0  0
   -1.6646   21.5913  -20.8158 C   0  0  0  0  0  0  0  0  0  0  0  0
   -2.0678   21.3685  -19.5007 C   0  0  0  0  0  0  0  0  0  0  0  0
   -2.1023   22.0388  -23.2064 C   0  0  0  0  0  0  0  0  0  0  0  0
   -2.9321   22.4725  -24.1848 C   0  0  0  0  0  0  0  0  0  0  0  0
   -2.4703   22.6891  -25.4899 C   0  0  0  0  0  0  0  0  0  0  0  0
   -3.3345   23.1311  -26.4700 C   0  0  0  0  0  0  0  0  0  0  0  0
   -2.8212   23.3307  -27.7544 C   0  0  0  0  0  0  0  0  0  0  0  0
   -1.4797   23.0837  -28.0060 C   0  0  0  0  0  0  0  0  0  0  0  0
   -1.0109   23.3111  -29.3258 N   0  0  0  0  0  0  0  0  0  0  0  0
   -0.6538   22.6495  -27.0227 N   0  0  0  0  0  0  0  0  0  0  0  0
   -1.1438   22.4563  -25.7865 C   0  0  0  0  0  0  0  0  0  0  0  0
   -0.3167   22.0108  -24.7580 C   0  0  0  0  0  0  0  0  0  0  0  0
   -0.7979   21.8168  -23.5260 N   0  0  0  0  0  0  0  0  0  0  0  0
   -1.3083   24.1833  -29.8039 H   0  0  0  0  0  0  0  0  0  0  0  0
   -0.3969   22.6421  -29.8031 H   0  0  0  0  0  0  0  0  0  0  0  0
   -3.7292   23.7820  -28.7672 C   0  0  0  0  0  0  0  0  0  0  0  0
   -4.6662   22.9329  -29.3069 C   0  0  0  0  0  0  0  0  0  0  0  0
   -5.5412   23.3310  -30.2803 C   0  0  0  0  0  0  0  0  0  0  0  0
   -5.4971   24.6209  -30.7476 C   0  0  0  0  0  0  0  0  0  0  0  0
   -4.5728   25.5032  -30.2332 C   0  0  0  0  0  0  0  0  0  0  0  0
   -3.6973   25.0694  -29.2454 C   0  0  0  0  0  0  0  0  0  0  0  0
   -5.1925   21.3396  -17.5062 C   0  0  0  0  0  0  0  0  0  0  0  0
   -3.8681   21.1431  -17.8863 O   0  0  0  0  0  0  0  0  0  0  0  0
   -1.1379   21.1515  -18.4550 N   0  0  0  0  0  0  0  0  0  0  0  0
   -1.5128   20.7083  -17.5679 H   0  0  0  0  0  0  0  0  0  0  0  0
    0.5381   21.5677  -18.5545 S   0  0  0  0  0  0  0  0  0  0  0  0
    0.6712   23.0494  -18.8267 O   0  0  0  0  0  0  0  0  0  0  0  0
    1.1713   21.3333  -17.2149 O   0  0  0  0  0  0  0  0  0  0  0  0
    1.3899   20.6569  -19.7521 C   0  0  0  0  0  0  0  0  0  0  0  0
    2.0685   21.2785  -20.7736 C   0  0  0  0  0  0  0  0  0  0  0  0
    2.7407   20.5125  -21.7057 C   0  0  0  0  0  0  0  0  0  0  0  0
    2.7400   19.1399  -21.6256 C   0  0  0  0  0  0  0  0  0  0  0  0
    3.4005   18.3645  -22.5402 F   0  0  0  0  0  0  0  0  0  0  0  0
    2.0611   18.4924  -20.6023 C   0  0  0  0  0  0  0  0  0  0  0  0
    1.3999   19.2855  -19.6876 C   0  0  0  0  0  0  0  0  0  0  0  0
    0.7265   18.6895  -18.6753 F   0  0  0  0  0  0  0  0  0  0  0  0
 26 27  1  0  0  0
 27  1  1  0  0  0
  1  2  2  0  0  0
  2  3  1  0  0  0
  3  4  2  0  0  0
  4  7  1  0  0  0
  7  8  2  0  0  0
  8  9  1  0  0  0
  9 10  2  0  0  0
 10 11  1  0  0  0
 11 20  1  0  0  0
 20 21  2  0  0  0
 21 22  1  0  0  0
 22 23  2  0  0  0
 23 24  1  0  0  0
 24 25  2  0  0  0
 11 12  2  0  0  0
 12 13  1  0  0  0
 12 14  1  0  0  0
 14 15  2  0  0  0
 15 16  1  0  0  0
 16 17  2  0  0  0
  4  5  1  0  0  0
  5  6  2  0  0  0
  6 28  1  0  0  0
 28 30  1  0  0  0
 30 31  2  0  0  0
 30 32  2  0  0  0
 30 33  1  0  0  0
 33 34  2  0  0  0
 34 35  1  0  0  0
 35 36  2  0  0  0
 36 37  1  0  0  0
 36 38  1  0  0  0
 38 39  2  0  0  0
 39 40  1  0  0  0
  6  1  1  0  0  0
 39 33  1  0  0  0
 17  7  1  0  0  0
 15  9  1  0  0  0
 25 20  1  0  0  0
 13 18  1  0  0  0
 13 19  1  0  0  0
 28 29  1  0  0  0
M  END
> <minimizedAffinity>
-9.07774

> <CNNscore>
0.3985903263

> <CNNaffinity>
7.3832292557

> <CNN_VS>
2.9428837299

> <CNNaffinity_variance>
0.4255515039

$$$$
[H]c1nc(OC([H])([H])[H])c(N([H])S(=O)(=O)c2c([H])c([H])c(F)c([H])c2F)c([H])c1-c1nc([H])c2nc(N([H])[H])c(-c3c([H])c([H])c([H])c([H])c3[H])c([H])c2c1[H]


 40 44  0  0  0  0  0  0  0  0999 V2000
   -3.4945   21.8176  -19.1478 C   0  0  0  0  0  0  0  0  0  0  0  0
   -4.2841   21.4950  -20.1820 N   0  0  0  0  0  0  0  0  0  0  0  0
   -3.8932   21.6269  -21.4883 C   0  0  0  0  0  0  0  0  0  0  0  0
   -2.6469   22.1064  -21.8040 C   0  0  0  0  0  0  0  0  0  0  0  0
   -1.8252   22.4420  -20.7408 C   0  0  0  0  0  0  0  0  0  0  0  0
   -2.2355   22.3026  -19.4165 C   0  0  0  0  0  0  0  0  0  0  0  0
   -2.1705   22.2706  -23.1818 C   0  0  0  0  0  0  0  0  0  0  0  0
   -2.9923   22.6784  -24.1779 C   0  0  0  0  0  0  0  0  0  0  0  0
   -2.5269   22.8320  -25.4906 C   0  0  0  0  0  0  0  0  0  0  0  0
   -3.3830   23.2486  -26.4887 C   0  0  0  0  0  0  0  0  0  0  0  0
   -2.8663   23.3852  -27.7800 C   0  0  0  0  0  0  0  0  0  0  0  0
   -1.5296   23.1034  -28.0203 C   0  0  0  0  0  0  0  0  0  0  0  0
   -1.0570   23.2671  -29.3482 N   0  0  0  0  0  0  0  0  0  0  0  0
   -0.7116   22.6954  -27.0193 N   0  0  0  0  0  0  0  0  0  0  0  0
   -1.2049   22.5628  -25.7765 C   0  0  0  0  0  0  0  0  0  0  0  0
   -0.3860   22.1454  -24.7298 C   0  0  0  0  0  0  0  0  0  0  0  0
   -0.8704   22.0117  -23.4911 N   0  0  0  0  0  0  0  0  0  0  0  0
   -1.3384   24.1239  -29.8624 H   0  0  0  0  0  0  0  0  0  0  0  0
   -0.4554   22.5677  -29.7970 H   0  0  0  0  0  0  0  0  0  0  0  0
   -3.7661   23.8106  -28.8113 C   0  0  0  0  0  0  0  0  0  0  0  0
   -3.7295   25.0965  -29.2962 C   0  0  0  0  0  0  0  0  0  0  0  0
   -4.5799   25.5352  -30.2740 C   0  0  0  0  0  0  0  0  0  0  0  0
   -5.5100   24.6748  -30.8021 C   0  0  0  0  0  0  0  0  0  0  0  0
   -5.5795   23.3778  -30.3434 C   0  0  0  0  0  0  0  0  0  0  0  0
   -4.7025   22.9616  -29.3494 C   0  0  0  0  0  0  0  0  0  0  0  0
   -4.6378   20.5236  -17.3986 C   0  0  0  0  0  0  0  0  0  0  0  0
   -3.9562   21.6584  -17.8284 O   0  0  0  0  0  0  0  0  0  0  0  0
   -1.3984   22.6506  -18.3287 N   0  0  0  0  0  0  0  0  0  0  0  0
   -1.4779   23.6428  -17.9642 H   0  0  0  0  0  0  0  0  0  0  0  0
   -0.2788   21.5600  -17.5876 S   0  0  0  0  0  0  0  0  0  0  0  0
   -0.9667   20.8266  -16.4578 O   0  0  0  0  0  0  0  0  0  0  0  0
    0.1053   20.5119  -18.5897 O   0  0  0  0  0  0  0  0  0  0  0  0
    1.1498   22.3464  -17.0129 C   0  0  0  0  0  0  0  0  0  0  0  0
    1.5295   22.2635  -15.6941 C   0  0  0  0  0  0  0  0  0  0  0  0
    2.6815   22.9024  -15.2789 C   0  0  0  0  0  0  0  0  0  0  0  0
    3.4513   23.6184  -16.1649 C   0  0  0  0  0  0  0  0  0  0  0  0
    4.5959   24.2580  -15.7716 F   0  0  0  0  0  0  0  0  0  0  0  0
    3.0858   23.7146  -17.5008 C   0  0  0  0  0  0  0  0  0  0  0  0
    1.9304   23.0655  -17.8838 C   0  0  0  0  0  0  0  0  0  0  0  0
    1.5419   23.1370  -19.1789 F   0  0  0  0  0  0  0  0  0  0  0  0
 26 27  1  0  0  0
 27  1  1  0  0  0
  1  2  2  0  0  0
  2  3  1  0  0  0
  3  4  2  0  0  0
  4  7  1  0  0  0
  7  8  2  0  0  0
  8  9  1  0  0  0
  9 10  2  0  0  0
 10 11  1  0  0  0
 11 20  1  0  0  0
 20 21  2  0  0  0
 21 22  1  0  0  0
 22 23  2  0  0  0
 23 24  1  0  0  0
 24 25  2  0  0  0
 11 12  2  0  0  0
 12 13  1  0  0  0
 12 14  1  0  0  0
 14 15  2  0  0  0
 15 16  1  0  0  0
 16 17  2  0  0  0
  4  5  1  0  0  0
  5  6  2  0  0  0
  6 28  1  0  0  0
 28 30  1  0  0  0
 30 31  2  0  0  0
 30 32  2  0  0  0
 30 33  1  0  0  0
 33 34  2  0  0  0
 34 35  1  0  0  0
 35 36  2  0  0  0
 36 37  1  0  0  0
 36 38  1  0  0  0
 38 39  2  0  0  0
 39 40  1  0  0  0
  6  1  1  0  0  0
 39 33  1  0  0  0
 17  7  1  0  0  0
 15  9  1  0  0  0
 25 20  1  0  0  0
 13 18  1  0  0  0
 13 19  1  0  0  0
 28 29  1  0  0  0
M  END
> <minimizedAffinity>
-9.38198

> <CNNscore>
0.3263006508

> <CNNaffinity>
7.2385392189

> <CNN_VS>
2.3619401455

> <CNNaffinity_variance>
0.4598919451

$$$$
[H]c1nc(OC([H])([H])[H])c(N([H])S(=O)(=O)c2c([H])c([H])c(F)c([H])c2F)c([H])c1-c1nc([H])c2nc(N([H])[H])c(-c3c([H])c([H])c([H])c([H])c3[H])c([H])c2c1[H]


 40 44  0  0  0  0  0  0  0  0999 V2000
   -2.9376   21.2977  -19.3405 C   0  0  0  0  0  0  0  0  0  0  0  0
   -1.6463   21.2394  -19.6959 N   0  0  0  0  0  0  0  0  0  0  0  0
   -1.2141   21.4669  -20.9758 C   0  0  0  0  0  0  0  0  0  0  0  0
   -2.1043   21.7715  -21.9746 C   0  0  0  0  0  0  0  0  0  0  0  0
   -3.4403   21.8334  -21.6153 C   0  0  0  0  0  0  0  0  0  0  0  0
   -3.8663   21.6000  -20.3093 C   0  0  0  0  0  0  0  0  0  0  0  0
   -1.7037   22.0251  -23.3630 C   0  0  0  0  0  0  0  0  0  0  0  0
   -2.5920   22.4359  -24.2990 C   0  0  0  0  0  0  0  0  0  0  0  0
   -2.1987   22.6754  -25.6224 C   0  0  0  0  0  0  0  0  0  0  0  0
   -3.1217   23.0933  -26.5584 C   0  0  0  0  0  0  0  0  0  0  0  0
   -2.6754   23.3175  -27.8636 C   0  0  0  0  0  0  0  0  0  0  0  0
   -1.3394   23.1176  -28.1785 C   0  0  0  0  0  0  0  0  0  0  0  0
   -0.9401   23.3683  -29.5169 N   0  0  0  0  0  0  0  0  0  0  0  0
   -0.4547   22.7062  -27.2375 N   0  0  0  0  0  0  0  0  0  0  0  0
   -0.8802   22.4895  -25.9814 C   0  0  0  0  0  0  0  0  0  0  0  0
    0.0081   22.0665  -24.9953 C   0  0  0  0  0  0  0  0  0  0  0  0
   -0.4088   21.8494  -23.7439 N   0  0  0  0  0  0  0  0  0  0  0  0
   -1.2885   24.2325  -29.9745 H   0  0  0  0  0  0  0  0  0  0  0  0
   -0.3267   22.7232  -30.0268 H   0  0  0  0  0  0  0  0  0  0  0  0
   -3.6440   23.7434  -28.8303 C   0  0  0  0  0  0  0  0  0  0  0  0
   -3.6732   25.0431  -29.2774 C   0  0  0  0  0  0  0  0  0  0  0  0
   -4.5900   25.4824  -30.1931 C   0  0  0  0  0  0  0  0  0  0  0  0
   -5.5221   24.6084  -30.6946 C   0  0  0  0  0  0  0  0  0  0  0  0
   -5.5268   23.2973  -30.2723 C   0  0  0  0  0  0  0  0  0  0  0  0
   -4.5833   22.8809  -29.3412 C   0  0  0  0  0  0  0  0  0  0  0  0
   -3.4471   19.7712  -17.4827 C   0  0  0  0  0  0  0  0  0  0  0  0
   -3.3164   21.0535  -18.0078 O   0  0  0  0  0  0  0  0  0  0  0  0
   -5.2327   21.6575  -19.9418 N   0  0  0  0  0  0  0  0  0  0  0  0
   -5.7664   20.7417  -19.9452 H   0  0  0  0  0  0  0  0  0  0  0  0
   -6.0510   23.1164  -19.5011 S   0  0  0  0  0  0  0  0  0  0  0  0
   -5.3433   24.2969  -20.1280 O   0  0  0  0  0  0  0  0  0  0  0  0
   -7.4275   23.0935  -20.0970 O   0  0  0  0  0  0  0  0  0  0  0  0
   -6.1766   23.3295  -17.7899 C   0  0  0  0  0  0  0  0  0  0  0  0
   -5.6065   24.4110  -17.1609 C   0  0  0  0  0  0  0  0  0  0  0  0
   -5.7363   24.5452  -15.7923 C   0  0  0  0  0  0  0  0  0  0  0  0
   -6.4264   23.6138  -15.0529 C   0  0  0  0  0  0  0  0  0  0  0  0
   -6.5652   23.7304  -13.6961 F   0  0  0  0  0  0  0  0  0  0  0  0
   -7.0096   22.5146  -15.6685 C   0  0  0  0  0  0  0  0  0  0  0  0
   -6.8621   22.4093  -17.0359 C   0  0  0  0  0  0  0  0  0  0  0  0
   -7.4173   21.3503  -17.6713 F   0  0  0  0  0  0  0  0  0  0  0  0
 26 27  1  0  0  0
 27  1  1  0  0  0
  1  2  2  0  0  0
  2  3  1  0  0  0
  3  4  2  0  0  0
  4  7  1  0  0  0
  7  8  2  0  0  0
  8  9  1  0  0  0
  9 10  2  0  0  0
 10 11  1  0  0  0
 11 20  1  0  0  0
 20 21  2  0  0  0
 21 22  1  0  0  0
 22 23  2  0  0  0
 23 24  1  0  0  0
 24 25  2  0  0  0
 11 12  2  0  0  0
 12 13  1  0  0  0
 12 14  1  0  0  0
 14 15  2  0  0  0
 15 16  1  0  0  0
 16 17  2  0  0  0
  4  5  1  0  0  0
  5  6  2  0  0  0
  6 28  1  0  0  0
 28 30  1  0  0  0
 30 31  2  0  0  0
 30 32  2  0  0  0
 30 33  1  0  0  0
 33 34  2  0  0  0
 34 35  1  0  0  0
 35 36  2  0  0  0
 36 37  1  0  0  0
 36 38  1  0  0  0
 38 39  2  0  0  0
 39 40  1  0  0  0
  6  1  1  0  0  0
 39 33  1  0  0  0
 17  7  1  0  0  0
 15  9  1  0  0  0
 25 20  1  0  0  0
 13 18  1  0  0  0
 13 19  1  0  0  0
 28 29  1  0  0  0
M  END
> <minimizedAffinity>
-9.27304

> <CNNscore>
0.3001939952

> <CNNaffinity>
7.0434684753

> <CNN_VS>
2.1144068241

> <CNNaffinity_variance>
0.2684452236

$$$$
[H]c1nc(OC([H])([H])[H])c(N([H])S(=O)(=O)c2c([H])c([H])c(F)c([H])c2F)c([H])c1-c1nc([H])c2nc(N([H])[H])c(-c3c([H])c([H])c([H])c([H])c3[H])c([H])c2c1[H]


 40 44  0  0  0  0  0  0  0  0999 V2000
   -3.5311   22.3044  -18.7556 C   0  0  0  0  0  0  0  0  0  0  0  0
   -2.2585   22.0288  -19.0745 N   0  0  0  0  0  0  0  0  0  0  0  0
   -1.7893   22.0569  -20.3612 C   0  0  0  0  0  0  0  0  0  0  0  0
   -2.6203   22.3758  -21.4056 C   0  0  0  0  0  0  0  0  0  0  0  0
   -3.9366   22.6618  -21.0841 C   0  0  0  0  0  0  0  0  0  0  0  0
   -4.4007   22.6297  -19.7706 C   0  0  0  0  0  0  0  0  0  0  0  0
   -2.1780   22.4227  -22.8036 C   0  0  0  0  0  0  0  0  0  0  0  0
   -2.9941   22.8480  -23.7971 C   0  0  0  0  0  0  0  0  0  0  0  0
   -2.5613   22.8890  -25.1292 C   0  0  0  0  0  0  0  0  0  0  0  0
   -3.4108   23.3259  -26.1242 C   0  0  0  0  0  0  0  0  0  0  0  0
   -2.9279   23.3465  -27.4355 C   0  0  0  0  0  0  0  0  0  0  0  0
   -1.6297   22.9344  -27.6978 C   0  0  0  0  0  0  0  0  0  0  0  0
   -1.1894   22.9839  -29.0458 N   0  0  0  0  0  0  0  0  0  0  0  0
   -0.8173   22.5095  -26.6993 N   0  0  0  0  0  0  0  0  0  0  0  0
   -1.2782   22.4882  -25.4373 C   0  0  0  0  0  0  0  0  0  0  0  0
   -0.4642   22.0563  -24.3927 C   0  0  0  0  0  0  0  0  0  0  0  0
   -0.9166   22.0330  -23.1350 N   0  0  0  0  0  0  0  0  0  0  0  0
   -1.4121   23.8335  -29.5992 H   0  0  0  0  0  0  0  0  0  0  0  0
   -0.6667   22.2106  -29.4715 H   0  0  0  0  0  0  0  0  0  0  0  0
   -3.8212   23.7943  -28.4628 C   0  0  0  0  0  0  0  0  0  0  0  0
   -4.6503   22.9116  -29.1138 C   0  0  0  0  0  0  0  0  0  0  0  0
   -5.5080   23.3064  -30.1038 C   0  0  0  0  0  0  0  0  0  0  0  0
   -5.5565   24.6273  -30.4743 C   0  0  0  0  0  0  0  0  0  0  0  0
   -4.7418   25.5437  -29.8468 C   0  0  0  0  0  0  0  0  0  0  0  0
   -3.8811   25.1124  -28.8450 C   0  0  0  0  0  0  0  0  0  0  0  0
   -3.2035   21.6476  -16.4098 C   0  0  0  0  0  0  0  0  0  0  0  0
   -3.9502   22.2579  -17.4133 O   0  0  0  0  0  0  0  0  0  0  0  0
   -5.7477   22.9165  -19.4412 N   0  0  0  0  0  0  0  0  0  0  0  0
   -5.9646   23.9105  -19.1436 H   0  0  0  0  0  0  0  0  0  0  0  0
   -7.0228   21.7489  -19.4979 S   0  0  0  0  0  0  0  0  0  0  0  0
   -8.3517   22.4491  -19.3219 O   0  0  0  0  0  0  0  0  0  0  0  0
   -7.0538   21.1382  -20.8678 O   0  0  0  0  0  0  0  0  0  0  0  0
   -6.8428   20.4949  -18.3213 C   0  0  0  0  0  0  0  0  0  0  0  0
   -6.6182   19.1911  -18.6955 C   0  0  0  0  0  0  0  0  0  0  0  0
   -6.4744   18.2216  -17.7223 C   0  0  0  0  0  0  0  0  0  0  0  0
   -6.5527   18.5427  -16.3877 C   0  0  0  0  0  0  0  0  0  0  0  0
   -6.4128   17.5955  -15.4094 F   0  0  0  0  0  0  0  0  0  0  0  0
   -6.7788   19.8530  -15.9885 C   0  0  0  0  0  0  0  0  0  0  0  0
   -6.9180   20.7975  -16.9842 C   0  0  0  0  0  0  0  0  0  0  0  0
   -7.1396   22.0862  -16.6332 F   0  0  0  0  0  0  0  0  0  0  0  0
 26 27  1  0  0  0
 27  1  1  0  0  0
  1  2  2  0  0  0
  2  3  1  0  0  0
  3  4  2  0  0  0
  4  7  1  0  0  0
  7  8  2  0  0  0
  8  9  1  0  0  0
  9 10  2  0  0  0
 10 11  1  0  0  0
 11 20  1  0  0  0
 20 21  2  0  0  0
 21 22  1  0  0  0
 22 23  2  0  0  0
 23 24  1  0  0  0
 24 25  2  0  0  0
 11 12  2  0  0  0
 12 13  1  0  0  0
 12 14  1  0  0  0
 14 15  2  0  0  0
 15 16  1  0  0  0
 16 17  2  0  0  0
  4  5  1  0  0  0
  5  6  2  0  0  0
  6 28  1  0  0  0
 28 30  1  0  0  0
 30 31  2  0  0  0
 30 32  2  0  0  0
 30 33  1  0  0  0
 33 34  2  0  0  0
 34 35  1  0  0  0
 35 36  2  0  0  0
 36 37  1  0  0  0
 36 38  1  0  0  0
 38 39  2  0  0  0
 39 40  1  0  0  0
  6  1  1  0  0  0
 39 33  1  0  0  0
 17  7  1  0  0  0
 15  9  1  0  0  0
 25 20  1  0  0  0
 13 18  1  0  0  0
 13 19  1  0  0  0
 28 29  1  0  0  0
M  END
> <minimizedAffinity>
-8.13885

> <CNNscore>
0.2630981505

> <CNNaffinity>
7.0691061020

> <CNN_VS>
1.8598687649

> <CNNaffinity_variance>
0.5390446782

$$$$
[H]c1c([H])c(S(=O)(=O)C([H])([H])C([H])([H])C([H])([H])C([H])([H])C([H])([H])C([H])([H])[H])c(Cl)c(Cl)c1C(=O)C([H])([H])C([H])([H])N1C([H])([H])C1([H])C([H])([H])[H]


 25 26  0  0  0  0  0  0  0  0999 V2000
   -5.0908   24.7176  -25.7440 C   0  0  0  0  0  0  0  0  0  0  0  0
   -4.0700   25.0921  -24.8871 C   0  0  0  0  0  0  0  0  0  0  0  0
   -3.7236   24.3101  -23.8179 C   0  0  0  0  0  0  0  0  0  0  0  0
   -4.3601   23.1340  -23.5511 C   0  0  0  0  0  0  0  0  0  0  0  0
   -5.3989   22.7359  -24.4030 C   0  0  0  0  0  0  0  0  0  0  0  0
   -6.2313   21.2196  -24.0611 Cl  0  0  0  0  0  0  0  0  0  0  0  0
   -5.7390   23.5335  -25.4719 C   0  0  0  0  0  0  0  0  0  0  0  0
   -7.0430   23.0413  -26.5245 Cl  0  0  0  0  0  0  0  0  0  0  0  0
   -5.4546   25.6936  -27.1497 S   0  0  0  0  0  0  0  0  0  0  0  0
   -5.1305   27.1377  -26.7618 O   0  0  0  0  0  0  0  0  0  0  0  0
   -6.8619   25.5561  -27.5726 O   0  0  0  0  0  0  0  0  0  0  0  0
   -4.3122   25.1801  -28.4118 C   0  0  0  0  0  0  0  0  0  0  0  0
   -4.1719   23.7010  -28.4962 C   0  0  0  0  0  0  0  0  0  0  0  0
   -2.6959   23.3840  -28.2062 C   0  0  0  0  0  0  0  0  0  0  0  0
   -2.6132   22.3861  -27.0854 C   0  0  0  0  0  0  0  0  0  0  0  0
   -0.2335   22.7950  -27.2399 C   0  0  0  0  0  0  0  0  0  0  0  0
   -1.3583   22.4006  -26.2908 C   0  0  0  0  0  0  0  0  0  0  0  0
   -3.9164   22.2050  -22.4770 C   0  0  0  0  0  0  0  0  0  0  0  0
   -3.0873   21.3715  -22.7035 O   0  0  0  0  0  0  0  0  0  0  0  0
   -4.5750   22.4073  -21.1888 C   0  0  0  0  0  0  0  0  0  0  0  0
   -5.4360   23.5960  -21.0191 C   0  0  0  0  0  0  0  0  0  0  0  0
   -6.8048   23.4948  -20.8119 N   0  0  0  0  0  0  0  0  0  0  0  0
   -7.9036   23.1838  -21.5922 C   0  0  0  0  0  0  0  0  0  0  0  0
   -7.5989   24.6497  -21.2772 C   0  0  0  0  0  0  0  0  0  0  0  0
   -7.0446   25.4470  -22.4177 C   0  0  0  0  0  0  0  0  0  0  0  0
 16 17  1  0  0  0
 17 15  1  0  0  0
 15 14  1  0  0  0
 14 13  1  0  0  0
 13 12  1  0  0  0
 12  9  1  0  0  0
  9 10  2  0  0  0
  9 11  2  0  0  0
  9  1  1  0  0  0
  1  2  2  0  0  0
  2  3  1  0  0  0
  3  4  2  0  0  0
  4 18  1  0  0  0
 18 19  2  0  0  0
 18 20  1  0  0  0
 20 21  1  0  0  0
 21 22  1  0  0  0
 22 23  1  0  0  0
 23 24  1  0  0  0
 24 25  1  0  0  0
  4  5  1  0  0  0
  5  6  1  0  0  0
  5  7  2  0  0  0
  7  8  1  0  0  0
  7  1  1  0  0  0
 24 22  1  0  0  0
M  END
> <minimizedAffinity>
-6.08458

> <CNNscore>
0.4111908376

> <CNNaffinity>
6.4981322289

> <CNN_VS>
2.6719725132

> <CNNaffinity_variance>
0.2215773612

$$$$
[H]c1c([H])c(S(=O)(=O)C([H])([H])C([H])([H])C([H])([H])C([H])([H])C([H])([H])C([H])([H])[H])c(Cl)c(Cl)c1C(=O)C([H])([H])C([H])([H])N1C([H])([H])C1([H])C([H])([H])[H]


 25 26  0  0  0  0  0  0  0  0999 V2000
   -5.2270   23.8784  -26.1719 C   0  0  0  0  0  0  0  0  0  0  0  0
   -5.6691   22.6030  -25.8649 C   0  0  0  0  0  0  0  0  0  0  0  0
   -5.5845   22.1149  -24.5885 C   0  0  0  0  0  0  0  0  0  0  0  0
   -5.0682   22.8573  -23.5676 C   0  0  0  0  0  0  0  0  0  0  0  0
   -4.6113   24.1502  -23.8551 C   0  0  0  0  0  0  0  0  0  0  0  0
   -3.9364   25.1141  -22.5420 Cl  0  0  0  0  0  0  0  0  0  0  0  0
   -4.6991   24.6267  -25.1434 C   0  0  0  0  0  0  0  0  0  0  0  0
   -4.1167   26.2339  -25.5016 Cl  0  0  0  0  0  0  0  0  0  0  0  0
   -5.4256   24.5061  -27.7929 S   0  0  0  0  0  0  0  0  0  0  0  0
   -5.8349   25.9719  -27.6355 O   0  0  0  0  0  0  0  0  0  0  0  0
   -6.4319   23.7490  -28.5625 O   0  0  0  0  0  0  0  0  0  0  0  0
   -3.8136   24.4493  -28.5412 C   0  0  0  0  0  0  0  0  0  0  0  0
   -3.2912   23.0629  -28.6823 C   0  0  0  0  0  0  0  0  0  0  0  0
   -1.9460   23.0242  -27.9394 C   0  0  0  0  0  0  0  0  0  0  0  0
   -2.0721   22.1420  -26.7293 C   0  0  0  0  0  0  0  0  0  0  0  0
   -1.7379   21.7872  -24.3594 C   0  0  0  0  0  0  0  0  0  0  0  0
   -1.1525   22.4449  -25.6028 C   0  0  0  0  0  0  0  0  0  0  0  0
   -5.0869   22.4006  -22.1517 C   0  0  0  0  0  0  0  0  0  0  0  0
   -4.0643   22.1319  -21.5900 O   0  0  0  0  0  0  0  0  0  0  0  0
   -6.4194   22.3137  -21.5591 C   0  0  0  0  0  0  0  0  0  0  0  0
   -7.4853   23.1844  -22.0967 C   0  0  0  0  0  0  0  0  0  0  0  0
   -7.6651   24.4896  -21.6599 N   0  0  0  0  0  0  0  0  0  0  0  0
   -8.7300   25.3685  -21.5794 C   0  0  0  0  0  0  0  0  0  0  0  0
   -7.7287   25.5076  -22.7279 C   0  0  0  0  0  0  0  0  0  0  0  0
   -8.2278   25.0632  -24.0685 C   0  0  0  0  0  0  0  0  0  0  0  0
 16 17  1  0  0  0
 17 15  1  0  0  0
 15 14  1  0  0  0
 14 13  1  0  0  0
 13 12  1  0  0  0
 12  9  1  0  0  0
  9 10  2  0  0  0
  9 11  2  0  0  0
  9  1  1  0  0  0
  1  2  2  0  0  0
  2  3  1  0  0  0
  3  4  2  0  0  0
  4 18  1  0  0  0
 18 19  2  0  0  0
 18 20  1  0  0  0
 20 21  1  0  0  0
 21 22  1  0  0  0
 22 23  1  0  0  0
 23 24  1  0  0  0
 24 25  1  0  0  0
  4  5  1  0  0  0
  5  6  1  0  0  0
  5  7  2  0  0  0
  7  8  1  0  0  0
  7  1  1  0  0  0
 24 22  1  0  0  0
M  END
> <minimizedAffinity>
-6.13311

> <CNNscore>
0.4043821990

> <CNNaffinity>
6.6114606857

> <CNN_VS>
2.6735570431

> <CNNaffinity_variance>
0.1846454144

$$$$
[H]c1c([H])c(S(=O)(=O)C([H])([H])C([H])([H])C([H])([H])C([H])([H])C([H])([H])C([H])([H])[H])c(Cl)c(Cl)c1C(=O)C([H])([H])C([H])([H])N1C([H])([H])C1([H])C([H])([H])[H]


 25 26  0  0  0  0  0  0  0  0999 V2000
   -1.7085   22.6594  -24.9718 C   0  0  0  0  0  0  0  0  0  0  0  0
   -2.7810   23.2299  -24.3080 C   0  0  0  0  0  0  0  0  0  0  0  0
   -2.8289   23.2605  -22.9400 C   0  0  0  0  0  0  0  0  0  0  0  0
   -1.8293   22.7379  -22.1737 C   0  0  0  0  0  0  0  0  0  0  0  0
   -0.7348   22.1522  -22.8236 C   0  0  0  0  0  0  0  0  0  0  0  0
    0.5588   21.4684  -21.8399 Cl  0  0  0  0  0  0  0  0  0  0  0  0
   -0.7016   22.1252  -24.1993 C   0  0  0  0  0  0  0  0  0  0  0  0
    0.6577   21.3827  -25.0067 Cl  0  0  0  0  0  0  0  0  0  0  0  0
   -1.6343   22.7105  -26.7191 S   0  0  0  0  0  0  0  0  0  0  0  0
   -1.8260   21.2696  -27.1964 O   0  0  0  0  0  0  0  0  0  0  0  0
   -0.3579   23.2698  -27.2049 O   0  0  0  0  0  0  0  0  0  0  0  0
   -3.0387   23.6678  -27.2414 C   0  0  0  0  0  0  0  0  0  0  0  0
   -3.5920   23.2159  -28.5469 C   0  0  0  0  0  0  0  0  0  0  0  0
   -4.6217   24.2737  -28.9757 C   0  0  0  0  0  0  0  0  0  0  0  0
   -5.5090   23.6986  -30.0438 C   0  0  0  0  0  0  0  0  0  0  0  0
   -4.9302   25.8290  -31.0339 C   0  0  0  0  0  0  0  0  0  0  0  0
   -5.7901   24.5828  -31.2038 C   0  0  0  0  0  0  0  0  0  0  0  0
   -1.7951   22.8762  -20.6927 C   0  0  0  0  0  0  0  0  0  0  0  0
   -1.1724   23.7627  -20.1829 O   0  0  0  0  0  0  0  0  0  0  0  0
   -2.5573   21.8607  -19.9702 C   0  0  0  0  0  0  0  0  0  0  0  0
   -4.0276   21.9949  -19.9124 C   0  0  0  0  0  0  0  0  0  0  0  0
   -4.6484   23.1771  -19.5333 N   0  0  0  0  0  0  0  0  0  0  0  0
   -5.8762   23.5230  -18.9987 C   0  0  0  0  0  0  0  0  0  0  0  0
   -5.6325   23.7086  -20.4977 C   0  0  0  0  0  0  0  0  0  0  0  0
   -6.3243   22.7200  -21.3852 C   0  0  0  0  0  0  0  0  0  0  0  0
 16 17  1  0  0  0
 17 15  1  0  0  0
 15 14  1  0  0  0
 14 13  1  0  0  0
 13 12  1  0  0  0
 12  9  1  0  0  0
  9 10  2  0  0  0
  9 11  2  0  0  0
  9  1  1  0  0  0
  1  2  2  0  0  0
  2  3  1  0  0  0
  3  4  2  0  0  0
  4 18  1  0  0  0
 18 19  2  0  0  0
 18 20  1  0  0  0
 20 21  1  0  0  0
 21 22  1  0  0  0
 22 23  1  0  0  0
 23 24  1  0  0  0
 24 25  1  0  0  0
  4  5  1  0  0  0
  5  6  1  0  0  0
  5  7  2  0  0  0
  7  8  1  0  0  0
  7  1  1  0  0  0
 24 22  1  0  0  0
M  END
> <minimizedAffinity>
-6.01403

> <CNNscore>
0.3830311894

> <CNNaffinity>
6.3384747505

> <CNN_VS>
2.4278335571

> <CNNaffinity_variance>
0.1104430109

$$$$
[H]c1c([H])c(S(=O)(=O)C([H])([H])C([H])([H])C([H])([H])C([H])([H])C([H])([H])C([H])([H])[H])c(Cl)c(Cl)c1C(=O)C([H])([H])C([H])([H])N1C([H])([H])C1([H])C([H])([H])[H]


 25 26  0  0  0  0  0  0  0  0999 V2000
   -3.2603   23.5277  -22.7886 C   0  0  0  0  0  0  0  0  0  0  0  0
   -3.1572   24.9024  -22.9145 C   0  0  0  0  0  0  0  0  0  0  0  0
   -3.9063   25.5850  -23.8351 C   0  0  0  0  0  0  0  0  0  0  0  0
   -4.7843   24.9484  -24.6619 C   0  0  0  0  0  0  0  0  0  0  0  0
   -4.9034   23.5564  -24.5549 C   0  0  0  0  0  0  0  0  0  0  0  0
   -6.0317   22.7251  -25.6248 Cl  0  0  0  0  0  0  0  0  0  0  0  0
   -4.1415   22.8827  -23.6275 C   0  0  0  0  0  0  0  0  0  0  0  0
   -4.2823   21.1461  -23.5053 Cl  0  0  0  0  0  0  0  0  0  0  0  0
   -2.3539   22.6929  -21.5466 S   0  0  0  0  0  0  0  0  0  0  0  0
   -3.3814   21.9280  -20.7100 O   0  0  0  0  0  0  0  0  0  0  0  0
   -1.5693   23.6230  -20.7113 O   0  0  0  0  0  0  0  0  0  0  0  0
   -1.3299   21.5134  -22.3963 C   0  0  0  0  0  0  0  0  0  0  0  0
   -0.3822   22.1526  -23.3492 C   0  0  0  0  0  0  0  0  0  0  0  0
   -0.8436   21.7527  -24.7600 C   0  0  0  0  0  0  0  0  0  0  0  0
    0.1814   22.2012  -25.7635 C   0  0  0  0  0  0  0  0  0  0  0  0
   -1.8623   22.6947  -26.9609 C   0  0  0  0  0  0  0  0  0  0  0  0
   -0.3446   22.6378  -27.0823 C   0  0  0  0  0  0  0  0  0  0  0  0
   -5.7029   25.6795  -25.5759 C   0  0  0  0  0  0  0  0  0  0  0  0
   -6.8037   25.9795  -25.2130 O   0  0  0  0  0  0  0  0  0  0  0  0
   -5.1450   25.9671  -26.8950 C   0  0  0  0  0  0  0  0  0  0  0  0
   -5.9834   25.7083  -28.0839 C   0  0  0  0  0  0  0  0  0  0  0  0
   -6.0049   24.4747  -28.7198 N   0  0  0  0  0  0  0  0  0  0  0  0
   -5.0591   23.5378  -29.0948 C   0  0  0  0  0  0  0  0  0  0  0  0
   -5.6236   24.4951  -30.1464 C   0  0  0  0  0  0  0  0  0  0  0  0
   -4.6905   25.5795  -30.5902 C   0  0  0  0  0  0  0  0  0  0  0  0
 16 17  1  0  0  0
 17 15  1  0  0  0
 15 14  1  0  0  0
 14 13  1  0  0  0
 13 12  1  0  0  0
 12  9  1  0  0  0
  9 10  2  0  0  0
  9 11  2  0  0  0
  9  1  1  0  0  0
  1  2  2  0  0  0
  2  3  1  0  0  0
  3  4  2  0  0  0
  4 18  1  0  0  0
 18 19  2  0  0  0
 18 20  1  0  0  0
 20 21  1  0  0  0
 21 22  1  0  0  0
 22 23  1  0  0  0
 23 24  1  0  0  0
 24 25  1  0  0  0
  4  5  1  0  0  0
  5  6  1  0  0  0
  5  7  2  0  0  0
  7  8  1  0  0  0
  7  1  1  0  0  0
 24 22  1  0  0  0
M  END
> <minimizedAffinity>
-7.06099

> <CNNscore>
0.3781683445

> <CNNaffinity>
6.3179016113

> <CNN_VS>
2.3892304897

> <CNNaffinity_variance>
0.7254520059

$$$$
[H]c1c([H])c(S(=O)(=O)C([H])([H])C([H])([H])C([H])([H])C([H])([H])C([H])([H])C([H])([H])[H])c(Cl)c(Cl)c1C(=O)C([H])([H])C([H])([H])N1C([H])([H])C1([H])C([H])([H])[H]


 25 26  0  0  0  0  0  0  0  0999 V2000
   -5.1002   24.8228  -25.6713 C   0  0  0  0  0  0  0  0  0  0  0  0
   -4.1094   25.2948  -24.8275 C   0  0  0  0  0  0  0  0  0  0  0  0
   -3.8169   24.6528  -23.6541 C   0  0  0  0  0  0  0  0  0  0  0  0
   -4.4798   23.5260  -23.2663 C   0  0  0  0  0  0  0  0  0  0  0  0
   -5.4892   23.0314  -24.1029 C   0  0  0  0  0  0  0  0  0  0  0  0
   -6.3556   21.5785  -23.6054 Cl  0  0  0  0  0  0  0  0  0  0  0  0
   -5.7752   23.6889  -25.2777 C   0  0  0  0  0  0  0  0  0  0  0  0
   -7.0429   23.0776  -26.3122 Cl  0  0  0  0  0  0  0  0  0  0  0  0
   -5.3941   25.6144  -27.2036 S   0  0  0  0  0  0  0  0  0  0  0  0
   -5.0769   27.0953  -26.9864 O   0  0  0  0  0  0  0  0  0  0  0  0
   -6.7821   25.4270  -27.6687 O   0  0  0  0  0  0  0  0  0  0  0  0
   -4.2005   24.9439  -28.3383 C   0  0  0  0  0  0  0  0  0  0  0  0
   -4.0911   23.4622  -28.2522 C   0  0  0  0  0  0  0  0  0  0  0  0
   -2.6235   23.1502  -27.9180 C   0  0  0  0  0  0  0  0  0  0  0  0
   -2.5648   22.3193  -26.6671 C   0  0  0  0  0  0  0  0  0  0  0  0
   -0.1813   22.6749  -26.8819 C   0  0  0  0  0  0  0  0  0  0  0  0
   -1.3031   22.4024  -25.8876 C   0  0  0  0  0  0  0  0  0  0  0  0
   -4.0924   22.7380  -22.0652 C   0  0  0  0  0  0  0  0  0  0  0  0
   -3.3402   21.8120  -22.1670 O   0  0  0  0  0  0  0  0  0  0  0  0
   -4.7048   23.1905  -20.8185 C   0  0  0  0  0  0  0  0  0  0  0  0
   -4.8019   22.2345  -19.6961 C   0  0  0  0  0  0  0  0  0  0  0  0
   -4.2932   22.5183  -18.4363 N   0  0  0  0  0  0  0  0  0  0  0  0
   -3.0324   22.6033  -17.8741 C   0  0  0  0  0  0  0  0  0  0  0  0
   -3.8699   21.3429  -17.6488 C   0  0  0  0  0  0  0  0  0  0  0  0
   -3.4225   20.1333  -18.4107 C   0  0  0  0  0  0  0  0  0  0  0  0
 16 17  1  0  0  0
 17 15  1  0  0  0
 15 14  1  0  0  0
 14 13  1  0  0  0
 13 12  1  0  0  0
 12  9  1  0  0  0
  9 10  2  0  0  0
  9 11  2  0  0  0
  9  1  1  0  0  0
  1  2  2  0  0  0
  2  3  1  0  0  0
  3  4  2  0  0  0
  4 18  1  0  0  0
 18 19  2  0  0  0
 18 20  1  0  0  0
 20 21  1  0  0  0
 21 22  1  0  0  0
 22 23  1  0  0  0
 23 24  1  0  0  0
 24 25  1  0  0  0
  4  5  1  0  0  0
  5  6  1  0  0  0
  5  7  2  0  0  0
  7  8  1  0  0  0
  7  1  1  0  0  0
 24 22  1  0  0  0
M  END
> <minimizedAffinity>
-5.82694

> <CNNscore>
0.3456768990

> <CNNaffinity>
6.4070878029

> <CNN_VS>
2.2147822380

> <CNNaffinity_variance>
0.1314149350

$$$$
[H]c1c([H])c(S(=O)(=O)C([H])([H])C([H])([H])C([H])([H])C([H])([H])C([H])([H])C([H])([H])[H])c(Cl)c(Cl)c1C(=O)C([H])([H])C([H])([H])N1C([H])([H])C1([H])C([H])([H])[H]


 25 26  0  0  0  0  0  0  0  0999 V2000
   -1.7623   22.6981  -24.8808 C   0  0  0  0  0  0  0  0  0  0  0  0
   -2.8283   23.2770  -24.2139 C   0  0  0  0  0  0  0  0  0  0  0  0
   -2.8698   23.3122  -22.8458 C   0  0  0  0  0  0  0  0  0  0  0  0
   -1.8697   22.7861  -22.0823 C   0  0  0  0  0  0  0  0  0  0  0  0
   -0.7817   22.1919  -22.7354 C   0  0  0  0  0  0  0  0  0  0  0  0
    0.5124   21.5036  -21.7554 Cl  0  0  0  0  0  0  0  0  0  0  0  0
   -0.7549   22.1604  -24.1111 C   0  0  0  0  0  0  0  0  0  0  0  0
    0.5963   21.4074  -24.9224 Cl  0  0  0  0  0  0  0  0  0  0  0  0
   -1.6957   22.7433  -26.6285 S   0  0  0  0  0  0  0  0  0  0  0  0
   -1.9035   21.3028  -27.1006 O   0  0  0  0  0  0  0  0  0  0  0  0
   -0.4162   23.2889  -27.1220 O   0  0  0  0  0  0  0  0  0  0  0  0
   -3.0933   23.7125  -27.1472 C   0  0  0  0  0  0  0  0  0  0  0  0
   -3.7125   23.2067  -28.4024 C   0  0  0  0  0  0  0  0  0  0  0  0
   -4.7078   24.2834  -28.8643 C   0  0  0  0  0  0  0  0  0  0  0  0
   -5.5951   23.7130  -29.9348 C   0  0  0  0  0  0  0  0  0  0  0  0
   -4.9712   25.8271  -30.9323 C   0  0  0  0  0  0  0  0  0  0  0  0
   -5.7616   24.5438  -31.1549 C   0  0  0  0  0  0  0  0  0  0  0  0
   -1.8280   22.9289  -20.6020 C   0  0  0  0  0  0  0  0  0  0  0  0
   -1.0599   23.6914  -20.0900 O   0  0  0  0  0  0  0  0  0  0  0  0
   -2.7709   22.0758  -19.8828 C   0  0  0  0  0  0  0  0  0  0  0  0
   -2.2542   21.2176  -18.7966 C   0  0  0  0  0  0  0  0  0  0  0  0
   -1.1541   20.3887  -18.9682 N   0  0  0  0  0  0  0  0  0  0  0  0
   -0.5537   19.3775  -18.2403 C   0  0  0  0  0  0  0  0  0  0  0  0
    0.0536   20.7816  -18.2144 C   0  0  0  0  0  0  0  0  0  0  0  0
   -0.1516   21.5435  -16.9412 C   0  0  0  0  0  0  0  0  0  0  0  0
 16 17  1  0  0  0
 17 15  1  0  0  0
 15 14  1  0  0  0
 14 13  1  0  0  0
 13 12  1  0  0  0
 12  9  1  0  0  0
  9 10  2  0  0  0
  9 11  2  0  0  0
  9  1  1  0  0  0
  1  2  2  0  0  0
  2  3  1  0  0  0
  3  4  2  0  0  0
  4 18  1  0  0  0
 18 19  2  0  0  0
 18 20  1  0  0  0
 20 21  1  0  0  0
 21 22  1  0  0  0
 22 23  1  0  0  0
 23 24  1  0  0  0
 24 25  1  0  0  0
  4  5  1  0  0  0
  5  6  1  0  0  0
  5  7  2  0  0  0
  7  8  1  0  0  0
  7  1  1  0  0  0
 24 22  1  0  0  0
M  END
> <minimizedAffinity>
-5.68561

> <CNNscore>
0.3451297879

> <CNNaffinity>
6.1388750076

> <CNN_VS>
2.1187086105

> <CNNaffinity_variance>
0.0776865333

$$$$
[H]c1c([H])c(S(=O)(=O)C([H])([H])C([H])([H])C([H])([H])C([H])([H])C([H])([H])C([H])([H])[H])c(Cl)c(Cl)c1C(=O)C([H])([H])C([H])([H])N1C([H])([H])C1([H])C([H])([H])[H]


 25 26  0  0  0  0  0  0  0  0999 V2000
   -5.5324   24.2309  -26.7970 C   0  0  0  0  0  0  0  0  0  0  0  0
   -6.2930   23.1080  -26.5195 C   0  0  0  0  0  0  0  0  0  0  0  0
   -6.5067   22.7015  -25.2296 C   0  0  0  0  0  0  0  0  0  0  0  0
   -5.9876   23.3800  -24.1666 C   0  0  0  0  0  0  0  0  0  0  0  0
   -5.2115   24.5180  -24.4232 C   0  0  0  0  0  0  0  0  0  0  0  0
   -4.5313   25.3970  -23.0545 Cl  0  0  0  0  0  0  0  0  0  0  0  0
   -5.0019   24.9131  -25.7249 C   0  0  0  0  0  0  0  0  0  0  0  0
   -4.0233   26.3245  -26.0424 Cl  0  0  0  0  0  0  0  0  0  0  0  0
   -5.3471   24.7748  -28.4495 S   0  0  0  0  0  0  0  0  0  0  0  0
   -5.5265   26.2940  -28.4212 O   0  0  0  0  0  0  0  0  0  0  0  0
   -6.3212   24.1376  -29.3569 O   0  0  0  0  0  0  0  0  0  0  0  0
   -3.6644   24.4153  -28.8978 C   0  0  0  0  0  0  0  0  0  0  0  0
   -3.2846   23.0018  -28.6285 C   0  0  0  0  0  0  0  0  0  0  0  0
   -2.0862   23.0461  -27.6667 C   0  0  0  0  0  0  0  0  0  0  0  0
   -2.4354   22.3098  -26.4039 C   0  0  0  0  0  0  0  0  0  0  0  0
   -0.0250   22.3032  -26.1959 C   0  0  0  0  0  0  0  0  0  0  0  0
   -1.3296   22.1258  -25.4293 C   0  0  0  0  0  0  0  0  0  0  0  0
   -6.3137   23.0363  -22.7562 C   0  0  0  0  0  0  0  0  0  0  0  0
   -5.5820   22.3327  -22.1212 O   0  0  0  0  0  0  0  0  0  0  0  0
   -7.5613   23.6145  -22.2631 C   0  0  0  0  0  0  0  0  0  0  0  0
   -7.9481   23.3583  -20.8603 C   0  0  0  0  0  0  0  0  0  0  0  0
   -9.0565   22.5923  -20.5265 N   0  0  0  0  0  0  0  0  0  0  0  0
   -9.8674   22.4569  -19.4143 C   0  0  0  0  0  0  0  0  0  0  0  0
   -8.7767   21.4167  -19.6776 C   0  0  0  0  0  0  0  0  0  0  0  0
   -7.5869   21.4945  -18.7709 C   0  0  0  0  0  0  0  0  0  0  0  0
 16 17  1  0  0  0
 17 15  1  0  0  0
 15 14  1  0  0  0
 14 13  1  0  0  0
 13 12  1  0  0  0
 12  9  1  0  0  0
  9 10  2  0  0  0
  9 11  2  0  0  0
  9  1  1  0  0  0
  1  2  2  0  0  0
  2  3  1  0  0  0
  3  4  2  0  0  0
  4 18  1  0  0  0
 18 19  2  0  0  0
 18 20  1  0  0  0
 20 21  1  0  0  0
 21 22  1  0  0  0
 22 23  1  0  0  0
 23 24  1  0  0  0
 24 25  1  0  0  0
  4  5  1  0  0  0
  5  6  1  0  0  0
  5  7  2  0  0  0
  7  8  1  0  0  0
  7  1  1  0  0  0
 24 22  1  0  0  0
M  END
> <minimizedAffinity>
-6.17622

> <CNNscore>
0.2554934025

> <CNNaffinity>
6.4639787674

> <CNN_VS>
1.6515039206

> <CNNaffinity_variance>
0.2283652574

$$$$
[H]c1c([H])c(S(=O)(=O)C([H])([H])C([H])([H])C([H])([H])C([H])([H])C([H])([H])C([H])([H])[H])c(Cl)c(Cl)c1C(=O)C([H])([H])C([H])([H])N1C([H])([H])C1([H])C([H])([H])[H]


 25 26  0  0  0  0  0  0  0  0999 V2000
   -4.6375   22.9991  -22.8684 C   0  0  0  0  0  0  0  0  0  0  0  0
   -5.5399   22.0878  -23.3898 C   0  0  0  0  0  0  0  0  0  0  0  0
   -6.2785   22.3845  -24.5038 C   0  0  0  0  0  0  0  0  0  0  0  0
   -6.1585   23.5801  -25.1486 C   0  0  0  0  0  0  0  0  0  0  0  0
   -5.2536   24.5197  -24.6372 C   0  0  0  0  0  0  0  0  0  0  0  0
   -5.0973   26.0705  -25.4614 Cl  0  0  0  0  0  0  0  0  0  0  0  0
   -4.5203   24.2095  -23.5145 C   0  0  0  0  0  0  0  0  0  0  0  0
   -3.4026   25.3876  -22.8715 Cl  0  0  0  0  0  0  0  0  0  0  0  0
   -3.6465   22.5602  -21.4950 S   0  0  0  0  0  0  0  0  0  0  0  0
   -4.1134   21.1700  -21.0590 O   0  0  0  0  0  0  0  0  0  0  0  0
   -3.7626   23.5341  -20.3921 O   0  0  0  0  0  0  0  0  0  0  0  0
   -1.9844   22.4275  -22.1126 C   0  0  0  0  0  0  0  0  0  0  0  0
   -1.8465   21.4031  -23.1833 C   0  0  0  0  0  0  0  0  0  0  0  0
   -1.5004   22.1628  -24.4741 C   0  0  0  0  0  0  0  0  0  0  0  0
   -2.4649   21.7675  -25.5568 C   0  0  0  0  0  0  0  0  0  0  0  0
   -1.3900   22.7010  -27.5130 C   0  0  0  0  0  0  0  0  0  0  0  0
   -2.6489   22.7491  -26.6563 C   0  0  0  0  0  0  0  0  0  0  0  0
   -6.8502   23.8744  -26.4326 C   0  0  0  0  0  0  0  0  0  0  0  0
   -7.8755   24.4927  -26.4386 O   0  0  0  0  0  0  0  0  0  0  0  0
   -6.1798   23.3466  -27.6184 C   0  0  0  0  0  0  0  0  0  0  0  0
   -5.5041   24.2977  -28.5251 C   0  0  0  0  0  0  0  0  0  0  0  0
   -6.0481   24.6689  -29.7470 N   0  0  0  0  0  0  0  0  0  0  0  0
   -5.7893   24.3795  -31.0744 C   0  0  0  0  0  0  0  0  0  0  0  0
   -5.2924   25.7010  -30.4849 C   0  0  0  0  0  0  0  0  0  0  0  0
   -3.8168   25.7765  -30.2385 C   0  0  0  0  0  0  0  0  0  0  0  0
 16 17  1  0  0  0
 17 15  1  0  0  0
 15 14  1  0  0  0
 14 13  1  0  0  0
 13 12  1  0  0  0
 12  9  1  0  0  0
  9 10  2  0  0  0
  9 11  2  0  0  0
  9  1  1  0  0  0
  1  2  2  0  0  0
  2  3  1  0  0  0
  3  4  2  0  0  0
  4 18  1  0  0  0
 18 19  2  0  0  0
 18 20  1  0  0  0
 20 21  1  0  0  0
 21 22  1  0  0  0
 22 23  1  0  0  0
 23 24  1  0  0  0
 24 25  1  0  0  0
  4  5  1  0  0  0
  5  6  1  0  0  0
  5  7  2  0  0  0
  7  8  1  0  0  0
  7  1  1  0  0  0
 24 22  1  0  0  0
M  END
> <minimizedAffinity>
-6.83467

> <CNNscore>
0.2529414594

> <CNNaffinity>
6.3156270981

> <CNN_VS>
1.5974839926

> <CNNaffinity_variance>
0.4645504951

$$$$
[H]c1c([H])c(S(=O)(=O)C([H])([H])C([H])([H])C([H])([H])C([H])([H])C([H])([H])C([H])([H])[H])c(Cl)c(Cl)c1C(=O)C([H])([H])C([H])([H])N1C([H])([H])C1([H])C([H])([H])[H]


 25 26  0  0  0  0  0  0  0  0999 V2000
   -5.7165   24.2887  -27.3584 C   0  0  0  0  0  0  0  0  0  0  0  0
   -6.5973   23.3030  -26.9472 C   0  0  0  0  0  0  0  0  0  0  0  0
   -7.1928   23.3579  -25.7155 C   0  0  0  0  0  0  0  0  0  0  0  0
   -6.9510   24.3792  -24.8448 C   0  0  0  0  0  0  0  0  0  0  0  0
   -6.0603   25.3868  -25.2380 C   0  0  0  0  0  0  0  0  0  0  0  0
   -5.7373   26.7075  -24.1153 Cl  0  0  0  0  0  0  0  0  0  0  0  0
   -5.4661   25.3170  -26.4775 C   0  0  0  0  0  0  0  0  0  0  0  0
   -4.3462   26.5676  -26.9599 Cl  0  0  0  0  0  0  0  0  0  0  0  0
   -5.0366   24.2368  -28.9697 S   0  0  0  0  0  0  0  0  0  0  0  0
   -5.1688   25.6528  -29.5341 O   0  0  0  0  0  0  0  0  0  0  0  0
   -5.7205   23.2518  -29.8300 O   0  0  0  0  0  0  0  0  0  0  0  0
   -3.3086   23.8734  -28.7609 C   0  0  0  0  0  0  0  0  0  0  0  0
   -3.0686   22.6933  -27.8865 C   0  0  0  0  0  0  0  0  0  0  0  0
   -1.9343   23.0842  -26.9253 C   0  0  0  0  0  0  0  0  0  0  0  0
   -0.6118   22.7470  -27.5546 C   0  0  0  0  0  0  0  0  0  0  0  0
   -0.2030   22.0689  -25.2683 C   0  0  0  0  0  0  0  0  0  0  0  0
    0.4513   22.2808  -26.6278 C   0  0  0  0  0  0  0  0  0  0  0  0
   -7.6839   24.5303  -23.5589 C   0  0  0  0  0  0  0  0  0  0  0  0
   -8.5625   25.3371  -23.4555 O   0  0  0  0  0  0  0  0  0  0  0  0
   -7.2310   23.6394  -22.4934 C   0  0  0  0  0  0  0  0  0  0  0  0
   -5.7774   23.4614  -22.2969 C   0  0  0  0  0  0  0  0  0  0  0  0
   -5.1070   22.3234  -22.7234 N   0  0  0  0  0  0  0  0  0  0  0  0
   -3.9169   21.6966  -22.4012 C   0  0  0  0  0  0  0  0  0  0  0  0
   -3.9902   22.5643  -23.6592 C   0  0  0  0  0  0  0  0  0  0  0  0
   -3.2916   23.8860  -23.5658 C   0  0  0  0  0  0  0  0  0  0  0  0
 16 17  1  0  0  0
 17 15  1  0  0  0
 15 14  1  0  0  0
 14 13  1  0  0  0
 13 12  1  0  0  0
 12  9  1  0  0  0
  9 10  2  0  0  0
  9 11  2  0  0  0
  9  1  1  0  0  0
  1  2  2  0  0  0
  2  3  1  0  0  0
  3  4  2  0  0  0
  4 18  1  0  0  0
 18 19  2  0  0  0
 18 20  1  0  0  0
 20 21  1  0  0  0
 21 22  1  0  0  0
 22 23  1  0  0  0
 23 24  1  0  0  0
 24 25  1  0  0  0
  4  5  1  0  0  0
  5  6  1  0  0  0
  5  7  2  0  0  0
  7  8  1  0  0  0
  7  1  1  0  0  0
 24 22  1  0  0  0
M  END
> <minimizedAffinity>
-5.87032

> <CNNscore>
0.2513775527

> <CNNaffinity>
6.5772538185

> <CNN_VS>
1.6533739567

> <CNNaffinity_variance>
0.1798382849

$$$$
[H]OC([H])([H])C([H])([H])N1C([H])([H])C([H])([H])N(c2c(Cl)c([H])c3nc(SC(C([H])([H])[H])(C([H])([H])[H])C([H])([H])[H])n([H])c3c2[H])[C@]([H])(C([H])([H])[H])C1([H])[H]


 27 29  0  0  0  0  0  0  0  0999 V2000
   -0.5342   21.2850  -22.6206 C   0  0  0  0  0  0  0  0  0  0  0  0
   -1.8564   21.5275  -23.0316 C   0  0  0  0  0  0  0  0  0  0  0  0
   -2.1661   21.9574  -24.2993 C   0  0  0  0  0  0  0  0  0  0  0  0
   -3.3467   22.2417  -24.8789 N   0  0  0  0  0  0  0  0  0  0  0  0
   -3.0643   22.6187  -26.1385 C   0  0  0  0  0  0  0  0  0  0  0  0
   -1.7377   22.5709  -26.3411 N   0  0  0  0  0  0  0  0  0  0  0  0
   -1.1296   22.1624  -25.2194 C   0  0  0  0  0  0  0  0  0  0  0  0
    0.1735   21.9292  -24.8322 C   0  0  0  0  0  0  0  0  0  0  0  0
    0.4697   21.4944  -23.5436 C   0  0  0  0  0  0  0  0  0  0  0  0
    2.1614   21.2531  -23.1491 Cl  0  0  0  0  0  0  0  0  0  0  0  0
   -4.2755   22.1695  -24.4049 H   0  0  0  0  0  0  0  0  0  0  0  0
   -0.6112   22.8859  -19.9648 C   0  0  0  0  0  0  0  0  0  0  0  0
   -0.6129   21.4230  -20.0722 C   0  0  0  0  0  0  0  0  0  0  0  0
    0.4538   20.9448  -19.0784 C   0  0  0  0  0  0  0  0  0  0  0  0
    0.1038   19.6212  -18.6574 N   0  0  0  0  0  0  0  0  0  0  0  0
   -0.2342   18.8649  -19.8040 C   0  0  0  0  0  0  0  0  0  0  0  0
    0.2980   19.5163  -21.1078 C   0  0  0  0  0  0  0  0  0  0  0  0
   -0.3001   20.8156  -21.3230 N   0  0  0  0  0  0  0  0  0  0  0  0
    1.1469   19.1233  -17.8242 C   0  0  0  0  0  0  0  0  0  0  0  0
    2.0848   20.1339  -17.2609 C   0  0  0  0  0  0  0  0  0  0  0  0
    2.0937   19.9711  -15.8612 O   0  0  0  0  0  0  0  0  0  0  0  0
    1.6444   19.1440  -15.5803 H   0  0  0  0  0  0  0  0  0  0  0  0
   -4.2971   23.1025  -27.3318 S   0  0  0  0  0  0  0  0  0  0  0  0
   -5.1859   24.5341  -26.6374 C   0  0  0  0  0  0  0  0  0  0  0  0
   -5.8029   25.2865  -27.7890 C   0  0  0  0  0  0  0  0  0  0  0  0
   -6.3209   24.0258  -25.7698 C   0  0  0  0  0  0  0  0  0  0  0  0
   -4.2009   25.3478  -25.8548 C   0  0  0  0  0  0  0  0  0  0  0  0
 12 13  1  0  0  0
 13 14  1  0  0  0
 14 15  1  0  0  0
 15 19  1  0  0  0
 19 20  1  0  0  0
 20 21  1  0  0  0
 15 16  1  0  0  0
 16 17  1  0  0  0
 17 18  1  0  0  0
 18  1  1  0  0  0
  1  2  2  0  0  0
  2  3  1  0  0  0
  3  4  1  0  0  0
  4  5  1  0  0  0
  5 23  1  0  0  0
 23 24  1  0  0  0
 24 25  1  0  0  0
 24 26  1  0  0  0
 24 27  1  0  0  0
  5  6  2  0  0  0
  6  7  1  0  0  0
  7  8  1  0  0  0
  8  9  2  0  0  0
  9 10  1  0  0  0
 18 13  1  0  0  0
  9  1  1  0  0  0
  7  3  2  0  0  0
 21 22  1  0  0  0
  4 11  1  0  0  0
M  END
> <minimizedAffinity>
-5.83412

> <CNNscore>
0.2171534002

> <CNNaffinity>
5.9780015945

> <CNN_VS>
1.2981433868

> <CNNaffinity_variance>
0.1632390916

$$$$
[H]OC([H])([H])C([H])([H])N1C([H])([H])C([H])([H])N(c2c(Cl)c([H])c3nc(SC(C([H])([H])[H])(C([H])([H])[H])C([H])([H])[H])n([H])c3c2[H])[C@]([H])(C([H])([H])[H])C1([H])[H]


 27 29  0  0  0  0  0  0  0  0999 V2000
   -1.3685   21.8647  -23.5757 C   0  0  0  0  0  0  0  0  0  0  0  0
   -0.7235   21.4974  -22.3820 C   0  0  0  0  0  0  0  0  0  0  0  0
    0.6304   21.2731  -22.3158 C   0  0  0  0  0  0  0  0  0  0  0  0
    1.4247   20.9199  -21.2886 N   0  0  0  0  0  0  0  0  0  0  0  0
    2.6704   20.8397  -21.7890 C   0  0  0  0  0  0  0  0  0  0  0  0
    2.6545   21.1360  -23.0986 N   0  0  0  0  0  0  0  0  0  0  0  0
    1.4002   21.4149  -23.4777 C   0  0  0  0  0  0  0  0  0  0  0  0
    0.7829   21.7747  -24.6574 C   0  0  0  0  0  0  0  0  0  0  0  0
   -0.5901   21.9977  -24.7070 C   0  0  0  0  0  0  0  0  0  0  0  0
   -1.2760   22.4259  -26.2633 Cl  0  0  0  0  0  0  0  0  0  0  0  0
    1.0947   20.7516  -20.3112 H   0  0  0  0  0  0  0  0  0  0  0  0
   -2.8482   24.3932  -22.5560 C   0  0  0  0  0  0  0  0  0  0  0  0
   -3.4431   23.3412  -23.3872 C   0  0  0  0  0  0  0  0  0  0  0  0
   -4.7753   22.9965  -22.7085 C   0  0  0  0  0  0  0  0  0  0  0  0
   -5.6658   22.4948  -23.7120 N   0  0  0  0  0  0  0  0  0  0  0  0
   -4.9651   21.5478  -24.4948 C   0  0  0  0  0  0  0  0  0  0  0  0
   -3.6875   21.0339  -23.7800 C   0  0  0  0  0  0  0  0  0  0  0  0
   -2.7465   22.1096  -23.5572 N   0  0  0  0  0  0  0  0  0  0  0  0
   -6.8653   22.0642  -23.0749 C   0  0  0  0  0  0  0  0  0  0  0  0
   -6.7805   21.8002  -21.6115 C   0  0  0  0  0  0  0  0  0  0  0  0
   -7.9993   21.2147  -21.2145 O   0  0  0  0  0  0  0  0  0  0  0  0
   -8.5501   20.9460  -21.9822 H   0  0  0  0  0  0  0  0  0  0  0  0
    4.1035   20.4019  -20.8235 S   0  0  0  0  0  0  0  0  0  0  0  0
    4.3440   18.6040  -21.0017 C   0  0  0  0  0  0  0  0  0  0  0  0
    5.4976   18.3929  -21.9492 C   0  0  0  0  0  0  0  0  0  0  0  0
    4.7532   18.0341  -19.6575 C   0  0  0  0  0  0  0  0  0  0  0  0
    3.0559   18.0172  -21.4927 C   0  0  0  0  0  0  0  0  0  0  0  0
 12 13  1  0  0  0
 13 14  1  0  0  0
 14 15  1  0  0  0
 15 19  1  0  0  0
 19 20  1  0  0  0
 20 21  1  0  0  0
 15 16  1  0  0  0
 16 17  1  0  0  0
 17 18  1  0  0  0
 18  1  1  0  0  0
  1  2  2  0  0  0
  2  3  1  0  0  0
  3  4  1  0  0  0
  4  5  1  0  0  0
  5 23  1  0  0  0
 23 24  1  0  0  0
 24 25  1  0  0  0
 24 26  1  0  0  0
 24 27  1  0  0  0
  5  6  2  0  0  0
  6  7  1  0  0  0
  7  8  1  0  0  0
  8  9  2  0  0  0
  9 10  1  0  0  0
 18 13  1  0  0  0
  9  1  1  0  0  0
  7  3  2  0  0  0
 21 22  1  0  0  0
  4 11  1  0  0  0
M  END
> <minimizedAffinity>
-6.05388

> <CNNscore>
0.2163982540

> <CNNaffinity>
5.9482984543

> <CNN_VS>
1.2872014046

> <CNNaffinity_variance>
0.0585820302

$$$$
[H]OC([H])([H])C([H])([H])N1C([H])([H])C([H])([H])N(c2c(Cl)c([H])c3nc(SC(C([H])([H])[H])(C([H])([H])[H])C([H])([H])[H])n([H])c3c2[H])[C@]([H])(C([H])([H])[H])C1([H])[H]


 27 29  0  0  0  0  0  0  0  0999 V2000
   -4.8705   23.0581  -23.2622 C   0  0  0  0  0  0  0  0  0  0  0  0
   -5.6577   23.9816  -23.9718 C   0  0  0  0  0  0  0  0  0  0  0  0
   -5.4533   24.2534  -25.3031 C   0  0  0  0  0  0  0  0  0  0  0  0
   -6.0856   25.0882  -26.1481 N   0  0  0  0  0  0  0  0  0  0  0  0
   -5.4706   24.9544  -27.3365 C   0  0  0  0  0  0  0  0  0  0  0  0
   -4.4770   24.0568  -27.2361 N   0  0  0  0  0  0  0  0  0  0  0  0
   -4.4244   23.5880  -25.9822 C   0  0  0  0  0  0  0  0  0  0  0  0
   -3.6426   22.6787  -25.3007 C   0  0  0  0  0  0  0  0  0  0  0  0
   -3.8629   22.4156  -23.9518 C   0  0  0  0  0  0  0  0  0  0  0  0
   -2.7947   21.2609  -23.1763 Cl  0  0  0  0  0  0  0  0  0  0  0  0
   -6.8915   25.7010  -25.8881 H   0  0  0  0  0  0  0  0  0  0  0  0
   -7.3836   21.6844  -22.0706 C   0  0  0  0  0  0  0  0  0  0  0  0
   -6.1315   21.9330  -21.3481 C   0  0  0  0  0  0  0  0  0  0  0  0
   -6.5542   22.5602  -20.0132 C   0  0  0  0  0  0  0  0  0  0  0  0
   -5.5431   22.2602  -19.0440 N   0  0  0  0  0  0  0  0  0  0  0  0
   -4.2801   22.5272  -19.6222 C   0  0  0  0  0  0  0  0  0  0  0  0
   -4.3933   23.4450  -20.8680 C   0  0  0  0  0  0  0  0  0  0  0  0
   -5.1611   22.8090  -21.9159 N   0  0  0  0  0  0  0  0  0  0  0  0
   -5.8678   22.9340  -17.8313 C   0  0  0  0  0  0  0  0  0  0  0  0
   -7.2520   22.7414  -17.3162 C   0  0  0  0  0  0  0  0  0  0  0  0
   -7.2847   23.2289  -15.9944 O   0  0  0  0  0  0  0  0  0  0  0  0
   -6.4766   23.7384  -15.7660 H   0  0  0  0  0  0  0  0  0  0  0  0
   -5.9358   25.8536  -28.8038 S   0  0  0  0  0  0  0  0  0  0  0  0
   -5.0324   25.1091  -30.2006 C   0  0  0  0  0  0  0  0  0  0  0  0
   -5.4595   25.8317  -31.4531 C   0  0  0  0  0  0  0  0  0  0  0  0
   -3.5503   25.3681  -30.0126 C   0  0  0  0  0  0  0  0  0  0  0  0
   -5.3493   23.6449  -30.2213 C   0  0  0  0  0  0  0  0  0  0  0  0
 12 13  1  0  0  0
 13 14  1  0  0  0
 14 15  1  0  0  0
 15 19  1  0  0  0
 19 20  1  0  0  0
 20 21  1  0  0  0
 15 16  1  0  0  0
 16 17  1  0  0  0
 17 18  1  0  0  0
 18  1  1  0  0  0
  1  2  2  0  0  0
  2  3  1  0  0  0
  3  4  1  0  0  0
  4  5  1  0  0  0
  5 23  1  0  0  0
 23 24  1  0  0  0
 24 25  1  0  0  0
 24 26  1  0  0  0
 24 27  1  0  0  0
  5  6  2  0  0  0
  6  7  1  0  0  0
  7  8  1  0  0  0
  8  9  2  0  0  0
  9 10  1  0  0  0
 18 13  1  0  0  0
  9  1  1  0  0  0
  7  3  2  0  0  0
 21 22  1  0  0  0
  4 11  1  0  0  0
M  END
> <minimizedAffinity>
-6.30728

> <CNNscore>
0.1877281815

> <CNNaffinity>
6.1319017410

> <CNN_VS>
1.1511307955

> <CNNaffinity_variance>
0.2554734349

$$$$
[H]OC([H])([H])C([H])([H])N1C([H])([H])C([H])([H])N(c2c(Cl)c([H])c3nc(SC(C([H])([H])[H])(C([H])([H])[H])C([H])([H])[H])n([H])c3c2[H])[C@]([H])(C([H])([H])[H])C1([H])[H]


 27 29  0  0  0  0  0  0  0  0999 V2000
    0.6477   21.0788  -21.8637 C   0  0  0  0  0  0  0  0  0  0  0  0
   -0.7523   21.1947  -21.8119 C   0  0  0  0  0  0  0  0  0  0  0  0
   -1.5076   21.4944  -22.9198 C   0  0  0  0  0  0  0  0  0  0  0  0
   -2.8352   21.6476  -23.0768 N   0  0  0  0  0  0  0  0  0  0  0  0
   -3.0277   21.9359  -24.3762 C   0  0  0  0  0  0  0  0  0  0  0  0
   -1.8475   21.9623  -25.0160 N   0  0  0  0  0  0  0  0  0  0  0  0
   -0.8634   21.6921  -24.1481 C   0  0  0  0  0  0  0  0  0  0  0  0
    0.5098   21.5820  -24.2163 C   0  0  0  0  0  0  0  0  0  0  0  0
    1.2599   21.2782  -23.0839 C   0  0  0  0  0  0  0  0  0  0  0  0
    3.0006   21.1873  -23.2773 Cl  0  0  0  0  0  0  0  0  0  0  0  0
   -3.5404   21.5519  -22.3112 H   0  0  0  0  0  0  0  0  0  0  0  0
    1.2146   18.2453  -20.7358 C   0  0  0  0  0  0  0  0  0  0  0  0
    1.8839   19.4776  -20.3057 C   0  0  0  0  0  0  0  0  0  0  0  0
    1.8386   19.4466  -18.7723 C   0  0  0  0  0  0  0  0  0  0  0  0
    2.9486   20.2076  -18.2819 N   0  0  0  0  0  0  0  0  0  0  0  0
    3.0031   21.4262  -18.9981 C   0  0  0  0  0  0  0  0  0  0  0  0
    1.6611   21.7431  -19.7093 C   0  0  0  0  0  0  0  0  0  0  0  0
    1.3458   20.7371  -20.6997 N   0  0  0  0  0  0  0  0  0  0  0  0
    2.8515   20.2820  -16.8624 C   0  0  0  0  0  0  0  0  0  0  0  0
    2.8792   21.6468  -16.2667 C   0  0  0  0  0  0  0  0  0  0  0  0
    1.5714   21.9494  -15.8379 O   0  0  0  0  0  0  0  0  0  0  0  0
    0.9840   21.1623  -15.8522 H   0  0  0  0  0  0  0  0  0  0  0  0
   -4.6286   22.2323  -25.1024 S   0  0  0  0  0  0  0  0  0  0  0  0
   -4.7248   24.0115  -25.4856 C   0  0  0  0  0  0  0  0  0  0  0  0
   -4.1164   24.7584  -24.3258 C   0  0  0  0  0  0  0  0  0  0  0  0
   -3.8666   24.2921  -26.7038 C   0  0  0  0  0  0  0  0  0  0  0  0
   -6.1648   24.3508  -25.7219 C   0  0  0  0  0  0  0  0  0  0  0  0
 12 13  1  0  0  0
 13 14  1  0  0  0
 14 15  1  0  0  0
 15 19  1  0  0  0
 19 20  1  0  0  0
 20 21  1  0  0  0
 15 16  1  0  0  0
 16 17  1  0  0  0
 17 18  1  0  0  0
 18  1  1  0  0  0
  1  2  2  0  0  0
  2  3  1  0  0  0
  3  4  1  0  0  0
  4  5  1  0  0  0
  5 23  1  0  0  0
 23 24  1  0  0  0
 24 25  1  0  0  0
 24 26  1  0  0  0
 24 27  1  0  0  0
  5  6  2  0  0  0
  6  7  1  0  0  0
  7  8  1  0  0  0
  8  9  2  0  0  0
  9 10  1  0  0  0
 18 13  1  0  0  0
  9  1  1  0  0  0
  7  3  2  0  0  0
 21 22  1  0  0  0
  4 11  1  0  0  0
M  END
> <minimizedAffinity>
-5.44575

> <CNNscore>
0.1597167999

> <CNNaffinity>
5.5612602234

> <CNN_VS>
0.8882266879

> <CNNaffinity_variance>
0.0317446776

$$$$
[H]OC([H])([H])C([H])([H])N1C([H])([H])C([H])([H])N(c2c(Cl)c([H])c3nc(SC(C([H])([H])[H])(C([H])([H])[H])C([H])([H])[H])n([H])c3c2[H])[C@]([H])(C([H])([H])[H])C1([H])[H]


 27 29  0  0  0  0  0  0  0  0999 V2000
   -1.3388   22.1496  -24.1403 C   0  0  0  0  0  0  0  0  0  0  0  0
   -1.5532   21.4051  -22.9674 C   0  0  0  0  0  0  0  0  0  0  0  0
   -0.5216   20.8524  -22.2476 C   0  0  0  0  0  0  0  0  0  0  0  0
   -0.5167   20.1187  -21.1195 N   0  0  0  0  0  0  0  0  0  0  0  0
    0.7733   19.8429  -20.8581 C   0  0  0  0  0  0  0  0  0  0  0  0
    1.5561   20.3914  -21.8012 N   0  0  0  0  0  0  0  0  0  0  0  0
    0.7934   21.0350  -22.6950 C   0  0  0  0  0  0  0  0  0  0  0  0
    1.0211   21.7629  -23.8441 C   0  0  0  0  0  0  0  0  0  0  0  0
   -0.0356   22.3157  -24.5617 C   0  0  0  0  0  0  0  0  0  0  0  0
    0.3643   23.2008  -26.0220 Cl  0  0  0  0  0  0  0  0  0  0  0  0
   -1.3715   19.8419  -20.5855 H   0  0  0  0  0  0  0  0  0  0  0  0
   -2.1653   21.8060  -27.1104 C   0  0  0  0  0  0  0  0  0  0  0  0
   -3.0204   22.3523  -26.0511 C   0  0  0  0  0  0  0  0  0  0  0  0
   -3.6159   23.6390  -26.6375 C   0  0  0  0  0  0  0  0  0  0  0  0
   -4.8698   23.8813  -25.9887 N   0  0  0  0  0  0  0  0  0  0  0  0
   -4.6888   23.7152  -24.5957 C   0  0  0  0  0  0  0  0  0  0  0  0
   -3.1924   23.7841  -24.1915 C   0  0  0  0  0  0  0  0  0  0  0  0
   -2.4380   22.7107  -24.8007 N   0  0  0  0  0  0  0  0  0  0  0  0
   -5.3767   25.1333  -26.4421 C   0  0  0  0  0  0  0  0  0  0  0  0
   -6.6837   25.5647  -25.8728 C   0  0  0  0  0  0  0  0  0  0  0  0
   -7.6881   24.7793  -26.4730 O   0  0  0  0  0  0  0  0  0  0  0  0
   -7.3166   24.0229  -26.9776 H   0  0  0  0  0  0  0  0  0  0  0  0
    1.3215   18.8872  -19.4566 S   0  0  0  0  0  0  0  0  0  0  0  0
    1.3810   17.1436  -19.9841 C   0  0  0  0  0  0  0  0  0  0  0  0
    2.3737   17.0460  -21.1147 C   0  0  0  0  0  0  0  0  0  0  0  0
    1.9180   16.3086  -18.8379 C   0  0  0  0  0  0  0  0  0  0  0  0
   -0.0070   16.7366  -20.3743 C   0  0  0  0  0  0  0  0  0  0  0  0
 12 13  1  0  0  0
 13 14  1  0  0  0
 14 15  1  0  0  0
 15 19  1  0  0  0
 19 20  1  0  0  0
 20 21  1  0  0  0
 15 16  1  0  0  0
 16 17  1  0  0  0
 17 18  1  0  0  0
 18  1  1  0  0  0
  1  2  2  0  0  0
  2  3  1  0  0  0
  3  4  1  0  0  0
  4  5  1  0  0  0
  5 23  1  0  0  0
 23 24  1  0  0  0
 24 25  1  0  0  0
 24 26  1  0  0  0
 24 27  1  0  0  0
  5  6  2  0  0  0
  6  7  1  0  0  0
  7  8  1  0  0  0
  8  9  2  0  0  0
  9 10  1  0  0  0
 18 13  1  0  0  0
  9  1  1  0  0  0
  7  3  2  0  0  0
 21 22  1  0  0  0
  4 11  1  0  0  0
M  END
> <minimizedAffinity>
-6.27866

> <CNNscore>
0.1442899704

> <CNNaffinity>
5.7371387482

> <CNN_VS>
0.8278115988

> <CNNaffinity_variance>
0.1491568089

$$$$
[H]OC([H])([H])C([H])([H])N1C([H])([H])C([H])([H])N(c2c(Cl)c([H])c3nc(SC(C([H])([H])[H])(C([H])([H])[H])C([H])([H])[H])n([H])c3c2[H])[C@]([H])(C([H])([H])[H])C1([H])[H]


 27 29  0  0  0  0  0  0  0  0999 V2000
   -1.5748   22.3325  -24.7120 C   0  0  0  0  0  0  0  0  0  0  0  0
   -1.9667   21.7648  -23.4872 C   0  0  0  0  0  0  0  0  0  0  0  0
   -1.0600   21.2653  -22.5838 C   0  0  0  0  0  0  0  0  0  0  0  0
   -1.2287   20.6918  -21.3782 N   0  0  0  0  0  0  0  0  0  0  0  0
    0.0034   20.3918  -20.9306 C   0  0  0  0  0  0  0  0  0  0  0  0
    0.9206   20.7692  -21.8358 N   0  0  0  0  0  0  0  0  0  0  0  0
    0.3059   21.3220  -22.8900 C   0  0  0  0  0  0  0  0  0  0  0  0
    0.7074   21.8758  -24.0877 C   0  0  0  0  0  0  0  0  0  0  0  0
   -0.2245   22.3768  -24.9919 C   0  0  0  0  0  0  0  0  0  0  0  0
    0.3927   23.0358  -26.4955 Cl  0  0  0  0  0  0  0  0  0  0  0  0
   -2.1541   20.5314  -20.9193 H   0  0  0  0  0  0  0  0  0  0  0  0
   -3.7918   24.3979  -24.0474 C   0  0  0  0  0  0  0  0  0  0  0  0
   -3.3836   23.9987  -25.3986 C   0  0  0  0  0  0  0  0  0  0  0  0
   -4.6917   23.7017  -26.1434 C   0  0  0  0  0  0  0  0  0  0  0  0
   -4.4650   23.9230  -27.5404 N   0  0  0  0  0  0  0  0  0  0  0  0
   -3.2487   23.2957  -27.8980 C   0  0  0  0  0  0  0  0  0  0  0  0
   -2.8100   22.2381  -26.8509 C   0  0  0  0  0  0  0  0  0  0  0  0
   -2.5547   22.8515  -25.5661 N   0  0  0  0  0  0  0  0  0  0  0  0
   -5.6378   23.5400  -28.2530 C   0  0  0  0  0  0  0  0  0  0  0  0
   -5.5638   23.6123  -29.7388 C   0  0  0  0  0  0  0  0  0  0  0  0
   -6.3365   24.7171  -30.1490 O   0  0  0  0  0  0  0  0  0  0  0  0
   -6.5965   25.2896  -29.3944 H   0  0  0  0  0  0  0  0  0  0  0  0
    0.3284   19.6092  -19.3623 S   0  0  0  0  0  0  0  0  0  0  0  0
    1.0502   17.9734  -19.7161 C   0  0  0  0  0  0  0  0  0  0  0  0
    0.1846   17.3122  -20.7586 C   0  0  0  0  0  0  0  0  0  0  0  0
    2.4232   18.1716  -20.3283 C   0  0  0  0  0  0  0  0  0  0  0  0
    1.1138   17.2134  -18.4266 C   0  0  0  0  0  0  0  0  0  0  0  0
 12 13  1  0  0  0
 13 14  1  0  0  0
 14 15  1  0  0  0
 15 19  1  0  0  0
 19 20  1  0  0  0
 20 21  1  0  0  0
 15 16  1  0  0  0
 16 17  1  0  0  0
 17 18  1  0  0  0
 18  1  1  0  0  0
  1  2  2  0  0  0
  2  3  1  0  0  0
  3  4  1  0  0  0
  4  5  1  0  0  0
  5 23  1  0  0  0
 23 24  1  0  0  0
 24 25  1  0  0  0
 24 26  1  0  0  0
 24 27  1  0  0  0
  5  6  2  0  0  0
  6  7  1  0  0  0
  7  8  1  0  0  0
  8  9  2  0  0  0
  9 10  1  0  0  0
 18 13  1  0  0  0
  9  1  1  0  0  0
  7  3  2  0  0  0
 21 22  1  0  0  0
  4 11  1  0  0  0
M  END
> <minimizedAffinity>
-6.93915

> <CNNscore>
0.1360019594

> <CNNaffinity>
6.1343717575

> <CNN_VS>
0.8342865705

> <CNNaffinity_variance>
0.1121635661

$$$$
[H]OC([H])([H])C([H])([H])N1C([H])([H])C([H])([H])N(c2c(Cl)c([H])c3nc(SC(C([H])([H])[H])(C([H])([H])[H])C([H])([H])[H])n([H])c3c2[H])[C@]([H])(C([H])([H])[H])C1([H])[H]


 27 29  0  0  0  0  0  0  0  0999 V2000
   -6.3330   22.4936  -19.1732 C   0  0  0  0  0  0  0  0  0  0  0  0
   -5.1578   22.0863  -19.8281 C   0  0  0  0  0  0  0  0  0  0  0  0
   -5.1019   21.8927  -21.1872 C   0  0  0  0  0  0  0  0  0  0  0  0
   -4.0923   21.5110  -21.9909 N   0  0  0  0  0  0  0  0  0  0  0  0
   -4.5956   21.4853  -23.2377 C   0  0  0  0  0  0  0  0  0  0  0  0
   -5.8898   21.8426  -23.2134 N   0  0  0  0  0  0  0  0  0  0  0  0
   -6.2557   22.1080  -21.9522 C   0  0  0  0  0  0  0  0  0  0  0  0
   -7.4172   22.5079  -21.3252 C   0  0  0  0  0  0  0  0  0  0  0  0
   -7.4566   22.6990  -19.9471 C   0  0  0  0  0  0  0  0  0  0  0  0
   -8.9911   23.1832  -19.2494 Cl  0  0  0  0  0  0  0  0  0  0  0  0
   -3.1241   21.2886  -21.6660 H   0  0  0  0  0  0  0  0  0  0  0  0
   -7.2024   20.5421  -16.9241 C   0  0  0  0  0  0  0  0  0  0  0  0
   -6.4012   21.7554  -16.7298 C   0  0  0  0  0  0  0  0  0  0  0  0
   -7.0574   22.4873  -15.5518 C   0  0  0  0  0  0  0  0  0  0  0  0
   -6.0524   23.2799  -14.9087 N   0  0  0  0  0  0  0  0  0  0  0  0
   -5.3305   23.9767  -15.9058 C   0  0  0  0  0  0  0  0  0  0  0  0
   -6.1014   24.0305  -17.2512 C   0  0  0  0  0  0  0  0  0  0  0  0
   -6.3033   22.7032  -17.7896 N   0  0  0  0  0  0  0  0  0  0  0  0
   -6.6745   24.0520  -13.8855 C   0  0  0  0  0  0  0  0  0  0  0  0
   -6.3055   25.4938  -13.8261 C   0  0  0  0  0  0  0  0  0  0  0  0
   -7.4765   26.2416  -14.0614 O   0  0  0  0  0  0  0  0  0  0  0  0
   -8.2854   25.6850  -14.0316 H   0  0  0  0  0  0  0  0  0  0  0  0
   -3.6515   21.0378  -24.6821 S   0  0  0  0  0  0  0  0  0  0  0  0
   -2.6126   22.4723  -25.1119 C   0  0  0  0  0  0  0  0  0  0  0  0
   -3.3808   23.7154  -24.7411 C   0  0  0  0  0  0  0  0  0  0  0  0
   -1.3631   22.4404  -24.2534 C   0  0  0  0  0  0  0  0  0  0  0  0
   -2.2934   22.3839  -26.5730 C   0  0  0  0  0  0  0  0  0  0  0  0
 12 13  1  0  0  0
 13 14  1  0  0  0
 14 15  1  0  0  0
 15 19  1  0  0  0
 19 20  1  0  0  0
 20 21  1  0  0  0
 15 16  1  0  0  0
 16 17  1  0  0  0
 17 18  1  0  0  0
 18  1  1  0  0  0
  1  2  2  0  0  0
  2  3  1  0  0  0
  3  4  1  0  0  0
  4  5  1  0  0  0
  5 23  1  0  0  0
 23 24  1  0  0  0
 24 25  1  0  0  0
 24 26  1  0  0  0
 24 27  1  0  0  0
  5  6  2  0  0  0
  6  7  1  0  0  0
  7  8  1  0  0  0
  8  9  2  0  0  0
  9 10  1  0  0  0
 18 13  1  0  0  0
  9  1  1  0  0  0
  7  3  2  0  0  0
 21 22  1  0  0  0
  4 11  1  0  0  0
M  END
> <minimizedAffinity>
-5.27973

> <CNNscore>
0.1301956326

> <CNNaffinity>
4.9233145714

> <CNN_VS>
0.6409940720

> <CNNaffinity_variance>
0.1294716299

$$$$
[H]OC([H])([H])C([H])([H])N1C([H])([H])C([H])([H])N(c2c(Cl)c([H])c3nc(SC(C([H])([H])[H])(C([H])([H])[H])C([H])([H])[H])n([H])c3c2[H])[C@]([H])(C([H])([H])[H])C1([H])[H]


 27 29  0  0  0  0  0  0  0  0999 V2000
   -2.2407   22.5379  -23.6979 C   0  0  0  0  0  0  0  0  0  0  0  0
   -1.6371   22.1782  -22.4804 C   0  0  0  0  0  0  0  0  0  0  0  0
   -0.3426   21.7237  -22.4066 C   0  0  0  0  0  0  0  0  0  0  0  0
    0.4057   21.3352  -21.3578 N   0  0  0  0  0  0  0  0  0  0  0  0
    1.6031   20.9865  -21.8609 C   0  0  0  0  0  0  0  0  0  0  0  0
    1.6027   21.1533  -23.1934 N   0  0  0  0  0  0  0  0  0  0  0  0
    0.4070   21.6134  -23.5850 C   0  0  0  0  0  0  0  0  0  0  0  0
   -0.1702   21.9622  -24.7881 C   0  0  0  0  0  0  0  0  0  0  0  0
   -1.4833   22.4204  -24.8451 C   0  0  0  0  0  0  0  0  0  0  0  0
   -2.1267   22.8120  -26.4289 Cl  0  0  0  0  0  0  0  0  0  0  0  0
    0.0789   21.3234  -20.3650 H   0  0  0  0  0  0  0  0  0  0  0  0
   -4.8647   20.9744  -24.2386 C   0  0  0  0  0  0  0  0  0  0  0  0
   -4.7828   22.3072  -23.6316 C   0  0  0  0  0  0  0  0  0  0  0  0
   -5.8167   23.1563  -24.3826 C   0  0  0  0  0  0  0  0  0  0  0  0
   -6.2498   24.2030  -23.5059 N   0  0  0  0  0  0  0  0  0  0  0  0
   -5.1068   24.7832  -22.9078 C   0  0  0  0  0  0  0  0  0  0  0  0
   -3.8087   24.4486  -23.6890 C   0  0  0  0  0  0  0  0  0  0  0  0
   -3.5528   23.0250  -23.6893 N   0  0  0  0  0  0  0  0  0  0  0  0
   -7.1229   25.0648  -24.2305 C   0  0  0  0  0  0  0  0  0  0  0  0
   -7.0994   24.9369  -25.7143 C   0  0  0  0  0  0  0  0  0  0  0  0
   -8.4326   24.8003  -26.1498 O   0  0  0  0  0  0  0  0  0  0  0  0
   -9.0787   24.9957  -25.4361 H   0  0  0  0  0  0  0  0  0  0  0  0
    2.9633   20.3954  -20.8719 S   0  0  0  0  0  0  0  0  0  0  0  0
    2.9362   18.5748  -20.9525 C   0  0  0  0  0  0  0  0  0  0  0  0
    3.7105   18.0572  -19.7669 C   0  0  0  0  0  0  0  0  0  0  0  0
    1.5032   18.1040  -20.7967 C   0  0  0  0  0  0  0  0  0  0  0  0
    3.5221   18.1669  -22.2696 C   0  0  0  0  0  0  0  0  0  0  0  0
 12 13  1  0  0  0
 13 14  1  0  0  0
 14 15  1  0  0  0
 15 19  1  0  0  0
 19 20  1  0  0  0
 20 21  1  0  0  0
 15 16  1  0  0  0
 16 17  1  0  0  0
 17 18  1  0  0  0
 18  1  1  0  0  0
  1  2  2  0  0  0
  2  3  1  0  0  0
  3  4  1  0  0  0
  4  5  1  0  0  0
  5 23  1  0  0  0
 23 24  1  0  0  0
 24 25  1  0  0  0
 24 26  1  0  0  0
 24 27  1  0  0  0
  5  6  2  0  0  0
  6  7  1  0  0  0
  7  8  1  0  0  0
  8  9  2  0  0  0
  9 10  1  0  0  0
 18 13  1  0  0  0
  9  1  1  0  0  0
  7  3  2  0  0  0
 21 22  1  0  0  0
  4 11  1  0  0  0
M  END
> <minimizedAffinity>
-6.35848

> <CNNscore>
0.1259740740

> <CNNaffinity>
6.0789451599

> <CNN_VS>
0.7657895088

> <CNNaffinity_variance>
0.0925045460

$$$$
[H]OC([H])([H])C([H])([H])N1C([H])([H])C([H])([H])N(c2c(Cl)c([H])c3nc(SC(C([H])([H])[H])(C([H])([H])[H])C([H])([H])[H])n([H])c3c2[H])[C@]([H])(C([H])([H])[H])C1([H])[H]


 27 29  0  0  0  0  0  0  0  0999 V2000
   -1.6752   22.4172  -25.2980 C   0  0  0  0  0  0  0  0  0  0  0  0
   -2.1682   21.9066  -24.0846 C   0  0  0  0  0  0  0  0  0  0  0  0
   -1.3400   21.5037  -23.0650 C   0  0  0  0  0  0  0  0  0  0  0  0
   -1.6090   20.9962  -21.8480 N   0  0  0  0  0  0  0  0  0  0  0  0
   -0.4185   20.7798  -21.2613 C   0  0  0  0  0  0  0  0  0  0  0  0
    0.5713   21.1436  -22.0926 N   0  0  0  0  0  0  0  0  0  0  0  0
    0.0468   21.6039  -23.2362 C   0  0  0  0  0  0  0  0  0  0  0  0
    0.5470   22.1027  -24.4207 C   0  0  0  0  0  0  0  0  0  0  0  0
   -0.3061   22.5059  -25.4439 C   0  0  0  0  0  0  0  0  0  0  0  0
    0.4358   23.1011  -26.9173 Cl  0  0  0  0  0  0  0  0  0  0  0  0
   -2.5695   20.8218  -21.4746 H   0  0  0  0  0  0  0  0  0  0  0  0
   -3.9774   24.4765  -25.0125 C   0  0  0  0  0  0  0  0  0  0  0  0
   -3.4416   23.9759  -26.2829 C   0  0  0  0  0  0  0  0  0  0  0  0
   -4.6714   23.5861  -27.1133 C   0  0  0  0  0  0  0  0  0  0  0  0
   -4.3223   23.6954  -28.4982 N   0  0  0  0  0  0  0  0  0  0  0  0
   -3.0683   23.0701  -28.6912 C   0  0  0  0  0  0  0  0  0  0  0  0
   -2.7092   22.1146  -27.5226 C   0  0  0  0  0  0  0  0  0  0  0  0
   -2.5819   22.8392  -26.2772 N   0  0  0  0  0  0  0  0  0  0  0  0
   -5.4190   23.2259  -29.2773 C   0  0  0  0  0  0  0  0  0  0  0  0
   -5.6847   23.9496  -30.5517 C   0  0  0  0  0  0  0  0  0  0  0  0
   -6.4189   25.1102  -30.2357 O   0  0  0  0  0  0  0  0  0  0  0  0
   -6.4393   25.2855  -29.2694 H   0  0  0  0  0  0  0  0  0  0  0  0
   -0.2256   20.1080  -19.6213 S   0  0  0  0  0  0  0  0  0  0  0  0
    0.2473   21.4867  -18.5270 C   0  0  0  0  0  0  0  0  0  0  0  0
    1.7313   21.7014  -18.6842 C   0  0  0  0  0  0  0  0  0  0  0  0
   -0.4450   22.7470  -19.0082 C   0  0  0  0  0  0  0  0  0  0  0  0
   -0.1563   21.1213  -17.1312 C   0  0  0  0  0  0  0  0  0  0  0  0
 12 13  1  0  0  0
 13 14  1  0  0  0
 14 15  1  0  0  0
 15 19  1  0  0  0
 19 20  1  0  0  0
 20 21  1  0  0  0
 15 16  1  0  0  0
 16 17  1  0  0  0
 17 18  1  0  0  0
 18  1  1  0  0  0
  1  2  2  0  0  0
  2  3  1  0  0  0
  3  4  1  0  0  0
  4  5  1  0  0  0
  5 23  1  0  0  0
 23 24  1  0  0  0
 24 25  1  0  0  0
 24 26  1  0  0  0
 24 27  1  0  0  0
  5  6  2  0  0  0
  6  7  1  0  0  0
  7  8  1  0  0  0
  8  9  2  0  0  0
  9 10  1  0  0  0
 18 13  1  0  0  0
  9  1  1  0  0  0
  7  3  2  0  0  0
 21 22  1  0  0  0
  4 11  1  0  0  0
M  END
> <minimizedAffinity>
-7.46992

> <CNNscore>
0.1248079091

> <CNNaffinity>
6.2515273094

> <CNN_VS>
0.7802400589

> <CNNaffinity_variance>
0.0212274604

$$$$
[H]c1nc(N([H])S(=O)(=O)c2c([H])c(Cl)c(N(C([H])([H])[H])[C@]3([H])C([H])([H])N(C([H])([H])c4c([H])c([H])c(Cl)c([H])c4[H])C([H])([H])C3([H])[H])c([H])c2F)c([H])s1


 33 36  0  0  0  0  0  0  0  0999 V2000
   -4.2488   23.9423  -22.6849 C   0  0  0  0  0  0  0  0  0  0  0  0
   -4.0157   25.2521  -23.0456 C   0  0  0  0  0  0  0  0  0  0  0  0
   -4.4339   25.7531  -24.2574 C   0  0  0  0  0  0  0  0  0  0  0  0
   -4.1963   27.0544  -24.6028 F   0  0  0  0  0  0  0  0  0  0  0  0
   -5.1164   24.9607  -25.1851 C   0  0  0  0  0  0  0  0  0  0  0  0
   -5.3450   23.6546  -24.8160 C   0  0  0  0  0  0  0  0  0  0  0  0
   -4.9224   23.1606  -23.6002 C   0  0  0  0  0  0  0  0  0  0  0  0
   -5.2359   21.4734  -23.1638 Cl  0  0  0  0  0  0  0  0  0  0  0  0
   -5.6493   25.6528  -26.7015 S   0  0  0  0  0  0  0  0  0  0  0  0
   -5.5558   27.1582  -26.5318 O   0  0  0  0  0  0  0  0  0  0  0  0
   -7.0785   25.3358  -26.9843 O   0  0  0  0  0  0  0  0  0  0  0  0
   -4.6571   25.2376  -28.0268 N   0  0  0  0  0  0  0  0  0  0  0  0
   -3.6907   24.9121  -27.8144 H   0  0  0  0  0  0  0  0  0  0  0  0
   -5.1093   25.3233  -29.4102 C   0  0  0  0  0  0  0  0  0  0  0  0
   -5.4107   24.1880  -30.1278 C   0  0  0  0  0  0  0  0  0  0  0  0
   -5.8709   24.8461  -31.6336 S   0  0  0  0  0  0  0  0  0  0  0  0
   -5.6570   26.4995  -31.2697 C   0  0  0  0  0  0  0  0  0  0  0  0
   -5.2449   26.4598  -30.0154 N   0  0  0  0  0  0  0  0  0  0  0  0
   -4.8097   23.1187  -20.4126 C   0  0  0  0  0  0  0  0  0  0  0  0
   -3.8316   23.3964  -21.4468 N   0  0  0  0  0  0  0  0  0  0  0  0
   -2.4610   23.1068  -21.1804 C   0  0  0  0  0  0  0  0  0  0  0  0
   -2.2265   21.7109  -20.6405 C   0  0  0  0  0  0  0  0  0  0  0  0
   -0.7288   21.5672  -20.8886 C   0  0  0  0  0  0  0  0  0  0  0  0
   -0.4994   22.2064  -22.1449 N   0  0  0  0  0  0  0  0  0  0  0  0
   -1.6168   23.0425  -22.4612 C   0  0  0  0  0  0  0  0  0  0  0  0
   -0.1810   21.2248  -23.1379 C   0  0  0  0  0  0  0  0  0  0  0  0
   -0.6209   21.7171  -24.4659 C   0  0  0  0  0  0  0  0  0  0  0  0
    0.3158   22.2810  -25.3383 C   0  0  0  0  0  0  0  0  0  0  0  0
   -0.0280   22.7509  -26.5870 C   0  0  0  0  0  0  0  0  0  0  0  0
   -1.3330   22.6737  -27.0144 C   0  0  0  0  0  0  0  0  0  0  0  0
   -1.7453   23.2768  -28.6038 Cl  0  0  0  0  0  0  0  0  0  0  0  0
   -2.2795   22.1280  -26.1889 C   0  0  0  0  0  0  0  0  0  0  0  0
   -1.9111   21.6595  -24.9321 C   0  0  0  0  0  0  0  0  0  0  0  0
 19 20  1  0  0  0
 20  1  1  0  0  0
  1  2  2  0  0  0
  2  3  1  0  0  0
  3  4  1  0  0  0
  3  5  2  0  0  0
  5  9  1  0  0  0
  9 10  2  0  0  0
  9 11  2  0  0  0
  9 12  1  0  0  0
 12 14  1  0  0  0
 14 15  2  0  0  0
 15 16  1  0  0  0
 16 17  1  0  0  0
 17 18  2  0  0  0
  5  6  1  0  0  0
  6  7  2  0  0  0
  7  8  1  0  0  0
 20 21  1  0  0  0
 21 22  1  0  0  0
 22 23  1  0  0  0
 23 24  1  0  0  0
 24 26  1  0  0  0
 26 27  1  0  0  0
 27 28  2  0  0  0
 28 29  1  0  0  0
 29 30  2  0  0  0
 30 31  1  0  0  0
 30 32  1  0  0  0
 32 33  2  0  0  0
 24 25  1  0  0  0
  7  1  1  0  0  0
 25 21  1  0  0  0
 18 14  1  0  0  0
 33 27  1  0  0  0
 12 13  1  0  0  0
M  END
> <minimizedAffinity>
-8.99728

> <CNNscore>
0.6879380345

> <CNNaffinity>
8.0310726166

> <CNN_VS>
5.5248804092

> <CNNaffinity_variance>
0.0662316084

$$$$
[H]c1nc(N([H])S(=O)(=O)c2c([H])c(Cl)c(N(C([H])([H])[H])[C@]3([H])C([H])([H])N(C([H])([H])c4c([H])c([H])c(Cl)c([H])c4[H])C([H])([H])C3([H])[H])c([H])c2F)c([H])s1


 33 36  0  0  0  0  0  0  0  0999 V2000
   -6.2359   24.1927  -23.8567 C   0  0  0  0  0  0  0  0  0  0  0  0
   -6.0314   25.3749  -24.5353 C   0  0  0  0  0  0  0  0  0  0  0  0
   -5.6267   25.3922  -25.8507 C   0  0  0  0  0  0  0  0  0  0  0  0
   -5.4274   26.5719  -26.5122 F   0  0  0  0  0  0  0  0  0  0  0  0
   -5.4021   24.2128  -26.5669 C   0  0  0  0  0  0  0  0  0  0  0  0
   -5.6094   23.0375  -25.8813 C   0  0  0  0  0  0  0  0  0  0  0  0
   -6.0145   23.0291  -24.5634 C   0  0  0  0  0  0  0  0  0  0  0  0
   -6.2693   21.4948  -23.7171 Cl  0  0  0  0  0  0  0  0  0  0  0  0
   -4.9130   24.2891  -28.2454 S   0  0  0  0  0  0  0  0  0  0  0  0
   -4.1318   25.5816  -28.3968 O   0  0  0  0  0  0  0  0  0  0  0  0
   -6.0857   24.3808  -29.1615 O   0  0  0  0  0  0  0  0  0  0  0  0
   -3.8714   23.0195  -28.7106 N   0  0  0  0  0  0  0  0  0  0  0  0
   -4.2156   22.3663  -29.4454 H   0  0  0  0  0  0  0  0  0  0  0  0
   -2.5500   22.8266  -28.1256 C   0  0  0  0  0  0  0  0  0  0  0  0
   -1.4141   23.2141  -28.7998 C   0  0  0  0  0  0  0  0  0  0  0  0
   -0.1914   22.7707  -27.6949 S   0  0  0  0  0  0  0  0  0  0  0  0
   -1.1788   22.1287  -26.4601 C   0  0  0  0  0  0  0  0  0  0  0  0
   -2.3914   22.2879  -26.9590 N   0  0  0  0  0  0  0  0  0  0  0  0
   -8.0655   24.1196  -22.1823 C   0  0  0  0  0  0  0  0  0  0  0  0
   -6.6515   24.1407  -22.5041 N   0  0  0  0  0  0  0  0  0  0  0  0
   -5.7109   24.1079  -21.4328 C   0  0  0  0  0  0  0  0  0  0  0  0
   -5.8710   22.9115  -20.5172 C   0  0  0  0  0  0  0  0  0  0  0  0
   -4.5204   22.9233  -19.8094 C   0  0  0  0  0  0  0  0  0  0  0  0
   -3.5785   23.2941  -20.8168 N   0  0  0  0  0  0  0  0  0  0  0  0
   -4.2740   23.8782  -21.9226 C   0  0  0  0  0  0  0  0  0  0  0  0
   -2.7550   22.1703  -21.1484 C   0  0  0  0  0  0  0  0  0  0  0  0
   -1.6182   22.1042  -20.1983 C   0  0  0  0  0  0  0  0  0  0  0  0
   -1.2056   20.8639  -19.7004 C   0  0  0  0  0  0  0  0  0  0  0  0
   -0.1534   20.7349  -18.8204 C   0  0  0  0  0  0  0  0  0  0  0  0
    0.5322   21.8511  -18.4014 C   0  0  0  0  0  0  0  0  0  0  0  0
    1.8646   21.6622  -17.2838 Cl  0  0  0  0  0  0  0  0  0  0  0  0
    0.1583   23.0836  -18.8666 C   0  0  0  0  0  0  0  0  0  0  0  0
   -0.9068   23.1916  -19.7546 C   0  0  0  0  0  0  0  0  0  0  0  0
 19 20  1  0  0  0
 20  1  1  0  0  0
  1  2  2  0  0  0
  2  3  1  0  0  0
  3  4  1  0  0  0
  3  5  2  0  0  0
  5  9  1  0  0  0
  9 10  2  0  0  0
  9 11  2  0  0  0
  9 12  1  0  0  0
 12 14  1  0  0  0
 14 15  2  0  0  0
 15 16  1  0  0  0
 16 17  1  0  0  0
 17 18  2  0  0  0
  5  6  1  0  0  0
  6  7  2  0  0  0
  7  8  1  0  0  0
 20 21  1  0  0  0
 21 22  1  0  0  0
 22 23  1  0  0  0
 23 24  1  0  0  0
 24 26  1  0  0  0
 26 27  1  0  0  0
 27 28  2  0  0  0
 28 29  1  0  0  0
 29 30  2  0  0  0
 30 31  1  0  0  0
 30 32  1  0  0  0
 32 33  2  0  0  0
 24 25  1  0  0  0
  7  1  1  0  0  0
 25 21  1  0  0  0
 18 14  1  0  0  0
 33 27  1  0  0  0
 12 13  1  0  0  0
M  END
> <minimizedAffinity>
-7.34430

> <CNNscore>
0.3322686255

> <CNNaffinity>
7.3235445023

> <CNN_VS>
2.4333841801

> <CNNaffinity_variance>
0.0358784385

$$$$
[H]c1nc(N([H])S(=O)(=O)c2c([H])c(Cl)c(N(C([H])([H])[H])[C@]3([H])C([H])([H])N(C([H])([H])c4c([H])c([H])c(Cl)c([H])c4[H])C([H])([H])C3([H])[H])c([H])c2F)c([H])s1


 33 36  0  0  0  0  0  0  0  0999 V2000
   -5.4206   23.1230  -21.9925 C   0  0  0  0  0  0  0  0  0  0  0  0
   -5.3299   22.3969  -23.1606 C   0  0  0  0  0  0  0  0  0  0  0  0
   -5.5979   22.9634  -24.3861 C   0  0  0  0  0  0  0  0  0  0  0  0
   -5.5042   22.2318  -25.5372 F   0  0  0  0  0  0  0  0  0  0  0  0
   -5.9755   24.3035  -24.5103 C   0  0  0  0  0  0  0  0  0  0  0  0
   -6.0627   25.0207  -23.3387 C   0  0  0  0  0  0  0  0  0  0  0  0
   -5.7929   24.4454  -22.1151 C   0  0  0  0  0  0  0  0  0  0  0  0
   -5.9176   25.4030  -20.6309 Cl  0  0  0  0  0  0  0  0  0  0  0  0
   -6.2804   24.9827  -26.0940 S   0  0  0  0  0  0  0  0  0  0  0  0
   -6.0550   26.4777  -25.9602 O   0  0  0  0  0  0  0  0  0  0  0  0
   -7.6980   24.7935  -26.5154 O   0  0  0  0  0  0  0  0  0  0  0  0
   -5.2053   24.4217  -27.2952 N   0  0  0  0  0  0  0  0  0  0  0  0
   -4.3977   23.8445  -26.9793 H   0  0  0  0  0  0  0  0  0  0  0  0
   -5.3784   24.7188  -28.7120 C   0  0  0  0  0  0  0  0  0  0  0  0
   -5.4991   23.7071  -29.6376 C   0  0  0  0  0  0  0  0  0  0  0  0
   -5.6727   24.5886  -31.0885 S   0  0  0  0  0  0  0  0  0  0  0  0
   -5.5832   26.1665  -30.4450 C   0  0  0  0  0  0  0  0  0  0  0  0
   -5.4253   25.9347  -29.1543 N   0  0  0  0  0  0  0  0  0  0  0  0
   -6.2357   22.0222  -19.9236 C   0  0  0  0  0  0  0  0  0  0  0  0
   -5.1521   22.5702  -20.7168 N   0  0  0  0  0  0  0  0  0  0  0  0
   -3.8319   22.5345  -20.1794 C   0  0  0  0  0  0  0  0  0  0  0  0
   -3.5090   21.2522  -19.4400 C   0  0  0  0  0  0  0  0  0  0  0  0
   -1.9867   21.3324  -19.4005 C   0  0  0  0  0  0  0  0  0  0  0  0
   -1.6127   21.8802  -20.6652 N   0  0  0  0  0  0  0  0  0  0  0  0
   -2.7557   22.4893  -21.2736 C   0  0  0  0  0  0  0  0  0  0  0  0
   -0.9713   20.8752  -21.4588 C   0  0  0  0  0  0  0  0  0  0  0  0
   -0.8634   21.3565  -22.8574 C   0  0  0  0  0  0  0  0  0  0  0  0
    0.3792   21.7648  -23.3532 C   0  0  0  0  0  0  0  0  0  0  0  0
    0.5466   22.2160  -24.6442 C   0  0  0  0  0  0  0  0  0  0  0  0
   -0.5317   22.2764  -25.4958 C   0  0  0  0  0  0  0  0  0  0  0  0
   -0.2945   22.8526  -27.1303 Cl  0  0  0  0  0  0  0  0  0  0  0  0
   -1.7651   21.8853  -25.0474 C   0  0  0  0  0  0  0  0  0  0  0  0
   -1.9122   21.4329  -23.7403 C   0  0  0  0  0  0  0  0  0  0  0  0
 19 20  1  0  0  0
 20  1  1  0  0  0
  1  2  2  0  0  0
  2  3  1  0  0  0
  3  4  1  0  0  0
  3  5  2  0  0  0
  5  9  1  0  0  0
  9 10  2  0  0  0
  9 11  2  0  0  0
  9 12  1  0  0  0
 12 14  1  0  0  0
 14 15  2  0  0  0
 15 16  1  0  0  0
 16 17  1  0  0  0
 17 18  2  0  0  0
  5  6  1  0  0  0
  6  7  2  0  0  0
  7  8  1  0  0  0
 20 21  1  0  0  0
 21 22  1  0  0  0
 22 23  1  0  0  0
 23 24  1  0  0  0
 24 26  1  0  0  0
 26 27  1  0  0  0
 27 28  2  0  0  0
 28 29  1  0  0  0
 29 30  2  0  0  0
 30 31  1  0  0  0
 30 32  1  0  0  0
 32 33  2  0  0  0
 24 25  1  0  0  0
  7  1  1  0  0  0
 25 21  1  0  0  0
 18 14  1  0  0  0
 33 27  1  0  0  0
 12 13  1  0  0  0
M  END
> <minimizedAffinity>
-7.99786

> <CNNscore>
0.1910039335

> <CNNaffinity>
6.9632706642

> <CNN_VS>
1.3300120831

> <CNNaffinity_variance>
0.1843824536

$$$$
[H]c1nc(N([H])S(=O)(=O)c2c([H])c(Cl)c(N(C([H])([H])[H])[C@]3([H])C([H])([H])N(C([H])([H])c4c([H])c([H])c(Cl)c([H])c4[H])C([H])([H])C3([H])[H])c([H])c2F)c([H])s1


 33 36  0  0  0  0  0  0  0  0999 V2000
   -4.9512   23.7234  -23.6713 C   0  0  0  0  0  0  0  0  0  0  0  0
   -3.8613   24.4783  -23.2940 C   0  0  0  0  0  0  0  0  0  0  0  0
   -2.7009   23.8946  -22.8388 C   0  0  0  0  0  0  0  0  0  0  0  0
   -1.6271   24.6551  -22.4677 F   0  0  0  0  0  0  0  0  0  0  0  0
   -2.5668   22.5070  -22.7354 C   0  0  0  0  0  0  0  0  0  0  0  0
   -3.6598   21.7616  -23.1148 C   0  0  0  0  0  0  0  0  0  0  0  0
   -4.8187   22.3543  -23.5695 C   0  0  0  0  0  0  0  0  0  0  0  0
   -6.2030   21.3589  -24.0473 Cl  0  0  0  0  0  0  0  0  0  0  0  0
   -1.0610   21.8137  -22.1747 S   0  0  0  0  0  0  0  0  0  0  0  0
   -0.0131   22.1981  -23.2032 O   0  0  0  0  0  0  0  0  0  0  0  0
   -1.1133   20.3240  -22.1443 O   0  0  0  0  0  0  0  0  0  0  0  0
   -0.5396   22.4380  -20.6742 N   0  0  0  0  0  0  0  0  0  0  0  0
   -0.7928   23.4244  -20.4550 H   0  0  0  0  0  0  0  0  0  0  0  0
    0.2295   21.6533  -19.7158 C   0  0  0  0  0  0  0  0  0  0  0  0
    1.5543   21.3574  -19.9446 C   0  0  0  0  0  0  0  0  0  0  0  0
    1.9481   20.4501  -18.5539 S   0  0  0  0  0  0  0  0  0  0  0  0
    0.4306   20.4985  -17.7749 C   0  0  0  0  0  0  0  0  0  0  0  0
   -0.2965   21.2064  -18.6204 N   0  0  0  0  0  0  0  0  0  0  0  0
   -7.3255   24.3299  -23.2824 C   0  0  0  0  0  0  0  0  0  0  0  0
   -6.1587   24.2927  -24.1432 N   0  0  0  0  0  0  0  0  0  0  0  0
   -6.2660   24.8383  -25.4562 C   0  0  0  0  0  0  0  0  0  0  0  0
   -4.9370   25.2491  -26.0563 C   0  0  0  0  0  0  0  0  0  0  0  0
   -5.3178   25.3456  -27.5298 C   0  0  0  0  0  0  0  0  0  0  0  0
   -6.2234   24.2634  -27.7489 N   0  0  0  0  0  0  0  0  0  0  0  0
   -6.7133   23.7940  -26.4891 C   0  0  0  0  0  0  0  0  0  0  0  0
   -5.5981   23.2645  -28.5626 C   0  0  0  0  0  0  0  0  0  0  0  0
   -4.1730   23.1413  -28.1708 C   0  0  0  0  0  0  0  0  0  0  0  0
   -3.8360   22.4593  -26.9970 C   0  0  0  0  0  0  0  0  0  0  0  0
   -2.5315   22.3052  -26.5815 C   0  0  0  0  0  0  0  0  0  0  0  0
   -1.5054   22.8318  -27.3309 C   0  0  0  0  0  0  0  0  0  0  0  0
    0.1427   22.6233  -26.7832 Cl  0  0  0  0  0  0  0  0  0  0  0  0
   -1.7949   23.5065  -28.4868 C   0  0  0  0  0  0  0  0  0  0  0  0
   -3.1189   23.6507  -28.8881 C   0  0  0  0  0  0  0  0  0  0  0  0
 19 20  1  0  0  0
 20  1  1  0  0  0
  1  2  2  0  0  0
  2  3  1  0  0  0
  3  4  1  0  0  0
  3  5  2  0  0  0
  5  9  1  0  0  0
  9 10  2  0  0  0
  9 11  2  0  0  0
  9 12  1  0  0  0
 12 14  1  0  0  0
 14 15  2  0  0  0
 15 16  1  0  0  0
 16 17  1  0  0  0
 17 18  2  0  0  0
  5  6  1  0  0  0
  6  7  2  0  0  0
  7  8  1  0  0  0
 20 21  1  0  0  0
 21 22  1  0  0  0
 22 23  1  0  0  0
 23 24  1  0  0  0
 24 26  1  0  0  0
 26 27  1  0  0  0
 27 28  2  0  0  0
 28 29  1  0  0  0
 29 30  2  0  0  0
 30 31  1  0  0  0
 30 32  1  0  0  0
 32 33  2  0  0  0
 24 25  1  0  0  0
  7  1  1  0  0  0
 25 21  1  0  0  0
 18 14  1  0  0  0
 33 27  1  0  0  0
 12 13  1  0  0  0
M  END
> <minimizedAffinity>
-7.66401

> <CNNscore>
0.1603017598

> <CNNaffinity>
6.9074654579

> <CNN_VS>
1.1072788239

> <CNNaffinity_variance>
0.2469690293

$$$$
[H]c1nc(N([H])S(=O)(=O)c2c([H])c(Cl)c(N(C([H])([H])[H])[C@]3([H])C([H])([H])N(C([H])([H])c4c([H])c([H])c(Cl)c([H])c4[H])C([H])([H])C3([H])[H])c([H])c2F)c([H])s1


 33 36  0  0  0  0  0  0  0  0999 V2000
   -5.3388   23.8159  -24.2426 C   0  0  0  0  0  0  0  0  0  0  0  0
   -5.4866   22.6706  -23.4899 C   0  0  0  0  0  0  0  0  0  0  0  0
   -4.6422   22.3806  -22.4424 C   0  0  0  0  0  0  0  0  0  0  0  0
   -4.7998   21.2410  -21.7038 F   0  0  0  0  0  0  0  0  0  0  0  0
   -3.5915   23.2315  -22.0871 C   0  0  0  0  0  0  0  0  0  0  0  0
   -3.4522   24.3727  -22.8439 C   0  0  0  0  0  0  0  0  0  0  0  0
   -4.3023   24.6555  -23.8918 C   0  0  0  0  0  0  0  0  0  0  0  0
   -4.0882   26.1347  -24.8414 Cl  0  0  0  0  0  0  0  0  0  0  0  0
   -2.5617   22.8295  -20.7305 S   0  0  0  0  0  0  0  0  0  0  0  0
   -3.4139   23.0120  -19.4879 O   0  0  0  0  0  0  0  0  0  0  0  0
   -1.4110   23.7699  -20.6096 O   0  0  0  0  0  0  0  0  0  0  0  0
   -2.0284   21.2082  -20.7359 N   0  0  0  0  0  0  0  0  0  0  0  0
   -2.7284   20.4776  -20.9834 H   0  0  0  0  0  0  0  0  0  0  0  0
   -0.6593   20.8254  -20.4124 C   0  0  0  0  0  0  0  0  0  0  0  0
   -0.3421   20.3084  -19.1767 C   0  0  0  0  0  0  0  0  0  0  0  0
    1.3363   20.0441  -19.3360 S   0  0  0  0  0  0  0  0  0  0  0  0
    1.5345   20.5972  -20.9381 C   0  0  0  0  0  0  0  0  0  0  0  0
    0.3059   20.9545  -21.2658 N   0  0  0  0  0  0  0  0  0  0  0  0
   -7.2983   25.0563  -25.1248 C   0  0  0  0  0  0  0  0  0  0  0  0
   -6.1897   24.1430  -25.3261 N   0  0  0  0  0  0  0  0  0  0  0  0
   -5.9888   23.5954  -26.6273 C   0  0  0  0  0  0  0  0  0  0  0  0
   -5.9560   24.6356  -27.7282 C   0  0  0  0  0  0  0  0  0  0  0  0
   -5.3040   23.8317  -28.8479 C   0  0  0  0  0  0  0  0  0  0  0  0
   -4.3170   23.0286  -28.1996 N   0  0  0  0  0  0  0  0  0  0  0  0
   -4.5901   22.9850  -26.7957 C   0  0  0  0  0  0  0  0  0  0  0  0
   -3.0080   23.4958  -28.5448 C   0  0  0  0  0  0  0  0  0  0  0  0
   -2.0356   23.0028  -27.5393 C   0  0  0  0  0  0  0  0  0  0  0  0
   -0.6727   22.9748  -27.8525 C   0  0  0  0  0  0  0  0  0  0  0  0
    0.2806   22.5341  -26.9608 C   0  0  0  0  0  0  0  0  0  0  0  0
   -0.0962   22.1010  -25.7110 C   0  0  0  0  0  0  0  0  0  0  0  0
    1.1321   21.5460  -24.5960 Cl  0  0  0  0  0  0  0  0  0  0  0  0
   -1.4216   22.1132  -25.3667 C   0  0  0  0  0  0  0  0  0  0  0  0
   -2.3678   22.5621  -26.2821 C   0  0  0  0  0  0  0  0  0  0  0  0
 19 20  1  0  0  0
 20  1  1  0  0  0
  1  2  2  0  0  0
  2  3  1  0  0  0
  3  4  1  0  0  0
  3  5  2  0  0  0
  5  9  1  0  0  0
  9 10  2  0  0  0
  9 11  2  0  0  0
  9 12  1  0  0  0
 12 14  1  0  0  0
 14 15  2  0  0  0
 15 16  1  0  0  0
 16 17  1  0  0  0
 17 18  2  0  0  0
  5  6  1  0  0  0
  6  7  2  0  0  0
  7  8  1  0  0  0
 20 21  1  0  0  0
 21 22  1  0  0  0
 22 23  1  0  0  0
 23 24  1  0  0  0
 24 26  1  0  0  0
 26 27  1  0  0  0
 27 28  2  0  0  0
 28 29  1  0  0  0
 29 30  2  0  0  0
 30 31  1  0  0  0
 30 32  1  0  0  0
 32 33  2  0  0  0
 24 25  1  0  0  0
  7  1  1  0  0  0
 25 21  1  0  0  0
 18 14  1  0  0  0
 33 27  1  0  0  0
 12 13  1  0  0  0
M  END
> <minimizedAffinity>
-8.78383

> <CNNscore>
0.1387458891

> <CNNaffinity>
6.7111215591

> <CNN_VS>
0.9311405420

> <CNNaffinity_variance>
0.5315192938

$$$$
[H]c1nc(N([H])S(=O)(=O)c2c([H])c(Cl)c(N(C([H])([H])[H])[C@]3([H])C([H])([H])N(C([H])([H])c4c([H])c([H])c(Cl)c([H])c4[H])C([H])([H])C3([H])[H])c([H])c2F)c([H])s1


 33 36  0  0  0  0  0  0  0  0999 V2000
   -1.6973   21.6383  -23.3345 C   0  0  0  0  0  0  0  0  0  0  0  0
   -1.3452   21.0863  -22.1215 C   0  0  0  0  0  0  0  0  0  0  0  0
   -0.0401   20.7640  -21.8260 C   0  0  0  0  0  0  0  0  0  0  0  0
    0.2956   20.2169  -20.6189 F   0  0  0  0  0  0  0  0  0  0  0  0
    0.9958   20.9794  -22.7396 C   0  0  0  0  0  0  0  0  0  0  0  0
    0.6348   21.5313  -23.9477 C   0  0  0  0  0  0  0  0  0  0  0  0
   -0.6751   21.8510  -24.2357 C   0  0  0  0  0  0  0  0  0  0  0  0
   -1.0979   22.5591  -25.8026 Cl  0  0  0  0  0  0  0  0  0  0  0  0
    2.6423   20.5757  -22.3054 S   0  0  0  0  0  0  0  0  0  0  0  0
    3.0680   21.6031  -21.2724 O   0  0  0  0  0  0  0  0  0  0  0  0
    3.5713   20.7138  -23.4633 O   0  0  0  0  0  0  0  0  0  0  0  0
    2.7985   19.0406  -21.5758 N   0  0  0  0  0  0  0  0  0  0  0  0
    2.0774   18.7714  -20.8740 H   0  0  0  0  0  0  0  0  0  0  0  0
    3.8824   18.1197  -21.8964 C   0  0  0  0  0  0  0  0  0  0  0  0
    3.6714   17.0381  -22.7214 C   0  0  0  0  0  0  0  0  0  0  0  0
    5.2213   16.3249  -22.7550 S   0  0  0  0  0  0  0  0  0  0  0  0
    6.0347   17.4249  -21.7349 C   0  0  0  0  0  0  0  0  0  0  0  0
    5.0769   18.2793  -21.4231 N   0  0  0  0  0  0  0  0  0  0  0  0
   -3.7166   21.2639  -24.7269 C   0  0  0  0  0  0  0  0  0  0  0  0
   -3.0298   21.9806  -23.6694 N   0  0  0  0  0  0  0  0  0  0  0  0
   -3.7282   23.0221  -22.9906 C   0  0  0  0  0  0  0  0  0  0  0  0
   -3.0178   24.3596  -23.0310 C   0  0  0  0  0  0  0  0  0  0  0  0
   -4.1635   25.2920  -22.6525 C   0  0  0  0  0  0  0  0  0  0  0  0
   -5.3125   24.7486  -23.3035 N   0  0  0  0  0  0  0  0  0  0  0  0
   -5.0427   23.3974  -23.6895 C   0  0  0  0  0  0  0  0  0  0  0  0
   -5.7180   25.6112  -24.3724 C   0  0  0  0  0  0  0  0  0  0  0  0
   -5.4890   24.9226  -25.6657 C   0  0  0  0  0  0  0  0  0  0  0  0
   -6.5220   24.1773  -26.2437 C   0  0  0  0  0  0  0  0  0  0  0  0
   -6.3747   23.5197  -27.4453 C   0  0  0  0  0  0  0  0  0  0  0  0
   -5.1782   23.5831  -28.1206 C   0  0  0  0  0  0  0  0  0  0  0  0
   -5.0149   22.7399  -29.6445 Cl  0  0  0  0  0  0  0  0  0  0  0  0
   -4.1425   24.3029  -27.5871 C   0  0  0  0  0  0  0  0  0  0  0  0
   -4.3125   24.9594  -26.3726 C   0  0  0  0  0  0  0  0  0  0  0  0
 19 20  1  0  0  0
 20  1  1  0  0  0
  1  2  2  0  0  0
  2  3  1  0  0  0
  3  4  1  0  0  0
  3  5  2  0  0  0
  5  9  1  0  0  0
  9 10  2  0  0  0
  9 11  2  0  0  0
  9 12  1  0  0  0
 12 14  1  0  0  0
 14 15  2  0  0  0
 15 16  1  0  0  0
 16 17  1  0  0  0
 17 18  2  0  0  0
  5  6  1  0  0  0
  6  7  2  0  0  0
  7  8  1  0  0  0
 20 21  1  0  0  0
 21 22  1  0  0  0
 22 23  1  0  0  0
 23 24  1  0  0  0
 24 26  1  0  0  0
 26 27  1  0  0  0
 27 28  2  0  0  0
 28 29  1  0  0  0
 29 30  2  0  0  0
 30 31  1  0  0  0
 30 32  1  0  0  0
 32 33  2  0  0  0
 24 25  1  0  0  0
  7  1  1  0  0  0
 25 21  1  0  0  0
 18 14  1  0  0  0
 33 27  1  0  0  0
 12 13  1  0  0  0
M  END
> <minimizedAffinity>
-7.66685

> <CNNscore>
0.1294903159

> <CNNaffinity>
6.5928153992

> <CNN_VS>
0.8537057638

> <CNNaffinity_variance>
0.2128427476

$$$$
[H]c1nc(N([H])S(=O)(=O)c2c([H])c(Cl)c(N(C([H])([H])[H])[C@]3([H])C([H])([H])N(C([H])([H])c4c([H])c([H])c(Cl)c([H])c4[H])C([H])([H])C3([H])[H])c([H])c2F)c([H])s1


 33 36  0  0  0  0  0  0  0  0999 V2000
   -7.0217   23.3650  -22.6714 C   0  0  0  0  0  0  0  0  0  0  0  0
   -6.2669   22.5279  -23.4648 C   0  0  0  0  0  0  0  0  0  0  0  0
   -5.9965   22.8288  -24.7804 C   0  0  0  0  0  0  0  0  0  0  0  0
   -5.2465   21.9897  -25.5564 F   0  0  0  0  0  0  0  0  0  0  0  0
   -6.4727   23.9982  -25.3804 C   0  0  0  0  0  0  0  0  0  0  0  0
   -7.2248   24.8281  -24.5804 C   0  0  0  0  0  0  0  0  0  0  0  0
   -7.4913   24.5189  -23.2634 C   0  0  0  0  0  0  0  0  0  0  0  0
   -8.4640   25.6136  -22.2681 Cl  0  0  0  0  0  0  0  0  0  0  0  0
   -6.0793   24.3470  -27.0496 S   0  0  0  0  0  0  0  0  0  0  0  0
   -6.9254   25.5455  -27.4387 O   0  0  0  0  0  0  0  0  0  0  0  0
   -6.4673   23.2289  -27.9564 O   0  0  0  0  0  0  0  0  0  0  0  0
   -4.4482   24.7895  -27.2877 N   0  0  0  0  0  0  0  0  0  0  0  0
   -4.2577   25.7761  -27.5622 H   0  0  0  0  0  0  0  0  0  0  0  0
   -3.3430   23.8529  -27.1235 C   0  0  0  0  0  0  0  0  0  0  0  0
   -2.8497   23.1451  -28.1962 C   0  0  0  0  0  0  0  0  0  0  0  0
   -1.6084   22.2319  -27.4630 S   0  0  0  0  0  0  0  0  0  0  0  0
   -1.7855   22.7934  -25.8613 C   0  0  0  0  0  0  0  0  0  0  0  0
   -2.7849   23.6498  -25.9730 N   0  0  0  0  0  0  0  0  0  0  0  0
   -8.3987   22.1754  -20.9846 C   0  0  0  0  0  0  0  0  0  0  0  0
   -7.3180   23.0843  -21.3155 N   0  0  0  0  0  0  0  0  0  0  0  0
   -6.5773   23.6751  -20.2498 C   0  0  0  0  0  0  0  0  0  0  0  0
   -7.1341   23.3654  -18.8753 C   0  0  0  0  0  0  0  0  0  0  0  0
   -5.9348   23.7243  -18.0046 C   0  0  0  0  0  0  0  0  0  0  0  0
   -4.7957   23.2851  -18.7457 N   0  0  0  0  0  0  0  0  0  0  0  0
   -5.1719   23.0729  -20.1099 C   0  0  0  0  0  0  0  0  0  0  0  0
   -4.2044   22.1516  -18.1002 C   0  0  0  0  0  0  0  0  0  0  0  0
   -2.7887   22.0340  -18.5261 C   0  0  0  0  0  0  0  0  0  0  0  0
   -2.3366   20.8405  -19.0986 C   0  0  0  0  0  0  0  0  0  0  0  0
   -1.0361   20.6703  -19.5200 C   0  0  0  0  0  0  0  0  0  0  0  0
   -0.1302   21.6963  -19.3839 C   0  0  0  0  0  0  0  0  0  0  0  0
    1.5154   21.4566  -19.9263 Cl  0  0  0  0  0  0  0  0  0  0  0  0
   -0.5346   22.8806  -18.8280 C   0  0  0  0  0  0  0  0  0  0  0  0
   -1.8524   23.0315  -18.4091 C   0  0  0  0  0  0  0  0  0  0  0  0
 19 20  1  0  0  0
 20  1  1  0  0  0
  1  2  2  0  0  0
  2  3  1  0  0  0
  3  4  1  0  0  0
  3  5  2  0  0  0
  5  9  1  0  0  0
  9 10  2  0  0  0
  9 11  2  0  0  0
  9 12  1  0  0  0
 12 14  1  0  0  0
 14 15  2  0  0  0
 15 16  1  0  0  0
 16 17  1  0  0  0
 17 18  2  0  0  0
  5  6  1  0  0  0
  6  7  2  0  0  0
  7  8  1  0  0  0
 20 21  1  0  0  0
 21 22  1  0  0  0
 22 23  1  0  0  0
 23 24  1  0  0  0
 24 26  1  0  0  0
 26 27  1  0  0  0
 27 28  2  0  0  0
 28 29  1  0  0  0
 29 30  2  0  0  0
 30 31  1  0  0  0
 30 32  1  0  0  0
 32 33  2  0  0  0
 24 25  1  0  0  0
  7  1  1  0  0  0
 25 21  1  0  0  0
 18 14  1  0  0  0
 33 27  1  0  0  0
 12 13  1  0  0  0
M  END
> <minimizedAffinity>
-6.93737

> <CNNscore>
0.0817225948

> <CNNaffinity>
6.1792764664

> <CNN_VS>
0.5049865246

> <CNNaffinity_variance>
0.3028971553

$$$$
[H]c1nc(N([H])S(=O)(=O)c2c([H])c(Cl)c(N(C([H])([H])[H])[C@]3([H])C([H])([H])N(C([H])([H])c4c([H])c([H])c(Cl)c([H])c4[H])C([H])([H])C3([H])[H])c([H])c2F)c([H])s1


 33 36  0  0  0  0  0  0  0  0999 V2000
   -2.9746   22.1574  -23.3266 C   0  0  0  0  0  0  0  0  0  0  0  0
   -4.0744   21.5321  -23.8737 C   0  0  0  0  0  0  0  0  0  0  0  0
   -5.3375   21.7077  -23.3557 C   0  0  0  0  0  0  0  0  0  0  0  0
   -6.4199   21.0814  -23.9081 F   0  0  0  0  0  0  0  0  0  0  0  0
   -5.5710   22.5287  -22.2487 C   0  0  0  0  0  0  0  0  0  0  0  0
   -4.4671   23.1492  -21.7095 C   0  0  0  0  0  0  0  0  0  0  0  0
   -3.2052   22.9677  -22.2344 C   0  0  0  0  0  0  0  0  0  0  0  0
   -1.8106   23.7841  -21.5105 Cl  0  0  0  0  0  0  0  0  0  0  0  0
   -7.1998   22.7387  -21.6441 S   0  0  0  0  0  0  0  0  0  0  0  0
   -7.0571   23.2408  -20.2189 O   0  0  0  0  0  0  0  0  0  0  0  0
   -7.9378   21.4449  -21.5767 O   0  0  0  0  0  0  0  0  0  0  0  0
   -8.0985   23.9114  -22.4986 N   0  0  0  0  0  0  0  0  0  0  0  0
   -9.0910   24.0507  -22.2145 H   0  0  0  0  0  0  0  0  0  0  0  0
   -7.5340   24.7025  -23.5854 C   0  0  0  0  0  0  0  0  0  0  0  0
   -7.5491   24.2378  -24.8810 C   0  0  0  0  0  0  0  0  0  0  0  0
   -6.7873   25.5179  -25.7135 S   0  0  0  0  0  0  0  0  0  0  0  0
   -6.4983   26.5530  -24.3880 C   0  0  0  0  0  0  0  0  0  0  0  0
   -7.0002   25.8640  -23.3791 N   0  0  0  0  0  0  0  0  0  0  0  0
   -0.7165   21.1463  -23.1400 C   0  0  0  0  0  0  0  0  0  0  0  0
   -1.6629   21.9975  -23.8352 N   0  0  0  0  0  0  0  0  0  0  0  0
   -1.2364   22.6560  -25.0259 C   0  0  0  0  0  0  0  0  0  0  0  0
   -0.4328   21.7717  -25.9573 C   0  0  0  0  0  0  0  0  0  0  0  0
   -0.5266   22.5752  -27.2499 C   0  0  0  0  0  0  0  0  0  0  0  0
   -1.8556   23.0979  -27.2643 N   0  0  0  0  0  0  0  0  0  0  0  0
   -2.4102   23.0165  -25.9477 C   0  0  0  0  0  0  0  0  0  0  0  0
   -2.6226   22.4456  -28.2827 C   0  0  0  0  0  0  0  0  0  0  0  0
   -3.4565   23.4528  -28.9826 C   0  0  0  0  0  0  0  0  0  0  0  0
   -2.8957   24.6817  -29.3455 C   0  0  0  0  0  0  0  0  0  0  0  0
   -3.6151   25.6560  -30.0023 C   0  0  0  0  0  0  0  0  0  0  0  0
   -4.9342   25.4363  -30.3239 C   0  0  0  0  0  0  0  0  0  0  0  0
   -5.8271   26.6882  -31.1578 Cl  0  0  0  0  0  0  0  0  0  0  0  0
   -5.5192   24.2453  -29.9854 C   0  0  0  0  0  0  0  0  0  0  0  0
   -4.7748   23.2751  -29.3225 C   0  0  0  0  0  0  0  0  0  0  0  0
 19 20  1  0  0  0
 20  1  1  0  0  0
  1  2  2  0  0  0
  2  3  1  0  0  0
  3  4  1  0  0  0
  3  5  2  0  0  0
  5  9  1  0  0  0
  9 10  2  0  0  0
  9 11  2  0  0  0
  9 12  1  0  0  0
 12 14  1  0  0  0
 14 15  2  0  0  0
 15 16  1  0  0  0
 16 17  1  0  0  0
 17 18  2  0  0  0
  5  6  1  0  0  0
  6  7  2  0  0  0
  7  8  1  0  0  0
 20 21  1  0  0  0
 21 22  1  0  0  0
 22 23  1  0  0  0
 23 24  1  0  0  0
 24 26  1  0  0  0
 26 27  1  0  0  0
 27 28  2  0  0  0
 28 29  1  0  0  0
 29 30  2  0  0  0
 30 31  1  0  0  0
 30 32  1  0  0  0
 32 33  2  0  0  0
 24 25  1  0  0  0
  7  1  1  0  0  0
 25 21  1  0  0  0
 18 14  1  0  0  0
 33 27  1  0  0  0
 12 13  1  0  0  0
M  END
> <minimizedAffinity>
-8.31067

> <CNNscore>
0.0806563646

> <CNNaffinity>
6.7141008377

> <CNN_VS>
0.5415349603

> <CNNaffinity_variance>
0.6278454661

$$$$
[H]c1nc(N([H])S(=O)(=O)c2c([H])c(Cl)c(N(C([H])([H])[H])[C@]3([H])C([H])([H])N(C([H])([H])c4c([H])c([H])c(Cl)c([H])c4[H])C([H])([H])C3([H])[H])c([H])c2F)c([H])s1


 33 36  0  0  0  0  0  0  0  0999 V2000
   -7.5168   23.9691  -21.5771 C   0  0  0  0  0  0  0  0  0  0  0  0
   -7.1051   22.9362  -22.3917 C   0  0  0  0  0  0  0  0  0  0  0  0
   -6.7464   23.1495  -23.7033 C   0  0  0  0  0  0  0  0  0  0  0  0
   -6.3398   22.1160  -24.5006 F   0  0  0  0  0  0  0  0  0  0  0  0
   -6.7807   24.4235  -24.2775 C   0  0  0  0  0  0  0  0  0  0  0  0
   -7.1925   25.4486  -23.4565 C   0  0  0  0  0  0  0  0  0  0  0  0
   -7.5503   25.2262  -22.1437 C   0  0  0  0  0  0  0  0  0  0  0  0
   -8.0754   26.5727  -21.1207 Cl  0  0  0  0  0  0  0  0  0  0  0  0
   -6.2901   24.6454  -25.9427 S   0  0  0  0  0  0  0  0  0  0  0  0
   -5.1474   25.6440  -25.9142 O   0  0  0  0  0  0  0  0  0  0  0  0
   -7.3760   25.2517  -26.7650 O   0  0  0  0  0  0  0  0  0  0  0  0
   -5.6917   23.2234  -26.6727 N   0  0  0  0  0  0  0  0  0  0  0  0
   -6.3755   22.4600  -26.8594 H   0  0  0  0  0  0  0  0  0  0  0  0
   -4.2896   23.0494  -27.0325 C   0  0  0  0  0  0  0  0  0  0  0  0
   -3.3805   22.5609  -26.1217 C   0  0  0  0  0  0  0  0  0  0  0  0
   -1.9415   22.5621  -27.0389 S   0  0  0  0  0  0  0  0  0  0  0  0
   -2.5685   23.1737  -28.5034 C   0  0  0  0  0  0  0  0  0  0  0  0
   -3.8456   23.3442  -28.2125 N   0  0  0  0  0  0  0  0  0  0  0  0
   -9.2613   23.4342  -19.8958 C   0  0  0  0  0  0  0  0  0  0  0  0
   -7.8925   23.7832  -20.2246 N   0  0  0  0  0  0  0  0  0  0  0  0
   -6.9550   23.9301  -19.1604 C   0  0  0  0  0  0  0  0  0  0  0  0
   -7.1147   22.9006  -18.0605 C   0  0  0  0  0  0  0  0  0  0  0  0
   -5.7662   23.0328  -17.3610 C   0  0  0  0  0  0  0  0  0  0  0  0
   -4.8224   23.2352  -18.4135 N   0  0  0  0  0  0  0  0  0  0  0  0
   -5.5161   23.6270  -19.6021 C   0  0  0  0  0  0  0  0  0  0  0  0
   -3.9952   22.0745  -18.5533 C   0  0  0  0  0  0  0  0  0  0  0  0
   -3.2212   22.1789  -19.8141 C   0  0  0  0  0  0  0  0  0  0  0  0
   -1.9509   22.7641  -19.7982 C   0  0  0  0  0  0  0  0  0  0  0  0
   -1.1798   22.8853  -20.9334 C   0  0  0  0  0  0  0  0  0  0  0  0
   -1.6540   22.4215  -22.1383 C   0  0  0  0  0  0  0  0  0  0  0  0
   -0.6569   22.5865  -23.5661 Cl  0  0  0  0  0  0  0  0  0  0  0  0
   -2.8935   21.8421  -22.1948 C   0  0  0  0  0  0  0  0  0  0  0  0
   -3.6556   21.7297  -21.0367 C   0  0  0  0  0  0  0  0  0  0  0  0
 19 20  1  0  0  0
 20  1  1  0  0  0
  1  2  2  0  0  0
  2  3  1  0  0  0
  3  4  1  0  0  0
  3  5  2  0  0  0
  5  9  1  0  0  0
  9 10  2  0  0  0
  9 11  2  0  0  0
  9 12  1  0  0  0
 12 14  1  0  0  0
 14 15  2  0  0  0
 15 16  1  0  0  0
 16 17  1  0  0  0
 17 18  2  0  0  0
  5  6  1  0  0  0
  6  7  2  0  0  0
  7  8  1  0  0  0
 20 21  1  0  0  0
 21 22  1  0  0  0
 22 23  1  0  0  0
 23 24  1  0  0  0
 24 26  1  0  0  0
 26 27  1  0  0  0
 27 28  2  0  0  0
 28 29  1  0  0  0
 29 30  2  0  0  0
 30 31  1  0  0  0
 30 32  1  0  0  0
 32 33  2  0  0  0
 24 25  1  0  0  0
  7  1  1  0  0  0
 25 21  1  0  0  0
 18 14  1  0  0  0
 33 27  1  0  0  0
 12 13  1  0  0  0
M  END
> <minimizedAffinity>
-6.89714

> <CNNscore>
0.0601636507

> <CNNaffinity>
6.2805027962

> <CNN_VS>
0.3778579831

> <CNNaffinity_variance>
0.3430039585

$$$$
[H]OC1([H])C([H])([H])OC([H])([H])C([H])([H])C1(c1c([H])c([H])c(C(F)(F)F)c([H])c1F)N([H])C(=O)c1c([H])nn2c([H])c(C([H])([H])[H])c([H])nc12


 33 36  0  0  0  0  0  0  0  0999 V2000
   -4.5793   24.3030  -28.6976 C   0  0  0  0  0  0  0  0  0  0  0  0
   -4.8104   23.2062  -29.5648 C   0  0  0  0  0  0  0  0  0  0  0  0
   -5.7281   23.3798  -30.7656 C   0  0  0  0  0  0  0  0  0  0  0  0
   -6.2588   24.5945  -31.0000 O   0  0  0  0  0  0  0  0  0  0  0  0
   -5.5078   25.6523  -30.6555 C   0  0  0  0  0  0  0  0  0  0  0  0
   -4.5877   25.6125  -29.5266 C   0  0  0  0  0  0  0  0  0  0  0  0
   -3.2929   25.8944  -30.0076 O   0  0  0  0  0  0  0  0  0  0  0  0
   -3.0595   26.8229  -29.8917 H   0  0  0  0  0  0  0  0  0  0  0  0
   -5.3198   24.6292  -27.4906 C   0  0  0  0  0  0  0  0  0  0  0  0
   -6.3952   23.7769  -27.1845 C   0  0  0  0  0  0  0  0  0  0  0  0
   -7.1064   23.8651  -26.0101 C   0  0  0  0  0  0  0  0  0  0  0  0
   -6.8176   24.7886  -25.0607 C   0  0  0  0  0  0  0  0  0  0  0  0
   -5.7546   25.6534  -25.3276 C   0  0  0  0  0  0  0  0  0  0  0  0
   -5.0598   25.5356  -26.5185 C   0  0  0  0  0  0  0  0  0  0  0  0
   -4.0828   26.4221  -26.7190 F   0  0  0  0  0  0  0  0  0  0  0  0
   -7.5548   24.8605  -23.7781 C   0  0  0  0  0  0  0  0  0  0  0  0
   -7.1288   25.9633  -23.0283 F   0  0  0  0  0  0  0  0  0  0  0  0
   -8.8997   24.9439  -24.0534 F   0  0  0  0  0  0  0  0  0  0  0  0
   -7.4329   23.7006  -23.0165 F   0  0  0  0  0  0  0  0  0  0  0  0
   -2.7174   23.0105  -27.7245 C   0  0  0  0  0  0  0  0  0  0  0  0
   -3.4959   22.0138  -27.7489 O   0  0  0  0  0  0  0  0  0  0  0  0
   -3.1588   24.2916  -28.2179 N   0  0  0  0  0  0  0  0  0  0  0  0
   -2.5309   25.0764  -28.2021 H   0  0  0  0  0  0  0  0  0  0  0  0
    0.4222   21.1743  -22.0965 C   0  0  0  0  0  0  0  0  0  0  0  0
   -0.1384   21.5775  -23.4351 C   0  0  0  0  0  0  0  0  0  0  0  0
   -1.4948   21.6603  -23.6596 C   0  0  0  0  0  0  0  0  0  0  0  0
   -1.9760   22.0266  -24.8626 N   0  0  0  0  0  0  0  0  0  0  0  0
   -1.1380   22.3180  -25.8614 C   0  0  0  0  0  0  0  0  0  0  0  0
   -1.4150   22.7451  -27.1700 C   0  0  0  0  0  0  0  0  0  0  0  0
   -0.1823   22.9025  -27.7280 C   0  0  0  0  0  0  0  0  0  0  0  0
    0.7581   22.5930  -26.8097 N   0  0  0  0  0  0  0  0  0  0  0  0
    0.1721   22.2423  -25.6730 N   0  0  0  0  0  0  0  0  0  0  0  0
    0.7221   21.8791  -24.4870 C   0  0  0  0  0  0  0  0  0  0  0  0
 24 25  1  0  0  0
 25 26  1  0  0  0
 26 27  2  0  0  0
 27 28  1  0  0  0
 28 29  2  0  0  0
 29 20  1  0  0  0
 20 21  2  0  0  0
 20 22  1  0  0  0
 22  1  1  0  0  0
  1  9  1  0  0  0
  9 10  2  0  0  0
 10 11  1  0  0  0
 11 12  2  0  0  0
 12 16  1  0  0  0
 16 17  1  0  0  0
 16 18  1  0  0  0
 16 19  1  0  0  0
 12 13  1  0  0  0
 13 14  2  0  0  0
 14 15  1  0  0  0
  1  2  1  0  0  0
  2  3  1  0  0  0
  3  4  1  0  0  0
  4  5  1  0  0  0
  5  6  1  0  0  0
  6  7  1  0  0  0
 29 30  1  0  0  0
 30 31  2  0  0  0
 31 32  1  0  0  0
 32 33  1  0  0  0
 33 25  2  0  0  0
 32 28  1  0  0  0
  6  1  1  0  0  0
 14  9  1  0  0  0
 22 23  1  0  0  0
  7  8  1  0  0  0
M  END
> <minimizedAffinity>
-9.90985

> <CNNscore>
0.3903809190

> <CNNaffinity>
6.9945359230

> <CNN_VS>
2.7305333614

> <CNNaffinity_variance>
0.1200584173

$$$$
[H]OC1([H])C([H])([H])OC([H])([H])C([H])([H])C1(c1c([H])c([H])c(C(F)(F)F)c([H])c1F)N([H])C(=O)c1c([H])nn2c([H])c(C([H])([H])[H])c([H])nc12


 33 36  0  0  0  0  0  0  0  0999 V2000
   -5.0642   23.8590  -25.4360 C   0  0  0  0  0  0  0  0  0  0  0  0
   -5.2353   23.3892  -26.7620 C   0  0  0  0  0  0  0  0  0  0  0  0
   -6.2201   24.0907  -27.6852 C   0  0  0  0  0  0  0  0  0  0  0  0
   -6.8689   25.1778  -27.2277 O   0  0  0  0  0  0  0  0  0  0  0  0
   -6.2014   25.9507  -26.3566 C   0  0  0  0  0  0  0  0  0  0  0  0
   -5.2298   25.4000  -25.4211 C   0  0  0  0  0  0  0  0  0  0  0  0
   -3.9897   26.0268  -25.6592 O   0  0  0  0  0  0  0  0  0  0  0  0
   -3.8361   26.7629  -25.0553 H   0  0  0  0  0  0  0  0  0  0  0  0
   -5.7739   23.4033  -24.2527 C   0  0  0  0  0  0  0  0  0  0  0  0
   -6.3748   24.4090  -23.4755 C   0  0  0  0  0  0  0  0  0  0  0  0
   -7.1962   24.1352  -22.4064 C   0  0  0  0  0  0  0  0  0  0  0  0
   -7.4833   22.8665  -22.0249 C   0  0  0  0  0  0  0  0  0  0  0  0
   -6.9057   21.8390  -22.7733 C   0  0  0  0  0  0  0  0  0  0  0  0
   -6.0856   22.1505  -23.8435 C   0  0  0  0  0  0  0  0  0  0  0  0
   -5.5395   21.1162  -24.4858 F   0  0  0  0  0  0  0  0  0  0  0  0
   -8.3989   22.5676  -20.8997 C   0  0  0  0  0  0  0  0  0  0  0  0
   -9.5909   23.2898  -21.0319 F   0  0  0  0  0  0  0  0  0  0  0  0
   -8.6437   21.2143  -20.8858 F   0  0  0  0  0  0  0  0  0  0  0  0
   -7.8304   22.8253  -19.6545 F   0  0  0  0  0  0  0  0  0  0  0  0
   -2.8987   22.7190  -25.7451 C   0  0  0  0  0  0  0  0  0  0  0  0
   -3.4675   22.0472  -26.6536 O   0  0  0  0  0  0  0  0  0  0  0  0
   -3.6276   23.7340  -25.0252 N   0  0  0  0  0  0  0  0  0  0  0  0
   -3.1655   24.2686  -24.3103 H   0  0  0  0  0  0  0  0  0  0  0  0
    1.3668   20.6717  -21.0000 C   0  0  0  0  0  0  0  0  0  0  0  0
    0.5308   21.1137  -22.1723 C   0  0  0  0  0  0  0  0  0  0  0  0
   -0.8327   21.2803  -22.0705 C   0  0  0  0  0  0  0  0  0  0  0  0
   -1.5618   21.6802  -23.1294 N   0  0  0  0  0  0  0  0  0  0  0  0
   -0.9680   21.9236  -24.3011 C   0  0  0  0  0  0  0  0  0  0  0  0
   -1.5206   22.3721  -25.5116 C   0  0  0  0  0  0  0  0  0  0  0  0
   -0.4478   22.4559  -26.3469 C   0  0  0  0  0  0  0  0  0  0  0  0
    0.6627   22.0857  -25.6738 N   0  0  0  0  0  0  0  0  0  0  0  0
    0.3424   21.7671  -24.4270 N   0  0  0  0  0  0  0  0  0  0  0  0
    1.1344   21.3662  -23.4009 C   0  0  0  0  0  0  0  0  0  0  0  0
 24 25  1  0  0  0
 25 26  1  0  0  0
 26 27  2  0  0  0
 27 28  1  0  0  0
 28 29  2  0  0  0
 29 20  1  0  0  0
 20 21  2  0  0  0
 20 22  1  0  0  0
 22  1  1  0  0  0
  1  9  1  0  0  0
  9 10  2  0  0  0
 10 11  1  0  0  0
 11 12  2  0  0  0
 12 16  1  0  0  0
 16 17  1  0  0  0
 16 18  1  0  0  0
 16 19  1  0  0  0
 12 13  1  0  0  0
 13 14  2  0  0  0
 14 15  1  0  0  0
  1  2  1  0  0  0
  2  3  1  0  0  0
  3  4  1  0  0  0
  4  5  1  0  0  0
  5  6  1  0  0  0
  6  7  1  0  0  0
 29 30  1  0  0  0
 30 31  2  0  0  0
 31 32  1  0  0  0
 32 33  1  0  0  0
 33 25  2  0  0  0
 32 28  1  0  0  0
  6  1  1  0  0  0
 14  9  1  0  0  0
 22 23  1  0  0  0
  7  8  1  0  0  0
M  END
> <minimizedAffinity>
-8.61902

> <CNNscore>
0.2568610609

> <CNNaffinity>
6.3198971748

> <CNN_VS>
1.6233354807

> <CNNaffinity_variance>
0.1703406721

$$$$
[H]OC1([H])C([H])([H])OC([H])([H])C([H])([H])C1(c1c([H])c([H])c(C(F)(F)F)c([H])c1F)N([H])C(=O)c1c([H])nn2c([H])c(C([H])([H])[H])c([H])nc12


 33 36  0  0  0  0  0  0  0  0999 V2000
   -6.2149   23.5822  -21.6432 C   0  0  0  0  0  0  0  0  0  0  0  0
   -6.8201   23.7548  -22.9130 C   0  0  0  0  0  0  0  0  0  0  0  0
   -8.0372   24.6575  -23.0474 C   0  0  0  0  0  0  0  0  0  0  0  0
   -8.4772   25.3115  -21.9562 O   0  0  0  0  0  0  0  0  0  0  0  0
   -7.5452   25.6824  -21.0643 C   0  0  0  0  0  0  0  0  0  0  0  0
   -6.3333   24.9046  -20.8436 C   0  0  0  0  0  0  0  0  0  0  0  0
   -5.2259   25.7360  -21.1079 O   0  0  0  0  0  0  0  0  0  0  0  0
   -4.8675   26.1260  -20.3020 H   0  0  0  0  0  0  0  0  0  0  0  0
   -6.5087   22.5406  -20.6735 C   0  0  0  0  0  0  0  0  0  0  0  0
   -5.7526   22.5781  -19.4888 C   0  0  0  0  0  0  0  0  0  0  0  0
   -6.0025   21.7519  -18.4175 C   0  0  0  0  0  0  0  0  0  0  0  0
   -7.0022   20.8363  -18.4317 C   0  0  0  0  0  0  0  0  0  0  0  0
   -7.7768   20.7693  -19.5913 C   0  0  0  0  0  0  0  0  0  0  0  0
   -7.4985   21.6166  -20.6494 C   0  0  0  0  0  0  0  0  0  0  0  0
   -8.2565   21.4667  -21.7373 F   0  0  0  0  0  0  0  0  0  0  0  0
   -7.2999   19.9732  -17.2655 C   0  0  0  0  0  0  0  0  0  0  0  0
   -7.9313   18.7933  -17.6766 F   0  0  0  0  0  0  0  0  0  0  0  0
   -6.1194   19.6976  -16.6157 F   0  0  0  0  0  0  0  0  0  0  0  0
   -8.0792   20.6112  -16.3033 F   0  0  0  0  0  0  0  0  0  0  0  0
   -4.2942   22.4454  -22.6934 C   0  0  0  0  0  0  0  0  0  0  0  0
   -5.1446   21.7344  -23.3030 O   0  0  0  0  0  0  0  0  0  0  0  0
   -4.7261   23.4831  -21.7900 N   0  0  0  0  0  0  0  0  0  0  0  0
   -4.0436   24.0487  -21.3160 H   0  0  0  0  0  0  0  0  0  0  0  0
    0.3035   22.4269  -27.5682 C   0  0  0  0  0  0  0  0  0  0  0  0
   -0.6101   22.3863  -26.3714 C   0  0  0  0  0  0  0  0  0  0  0  0
   -1.8957   22.8783  -26.4217 C   0  0  0  0  0  0  0  0  0  0  0  0
   -2.6982   22.8290  -25.3418 N   0  0  0  0  0  0  0  0  0  0  0  0
   -2.2555   22.2971  -24.1990 C   0  0  0  0  0  0  0  0  0  0  0  0
   -2.9206   22.1173  -22.9755 C   0  0  0  0  0  0  0  0  0  0  0  0
   -1.9891   21.5146  -22.1850 C   0  0  0  0  0  0  0  0  0  0  0  0
   -0.8530   21.3468  -22.8953 N   0  0  0  0  0  0  0  0  0  0  0  0
   -1.0209   21.8201  -24.1226 N   0  0  0  0  0  0  0  0  0  0  0  0
   -0.1614   21.8399  -25.1723 C   0  0  0  0  0  0  0  0  0  0  0  0
 24 25  1  0  0  0
 25 26  1  0  0  0
 26 27  2  0  0  0
 27 28  1  0  0  0
 28 29  2  0  0  0
 29 20  1  0  0  0
 20 21  2  0  0  0
 20 22  1  0  0  0
 22  1  1  0  0  0
  1  9  1  0  0  0
  9 10  2  0  0  0
 10 11  1  0  0  0
 11 12  2  0  0  0
 12 16  1  0  0  0
 16 17  1  0  0  0
 16 18  1  0  0  0
 16 19  1  0  0  0
 12 13  1  0  0  0
 13 14  2  0  0  0
 14 15  1  0  0  0
  1  2  1  0  0  0
  2  3  1  0  0  0
  3  4  1  0  0  0
  4  5  1  0  0  0
  5  6  1  0  0  0
  6  7  1  0  0  0
 29 30  1  0  0  0
 30 31  2  0  0  0
 31 32  1  0  0  0
 32 33  1  0  0  0
 33 25  2  0  0  0
 32 28  1  0  0  0
  6  1  1  0  0  0
 14  9  1  0  0  0
 22 23  1  0  0  0
  7  8  1  0  0  0
M  END
> <minimizedAffinity>
-7.48498

> <CNNscore>
0.1946978569

> <CNNaffinity>
5.5158033371

> <CNN_VS>
1.0739151239

> <CNNaffinity_variance>
0.2048344910

$$$$
[H]OC1([H])C([H])([H])OC([H])([H])C([H])([H])C1(c1c([H])c([H])c(C(F)(F)F)c([H])c1F)N([H])C(=O)c1c([H])nn2c([H])c(C([H])([H])[H])c([H])nc12


 33 36  0  0  0  0  0  0  0  0999 V2000
   -4.0446   22.8868  -24.3038 C   0  0  0  0  0  0  0  0  0  0  0  0
   -4.2034   23.4304  -23.0047 C   0  0  0  0  0  0  0  0  0  0  0  0
   -5.5963   23.5424  -22.4035 C   0  0  0  0  0  0  0  0  0  0  0  0
   -6.6416   23.0713  -23.1088 O   0  0  0  0  0  0  0  0  0  0  0  0
   -6.4047   22.0064  -23.8909 C   0  0  0  0  0  0  0  0  0  0  0  0
   -5.1113   21.7840  -24.5234 C   0  0  0  0  0  0  0  0  0  0  0  0
   -4.6205   20.5361  -24.0883 O   0  0  0  0  0  0  0  0  0  0  0  0
   -4.8118   19.8333  -24.7204 H   0  0  0  0  0  0  0  0  0  0  0  0
   -4.0145   23.6215  -25.5571 C   0  0  0  0  0  0  0  0  0  0  0  0
   -3.7745   22.8535  -26.7100 C   0  0  0  0  0  0  0  0  0  0  0  0
   -3.8521   23.3723  -27.9818 C   0  0  0  0  0  0  0  0  0  0  0  0
   -4.1662   24.6708  -28.2122 C   0  0  0  0  0  0  0  0  0  0  0  0
   -4.4128   25.4663  -27.0917 C   0  0  0  0  0  0  0  0  0  0  0  0
   -4.3274   24.9113  -25.8269 C   0  0  0  0  0  0  0  0  0  0  0  0
   -4.5380   25.7429  -24.8048 F   0  0  0  0  0  0  0  0  0  0  0  0
   -4.2902   25.2229  -29.5809 C   0  0  0  0  0  0  0  0  0  0  0  0
   -3.0279   25.5305  -30.1023 F   0  0  0  0  0  0  0  0  0  0  0  0
   -4.9337   24.2960  -30.3672 F   0  0  0  0  0  0  0  0  0  0  0  0
   -5.1086   26.3485  -29.6397 F   0  0  0  0  0  0  0  0  0  0  0  0
   -1.6862   22.6286  -23.6287 C   0  0  0  0  0  0  0  0  0  0  0  0
   -1.8357   23.6990  -22.9713 O   0  0  0  0  0  0  0  0  0  0  0  0
   -2.7887   22.0705  -24.3720 N   0  0  0  0  0  0  0  0  0  0  0  0
   -2.6633   21.2153  -24.8851 H   0  0  0  0  0  0  0  0  0  0  0  0
    2.4969   19.2402  -19.6384 C   0  0  0  0  0  0  0  0  0  0  0  0
    1.6690   19.9855  -20.6522 C   0  0  0  0  0  0  0  0  0  0  0  0
    0.3533   20.3160  -20.4142 C   0  0  0  0  0  0  0  0  0  0  0  0
   -0.3687   20.9863  -21.3320 N   0  0  0  0  0  0  0  0  0  0  0  0
    0.1859   21.3433  -22.4937 C   0  0  0  0  0  0  0  0  0  0  0  0
   -0.3633   22.0628  -23.5672 C   0  0  0  0  0  0  0  0  0  0  0  0
    0.6601   22.1415  -24.4628 C   0  0  0  0  0  0  0  0  0  0  0  0
    1.7408   21.5142  -23.9508 N   0  0  0  0  0  0  0  0  0  0  0  0
    1.4494   21.0339  -22.7496 N   0  0  0  0  0  0  0  0  0  0  0  0
    2.2315   20.3597  -21.8693 C   0  0  0  0  0  0  0  0  0  0  0  0
 24 25  1  0  0  0
 25 26  1  0  0  0
 26 27  2  0  0  0
 27 28  1  0  0  0
 28 29  2  0  0  0
 29 20  1  0  0  0
 20 21  2  0  0  0
 20 22  1  0  0  0
 22  1  1  0  0  0
  1  9  1  0  0  0
  9 10  2  0  0  0
 10 11  1  0  0  0
 11 12  2  0  0  0
 12 16  1  0  0  0
 16 17  1  0  0  0
 16 18  1  0  0  0
 16 19  1  0  0  0
 12 13  1  0  0  0
 13 14  2  0  0  0
 14 15  1  0  0  0
  1  2  1  0  0  0
  2  3  1  0  0  0
  3  4  1  0  0  0
  4  5  1  0  0  0
  5  6  1  0  0  0
  6  7  1  0  0  0
 29 30  1  0  0  0
 30 31  2  0  0  0
 31 32  1  0  0  0
 32 33  1  0  0  0
 33 25  2  0  0  0
 32 28  1  0  0  0
  6  1  1  0  0  0
 14  9  1  0  0  0
 22 23  1  0  0  0
  7  8  1  0  0  0
M  END
> <minimizedAffinity>
-9.13088

> <CNNscore>
0.1621401757

> <CNNaffinity>
6.1756753922

> <CNN_VS>
1.0013251305

> <CNNaffinity_variance>
0.2517070174

$$$$
[H]OC1([H])C([H])([H])OC([H])([H])C([H])([H])C1(c1c([H])c([H])c(C(F)(F)F)c([H])c1F)N([H])C(=O)c1c([H])nn2c([H])c(C([H])([H])[H])c([H])nc12


 33 36  0  0  0  0  0  0  0  0999 V2000
   -4.7104   22.7780  -22.2867 C   0  0  0  0  0  0  0  0  0  0  0  0
   -5.7913   21.9036  -22.0119 C   0  0  0  0  0  0  0  0  0  0  0  0
   -5.9922   21.3806  -20.5976 C   0  0  0  0  0  0  0  0  0  0  0  0
   -5.1600   21.8071  -19.6293 O   0  0  0  0  0  0  0  0  0  0  0  0
   -4.6939   23.0601  -19.7497 C   0  0  0  0  0  0  0  0  0  0  0  0
   -4.4610   23.6769  -21.0489 C   0  0  0  0  0  0  0  0  0  0  0  0
   -5.2479   24.8440  -21.1263 O   0  0  0  0  0  0  0  0  0  0  0  0
   -4.7441   25.6341  -20.8985 H   0  0  0  0  0  0  0  0  0  0  0  0
   -3.3817   22.4035  -22.7406 C   0  0  0  0  0  0  0  0  0  0  0  0
   -2.9525   23.0054  -23.9365 C   0  0  0  0  0  0  0  0  0  0  0  0
   -1.6743   22.8651  -24.4257 C   0  0  0  0  0  0  0  0  0  0  0  0
   -0.7340   22.1292  -23.7837 C   0  0  0  0  0  0  0  0  0  0  0  0
   -1.1219   21.5160  -22.5909 C   0  0  0  0  0  0  0  0  0  0  0  0
   -2.4154   21.6797  -22.1271 C   0  0  0  0  0  0  0  0  0  0  0  0
   -2.7225   21.0317  -21.0018 F   0  0  0  0  0  0  0  0  0  0  0  0
    0.6540   22.0088  -24.2861 C   0  0  0  0  0  0  0  0  0  0  0  0
    1.4872   21.4658  -23.3009 F   0  0  0  0  0  0  0  0  0  0  0  0
    0.6425   21.2169  -25.4105 F   0  0  0  0  0  0  0  0  0  0  0  0
    1.1785   23.2215  -24.7272 F   0  0  0  0  0  0  0  0  0  0  0  0
   -5.8058   23.2644  -24.4425 C   0  0  0  0  0  0  0  0  0  0  0  0
   -6.0348   22.0227  -24.5205 O   0  0  0  0  0  0  0  0  0  0  0  0
   -5.1230   23.8084  -23.2947 N   0  0  0  0  0  0  0  0  0  0  0  0
   -4.9523   24.7973  -23.2373 H   0  0  0  0  0  0  0  0  0  0  0  0
   -3.9080   25.6840  -30.3962 C   0  0  0  0  0  0  0  0  0  0  0  0
   -4.4840   25.1953  -29.0931 C   0  0  0  0  0  0  0  0  0  0  0  0
   -3.7740   24.3701  -28.2491 C   0  0  0  0  0  0  0  0  0  0  0  0
   -4.3052   23.9474  -27.0864 N   0  0  0  0  0  0  0  0  0  0  0  0
   -5.5365   24.3263  -26.7327 C   0  0  0  0  0  0  0  0  0  0  0  0
   -6.2662   24.0345  -25.5691 C   0  0  0  0  0  0  0  0  0  0  0  0
   -7.4418   24.6990  -25.7477 C   0  0  0  0  0  0  0  0  0  0  0  0
   -7.4065   25.3424  -26.9344 N   0  0  0  0  0  0  0  0  0  0  0  0
   -6.2427   25.1169  -27.5288 N   0  0  0  0  0  0  0  0  0  0  0  0
   -5.7675   25.5774  -28.7134 C   0  0  0  0  0  0  0  0  0  0  0  0
 24 25  1  0  0  0
 25 26  1  0  0  0
 26 27  2  0  0  0
 27 28  1  0  0  0
 28 29  2  0  0  0
 29 20  1  0  0  0
 20 21  2  0  0  0
 20 22  1  0  0  0
 22  1  1  0  0  0
  1  9  1  0  0  0
  9 10  2  0  0  0
 10 11  1  0  0  0
 11 12  2  0  0  0
 12 16  1  0  0  0
 16 17  1  0  0  0
 16 18  1  0  0  0
 16 19  1  0  0  0
 12 13  1  0  0  0
 13 14  2  0  0  0
 14 15  1  0  0  0
  1  2  1  0  0  0
  2  3  1  0  0  0
  3  4  1  0  0  0
  4  5  1  0  0  0
  5  6  1  0  0  0
  6  7  1  0  0  0
 29 30  1  0  0  0
 30 31  2  0  0  0
 31 32  1  0  0  0
 32 33  1  0  0  0
 33 25  2  0  0  0
 32 28  1  0  0  0
  6  1  1  0  0  0
 14  9  1  0  0  0
 22 23  1  0  0  0
  7  8  1  0  0  0
M  END
> <minimizedAffinity>
-8.51612

> <CNNscore>
0.1489095986

> <CNNaffinity>
6.1089835167

> <CNN_VS>
0.9096862674

> <CNNaffinity_variance>
0.1936334521

$$$$
[H]OC1([H])C([H])([H])OC([H])([H])C([H])([H])C1(c1c([H])c([H])c(C(F)(F)F)c([H])c1F)N([H])C(=O)c1c([H])nn2c([H])c(C([H])([H])[H])c([H])nc12


 33 36  0  0  0  0  0  0  0  0999 V2000
   -5.2279   23.5422  -22.7850 C   0  0  0  0  0  0  0  0  0  0  0  0
   -6.4291   22.8260  -23.0142 C   0  0  0  0  0  0  0  0  0  0  0  0
   -7.5674   22.9295  -22.0103 C   0  0  0  0  0  0  0  0  0  0  0  0
   -7.4183   23.7451  -20.9499 O   0  0  0  0  0  0  0  0  0  0  0  0
   -6.6810   24.8500  -21.1436 C   0  0  0  0  0  0  0  0  0  0  0  0
   -5.5649   24.8805  -22.0795 C   0  0  0  0  0  0  0  0  0  0  0  0
   -5.8225   25.8849  -23.0347 O   0  0  0  0  0  0  0  0  0  0  0  0
   -5.3828   26.7141  -22.8132 H   0  0  0  0  0  0  0  0  0  0  0  0
   -4.0419   23.0562  -22.1005 C   0  0  0  0  0  0  0  0  0  0  0  0
   -2.8799   23.8298  -22.2676 C   0  0  0  0  0  0  0  0  0  0  0  0
   -1.7147   23.5849  -21.5783 C   0  0  0  0  0  0  0  0  0  0  0  0
   -1.6059   22.5714  -20.6846 C   0  0  0  0  0  0  0  0  0  0  0  0
   -2.7399   21.7806  -20.4898 C   0  0  0  0  0  0  0  0  0  0  0  0
   -3.8958   22.0562  -21.1990 C   0  0  0  0  0  0  0  0  0  0  0  0
   -4.9248   21.2333  -20.9881 F   0  0  0  0  0  0  0  0  0  0  0  0
   -0.3662   22.3296  -19.9110 C   0  0  0  0  0  0  0  0  0  0  0  0
    0.0911   23.5194  -19.3322 F   0  0  0  0  0  0  0  0  0  0  0  0
   -0.6322   21.3852  -18.9472 F   0  0  0  0  0  0  0  0  0  0  0  0
    0.6486   21.7605  -20.6767 F   0  0  0  0  0  0  0  0  0  0  0  0
   -4.4217   23.0147  -25.0557 C   0  0  0  0  0  0  0  0  0  0  0  0
   -4.6948   21.8082  -24.7909 O   0  0  0  0  0  0  0  0  0  0  0  0
   -4.6732   24.0488  -24.0826 N   0  0  0  0  0  0  0  0  0  0  0  0
   -4.4606   25.0059  -24.3045 H   0  0  0  0  0  0  0  0  0  0  0  0
   -5.3234   26.3624  -30.7900 C   0  0  0  0  0  0  0  0  0  0  0  0
   -4.9779   25.5608  -29.5625 C   0  0  0  0  0  0  0  0  0  0  0  0
   -5.7166   25.6521  -28.4035 C   0  0  0  0  0  0  0  0  0  0  0  0
   -5.3937   24.9239  -27.3181 N   0  0  0  0  0  0  0  0  0  0  0  0
   -4.3456   24.0961  -27.3513 C   0  0  0  0  0  0  0  0  0  0  0  0
   -3.8525   23.2318  -26.3607 C   0  0  0  0  0  0  0  0  0  0  0  0
   -2.7862   22.6292  -26.9569 C   0  0  0  0  0  0  0  0  0  0  0  0
   -2.6610   23.1032  -28.2151 N   0  0  0  0  0  0  0  0  0  0  0  0
   -3.6155   23.9926  -28.4530 N   0  0  0  0  0  0  0  0  0  0  0  0
   -3.8856   24.6980  -29.5801 C   0  0  0  0  0  0  0  0  0  0  0  0
 24 25  1  0  0  0
 25 26  1  0  0  0
 26 27  2  0  0  0
 27 28  1  0  0  0
 28 29  2  0  0  0
 29 20  1  0  0  0
 20 21  2  0  0  0
 20 22  1  0  0  0
 22  1  1  0  0  0
  1  9  1  0  0  0
  9 10  2  0  0  0
 10 11  1  0  0  0
 11 12  2  0  0  0
 12 16  1  0  0  0
 16 17  1  0  0  0
 16 18  1  0  0  0
 16 19  1  0  0  0
 12 13  1  0  0  0
 13 14  2  0  0  0
 14 15  1  0  0  0
  1  2  1  0  0  0
  2  3  1  0  0  0
  3  4  1  0  0  0
  4  5  1  0  0  0
  5  6  1  0  0  0
  6  7  1  0  0  0
 29 30  1  0  0  0
 30 31  2  0  0  0
 31 32  1  0  0  0
 32 33  1  0  0  0
 33 25  2  0  0  0
 32 28  1  0  0  0
  6  1  1  0  0  0
 14  9  1  0  0  0
 22 23  1  0  0  0
  7  8  1  0  0  0
M  END
> <minimizedAffinity>
-8.65965

> <CNNscore>
0.1185986176

> <CNNaffinity>
6.1617202759

> <CNN_VS>
0.7307714820

> <CNNaffinity_variance>
0.2614703774

$$$$
[H]OC1([H])C([H])([H])OC([H])([H])C([H])([H])C1(c1c([H])c([H])c(C(F)(F)F)c([H])c1F)N([H])C(=O)c1c([H])nn2c([H])c(C([H])([H])[H])c([H])nc12


 33 36  0  0  0  0  0  0  0  0999 V2000
   -5.1179   23.5221  -22.8269 C   0  0  0  0  0  0  0  0  0  0  0  0
   -5.2091   24.7206  -22.0762 C   0  0  0  0  0  0  0  0  0  0  0  0
   -6.5527   25.4212  -21.9417 C   0  0  0  0  0  0  0  0  0  0  0  0
   -7.6352   24.8504  -22.5024 O   0  0  0  0  0  0  0  0  0  0  0  0
   -7.6541   23.5087  -22.5371 C   0  0  0  0  0  0  0  0  0  0  0  0
   -6.4346   22.7213  -22.6612 C   0  0  0  0  0  0  0  0  0  0  0  0
   -6.3496   21.8677  -21.5424 O   0  0  0  0  0  0  0  0  0  0  0  0
   -6.6861   20.9849  -21.7362 H   0  0  0  0  0  0  0  0  0  0  0  0
   -4.7914   23.4014  -24.2377 C   0  0  0  0  0  0  0  0  0  0  0  0
   -4.6822   24.6114  -24.9452 C   0  0  0  0  0  0  0  0  0  0  0  0
   -4.2454   24.6773  -26.2481 C   0  0  0  0  0  0  0  0  0  0  0  0
   -3.8890   23.5706  -26.9452 C   0  0  0  0  0  0  0  0  0  0  0  0
   -3.9827   22.3488  -26.2760 C   0  0  0  0  0  0  0  0  0  0  0  0
   -4.4246   22.3194  -24.9650 C   0  0  0  0  0  0  0  0  0  0  0  0
   -4.5247   21.1121  -24.4055 F   0  0  0  0  0  0  0  0  0  0  0  0
   -3.3801   23.6414  -28.3343 C   0  0  0  0  0  0  0  0  0  0  0  0
   -3.5961   24.9159  -28.8717 F   0  0  0  0  0  0  0  0  0  0  0  0
   -2.0395   23.3342  -28.3226 F   0  0  0  0  0  0  0  0  0  0  0  0
   -3.9442   22.6791  -29.1685 F   0  0  0  0  0  0  0  0  0  0  0  0
   -2.8843   23.1931  -21.8335 C   0  0  0  0  0  0  0  0  0  0  0  0
   -2.6905   24.4248  -22.0476 O   0  0  0  0  0  0  0  0  0  0  0  0
   -4.1430   22.5824  -22.1830 N   0  0  0  0  0  0  0  0  0  0  0  0
   -4.2913   21.6048  -22.0019 H   0  0  0  0  0  0  0  0  0  0  0  0
    3.0522   20.4342  -23.2648 C   0  0  0  0  0  0  0  0  0  0  0  0
    1.7518   21.0247  -22.7864 C   0  0  0  0  0  0  0  0  0  0  0  0
    0.9192   21.7272  -23.6293 C   0  0  0  0  0  0  0  0  0  0  0  0
   -0.2413   22.2438  -23.1831 N   0  0  0  0  0  0  0  0  0  0  0  0
   -0.6040   22.0797  -21.9079 C   0  0  0  0  0  0  0  0  0  0  0  0
   -1.7676   22.5005  -21.2441 C   0  0  0  0  0  0  0  0  0  0  0  0
   -1.6007   22.0404  -19.9728 C   0  0  0  0  0  0  0  0  0  0  0  0
   -0.4205   21.3892  -19.8931 N   0  0  0  0  0  0  0  0  0  0  0  0
    0.1811   21.4110  -21.0747 N   0  0  0  0  0  0  0  0  0  0  0  0
    1.3628   20.8664  -21.4592 C   0  0  0  0  0  0  0  0  0  0  0  0
 24 25  1  0  0  0
 25 26  1  0  0  0
 26 27  2  0  0  0
 27 28  1  0  0  0
 28 29  2  0  0  0
 29 20  1  0  0  0
 20 21  2  0  0  0
 20 22  1  0  0  0
 22  1  1  0  0  0
  1  9  1  0  0  0
  9 10  2  0  0  0
 10 11  1  0  0  0
 11 12  2  0  0  0
 12 16  1  0  0  0
 16 17  1  0  0  0
 16 18  1  0  0  0
 16 19  1  0  0  0
 12 13  1  0  0  0
 13 14  2  0  0  0
 14 15  1  0  0  0
  1  2  1  0  0  0
  2  3  1  0  0  0
  3  4  1  0  0  0
  4  5  1  0  0  0
  5  6  1  0  0  0
  6  7  1  0  0  0
 29 30  1  0  0  0
 30 31  2  0  0  0
 31 32  1  0  0  0
 32 33  1  0  0  0
 33 25  2  0  0  0
 32 28  1  0  0  0
  6  1  1  0  0  0
 14  9  1  0  0  0
 22 23  1  0  0  0
  7  8  1  0  0  0
M  END
> <minimizedAffinity>
-8.27100

> <CNNscore>
0.1067176163

> <CNNaffinity>
6.0258827209

> <CNN_VS>
0.6430678368

> <CNNaffinity_variance>
0.2899144292

$$$$
[H]OC1([H])C([H])([H])OC([H])([H])C([H])([H])C1(c1c([H])c([H])c(C(F)(F)F)c([H])c1F)N([H])C(=O)c1c([H])nn2c([H])c(C([H])([H])[H])c([H])nc12


 33 36  0  0  0  0  0  0  0  0999 V2000
   -3.8727   21.7608  -19.0289 C   0  0  0  0  0  0  0  0  0  0  0  0
   -2.8709   22.2463  -18.1521 C   0  0  0  0  0  0  0  0  0  0  0  0
   -3.0061   22.0114  -16.6552 C   0  0  0  0  0  0  0  0  0  0  0  0
   -4.0571   21.2992  -16.2077 O   0  0  0  0  0  0  0  0  0  0  0  0
   -4.5084   20.3266  -17.0152 C   0  0  0  0  0  0  0  0  0  0  0  0
   -4.4342   20.4301  -18.4666 C   0  0  0  0  0  0  0  0  0  0  0  0
   -3.6784   19.3403  -18.9445 O   0  0  0  0  0  0  0  0  0  0  0  0
   -4.2400   18.6132  -19.2378 H   0  0  0  0  0  0  0  0  0  0  0  0
   -5.0434   22.4827  -19.4978 C   0  0  0  0  0  0  0  0  0  0  0  0
   -5.6432   21.9811  -20.6662 C   0  0  0  0  0  0  0  0  0  0  0  0
   -6.8333   22.4631  -21.1603 C   0  0  0  0  0  0  0  0  0  0  0  0
   -7.5138   23.4642  -20.5501 C   0  0  0  0  0  0  0  0  0  0  0  0
   -6.9504   23.9885  -19.3852 C   0  0  0  0  0  0  0  0  0  0  0  0
   -5.7527   23.4788  -18.9156 C   0  0  0  0  0  0  0  0  0  0  0  0
   -5.2575   24.0568  -17.8195 F   0  0  0  0  0  0  0  0  0  0  0  0
   -8.8151   23.9583  -21.0563 C   0  0  0  0  0  0  0  0  0  0  0  0
   -8.7078   24.3352  -22.4003 F   0  0  0  0  0  0  0  0  0  0  0  0
   -9.7497   22.9617  -20.8990 F   0  0  0  0  0  0  0  0  0  0  0  0
   -9.3193   25.0210  -20.3103 F   0  0  0  0  0  0  0  0  0  0  0  0
   -2.4113   22.2544  -20.9538 C   0  0  0  0  0  0  0  0  0  0  0  0
   -2.2276   23.3897  -20.4270 O   0  0  0  0  0  0  0  0  0  0  0  0
   -3.2519   21.2783  -20.3056 N   0  0  0  0  0  0  0  0  0  0  0  0
   -3.3860   20.3757  -20.7273 H   0  0  0  0  0  0  0  0  0  0  0  0
   -3.1243   22.9672  -27.5784 C   0  0  0  0  0  0  0  0  0  0  0  0
   -2.8097   22.7638  -26.1195 C   0  0  0  0  0  0  0  0  0  0  0  0
   -3.6797   23.1580  -25.1270 C   0  0  0  0  0  0  0  0  0  0  0  0
   -3.3817   22.9635  -23.8284 N   0  0  0  0  0  0  0  0  0  0  0  0
   -2.2305   22.3804  -23.4829 C   0  0  0  0  0  0  0  0  0  0  0  0
   -1.7352   22.0557  -22.2097 C   0  0  0  0  0  0  0  0  0  0  0  0
   -0.5344   21.4670  -22.4688 C   0  0  0  0  0  0  0  0  0  0  0  0
   -0.3365   21.4426  -23.8043 N   0  0  0  0  0  0  0  0  0  0  0  0
   -1.3738   21.9952  -24.4185 N   0  0  0  0  0  0  0  0  0  0  0  0
   -1.6119   22.1624  -25.7437 C   0  0  0  0  0  0  0  0  0  0  0  0
 24 25  1  0  0  0
 25 26  1  0  0  0
 26 27  2  0  0  0
 27 28  1  0  0  0
 28 29  2  0  0  0
 29 20  1  0  0  0
 20 21  2  0  0  0
 20 22  1  0  0  0
 22  1  1  0  0  0
  1  9  1  0  0  0
  9 10  2  0  0  0
 10 11  1  0  0  0
 11 12  2  0  0  0
 12 16  1  0  0  0
 16 17  1  0  0  0
 16 18  1  0  0  0
 16 19  1  0  0  0
 12 13  1  0  0  0
 13 14  2  0  0  0
 14 15  1  0  0  0
  1  2  1  0  0  0
  2  3  1  0  0  0
  3  4  1  0  0  0
  4  5  1  0  0  0
  5  6  1  0  0  0
  6  7  1  0  0  0
 29 30  1  0  0  0
 30 31  2  0  0  0
 31 32  1  0  0  0
 32 33  1  0  0  0
 33 25  2  0  0  0
 32 28  1  0  0  0
  6  1  1  0  0  0
 14  9  1  0  0  0
 22 23  1  0  0  0
  7  8  1  0  0  0
M  END
> <minimizedAffinity>
-7.10080

> <CNNscore>
0.1061438546

> <CNNaffinity>
5.2496471405

> <CNN_VS>
0.5572177768

> <CNNaffinity_variance>
0.4344959855

$$$$
[H]OC1([H])C([H])([H])OC([H])([H])C([H])([H])C1(c1c([H])c([H])c(C(F)(F)F)c([H])c1F)N([H])C(=O)c1c([H])nn2c([H])c(C([H])([H])[H])c([H])nc12


 33 36  0  0  0  0  0  0  0  0999 V2000
   -4.5927   23.1276  -22.4331 C   0  0  0  0  0  0  0  0  0  0  0  0
   -5.7992   22.4068  -22.6153 C   0  0  0  0  0  0  0  0  0  0  0  0
   -6.5226   21.8367  -21.4046 C   0  0  0  0  0  0  0  0  0  0  0  0
   -6.0180   22.0787  -20.1804 O   0  0  0  0  0  0  0  0  0  0  0  0
   -5.3928   23.2545  -20.0124 C   0  0  0  0  0  0  0  0  0  0  0  0
   -4.6668   23.9058  -21.0947 C   0  0  0  0  0  0  0  0  0  0  0  0
   -5.2376   25.1783  -21.3005 O   0  0  0  0  0  0  0  0  0  0  0  0
   -4.7489   25.8711  -20.8411 H   0  0  0  0  0  0  0  0  0  0  0  0
   -3.2434   22.5895  -22.4693 C   0  0  0  0  0  0  0  0  0  0  0  0
   -2.4020   22.9784  -21.4122 C   0  0  0  0  0  0  0  0  0  0  0  0
   -1.1457   22.4498  -21.2251 C   0  0  0  0  0  0  0  0  0  0  0  0
   -0.6282   21.5113  -22.0552 C   0  0  0  0  0  0  0  0  0  0  0  0
   -1.4345   21.0980  -23.1174 C   0  0  0  0  0  0  0  0  0  0  0  0
   -2.6938   21.6498  -23.2748 C   0  0  0  0  0  0  0  0  0  0  0  0
   -3.3893   21.2336  -24.3348 F   0  0  0  0  0  0  0  0  0  0  0  0
    0.7075   20.9106  -21.8339 C   0  0  0  0  0  0  0  0  0  0  0  0
    0.5846   19.5753  -21.4317 F   0  0  0  0  0  0  0  0  0  0  0  0
    1.4268   21.0073  -23.0021 F   0  0  0  0  0  0  0  0  0  0  0  0
    1.4703   21.6122  -20.9033 F   0  0  0  0  0  0  0  0  0  0  0  0
   -5.2958   24.0620  -24.6049 C   0  0  0  0  0  0  0  0  0  0  0  0
   -5.9840   23.0105  -24.7494 O   0  0  0  0  0  0  0  0  0  0  0  0
   -4.5185   24.2649  -23.4074 N   0  0  0  0  0  0  0  0  0  0  0  0
   -3.9809   25.1071  -23.2974 H   0  0  0  0  0  0  0  0  0  0  0  0
   -5.7288   24.3633  -31.2850 C   0  0  0  0  0  0  0  0  0  0  0  0
   -5.6472   24.4579  -29.7840 C   0  0  0  0  0  0  0  0  0  0  0  0
   -5.6961   23.3392  -28.9819 C   0  0  0  0  0  0  0  0  0  0  0  0
   -5.6174   23.4447  -27.6419 N   0  0  0  0  0  0  0  0  0  0  0  0
   -5.4887   24.6443  -27.0684 C   0  0  0  0  0  0  0  0  0  0  0  0
   -5.3601   24.9816  -25.7114 C   0  0  0  0  0  0  0  0  0  0  0  0
   -5.2465   26.3390  -25.7235 C   0  0  0  0  0  0  0  0  0  0  0  0
   -5.3006   26.7727  -27.0012 N   0  0  0  0  0  0  0  0  0  0  0  0
   -5.4431   25.7373  -27.8173 N   0  0  0  0  0  0  0  0  0  0  0  0
   -5.5181   25.7013  -29.1716 C   0  0  0  0  0  0  0  0  0  0  0  0
 24 25  1  0  0  0
 25 26  1  0  0  0
 26 27  2  0  0  0
 27 28  1  0  0  0
 28 29  2  0  0  0
 29 20  1  0  0  0
 20 21  2  0  0  0
 20 22  1  0  0  0
 22  1  1  0  0  0
  1  9  1  0  0  0
  9 10  2  0  0  0
 10 11  1  0  0  0
 11 12  2  0  0  0
 12 16  1  0  0  0
 16 17  1  0  0  0
 16 18  1  0  0  0
 16 19  1  0  0  0
 12 13  1  0  0  0
 13 14  2  0  0  0
 14 15  1  0  0  0
  1  2  1  0  0  0
  2  3  1  0  0  0
  3  4  1  0  0  0
  4  5  1  0  0  0
  5  6  1  0  0  0
  6  7  1  0  0  0
 29 30  1  0  0  0
 30 31  2  0  0  0
 31 32  1  0  0  0
 32 33  1  0  0  0
 33 25  2  0  0  0
 32 28  1  0  0  0
  6  1  1  0  0  0
 14  9  1  0  0  0
 22 23  1  0  0  0
  7  8  1  0  0  0
M  END
> <minimizedAffinity>
-8.42464

> <CNNscore>
0.1053404361

> <CNNaffinity>
5.9353547096

> <CNN_VS>
0.6252328753

> <CNNaffinity_variance>
0.1920871288

$$$$
[H]OC(=O)C([H])([H])C([H])([H])[C@@]([H])(C(=O)N1C([H])([H])C([H])([H])C([H])([H])[C@@]1([H])C(=O)N([H])[C@]([H])(C(=O)OC([H])([H])[H])C([H])([H])c1c([H])c([H])c([H])c([H])c1[H])N([H])C(=O)[C@@]([H])(N([H])C(=O)OC([H])([H])c1c([H])c([H])c([H])c([H])c1[H])[C@@]([H])(C([H])([H])[H])C([H])([H])C([H])([H])[H]


 51 53  0  0  0  0  0  0  0  0999 V2000
   -5.4416   21.3477  -19.0044 C   0  0  0  0  0  0  0  0  0  0  0  0
   -6.1073   21.4717  -20.2701 C   0  0  0  0  0  0  0  0  0  0  0  0
   -7.3751   20.9885  -20.1671 O   0  0  0  0  0  0  0  0  0  0  0  0
   -5.8686   21.9155  -21.5535 N   0  0  0  0  0  0  0  0  0  0  0  0
   -6.9235   21.8854  -22.6067 C   0  0  0  0  0  0  0  0  0  0  0  0
   -6.1951   21.1182  -23.6903 C   0  0  0  0  0  0  0  0  0  0  0  0
   -4.8085   21.6595  -23.6046 C   0  0  0  0  0  0  0  0  0  0  0  0
   -4.7375   22.4067  -22.2472 C   0  0  0  0  0  0  0  0  0  0  0  0
   -4.7611   23.8344  -22.6064 C   0  0  0  0  0  0  0  0  0  0  0  0
   -4.7061   24.7065  -21.7233 O   0  0  0  0  0  0  0  0  0  0  0  0
   -4.8496   24.2141  -23.9677 N   0  0  0  0  0  0  0  0  0  0  0  0
   -4.8863   23.5181  -24.7435 H   0  0  0  0  0  0  0  0  0  0  0  0
   -4.8952   25.6485  -24.3142 C   0  0  0  0  0  0  0  0  0  0  0  0
   -6.2860   26.1010  -24.4391 C   0  0  0  0  0  0  0  0  0  0  0  0
   -6.5234   27.3460  -24.6673 O   0  0  0  0  0  0  0  0  0  0  0  0
   -7.3851   25.3069  -24.3376 O   0  0  0  0  0  0  0  0  0  0  0  0
   -8.2205   25.2983  -23.1695 C   0  0  0  0  0  0  0  0  0  0  0  0
   -4.1457   25.8429  -25.5924 C   0  0  0  0  0  0  0  0  0  0  0  0
   -4.6916   25.1919  -26.7763 C   0  0  0  0  0  0  0  0  0  0  0  0
   -4.7349   25.9471  -27.9462 C   0  0  0  0  0  0  0  0  0  0  0  0
   -5.2196   25.3623  -29.0806 C   0  0  0  0  0  0  0  0  0  0  0  0
   -5.6647   24.0573  -29.1086 C   0  0  0  0  0  0  0  0  0  0  0  0
   -5.6056   23.3236  -27.9101 C   0  0  0  0  0  0  0  0  0  0  0  0
   -5.1272   23.8916  -26.7730 C   0  0  0  0  0  0  0  0  0  0  0  0
   -2.9597   20.7962  -19.1141 C   0  0  0  0  0  0  0  0  0  0  0  0
   -3.2772   19.6927  -18.5343 O   0  0  0  0  0  0  0  0  0  0  0  0
   -3.9965   21.6896  -19.3883 N   0  0  0  0  0  0  0  0  0  0  0  0
   -3.8350   22.6039  -19.8488 H   0  0  0  0  0  0  0  0  0  0  0  0
   -1.5518   20.9750  -19.4043 C   0  0  0  0  0  0  0  0  0  0  0  0
   -1.3070   21.3921  -20.7608 N   0  0  0  0  0  0  0  0  0  0  0  0
   -1.3500   22.6707  -21.3294 C   0  0  0  0  0  0  0  0  0  0  0  0
   -1.6221   23.7544  -20.7805 O   0  0  0  0  0  0  0  0  0  0  0  0
   -1.0479   20.6014  -21.4598 H   0  0  0  0  0  0  0  0  0  0  0  0
   -1.0562   22.8109  -22.7141 O   0  0  0  0  0  0  0  0  0  0  0  0
   -1.0229   21.7070  -23.5811 C   0  0  0  0  0  0  0  0  0  0  0  0
   -0.9357   22.0399  -24.9979 C   0  0  0  0  0  0  0  0  0  0  0  0
    0.3120   22.1856  -25.5957 C   0  0  0  0  0  0  0  0  0  0  0  0
    0.4718   22.5026  -26.9198 C   0  0  0  0  0  0  0  0  0  0  0  0
   -0.6503   22.6919  -27.7213 C   0  0  0  0  0  0  0  0  0  0  0  0
   -1.8952   22.5489  -27.1362 C   0  0  0  0  0  0  0  0  0  0  0  0
   -2.0377   22.2288  -25.8000 C   0  0  0  0  0  0  0  0  0  0  0  0
   -0.7875   21.8879  -18.4713 C   0  0  0  0  0  0  0  0  0  0  0  0
   -1.1815   21.7263  -17.0102 C   0  0  0  0  0  0  0  0  0  0  0  0
    1.1122   20.7472  -17.2696 C   0  0  0  0  0  0  0  0  0  0  0  0
    0.6745   21.4632  -18.5327 C   0  0  0  0  0  0  0  0  0  0  0  0
   -5.7606   22.0319  -17.7685 C   0  0  0  0  0  0  0  0  0  0  0  0
   -4.9424   23.2011  -17.3259 C   0  0  0  0  0  0  0  0  0  0  0  0
   -5.7185   24.4874  -17.4703 C   0  0  0  0  0  0  0  0  0  0  0  0
   -5.3137   25.5266  -16.9066 O   0  0  0  0  0  0  0  0  0  0  0  0
   -6.8880   24.5667  -18.2208 O   0  0  0  0  0  0  0  0  0  0  0  0
   -7.1926   25.3931  -18.6794 H   0  0  0  0  0  0  0  0  0  0  0  0
 44 45  1  0  0  0
 45 42  1  0  0  0
 42 43  1  0  0  0
 42 29  1  0  0  0
 29 30  1  0  0  0
 30 31  1  0  0  0
 31 32  2  0  0  0
 31 34  1  0  0  0
 34 35  1  0  0  0
 35 36  1  0  0  0
 36 37  2  0  0  0
 37 38  1  0  0  0
 38 39  2  0  0  0
 39 40  1  0  0  0
 40 41  2  0  0  0
 29 25  1  0  0  0
 25 26  2  0  0  0
 25 27  1  0  0  0
 27  1  1  0  0  0
  1 46  1  0  0  0
 46 47  1  0  0  0
 47 48  1  0  0  0
 48 49  2  0  0  0
 48 50  1  0  0  0
  1  2  1  0  0  0
  2  3  2  0  0  0
  2  4  1  0  0  0
  4  5  1  0  0  0
  5  6  1  0  0  0
  6  7  1  0  0  0
  7  8  1  0  0  0
  8  9  1  0  0  0
  9 10  2  0  0  0
  9 11  1  0  0  0
 11 13  1  0  0  0
 13 18  1  0  0  0
 18 19  1  0  0  0
 19 20  2  0  0  0
 20 21  1  0  0  0
 21 22  2  0  0  0
 22 23  1  0  0  0
 23 24  2  0  0  0
 13 14  1  0  0  0
 14 15  2  0  0  0
 14 16  1  0  0  0
 16 17  1  0  0  0
 41 36  1  0  0  0
  8  4  1  0  0  0
 24 19  1  0  0  0
 30 33  1  0  0  0
 27 28  1  0  0  0
 50 51  1  0  0  0
 11 12  1  0  0  0
M  END
> <minimizedAffinity>
-8.61706

> <CNNscore>
0.4486288428

> <CNNaffinity>
7.2650995255

> <CNN_VS>
3.2593331337

> <CNNaffinity_variance>
0.5588276982

$$$$
[H]OC(=O)C([H])([H])C([H])([H])[C@@]([H])(C(=O)N1C([H])([H])C([H])([H])C([H])([H])[C@@]1([H])C(=O)N([H])[C@]([H])(C(=O)OC([H])([H])[H])C([H])([H])c1c([H])c([H])c([H])c([H])c1[H])N([H])C(=O)[C@@]([H])(N([H])C(=O)OC([H])([H])c1c([H])c([H])c([H])c([H])c1[H])[C@@]([H])(C([H])([H])[H])C([H])([H])C([H])([H])[H]


 51 53  0  0  0  0  0  0  0  0999 V2000
   -5.1913   22.5749  -21.6237 C   0  0  0  0  0  0  0  0  0  0  0  0
   -5.4526   23.8682  -22.1888 C   0  0  0  0  0  0  0  0  0  0  0  0
   -5.3242   24.8206  -21.2254 O   0  0  0  0  0  0  0  0  0  0  0  0
   -5.7988   24.4489  -23.3905 N   0  0  0  0  0  0  0  0  0  0  0  0
   -5.9388   25.9256  -23.5408 C   0  0  0  0  0  0  0  0  0  0  0  0
   -7.3360   26.0022  -24.1199 C   0  0  0  0  0  0  0  0  0  0  0  0
   -7.3715   24.8411  -25.0545 C   0  0  0  0  0  0  0  0  0  0  0  0
   -6.1527   23.9618  -24.6708 C   0  0  0  0  0  0  0  0  0  0  0  0
   -5.1758   24.1887  -25.7488 C   0  0  0  0  0  0  0  0  0  0  0  0
   -4.0201   24.5590  -25.4829 O   0  0  0  0  0  0  0  0  0  0  0  0
   -5.5585   23.9853  -27.0968 N   0  0  0  0  0  0  0  0  0  0  0  0
   -6.5131   23.6639  -27.3671 H   0  0  0  0  0  0  0  0  0  0  0  0
   -4.5770   24.2377  -28.1705 C   0  0  0  0  0  0  0  0  0  0  0  0
   -5.2447   24.7915  -29.3546 C   0  0  0  0  0  0  0  0  0  0  0  0
   -5.7803   23.9883  -30.2069 O   0  0  0  0  0  0  0  0  0  0  0  0
   -5.3601   26.1143  -29.6477 O   0  0  0  0  0  0  0  0  0  0  0  0
   -5.5423   26.5899  -30.9905 C   0  0  0  0  0  0  0  0  0  0  0  0
   -3.8926   22.9478  -28.4884 C   0  0  0  0  0  0  0  0  0  0  0  0
   -2.5073   22.8183  -28.0554 C   0  0  0  0  0  0  0  0  0  0  0  0
   -1.5345   23.3742  -28.8833 C   0  0  0  0  0  0  0  0  0  0  0  0
   -0.2274   23.2913  -28.4981 C   0  0  0  0  0  0  0  0  0  0  0  0
    0.1611   22.6805  -27.3242 C   0  0  0  0  0  0  0  0  0  0  0  0
   -0.8471   22.1312  -26.5117 C   0  0  0  0  0  0  0  0  0  0  0  0
   -2.1517   22.2045  -26.8818 C   0  0  0  0  0  0  0  0  0  0  0  0
   -2.7225   22.0051  -21.8608 C   0  0  0  0  0  0  0  0  0  0  0  0
   -3.0912   21.2338  -22.8220 O   0  0  0  0  0  0  0  0  0  0  0  0
   -3.7238   22.7203  -21.2019 N   0  0  0  0  0  0  0  0  0  0  0  0
   -3.5215   23.3621  -20.4137 H   0  0  0  0  0  0  0  0  0  0  0  0
   -1.3020   22.0269  -21.5778 C   0  0  0  0  0  0  0  0  0  0  0  0
   -1.0066   21.8756  -20.1764 N   0  0  0  0  0  0  0  0  0  0  0  0
   -0.6968   22.8437  -19.2137 C   0  0  0  0  0  0  0  0  0  0  0  0
   -0.5979   24.0762  -19.3578 O   0  0  0  0  0  0  0  0  0  0  0  0
   -1.0242   20.8577  -19.7961 H   0  0  0  0  0  0  0  0  0  0  0  0
   -0.4492   22.4216  -17.8781 O   0  0  0  0  0  0  0  0  0  0  0  0
    0.7205   21.7311  -17.5227 C   0  0  0  0  0  0  0  0  0  0  0  0
    1.8295   22.5771  -17.0984 C   0  0  0  0  0  0  0  0  0  0  0  0
    2.2001   22.6059  -15.7578 C   0  0  0  0  0  0  0  0  0  0  0  0
    3.2277   23.3803  -15.2849 C   0  0  0  0  0  0  0  0  0  0  0  0
    3.9467   24.1815  -16.1672 C   0  0  0  0  0  0  0  0  0  0  0  0
    3.5860   24.1595  -17.5021 C   0  0  0  0  0  0  0  0  0  0  0  0
    2.5475   23.3728  -17.9614 C   0  0  0  0  0  0  0  0  0  0  0  0
   -0.4493   21.0531  -22.3605 C   0  0  0  0  0  0  0  0  0  0  0  0
    0.4491   21.7264  -23.3880 C   0  0  0  0  0  0  0  0  0  0  0  0
    1.9475   20.4716  -21.8394 C   0  0  0  0  0  0  0  0  0  0  0  0
    0.5075   20.4032  -21.3687 C   0  0  0  0  0  0  0  0  0  0  0  0
   -5.9119   21.9173  -20.5533 C   0  0  0  0  0  0  0  0  0  0  0  0
   -5.3908   21.9724  -19.1541 C   0  0  0  0  0  0  0  0  0  0  0  0
   -5.9253   23.1824  -18.4274 C   0  0  0  0  0  0  0  0  0  0  0  0
   -5.1392   23.9493  -17.8310 O   0  0  0  0  0  0  0  0  0  0  0  0
   -7.2830   23.4867  -18.3941 O   0  0  0  0  0  0  0  0  0  0  0  0
   -7.6382   24.4106  -18.3144 H   0  0  0  0  0  0  0  0  0  0  0  0
 44 45  1  0  0  0
 45 42  1  0  0  0
 42 43  1  0  0  0
 42 29  1  0  0  0
 29 30  1  0  0  0
 30 31  1  0  0  0
 31 32  2  0  0  0
 31 34  1  0  0  0
 34 35  1  0  0  0
 35 36  1  0  0  0
 36 37  2  0  0  0
 37 38  1  0  0  0
 38 39  2  0  0  0
 39 40  1  0  0  0
 40 41  2  0  0  0
 29 25  1  0  0  0
 25 26  2  0  0  0
 25 27  1  0  0  0
 27  1  1  0  0  0
  1 46  1  0  0  0
 46 47  1  0  0  0
 47 48  1  0  0  0
 48 49  2  0  0  0
 48 50  1  0  0  0
  1  2  1  0  0  0
  2  3  2  0  0  0
  2  4  1  0  0  0
  4  5  1  0  0  0
  5  6  1  0  0  0
  6  7  1  0  0  0
  7  8  1  0  0  0
  8  9  1  0  0  0
  9 10  2  0  0  0
  9 11  1  0  0  0
 11 13  1  0  0  0
 13 18  1  0  0  0
 18 19  1  0  0  0
 19 20  2  0  0  0
 20 21  1  0  0  0
 21 22  2  0  0  0
 22 23  1  0  0  0
 23 24  2  0  0  0
 13 14  1  0  0  0
 14 15  2  0  0  0
 14 16  1  0  0  0
 16 17  1  0  0  0
 41 36  1  0  0  0
  8  4  1  0  0  0
 24 19  1  0  0  0
 30 33  1  0  0  0
 27 28  1  0  0  0
 50 51  1  0  0  0
 11 12  1  0  0  0
M  END
> <minimizedAffinity>
-8.51791

> <CNNscore>
0.3107649386

> <CNNaffinity>
7.3296461105

> <CNN_VS>
2.2777969837

> <CNNaffinity_variance>
0.1361152381

$$$$
[H]OC(=O)C([H])([H])C([H])([H])[C@@]([H])(C(=O)N1C([H])([H])C([H])([H])C([H])([H])[C@@]1([H])C(=O)N([H])[C@]([H])(C(=O)OC([H])([H])[H])C([H])([H])c1c([H])c([H])c([H])c([H])c1[H])N([H])C(=O)[C@@]([H])(N([H])C(=O)OC([H])([H])c1c([H])c([H])c([H])c([H])c1[H])[C@@]([H])(C([H])([H])[H])C([H])([H])C([H])([H])[H]


 51 53  0  0  0  0  0  0  0  0999 V2000
   -5.8235   23.0979  -16.5797 C   0  0  0  0  0  0  0  0  0  0  0  0
   -7.1071   22.6945  -17.0799 C   0  0  0  0  0  0  0  0  0  0  0  0
   -7.9557   22.4817  -16.0378 O   0  0  0  0  0  0  0  0  0  0  0  0
   -7.7481   22.4473  -18.2753 N   0  0  0  0  0  0  0  0  0  0  0  0
   -9.1864   22.0588  -18.3326 C   0  0  0  0  0  0  0  0  0  0  0  0
   -9.0854   20.7864  -19.1477 C   0  0  0  0  0  0  0  0  0  0  0  0
   -8.0452   21.1238  -20.1611 C   0  0  0  0  0  0  0  0  0  0  0  0
   -7.3511   22.4063  -19.6327 C   0  0  0  0  0  0  0  0  0  0  0  0
   -7.8591   23.4867  -20.4946 C   0  0  0  0  0  0  0  0  0  0  0  0
   -8.8132   23.2821  -21.2635 O   0  0  0  0  0  0  0  0  0  0  0  0
   -7.2534   24.7657  -20.4470 N   0  0  0  0  0  0  0  0  0  0  0  0
   -6.4584   24.9871  -19.8095 H   0  0  0  0  0  0  0  0  0  0  0  0
   -7.7569   25.8347  -21.3322 C   0  0  0  0  0  0  0  0  0  0  0  0
   -8.8130   26.6010  -20.6598 C   0  0  0  0  0  0  0  0  0  0  0  0
   -8.8448   27.8810  -20.7971 O   0  0  0  0  0  0  0  0  0  0  0  0
   -9.7965   26.0733  -19.8830 O   0  0  0  0  0  0  0  0  0  0  0  0
  -11.1876   26.1931  -20.2192 C   0  0  0  0  0  0  0  0  0  0  0  0
   -8.2632   25.2005  -22.5870 C   0  0  0  0  0  0  0  0  0  0  0  0
   -7.4918   25.4420  -23.7994 C   0  0  0  0  0  0  0  0  0  0  0  0
   -7.8768   24.7414  -24.9403 C   0  0  0  0  0  0  0  0  0  0  0  0
   -7.1906   24.9594  -26.1003 C   0  0  0  0  0  0  0  0  0  0  0  0
   -6.1360   25.8444  -26.1814 C   0  0  0  0  0  0  0  0  0  0  0  0
   -5.7749   26.5357  -25.0109 C   0  0  0  0  0  0  0  0  0  0  0  0
   -6.4470   26.3288  -23.8490 C   0  0  0  0  0  0  0  0  0  0  0  0
   -4.1964   21.6527  -17.8986 C   0  0  0  0  0  0  0  0  0  0  0  0
   -4.3119   20.8100  -16.9336 O   0  0  0  0  0  0  0  0  0  0  0  0
   -4.9288   22.8366  -17.7978 N   0  0  0  0  0  0  0  0  0  0  0  0
   -4.8950   23.5746  -18.5245 H   0  0  0  0  0  0  0  0  0  0  0  0
   -3.3064   21.2640  -18.9734 C   0  0  0  0  0  0  0  0  0  0  0  0
   -3.9494   21.2639  -20.2621 N   0  0  0  0  0  0  0  0  0  0  0  0
   -4.3523   22.3374  -21.0655 C   0  0  0  0  0  0  0  0  0  0  0  0
   -4.2496   23.5570  -20.8381 O   0  0  0  0  0  0  0  0  0  0  0  0
   -4.1590   20.2857  -20.6865 H   0  0  0  0  0  0  0  0  0  0  0  0
   -4.9692   22.0583  -22.3164 O   0  0  0  0  0  0  0  0  0  0  0  0
   -4.9356   22.9731  -23.3809 C   0  0  0  0  0  0  0  0  0  0  0  0
   -3.9572   22.6731  -24.4194 C   0  0  0  0  0  0  0  0  0  0  0  0
   -2.7155   22.1544  -24.0667 C   0  0  0  0  0  0  0  0  0  0  0  0
   -1.7447   21.8535  -24.9867 C   0  0  0  0  0  0  0  0  0  0  0  0
   -1.9901   22.0682  -26.3399 C   0  0  0  0  0  0  0  0  0  0  0  0
   -3.2218   22.5833  -26.7005 C   0  0  0  0  0  0  0  0  0  0  0  0
   -4.1888   22.8807  -25.7598 C   0  0  0  0  0  0  0  0  0  0  0  0
   -2.0093   22.0350  -19.0793 C   0  0  0  0  0  0  0  0  0  0  0  0
   -1.3334   22.2686  -17.7360 C   0  0  0  0  0  0  0  0  0  0  0  0
   -0.5418   21.8485  -21.1204 C   0  0  0  0  0  0  0  0  0  0  0  0
   -1.0359   21.1620  -19.8617 C   0  0  0  0  0  0  0  0  0  0  0  0
   -5.4605   24.3798  -16.0120 C   0  0  0  0  0  0  0  0  0  0  0  0
   -5.7027   24.6541  -14.5634 C   0  0  0  0  0  0  0  0  0  0  0  0
   -6.3582   26.0000  -14.3721 C   0  0  0  0  0  0  0  0  0  0  0  0
   -5.7583   27.0404  -14.7175 O   0  0  0  0  0  0  0  0  0  0  0  0
   -7.6279   26.1336  -13.8179 O   0  0  0  0  0  0  0  0  0  0  0  0
   -8.2486   26.8771  -14.0369 H   0  0  0  0  0  0  0  0  0  0  0  0
 44 45  1  0  0  0
 45 42  1  0  0  0
 42 43  1  0  0  0
 42 29  1  0  0  0
 29 30  1  0  0  0
 30 31  1  0  0  0
 31 32  2  0  0  0
 31 34  1  0  0  0
 34 35  1  0  0  0
 35 36  1  0  0  0
 36 37  2  0  0  0
 37 38  1  0  0  0
 38 39  2  0  0  0
 39 40  1  0  0  0
 40 41  2  0  0  0
 29 25  1  0  0  0
 25 26  2  0  0  0
 25 27  1  0  0  0
 27  1  1  0  0  0
  1 46  1  0  0  0
 46 47  1  0  0  0
 47 48  1  0  0  0
 48 49  2  0  0  0
 48 50  1  0  0  0
  1  2  1  0  0  0
  2  3  2  0  0  0
  2  4  1  0  0  0
  4  5  1  0  0  0
  5  6  1  0  0  0
  6  7  1  0  0  0
  7  8  1  0  0  0
  8  9  1  0  0  0
  9 10  2  0  0  0
  9 11  1  0  0  0
 11 13  1  0  0  0
 13 18  1  0  0  0
 18 19  1  0  0  0
 19 20  2  0  0  0
 20 21  1  0  0  0
 21 22  2  0  0  0
 22 23  1  0  0  0
 23 24  2  0  0  0
 13 14  1  0  0  0
 14 15  2  0  0  0
 14 16  1  0  0  0
 16 17  1  0  0  0
 41 36  1  0  0  0
  8  4  1  0  0  0
 24 19  1  0  0  0
 30 33  1  0  0  0
 27 28  1  0  0  0
 50 51  1  0  0  0
 11 12  1  0  0  0
M  END
> <minimizedAffinity>
-7.10547

> <CNNscore>
0.2551605999

> <CNNaffinity>
6.5270814896

> <CNN_VS>
1.6654540300

> <CNNaffinity_variance>
0.2349714488

$$$$
[H]OC(=O)C([H])([H])C([H])([H])[C@@]([H])(C(=O)N1C([H])([H])C([H])([H])C([H])([H])[C@@]1([H])C(=O)N([H])[C@]([H])(C(=O)OC([H])([H])[H])C([H])([H])c1c([H])c([H])c([H])c([H])c1[H])N([H])C(=O)[C@@]([H])(N([H])C(=O)OC([H])([H])c1c([H])c([H])c([H])c([H])c1[H])[C@@]([H])(C([H])([H])[H])C([H])([H])C([H])([H])[H]


 51 53  0  0  0  0  0  0  0  0999 V2000
   -5.1033   21.7998  -18.9145 C   0  0  0  0  0  0  0  0  0  0  0  0
   -4.0919   20.8201  -18.6352 C   0  0  0  0  0  0  0  0  0  0  0  0
   -4.6267   19.5727  -18.7333 O   0  0  0  0  0  0  0  0  0  0  0  0
   -2.7587   20.7421  -18.2927 N   0  0  0  0  0  0  0  0  0  0  0  0
   -2.0632   19.4338  -18.1260 C   0  0  0  0  0  0  0  0  0  0  0  0
   -1.4920   19.6123  -16.7348 C   0  0  0  0  0  0  0  0  0  0  0  0
   -1.0628   21.0401  -16.7334 C   0  0  0  0  0  0  0  0  0  0  0  0
   -1.7542   21.6828  -17.9641 C   0  0  0  0  0  0  0  0  0  0  0  0
   -0.6742   21.8560  -18.9498 C   0  0  0  0  0  0  0  0  0  0  0  0
   -0.8490   22.5613  -19.9574 O   0  0  0  0  0  0  0  0  0  0  0  0
    0.5704   21.2116  -18.7473 N   0  0  0  0  0  0  0  0  0  0  0  0
    0.7668   20.6198  -17.9115 H   0  0  0  0  0  0  0  0  0  0  0  0
    1.6382   21.3745  -19.7538 C   0  0  0  0  0  0  0  0  0  0  0  0
    1.5006   20.3681  -20.8135 C   0  0  0  0  0  0  0  0  0  0  0  0
    1.5532   20.7414  -22.0449 O   0  0  0  0  0  0  0  0  0  0  0  0
    1.3206   19.0349  -20.6155 O   0  0  0  0  0  0  0  0  0  0  0  0
    2.3048   18.0622  -20.9998 C   0  0  0  0  0  0  0  0  0  0  0  0
    2.9556   21.2525  -19.0590 C   0  0  0  0  0  0  0  0  0  0  0  0
    3.1595   22.0985  -17.8901 C   0  0  0  0  0  0  0  0  0  0  0  0
    3.2856   23.4671  -18.1181 C   0  0  0  0  0  0  0  0  0  0  0  0
    3.4554   24.2927  -17.0443 C   0  0  0  0  0  0  0  0  0  0  0  0
    3.5055   23.8218  -15.7490 C   0  0  0  0  0  0  0  0  0  0  0  0
    3.3735   22.4350  -15.5551 C   0  0  0  0  0  0  0  0  0  0  0  0
    3.2053   21.6005  -16.6133 C   0  0  0  0  0  0  0  0  0  0  0  0
   -4.5892   22.7632  -21.2131 C   0  0  0  0  0  0  0  0  0  0  0  0
   -4.0229   23.7270  -20.5768 O   0  0  0  0  0  0  0  0  0  0  0  0
   -5.1606   21.7464  -20.4464 N   0  0  0  0  0  0  0  0  0  0  0  0
   -5.6415   20.9329  -20.8718 H   0  0  0  0  0  0  0  0  0  0  0  0
   -4.5676   22.8615  -22.6582 C   0  0  0  0  0  0  0  0  0  0  0  0
   -3.4822   22.1263  -23.2545 N   0  0  0  0  0  0  0  0  0  0  0  0
   -2.1231   22.4487  -23.3485 C   0  0  0  0  0  0  0  0  0  0  0  0
   -1.5377   23.4670  -22.9361 O   0  0  0  0  0  0  0  0  0  0  0  0
   -3.7468   21.1727  -23.7035 H   0  0  0  0  0  0  0  0  0  0  0  0
   -1.2482   21.5309  -23.9930 O   0  0  0  0  0  0  0  0  0  0  0  0
   -0.2457   21.9581  -24.8784 C   0  0  0  0  0  0  0  0  0  0  0  0
   -0.7215   22.3737  -26.1924 C   0  0  0  0  0  0  0  0  0  0  0  0
    0.1813   22.8733  -27.1255 C   0  0  0  0  0  0  0  0  0  0  0  0
   -0.1934   23.2880  -28.3773 C   0  0  0  0  0  0  0  0  0  0  0  0
   -1.5315   23.2152  -28.7535 C   0  0  0  0  0  0  0  0  0  0  0  0
   -2.4366   22.7196  -27.8328 C   0  0  0  0  0  0  0  0  0  0  0  0
   -2.0414   22.3059  -26.5754 C   0  0  0  0  0  0  0  0  0  0  0  0
   -5.8500   22.4966  -23.3725 C   0  0  0  0  0  0  0  0  0  0  0  0
   -6.9037   23.5936  -23.3216 C   0  0  0  0  0  0  0  0  0  0  0  0
   -6.2083   23.3897  -25.7023 C   0  0  0  0  0  0  0  0  0  0  0  0
   -5.5091   22.3483  -24.8501 C   0  0  0  0  0  0  0  0  0  0  0  0
   -6.4591   21.8382  -18.4071 C   0  0  0  0  0  0  0  0  0  0  0  0
   -7.1281   23.1499  -18.1538 C   0  0  0  0  0  0  0  0  0  0  0  0
   -6.1887   24.1098  -17.4653 C   0  0  0  0  0  0  0  0  0  0  0  0
   -5.8112   25.1443  -18.0559 O   0  0  0  0  0  0  0  0  0  0  0  0
   -5.7173   23.8875  -16.1747 O   0  0  0  0  0  0  0  0  0  0  0  0
   -5.4670   24.6154  -15.5473 H   0  0  0  0  0  0  0  0  0  0  0  0
 44 45  1  0  0  0
 45 42  1  0  0  0
 42 43  1  0  0  0
 42 29  1  0  0  0
 29 30  1  0  0  0
 30 31  1  0  0  0
 31 32  2  0  0  0
 31 34  1  0  0  0
 34 35  1  0  0  0
 35 36  1  0  0  0
 36 37  2  0  0  0
 37 38  1  0  0  0
 38 39  2  0  0  0
 39 40  1  0  0  0
 40 41  2  0  0  0
 29 25  1  0  0  0
 25 26  2  0  0  0
 25 27  1  0  0  0
 27  1  1  0  0  0
  1 46  1  0  0  0
 46 47  1  0  0  0
 47 48  1  0  0  0
 48 49  2  0  0  0
 48 50  1  0  0  0
  1  2  1  0  0  0
  2  3  2  0  0  0
  2  4  1  0  0  0
  4  5  1  0  0  0
  5  6  1  0  0  0
  6  7  1  0  0  0
  7  8  1  0  0  0
  8  9  1  0  0  0
  9 10  2  0  0  0
  9 11  1  0  0  0
 11 13  1  0  0  0
 13 18  1  0  0  0
 18 19  1  0  0  0
 19 20  2  0  0  0
 20 21  1  0  0  0
 21 22  2  0  0  0
 22 23  1  0  0  0
 23 24  2  0  0  0
 13 14  1  0  0  0
 14 15  2  0  0  0
 14 16  1  0  0  0
 16 17  1  0  0  0
 41 36  1  0  0  0
  8  4  1  0  0  0
 24 19  1  0  0  0
 30 33  1  0  0  0
 27 28  1  0  0  0
 50 51  1  0  0  0
 11 12  1  0  0  0
M  END
> <minimizedAffinity>
-7.07635

> <CNNscore>
0.2205469757

> <CNNaffinity>
6.4456763268

> <CNN_VS>
1.4215744734

> <CNNaffinity_variance>
0.4404372275

$$$$
[H]OC(=O)C([H])([H])C([H])([H])[C@@]([H])(C(=O)N1C([H])([H])C([H])([H])C([H])([H])[C@@]1([H])C(=O)N([H])[C@]([H])(C(=O)OC([H])([H])[H])C([H])([H])c1c([H])c([H])c([H])c([H])c1[H])N([H])C(=O)[C@@]([H])(N([H])C(=O)OC([H])([H])c1c([H])c([H])c([H])c([H])c1[H])[C@@]([H])(C([H])([H])[H])C([H])([H])C([H])([H])[H]


 51 53  0  0  0  0  0  0  0  0999 V2000
   -4.7121   22.8969  -21.5207 C   0  0  0  0  0  0  0  0  0  0  0  0
   -4.9686   24.0584  -22.3241 C   0  0  0  0  0  0  0  0  0  0  0  0
   -4.3924   25.1477  -21.7471 O   0  0  0  0  0  0  0  0  0  0  0  0
   -5.6174   24.4209  -23.4855 N   0  0  0  0  0  0  0  0  0  0  0  0
   -5.5956   25.8215  -23.9961 C   0  0  0  0  0  0  0  0  0  0  0  0
   -7.0817   26.0745  -24.1410 C   0  0  0  0  0  0  0  0  0  0  0  0
   -7.5904   24.7727  -24.6602 C   0  0  0  0  0  0  0  0  0  0  0  0
   -6.4468   23.7533  -24.4173 C   0  0  0  0  0  0  0  0  0  0  0  0
   -5.8705   23.5153  -25.7512 C   0  0  0  0  0  0  0  0  0  0  0  0
   -6.6093   23.2991  -26.7263 O   0  0  0  0  0  0  0  0  0  0  0  0
   -4.4649   23.5308  -25.9212 N   0  0  0  0  0  0  0  0  0  0  0  0
   -3.8063   23.7192  -25.1349 H   0  0  0  0  0  0  0  0  0  0  0  0
   -3.8979   23.2685  -27.2589 C   0  0  0  0  0  0  0  0  0  0  0  0
   -2.5823   22.6282  -27.1407 C   0  0  0  0  0  0  0  0  0  0  0  0
   -2.3961   21.7392  -26.2278 O   0  0  0  0  0  0  0  0  0  0  0  0
   -1.5058   22.8880  -27.9297 O   0  0  0  0  0  0  0  0  0  0  0  0
   -0.1754   22.4834  -27.5706 C   0  0  0  0  0  0  0  0  0  0  0  0
   -3.8033   24.5695  -27.9879 C   0  0  0  0  0  0  0  0  0  0  0  0
   -4.5170   24.6627  -29.2550 C   0  0  0  0  0  0  0  0  0  0  0  0
   -4.3893   25.8556  -29.9630 C   0  0  0  0  0  0  0  0  0  0  0  0
   -5.0261   25.9703  -31.1651 C   0  0  0  0  0  0  0  0  0  0  0  0
   -5.7865   24.9517  -31.7002 C   0  0  0  0  0  0  0  0  0  0  0  0
   -5.8930   23.7608  -30.9593 C   0  0  0  0  0  0  0  0  0  0  0  0
   -5.2665   23.6319  -29.7614 C   0  0  0  0  0  0  0  0  0  0  0  0
   -2.2958   22.1977  -21.9060 C   0  0  0  0  0  0  0  0  0  0  0  0
   -2.7789   21.3213  -22.7143 O   0  0  0  0  0  0  0  0  0  0  0  0
   -3.2068   23.0356  -21.2610 N   0  0  0  0  0  0  0  0  0  0  0  0
   -2.9100   23.7677  -20.5902 H   0  0  0  0  0  0  0  0  0  0  0  0
   -0.8544   22.1974  -21.7619 C   0  0  0  0  0  0  0  0  0  0  0  0
   -0.4263   21.9798  -20.4042 N   0  0  0  0  0  0  0  0  0  0  0  0
   -0.3913   22.8650  -19.3201 C   0  0  0  0  0  0  0  0  0  0  0  0
   -0.7221   24.0647  -19.2880 O   0  0  0  0  0  0  0  0  0  0  0  0
   -0.0743   20.9778  -20.1737 H   0  0  0  0  0  0  0  0  0  0  0  0
    0.0780   22.3872  -18.0652 O   0  0  0  0  0  0  0  0  0  0  0  0
    1.3536   21.8195  -17.9172 C   0  0  0  0  0  0  0  0  0  0  0  0
    2.3333   22.6718  -17.2542 C   0  0  0  0  0  0  0  0  0  0  0  0
    3.0235   23.6294  -17.9905 C   0  0  0  0  0  0  0  0  0  0  0  0
    3.9618   24.4617  -17.4370 C   0  0  0  0  0  0  0  0  0  0  0  0
    4.2532   24.3623  -16.0796 C   0  0  0  0  0  0  0  0  0  0  0  0
    3.5721   23.4135  -15.3392 C   0  0  0  0  0  0  0  0  0  0  0  0
    2.6293   22.5829  -15.9134 C   0  0  0  0  0  0  0  0  0  0  0  0
   -0.0921   21.2555  -22.6672 C   0  0  0  0  0  0  0  0  0  0  0  0
    0.4264   21.9213  -23.9337 C   0  0  0  0  0  0  0  0  0  0  0  0
    2.4042   20.9204  -22.7691 C   0  0  0  0  0  0  0  0  0  0  0  0
    1.1583   20.8257  -21.9098 C   0  0  0  0  0  0  0  0  0  0  0  0
   -5.3577   22.5217  -20.2799 C   0  0  0  0  0  0  0  0  0  0  0  0
   -5.5403   21.0793  -19.9358 C   0  0  0  0  0  0  0  0  0  0  0  0
   -4.3999   20.5805  -19.0823 C   0  0  0  0  0  0  0  0  0  0  0  0
   -3.5793   21.3914  -18.6022 O   0  0  0  0  0  0  0  0  0  0  0  0
   -4.2213   19.2292  -18.8007 O   0  0  0  0  0  0  0  0  0  0  0  0
   -3.7921   18.8919  -17.9712 H   0  0  0  0  0  0  0  0  0  0  0  0
 44 45  1  0  0  0
 45 42  1  0  0  0
 42 43  1  0  0  0
 42 29  1  0  0  0
 29 30  1  0  0  0
 30 31  1  0  0  0
 31 32  2  0  0  0
 31 34  1  0  0  0
 34 35  1  0  0  0
 35 36  1  0  0  0
 36 37  2  0  0  0
 37 38  1  0  0  0
 38 39  2  0  0  0
 39 40  1  0  0  0
 40 41  2  0  0  0
 29 25  1  0  0  0
 25 26  2  0  0  0
 25 27  1  0  0  0
 27  1  1  0  0  0
  1 46  1  0  0  0
 46 47  1  0  0  0
 47 48  1  0  0  0
 48 49  2  0  0  0
 48 50  1  0  0  0
  1  2  1  0  0  0
  2  3  2  0  0  0
  2  4  1  0  0  0
  4  5  1  0  0  0
  5  6  1  0  0  0
  6  7  1  0  0  0
  7  8  1  0  0  0
  8  9  1  0  0  0
  9 10  2  0  0  0
  9 11  1  0  0  0
 11 13  1  0  0  0
 13 18  1  0  0  0
 18 19  1  0  0  0
 19 20  2  0  0  0
 20 21  1  0  0  0
 21 22  2  0  0  0
 22 23  1  0  0  0
 23 24  2  0  0  0
 13 14  1  0  0  0
 14 15  2  0  0  0
 14 16  1  0  0  0
 16 17  1  0  0  0
 41 36  1  0  0  0
  8  4  1  0  0  0
 24 19  1  0  0  0
 30 33  1  0  0  0
 27 28  1  0  0  0
 50 51  1  0  0  0
 11 12  1  0  0  0
M  END
> <minimizedAffinity>
-8.63942

> <CNNscore>
0.2124539465

> <CNNaffinity>
6.7757911682

> <CNN_VS>
1.4395436049

> <CNNaffinity_variance>
0.4495292306

$$$$
[H]OC(=O)C([H])([H])C([H])([H])[C@@]([H])(C(=O)N1C([H])([H])C([H])([H])C([H])([H])[C@@]1([H])C(=O)N([H])[C@]([H])(C(=O)OC([H])([H])[H])C([H])([H])c1c([H])c([H])c([H])c([H])c1[H])N([H])C(=O)[C@@]([H])(N([H])C(=O)OC([H])([H])c1c([H])c([H])c([H])c([H])c1[H])[C@@]([H])(C([H])([H])[H])C([H])([H])C([H])([H])[H]


 51 53  0  0  0  0  0  0  0  0999 V2000
   -6.4781   24.3221  -21.8448 C   0  0  0  0  0  0  0  0  0  0  0  0
   -5.4511   24.9478  -22.6287 C   0  0  0  0  0  0  0  0  0  0  0  0
   -4.4400   25.3541  -21.8137 O   0  0  0  0  0  0  0  0  0  0  0  0
   -5.1686   25.2736  -23.9383 N   0  0  0  0  0  0  0  0  0  0  0  0
   -3.8875   25.9290  -24.3285 C   0  0  0  0  0  0  0  0  0  0  0  0
   -4.4221   27.1305  -25.0796 C   0  0  0  0  0  0  0  0  0  0  0  0
   -5.5848   26.5662  -25.8230 C   0  0  0  0  0  0  0  0  0  0  0  0
   -5.8727   25.1925  -25.1628 C   0  0  0  0  0  0  0  0  0  0  0  0
   -5.3806   24.2018  -26.1346 C   0  0  0  0  0  0  0  0  0  0  0  0
   -6.1799   23.5134  -26.7909 O   0  0  0  0  0  0  0  0  0  0  0  0
   -3.9869   24.0324  -26.3192 N   0  0  0  0  0  0  0  0  0  0  0  0
   -3.2792   24.5952  -25.7998 H   0  0  0  0  0  0  0  0  0  0  0  0
   -3.5052   23.0202  -27.2801 C   0  0  0  0  0  0  0  0  0  0  0  0
   -2.5071   22.1488  -26.6483 C   0  0  0  0  0  0  0  0  0  0  0  0
   -1.4049   21.9041  -27.2677 O   0  0  0  0  0  0  0  0  0  0  0  0
   -2.6352   21.5577  -25.4304 O   0  0  0  0  0  0  0  0  0  0  0  0
   -1.6380   21.6882  -24.4052 C   0  0  0  0  0  0  0  0  0  0  0  0
   -2.9308   23.7346  -28.4603 C   0  0  0  0  0  0  0  0  0  0  0  0
   -3.8814   24.2968  -29.4109 C   0  0  0  0  0  0  0  0  0  0  0  0
   -4.9252   23.4701  -29.8207 C   0  0  0  0  0  0  0  0  0  0  0  0
   -5.8475   23.9709  -30.6938 C   0  0  0  0  0  0  0  0  0  0  0  0
   -5.7826   25.2595  -31.1808 C   0  0  0  0  0  0  0  0  0  0  0  0
   -4.7165   26.0670  -30.7452 C   0  0  0  0  0  0  0  0  0  0  0  0
   -3.7903   25.5829  -29.8779 C   0  0  0  0  0  0  0  0  0  0  0  0
   -5.6577   22.1663  -20.7701 C   0  0  0  0  0  0  0  0  0  0  0  0
   -6.3925   21.5663  -21.6389 O   0  0  0  0  0  0  0  0  0  0  0  0
   -5.6443   23.5615  -20.8062 N   0  0  0  0  0  0  0  0  0  0  0  0
   -5.0856   24.1292  -20.1432 H   0  0  0  0  0  0  0  0  0  0  0  0
   -4.9372   21.3084  -19.8518 C   0  0  0  0  0  0  0  0  0  0  0  0
   -3.5962   21.0184  -20.2897 N   0  0  0  0  0  0  0  0  0  0  0  0
   -2.5329   21.8867  -20.5641 C   0  0  0  0  0  0  0  0  0  0  0  0
   -2.5100   23.1296  -20.4968 O   0  0  0  0  0  0  0  0  0  0  0  0
   -3.3619   19.9668  -20.4324 H   0  0  0  0  0  0  0  0  0  0  0  0
   -1.2913   21.3328  -20.9822 O   0  0  0  0  0  0  0  0  0  0  0  0
   -0.2731   21.0191  -20.0678 C   0  0  0  0  0  0  0  0  0  0  0  0
    0.5312   19.8546  -20.4180 C   0  0  0  0  0  0  0  0  0  0  0  0
    1.8175   20.0310  -20.9176 C   0  0  0  0  0  0  0  0  0  0  0  0
    2.6291   18.9849  -21.2730 C   0  0  0  0  0  0  0  0  0  0  0  0
    2.1666   17.6792  -21.1366 C   0  0  0  0  0  0  0  0  0  0  0  0
    0.8891   17.4936  -20.6406 C   0  0  0  0  0  0  0  0  0  0  0  0
    0.0848   18.5596  -20.2871 C   0  0  0  0  0  0  0  0  0  0  0  0
   -4.8882   21.7637  -18.4102 C   0  0  0  0  0  0  0  0  0  0  0  0
   -6.2644   21.9479  -17.7872 C   0  0  0  0  0  0  0  0  0  0  0  0
   -3.9577   21.0499  -16.1788 C   0  0  0  0  0  0  0  0  0  0  0  0
   -4.2428   20.6388  -17.6104 C   0  0  0  0  0  0  0  0  0  0  0  0
   -7.5828   24.9643  -21.1632 C   0  0  0  0  0  0  0  0  0  0  0  0
   -8.9631   24.4044  -21.2798 C   0  0  0  0  0  0  0  0  0  0  0  0
   -9.1809   23.2953  -20.2796 C   0  0  0  0  0  0  0  0  0  0  0  0
   -9.4259   23.5715  -19.0858 O   0  0  0  0  0  0  0  0  0  0  0  0
   -9.1207   21.9519  -20.6384 O   0  0  0  0  0  0  0  0  0  0  0  0
   -9.6324   21.2359  -20.1783 H   0  0  0  0  0  0  0  0  0  0  0  0
 44 45  1  0  0  0
 45 42  1  0  0  0
 42 43  1  0  0  0
 42 29  1  0  0  0
 29 30  1  0  0  0
 30 31  1  0  0  0
 31 32  2  0  0  0
 31 34  1  0  0  0
 34 35  1  0  0  0
 35 36  1  0  0  0
 36 37  2  0  0  0
 37 38  1  0  0  0
 38 39  2  0  0  0
 39 40  1  0  0  0
 40 41  2  0  0  0
 29 25  1  0  0  0
 25 26  2  0  0  0
 25 27  1  0  0  0
 27  1  1  0  0  0
  1 46  1  0  0  0
 46 47  1  0  0  0
 47 48  1  0  0  0
 48 49  2  0  0  0
 48 50  1  0  0  0
  1  2  1  0  0  0
  2  3  2  0  0  0
  2  4  1  0  0  0
  4  5  1  0  0  0
  5  6  1  0  0  0
  6  7  1  0  0  0
  7  8  1  0  0  0
  8  9  1  0  0  0
  9 10  2  0  0  0
  9 11  1  0  0  0
 11 13  1  0  0  0
 13 18  1  0  0  0
 18 19  1  0  0  0
 19 20  2  0  0  0
 20 21  1  0  0  0
 21 22  2  0  0  0
 22 23  1  0  0  0
 23 24  2  0  0  0
 13 14  1  0  0  0
 14 15  2  0  0  0
 14 16  1  0  0  0
 16 17  1  0  0  0
 41 36  1  0  0  0
  8  4  1  0  0  0
 24 19  1  0  0  0
 30 33  1  0  0  0
 27 28  1  0  0  0
 50 51  1  0  0  0
 11 12  1  0  0  0
M  END
> <minimizedAffinity>
-7.84213

> <CNNscore>
0.2101154476

> <CNNaffinity>
6.8246369362

> <CNN_VS>
1.4339616299

> <CNNaffinity_variance>
0.2673365176

$$$$
[H]OC(=O)C([H])([H])C([H])([H])[C@@]([H])(C(=O)N1C([H])([H])C([H])([H])C([H])([H])[C@@]1([H])C(=O)N([H])[C@]([H])(C(=O)OC([H])([H])[H])C([H])([H])c1c([H])c([H])c([H])c([H])c1[H])N([H])C(=O)[C@@]([H])(N([H])C(=O)OC([H])([H])c1c([H])c([H])c([H])c([H])c1[H])[C@@]([H])(C([H])([H])[H])C([H])([H])C([H])([H])[H]


 51 53  0  0  0  0  0  0  0  0999 V2000
   -4.6696   22.9979  -21.0213 C   0  0  0  0  0  0  0  0  0  0  0  0
   -5.2809   24.0833  -21.7346 C   0  0  0  0  0  0  0  0  0  0  0  0
   -5.5103   25.1176  -20.8807 O   0  0  0  0  0  0  0  0  0  0  0  0
   -5.7148   24.4064  -23.0028 N   0  0  0  0  0  0  0  0  0  0  0  0
   -6.2925   25.7435  -23.3212 C   0  0  0  0  0  0  0  0  0  0  0  0
   -7.6076   25.3231  -23.9435 C   0  0  0  0  0  0  0  0  0  0  0  0
   -7.2275   24.1234  -24.7429 C   0  0  0  0  0  0  0  0  0  0  0  0
   -5.8232   23.7104  -24.2298 C   0  0  0  0  0  0  0  0  0  0  0  0
   -4.8995   24.1243  -25.2991 C   0  0  0  0  0  0  0  0  0  0  0  0
   -3.8212   24.6750  -25.0209 O   0  0  0  0  0  0  0  0  0  0  0  0
   -5.2453   23.8945  -26.6529 N   0  0  0  0  0  0  0  0  0  0  0  0
   -6.1334   23.4257  -26.9337 H   0  0  0  0  0  0  0  0  0  0  0  0
   -4.3213   24.3342  -27.7172 C   0  0  0  0  0  0  0  0  0  0  0  0
   -5.0526   25.0613  -28.7617 C   0  0  0  0  0  0  0  0  0  0  0  0
   -5.8245   26.0359  -28.4257 O   0  0  0  0  0  0  0  0  0  0  0  0
   -4.9899   24.8002  -30.0948 O   0  0  0  0  0  0  0  0  0  0  0  0
   -4.8823   25.8424  -31.0769 C   0  0  0  0  0  0  0  0  0  0  0  0
   -3.6424   23.1248  -28.2735 C   0  0  0  0  0  0  0  0  0  0  0  0
   -2.2799   22.8736  -27.8218 C   0  0  0  0  0  0  0  0  0  0  0  0
   -1.2518   23.2511  -28.6827 C   0  0  0  0  0  0  0  0  0  0  0  0
    0.0382   23.0513  -28.2828 C   0  0  0  0  0  0  0  0  0  0  0  0
    0.3569   22.4925  -27.0629 C   0  0  0  0  0  0  0  0  0  0  0  0
   -0.7056   22.1242  -26.2181 C   0  0  0  0  0  0  0  0  0  0  0  0
   -1.9942   22.3155  -26.6022 C   0  0  0  0  0  0  0  0  0  0  0  0
   -6.0294   22.4292  -18.9469 C   0  0  0  0  0  0  0  0  0  0  0  0
   -5.1043   23.0364  -18.2910 O   0  0  0  0  0  0  0  0  0  0  0  0
   -5.8860   22.3652  -20.3338 N   0  0  0  0  0  0  0  0  0  0  0  0
   -6.5788   21.8930  -20.9429 H   0  0  0  0  0  0  0  0  0  0  0  0
   -7.1083   21.8776  -18.1531 C   0  0  0  0  0  0  0  0  0  0  0  0
   -8.4103   22.2785  -18.6203 N   0  0  0  0  0  0  0  0  0  0  0  0
   -9.0882   21.9350  -19.7961 C   0  0  0  0  0  0  0  0  0  0  0  0
   -8.7067   21.1972  -20.7234 O   0  0  0  0  0  0  0  0  0  0  0  0
   -8.9610   22.9509  -17.9680 H   0  0  0  0  0  0  0  0  0  0  0  0
  -10.3866   22.4728  -20.0160 O   0  0  0  0  0  0  0  0  0  0  0  0
  -10.6750   23.8292  -19.7965 C   0  0  0  0  0  0  0  0  0  0  0  0
  -11.3617   24.4979  -20.8952 C   0  0  0  0  0  0  0  0  0  0  0  0
  -10.6250   25.2102  -21.8361 C   0  0  0  0  0  0  0  0  0  0  0  0
  -11.2015   25.8680  -22.8916 C   0  0  0  0  0  0  0  0  0  0  0  0
  -12.5841   25.8356  -23.0491 C   0  0  0  0  0  0  0  0  0  0  0  0
  -13.3251   25.1298  -22.1190 C   0  0  0  0  0  0  0  0  0  0  0  0
  -12.7274   24.4723  -21.0612 C   0  0  0  0  0  0  0  0  0  0  0  0
   -7.1016   20.3765  -17.9666 C   0  0  0  0  0  0  0  0  0  0  0  0
   -5.7825   19.8399  -17.4298 C   0  0  0  0  0  0  0  0  0  0  0  0
   -8.8563   18.7586  -17.1558 C   0  0  0  0  0  0  0  0  0  0  0  0
   -8.1246   20.0585  -16.8831 C   0  0  0  0  0  0  0  0  0  0  0  0
   -3.8477   21.9365  -21.5645 C   0  0  0  0  0  0  0  0  0  0  0  0
   -3.0918   22.1492  -22.8356 C   0  0  0  0  0  0  0  0  0  0  0  0
   -1.8462   22.9657  -22.5916 C   0  0  0  0  0  0  0  0  0  0  0  0
   -0.7614   22.3925  -22.3544 O   0  0  0  0  0  0  0  0  0  0  0  0
   -1.8548   24.3572  -22.6218 O   0  0  0  0  0  0  0  0  0  0  0  0
   -1.0686   24.9070  -22.8781 H   0  0  0  0  0  0  0  0  0  0  0  0
 44 45  1  0  0  0
 45 42  1  0  0  0
 42 43  1  0  0  0
 42 29  1  0  0  0
 29 30  1  0  0  0
 30 31  1  0  0  0
 31 32  2  0  0  0
 31 34  1  0  0  0
 34 35  1  0  0  0
 35 36  1  0  0  0
 36 37  2  0  0  0
 37 38  1  0  0  0
 38 39  2  0  0  0
 39 40  1  0  0  0
 40 41  2  0  0  0
 29 25  1  0  0  0
 25 26  2  0  0  0
 25 27  1  0  0  0
 27  1  1  0  0  0
  1 46  1  0  0  0
 46 47  1  0  0  0
 47 48  1  0  0  0
 48 49  2  0  0  0
 48 50  1  0  0  0
  1  2  1  0  0  0
  2  3  2  0  0  0
  2  4  1  0  0  0
  4  5  1  0  0  0
  5  6  1  0  0  0
  6  7  1  0  0  0
  7  8  1  0  0  0
  8  9  1  0  0  0
  9 10  2  0  0  0
  9 11  1  0  0  0
 11 13  1  0  0  0
 13 18  1  0  0  0
 18 19  1  0  0  0
 19 20  2  0  0  0
 20 21  1  0  0  0
 21 22  2  0  0  0
 22 23  1  0  0  0
 23 24  2  0  0  0
 13 14  1  0  0  0
 14 15  2  0  0  0
 14 16  1  0  0  0
 16 17  1  0  0  0
 41 36  1  0  0  0
  8  4  1  0  0  0
 24 19  1  0  0  0
 30 33  1  0  0  0
 27 28  1  0  0  0
 50 51  1  0  0  0
 11 12  1  0  0  0
M  END
> <minimizedAffinity>
-8.26976

> <CNNscore>
0.1942385435

> <CNNaffinity>
6.4687318802

> <CNN_VS>
1.2564771175

> <CNNaffinity_variance>
0.8785236478

$$$$
[H]OC(=O)C([H])([H])C([H])([H])[C@@]([H])(C(=O)N1C([H])([H])C([H])([H])C([H])([H])[C@@]1([H])C(=O)N([H])[C@]([H])(C(=O)OC([H])([H])[H])C([H])([H])c1c([H])c([H])c([H])c([H])c1[H])N([H])C(=O)[C@@]([H])(N([H])C(=O)OC([H])([H])c1c([H])c([H])c([H])c([H])c1[H])[C@@]([H])(C([H])([H])[H])C([H])([H])C([H])([H])[H]


 51 53  0  0  0  0  0  0  0  0999 V2000
   -7.7049   24.2458  -22.6611 C   0  0  0  0  0  0  0  0  0  0  0  0
   -6.3632   24.6448  -22.9793 C   0  0  0  0  0  0  0  0  0  0  0  0
   -5.5953   24.5958  -21.8570 O   0  0  0  0  0  0  0  0  0  0  0  0
   -5.6106   25.0678  -24.0543 N   0  0  0  0  0  0  0  0  0  0  0  0
   -4.1532   25.3573  -23.9308 C   0  0  0  0  0  0  0  0  0  0  0  0
   -4.1140   26.7649  -24.4881 C   0  0  0  0  0  0  0  0  0  0  0  0
   -5.0820   26.7000  -25.6203 C   0  0  0  0  0  0  0  0  0  0  0  0
   -5.8884   25.3930  -25.4029 C   0  0  0  0  0  0  0  0  0  0  0  0
   -5.3701   24.4622  -26.4193 C   0  0  0  0  0  0  0  0  0  0  0  0
   -5.8687   23.3318  -26.5498 O   0  0  0  0  0  0  0  0  0  0  0  0
   -4.2948   24.8590  -27.2507 N   0  0  0  0  0  0  0  0  0  0  0  0
   -3.8526   25.8011  -27.1854 H   0  0  0  0  0  0  0  0  0  0  0  0
   -3.7688   23.9089  -28.2509 C   0  0  0  0  0  0  0  0  0  0  0  0
   -4.7414   23.7141  -29.3329 C   0  0  0  0  0  0  0  0  0  0  0  0
   -5.0464   22.5166  -29.6955 O   0  0  0  0  0  0  0  0  0  0  0  0
   -5.3761   24.7078  -30.0104 O   0  0  0  0  0  0  0  0  0  0  0  0
   -5.8606   24.5347  -31.3511 C   0  0  0  0  0  0  0  0  0  0  0  0
   -3.4668   22.6208  -27.5560 C   0  0  0  0  0  0  0  0  0  0  0  0
   -2.1968   22.5429  -26.8459 C   0  0  0  0  0  0  0  0  0  0  0  0
   -1.0434   22.7759  -27.5916 C   0  0  0  0  0  0  0  0  0  0  0  0
    0.1633   22.7331  -26.9545 C   0  0  0  0  0  0  0  0  0  0  0  0
    0.2793   22.4694  -25.6058 C   0  0  0  0  0  0  0  0  0  0  0  0
   -0.9054   22.2401  -24.8831 C   0  0  0  0  0  0  0  0  0  0  0  0
   -2.1132   22.2780  -25.5030 C   0  0  0  0  0  0  0  0  0  0  0  0
   -7.7052   22.5262  -20.7854 C   0  0  0  0  0  0  0  0  0  0  0  0
   -7.9573   21.6636  -21.7057 O   0  0  0  0  0  0  0  0  0  0  0  0
   -7.5621   23.8560  -21.1846 N   0  0  0  0  0  0  0  0  0  0  0  0
   -7.3625   24.6195  -20.5129 H   0  0  0  0  0  0  0  0  0  0  0  0
   -7.6084   22.0025  -19.4382 C   0  0  0  0  0  0  0  0  0  0  0  0
   -6.3535   22.3139  -18.8039 N   0  0  0  0  0  0  0  0  0  0  0  0
   -5.8697   23.5354  -18.3204 C   0  0  0  0  0  0  0  0  0  0  0  0
   -6.4238   24.6500  -18.3373 O   0  0  0  0  0  0  0  0  0  0  0  0
   -5.6684   21.4801  -18.6752 H   0  0  0  0  0  0  0  0  0  0  0  0
   -4.5790   23.5688  -17.7235 O   0  0  0  0  0  0  0  0  0  0  0  0
   -3.7093   22.4677  -17.7739 C   0  0  0  0  0  0  0  0  0  0  0  0
   -2.7434   22.4960  -18.8657 C   0  0  0  0  0  0  0  0  0  0  0  0
   -1.4441   22.9311  -18.6248 C   0  0  0  0  0  0  0  0  0  0  0  0
   -0.4845   22.9901  -19.6020 C   0  0  0  0  0  0  0  0  0  0  0  0
   -0.8014   22.6023  -20.9006 C   0  0  0  0  0  0  0  0  0  0  0  0
   -2.0904   22.1680  -21.1500 C   0  0  0  0  0  0  0  0  0  0  0  0
   -3.0451   22.1148  -20.1530 C   0  0  0  0  0  0  0  0  0  0  0  0
   -8.7323   22.3710  -18.4953 C   0  0  0  0  0  0  0  0  0  0  0  0
  -10.1010   22.3811  -19.1607 C   0  0  0  0  0  0  0  0  0  0  0  0
   -9.9204   21.5185  -16.4420 C   0  0  0  0  0  0  0  0  0  0  0  0
   -8.8136   21.2675  -17.4478 C   0  0  0  0  0  0  0  0  0  0  0  0
   -8.9168   25.0239  -22.8137 C   0  0  0  0  0  0  0  0  0  0  0  0
   -9.7676   25.3277  -21.6237 C   0  0  0  0  0  0  0  0  0  0  0  0
   -9.2359   26.5239  -20.8725 C   0  0  0  0  0  0  0  0  0  0  0  0
   -9.7187   27.6572  -21.0826 O   0  0  0  0  0  0  0  0  0  0  0  0
   -8.2117   26.4154  -19.9363 O   0  0  0  0  0  0  0  0  0  0  0  0
   -8.1112   27.0234  -19.1577 H   0  0  0  0  0  0  0  0  0  0  0  0
 44 45  1  0  0  0
 45 42  1  0  0  0
 42 43  1  0  0  0
 42 29  1  0  0  0
 29 30  1  0  0  0
 30 31  1  0  0  0
 31 32  2  0  0  0
 31 34  1  0  0  0
 34 35  1  0  0  0
 35 36  1  0  0  0
 36 37  2  0  0  0
 37 38  1  0  0  0
 38 39  2  0  0  0
 39 40  1  0  0  0
 40 41  2  0  0  0
 29 25  1  0  0  0
 25 26  2  0  0  0
 25 27  1  0  0  0
 27  1  1  0  0  0
  1 46  1  0  0  0
 46 47  1  0  0  0
 47 48  1  0  0  0
 48 49  2  0  0  0
 48 50  1  0  0  0
  1  2  1  0  0  0
  2  3  2  0  0  0
  2  4  1  0  0  0
  4  5  1  0  0  0
  5  6  1  0  0  0
  6  7  1  0  0  0
  7  8  1  0  0  0
  8  9  1  0  0  0
  9 10  2  0  0  0
  9 11  1  0  0  0
 11 13  1  0  0  0
 13 18  1  0  0  0
 18 19  1  0  0  0
 19 20  2  0  0  0
 20 21  1  0  0  0
 21 22  2  0  0  0
 22 23  1  0  0  0
 23 24  2  0  0  0
 13 14  1  0  0  0
 14 15  2  0  0  0
 14 16  1  0  0  0
 16 17  1  0  0  0
 41 36  1  0  0  0
  8  4  1  0  0  0
 24 19  1  0  0  0
 30 33  1  0  0  0
 27 28  1  0  0  0
 50 51  1  0  0  0
 11 12  1  0  0  0
M  END
> <minimizedAffinity>
-8.28126

> <CNNscore>
0.1941421926

> <CNNaffinity>
7.0182981491

> <CNN_VS>
1.3625477552

> <CNNaffinity_variance>
0.3835441470

$$$$
[H]OC(=O)C([H])([H])C([H])([H])[C@@]([H])(C(=O)N1C([H])([H])C([H])([H])C([H])([H])[C@@]1([H])C(=O)N([H])[C@]([H])(C(=O)OC([H])([H])[H])C([H])([H])c1c([H])c([H])c([H])c([H])c1[H])N([H])C(=O)[C@@]([H])(N([H])C(=O)OC([H])([H])c1c([H])c([H])c([H])c([H])c1[H])[C@@]([H])(C([H])([H])[H])C([H])([H])C([H])([H])[H]


 51 53  0  0  0  0  0  0  0  0999 V2000
   -7.7970   23.7341  -22.1105 C   0  0  0  0  0  0  0  0  0  0  0  0
   -6.3992   24.0580  -22.1530 C   0  0  0  0  0  0  0  0  0  0  0  0
   -5.9128   24.1440  -20.8851 O   0  0  0  0  0  0  0  0  0  0  0  0
   -5.3991   24.3165  -23.0662 N   0  0  0  0  0  0  0  0  0  0  0  0
   -3.9959   24.5889  -22.6421 C   0  0  0  0  0  0  0  0  0  0  0  0
   -3.7567   25.9076  -23.3474 C   0  0  0  0  0  0  0  0  0  0  0  0
   -4.4411   25.7117  -24.6574 C   0  0  0  0  0  0  0  0  0  0  0  0
   -5.3428   24.4633  -24.4723 C   0  0  0  0  0  0  0  0  0  0  0  0
   -4.6543   23.3934  -25.2135 C   0  0  0  0  0  0  0  0  0  0  0  0
   -5.0509   22.2187  -25.1362 O   0  0  0  0  0  0  0  0  0  0  0  0
   -3.5316   23.7072  -26.0173 N   0  0  0  0  0  0  0  0  0  0  0  0
   -3.1701   24.6798  -26.1218 H   0  0  0  0  0  0  0  0  0  0  0  0
   -2.8357   22.6227  -26.7380 C   0  0  0  0  0  0  0  0  0  0  0  0
   -1.6400   22.2014  -25.9981 C   0  0  0  0  0  0  0  0  0  0  0  0
   -0.4767   22.4345  -26.4991 O   0  0  0  0  0  0  0  0  0  0  0  0
   -1.6402   21.5712  -24.7932 O   0  0  0  0  0  0  0  0  0  0  0  0
   -1.2776   22.2418  -23.5762 C   0  0  0  0  0  0  0  0  0  0  0  0
   -2.4810   23.1222  -28.1011 C   0  0  0  0  0  0  0  0  0  0  0  0
   -3.5690   23.6709  -28.9002 C   0  0  0  0  0  0  0  0  0  0  0  0
   -4.6288   22.8152  -29.1924 C   0  0  0  0  0  0  0  0  0  0  0  0
   -5.6763   23.3018  -29.9203 C   0  0  0  0  0  0  0  0  0  0  0  0
   -5.7217   24.6036  -30.3732 C   0  0  0  0  0  0  0  0  0  0  0  0
   -4.6356   25.4403  -30.0590 C   0  0  0  0  0  0  0  0  0  0  0  0
   -3.5857   24.9707  -29.3369 C   0  0  0  0  0  0  0  0  0  0  0  0
   -8.3595   21.9300  -20.4062 C   0  0  0  0  0  0  0  0  0  0  0  0
   -8.5984   21.1788  -21.4227 O   0  0  0  0  0  0  0  0  0  0  0  0
   -7.9484   23.2381  -20.6670 N   0  0  0  0  0  0  0  0  0  0  0  0
   -7.7377   23.9155  -19.9115 H   0  0  0  0  0  0  0  0  0  0  0  0
   -8.5568   21.3179  -19.1082 C   0  0  0  0  0  0  0  0  0  0  0  0
   -9.9470   21.1363  -18.7790 N   0  0  0  0  0  0  0  0  0  0  0  0
  -10.9132   22.0790  -18.4076 C   0  0  0  0  0  0  0  0  0  0  0  0
  -10.7827   23.3092  -18.2689 O   0  0  0  0  0  0  0  0  0  0  0  0
  -10.3142   20.1144  -18.8222 H   0  0  0  0  0  0  0  0  0  0  0  0
  -12.2354   21.6295  -18.1377 O   0  0  0  0  0  0  0  0  0  0  0  0
  -12.6023   21.1127  -16.8848 C   0  0  0  0  0  0  0  0  0  0  0  0
  -12.6070   19.6574  -16.7969 C   0  0  0  0  0  0  0  0  0  0  0  0
  -11.8608   19.0247  -15.8078 C   0  0  0  0  0  0  0  0  0  0  0  0
  -11.8126   17.6619  -15.6675 C   0  0  0  0  0  0  0  0  0  0  0  0
  -12.5345   16.8550  -16.5422 C   0  0  0  0  0  0  0  0  0  0  0  0
  -13.2796   17.4747  -17.5287 C   0  0  0  0  0  0  0  0  0  0  0  0
  -13.3169   18.8498  -17.6556 C   0  0  0  0  0  0  0  0  0  0  0  0
   -7.8273   20.0153  -18.8653 C   0  0  0  0  0  0  0  0  0  0  0  0
   -6.3784   20.2041  -18.4394 C   0  0  0  0  0  0  0  0  0  0  0  0
   -8.3317   17.8366  -17.7021 C   0  0  0  0  0  0  0  0  0  0  0  0
   -8.5015   19.3433  -17.6755 C   0  0  0  0  0  0  0  0  0  0  0  0
   -8.9142   24.6037  -22.4150 C   0  0  0  0  0  0  0  0  0  0  0  0
   -8.8502   26.0558  -22.0691 C   0  0  0  0  0  0  0  0  0  0  0  0
   -9.5092   26.3222  -20.7378 C   0  0  0  0  0  0  0  0  0  0  0  0
   -9.4054   27.4476  -20.2047 O   0  0  0  0  0  0  0  0  0  0  0  0
  -10.2433   25.3486  -20.0666 O   0  0  0  0  0  0  0  0  0  0  0  0
  -10.9991   25.5528  -19.4558 H   0  0  0  0  0  0  0  0  0  0  0  0
 44 45  1  0  0  0
 45 42  1  0  0  0
 42 43  1  0  0  0
 42 29  1  0  0  0
 29 30  1  0  0  0
 30 31  1  0  0  0
 31 32  2  0  0  0
 31 34  1  0  0  0
 34 35  1  0  0  0
 35 36  1  0  0  0
 36 37  2  0  0  0
 37 38  1  0  0  0
 38 39  2  0  0  0
 39 40  1  0  0  0
 40 41  2  0  0  0
 29 25  1  0  0  0
 25 26  2  0  0  0
 25 27  1  0  0  0
 27  1  1  0  0  0
  1 46  1  0  0  0
 46 47  1  0  0  0
 47 48  1  0  0  0
 48 49  2  0  0  0
 48 50  1  0  0  0
  1  2  1  0  0  0
  2  3  2  0  0  0
  2  4  1  0  0  0
  4  5  1  0  0  0
  5  6  1  0  0  0
  6  7  1  0  0  0
  7  8  1  0  0  0
  8  9  1  0  0  0
  9 10  2  0  0  0
  9 11  1  0  0  0
 11 13  1  0  0  0
 13 18  1  0  0  0
 18 19  1  0  0  0
 19 20  2  0  0  0
 20 21  1  0  0  0
 21 22  2  0  0  0
 22 23  1  0  0  0
 23 24  2  0  0  0
 13 14  1  0  0  0
 14 15  2  0  0  0
 14 16  1  0  0  0
 16 17  1  0  0  0
 41 36  1  0  0  0
  8  4  1  0  0  0
 24 19  1  0  0  0
 30 33  1  0  0  0
 27 28  1  0  0  0
 50 51  1  0  0  0
 11 12  1  0  0  0
M  END
> <minimizedAffinity>
-8.16093

> <CNNscore>
0.1885856539

> <CNNaffinity>
6.4674277306

> <CNN_VS>
1.2196640968

> <CNNaffinity_variance>
0.1343141496

$$$$
[H]Oc1c([H])c([H])c([H])c(C2([H])C([H])([H])N(C([H])([H])C([H])([H])C([H])([H])C([H])([H])C([H])([H])C([H])([H])C([H])([H])C([H])([H])C([H])([H])[H])C([H])([H])C2([H])[H])c1[H]


 22 23  0  0  0  0  0  0  0  0999 V2000
   -4.3004   25.4682  -24.6067 N   0  0  0  0  0  0  0  0  0  0  0  0
   -5.4775   26.2540  -24.8580 C   0  0  0  0  0  0  0  0  0  0  0  0
   -5.5060   26.5258  -26.3410 C   0  0  0  0  0  0  0  0  0  0  0  0
   -4.4253   25.6468  -26.8999 C   0  0  0  0  0  0  0  0  0  0  0  0
   -4.1312   24.6658  -25.8275 C   0  0  0  0  0  0  0  0  0  0  0  0
   -4.8424   25.0002  -28.1756 C   0  0  0  0  0  0  0  0  0  0  0  0
   -4.8597   23.6238  -28.2340 C   0  0  0  0  0  0  0  0  0  0  0  0
   -5.2476   22.9661  -29.4062 C   0  0  0  0  0  0  0  0  0  0  0  0
   -5.6110   23.7229  -30.4983 C   0  0  0  0  0  0  0  0  0  0  0  0
   -5.5856   25.0896  -30.4158 C   0  0  0  0  0  0  0  0  0  0  0  0
   -5.9551   25.8300  -31.5261 O   0  0  0  0  0  0  0  0  0  0  0  0
   -5.2012   25.7624  -29.2546 C   0  0  0  0  0  0  0  0  0  0  0  0
   -6.2407   25.3834  -32.3930 H   0  0  0  0  0  0  0  0  0  0  0  0
   -4.3709   24.6254  -23.4594 C   0  0  0  0  0  0  0  0  0  0  0  0
   -5.0934   23.3328  -23.6676 C   0  0  0  0  0  0  0  0  0  0  0  0
   -4.3667   22.1352  -23.1665 C   0  0  0  0  0  0  0  0  0  0  0  0
   -3.4751   21.4523  -24.1491 C   0  0  0  0  0  0  0  0  0  0  0  0
   -1.9818   21.7347  -23.8448 C   0  0  0  0  0  0  0  0  0  0  0  0
   -1.2566   22.0823  -25.0857 C   0  0  0  0  0  0  0  0  0  0  0  0
   -1.9498   22.0322  -26.3772 C   0  0  0  0  0  0  0  0  0  0  0  0
    0.1145   22.6904  -27.5588 C   0  0  0  0  0  0  0  0  0  0  0  0
   -1.3726   22.7025  -27.5695 C   0  0  0  0  0  0  0  0  0  0  0  0
 21 22  1  0  0  0
 22 20  1  0  0  0
 20 19  1  0  0  0
 19 18  1  0  0  0
 18 17  1  0  0  0
 17 16  1  0  0  0
 16 15  1  0  0  0
 15 14  1  0  0  0
 14  1  1  0  0  0
  1  2  1  0  0  0
  2  3  1  0  0  0
  3  4  1  0  0  0
  4  6  1  0  0  0
  6  7  2  0  0  0
  7  8  1  0  0  0
  8  9  2  0  0  0
  9 10  1  0  0  0
 10 11  1  0  0  0
 10 12  2  0  0  0
  4  5  1  0  0  0
  5  1  1  0  0  0
 12  6  1  0  0  0
 11 13  1  0  0  0
M  END
> <minimizedAffinity>
-7.03643

> <CNNscore>
0.4752624929

> <CNNaffinity>
6.2971372604

> <CNN_VS>
2.9927930832

> <CNNaffinity_variance>
0.0576678999

$$$$
[H]Oc1c([H])c([H])c([H])c(C2([H])C([H])([H])N(C([H])([H])C([H])([H])C([H])([H])C([H])([H])C([H])([H])C([H])([H])C([H])([H])C([H])([H])C([H])([H])[H])C([H])([H])C2([H])[H])c1[H]


 22 23  0  0  0  0  0  0  0  0999 V2000
   -4.7674   24.5901  -24.0223 N   0  0  0  0  0  0  0  0  0  0  0  0
   -5.1818   23.2290  -24.2273 C   0  0  0  0  0  0  0  0  0  0  0  0
   -6.0313   23.2199  -25.4733 C   0  0  0  0  0  0  0  0  0  0  0  0
   -5.8501   24.5914  -26.0556 C   0  0  0  0  0  0  0  0  0  0  0  0
   -4.6510   25.1433  -25.3799 C   0  0  0  0  0  0  0  0  0  0  0  0
   -5.7094   24.5489  -27.5381 C   0  0  0  0  0  0  0  0  0  0  0  0
   -5.5949   23.3186  -28.1475 C   0  0  0  0  0  0  0  0  0  0  0  0
   -5.4648   23.2221  -29.5371 C   0  0  0  0  0  0  0  0  0  0  0  0
   -5.4538   24.3813  -30.2810 C   0  0  0  0  0  0  0  0  0  0  0  0
   -5.5690   25.5924  -29.6524 C   0  0  0  0  0  0  0  0  0  0  0  0
   -5.5554   26.7446  -30.4205 O   0  0  0  0  0  0  0  0  0  0  0  0
   -5.6994   25.7074  -28.2673 C   0  0  0  0  0  0  0  0  0  0  0  0
   -5.4613   26.7093  -31.4317 H   0  0  0  0  0  0  0  0  0  0  0  0
   -3.5425   24.7474  -23.3108 C   0  0  0  0  0  0  0  0  0  0  0  0
   -2.9733   23.4858  -22.7447 C   0  0  0  0  0  0  0  0  0  0  0  0
   -1.5228   23.2918  -23.0127 C   0  0  0  0  0  0  0  0  0  0  0  0
   -1.0057   21.9026  -22.8401 C   0  0  0  0  0  0  0  0  0  0  0  0
    0.0744   21.5685  -23.9002 C   0  0  0  0  0  0  0  0  0  0  0  0
    0.1716   22.6529  -24.9008 C   0  0  0  0  0  0  0  0  0  0  0  0
   -0.0169   22.3545  -26.3243 C   0  0  0  0  0  0  0  0  0  0  0  0
   -2.4760   22.2072  -26.4734 C   0  0  0  0  0  0  0  0  0  0  0  0
   -1.2380   22.8102  -27.0353 C   0  0  0  0  0  0  0  0  0  0  0  0
 21 22  1  0  0  0
 22 20  1  0  0  0
 20 19  1  0  0  0
 19 18  1  0  0  0
 18 17  1  0  0  0
 17 16  1  0  0  0
 16 15  1  0  0  0
 15 14  1  0  0  0
 14  1  1  0  0  0
  1  2  1  0  0  0
  2  3  1  0  0  0
  3  4  1  0  0  0
  4  6  1  0  0  0
  6  7  2  0  0  0
  7  8  1  0  0  0
  8  9  2  0  0  0
  9 10  1  0  0  0
 10 11  1  0  0  0
 10 12  2  0  0  0
  4  5  1  0  0  0
  5  1  1  0  0  0
 12  6  1  0  0  0
 11 13  1  0  0  0
M  END
> <minimizedAffinity>
-6.82508

> <CNNscore>
0.4438175559

> <CNNaffinity>
6.1603231430

> <CNN_VS>
2.7340595722

> <CNNaffinity_variance>
0.3028880954

$$$$
[H]Oc1c([H])c([H])c([H])c(C2([H])C([H])([H])N(C([H])([H])C([H])([H])C([H])([H])C([H])([H])C([H])([H])C([H])([H])C([H])([H])C([H])([H])C([H])([H])[H])C([H])([H])C2([H])[H])c1[H]


 22 23  0  0  0  0  0  0  0  0999 V2000
   -5.5916   25.6982  -24.1683 N   0  0  0  0  0  0  0  0  0  0  0  0
   -6.8641   25.0499  -24.3315 C   0  0  0  0  0  0  0  0  0  0  0  0
   -7.2082   25.1383  -25.7971 C   0  0  0  0  0  0  0  0  0  0  0  0
   -5.9522   25.6465  -26.4429 C   0  0  0  0  0  0  0  0  0  0  0  0
   -4.8865   25.4392  -25.4327 C   0  0  0  0  0  0  0  0  0  0  0  0
   -5.6711   24.9507  -27.7299 C   0  0  0  0  0  0  0  0  0  0  0  0
   -5.0786   23.7078  -27.6836 C   0  0  0  0  0  0  0  0  0  0  0  0
   -4.7970   23.0093  -28.8626 C   0  0  0  0  0  0  0  0  0  0  0  0
   -5.1243   23.5900  -30.0680 C   0  0  0  0  0  0  0  0  0  0  0  0
   -5.7125   24.8265  -30.0882 C   0  0  0  0  0  0  0  0  0  0  0  0
   -6.0328   25.3909  -31.3116 O   0  0  0  0  0  0  0  0  0  0  0  0
   -6.0005   25.5376  -28.9220 C   0  0  0  0  0  0  0  0  0  0  0  0
   -5.8406   24.9105  -32.1862 H   0  0  0  0  0  0  0  0  0  0  0  0
   -4.8188   25.2408  -23.0614 C   0  0  0  0  0  0  0  0  0  0  0  0
   -3.4019   24.8867  -23.3825 C   0  0  0  0  0  0  0  0  0  0  0  0
   -2.7811   23.9196  -22.4375 C   0  0  0  0  0  0  0  0  0  0  0  0
   -1.4942   23.3072  -22.8797 C   0  0  0  0  0  0  0  0  0  0  0  0
   -1.6814   21.8159  -23.2582 C   0  0  0  0  0  0  0  0  0  0  0  0
   -2.5644   21.6873  -24.4373 C   0  0  0  0  0  0  0  0  0  0  0  0
   -3.8954   21.0884  -24.2933 C   0  0  0  0  0  0  0  0  0  0  0  0
   -6.3208   21.4071  -23.9668 C   0  0  0  0  0  0  0  0  0  0  0  0
   -5.1079   21.8348  -24.7137 C   0  0  0  0  0  0  0  0  0  0  0  0
 21 22  1  0  0  0
 22 20  1  0  0  0
 20 19  1  0  0  0
 19 18  1  0  0  0
 18 17  1  0  0  0
 17 16  1  0  0  0
 16 15  1  0  0  0
 15 14  1  0  0  0
 14  1  1  0  0  0
  1  2  1  0  0  0
  2  3  1  0  0  0
  3  4  1  0  0  0
  4  6  1  0  0  0
  6  7  2  0  0  0
  7  8  1  0  0  0
  8  9  2  0  0  0
  9 10  1  0  0  0
 10 11  1  0  0  0
 10 12  2  0  0  0
  4  5  1  0  0  0
  5  1  1  0  0  0
 12  6  1  0  0  0
 11 13  1  0  0  0
M  END
> <minimizedAffinity>
-6.14477

> <CNNscore>
0.3855990767

> <CNNaffinity>
6.0330996513

> <CNN_VS>
2.3263576031

> <CNNaffinity_variance>
0.0223557018

$$$$
[H]Oc1c([H])c([H])c([H])c(C2([H])C([H])([H])N(C([H])([H])C([H])([H])C([H])([H])C([H])([H])C([H])([H])C([H])([H])C([H])([H])C([H])([H])C([H])([H])[H])C([H])([H])C2([H])[H])c1[H]


 22 23  0  0  0  0  0  0  0  0999 V2000
   -5.5503   22.2260  -24.6635 N   0  0  0  0  0  0  0  0  0  0  0  0
   -4.8624   22.1688  -23.4027 C   0  0  0  0  0  0  0  0  0  0  0  0
   -3.5139   21.5509  -23.6749 C   0  0  0  0  0  0  0  0  0  0  0  0
   -3.4223   21.5058  -25.1724 C   0  0  0  0  0  0  0  0  0  0  0  0
   -4.4808   22.4266  -25.6527 C   0  0  0  0  0  0  0  0  0  0  0  0
   -2.0647   21.8844  -25.6553 C   0  0  0  0  0  0  0  0  0  0  0  0
   -1.9337   22.3252  -26.9540 C   0  0  0  0  0  0  0  0  0  0  0  0
   -0.6823   22.6975  -27.4564 C   0  0  0  0  0  0  0  0  0  0  0  0
    0.4137   22.6139  -26.6262 C   0  0  0  0  0  0  0  0  0  0  0  0
    0.2582   22.1727  -25.3392 C   0  0  0  0  0  0  0  0  0  0  0  0
    1.3740   22.0968  -24.5226 O   0  0  0  0  0  0  0  0  0  0  0  0
   -0.9826   21.7970  -24.8214 C   0  0  0  0  0  0  0  0  0  0  0  0
    2.2973   22.3584  -24.8569 H   0  0  0  0  0  0  0  0  0  0  0  0
   -6.5303   23.2555  -24.7701 C   0  0  0  0  0  0  0  0  0  0  0  0
   -6.7847   23.7451  -26.1599 C   0  0  0  0  0  0  0  0  0  0  0  0
   -6.7540   25.2255  -26.3050 C   0  0  0  0  0  0  0  0  0  0  0  0
   -6.0232   25.7511  -27.4952 C   0  0  0  0  0  0  0  0  0  0  0  0
   -4.5268   25.3487  -27.4596 C   0  0  0  0  0  0  0  0  0  0  0  0
   -4.0974   24.8323  -28.7769 C   0  0  0  0  0  0  0  0  0  0  0  0
   -3.9662   25.7481  -29.9149 C   0  0  0  0  0  0  0  0  0  0  0  0
   -5.7678   24.4571  -31.0005 C   0  0  0  0  0  0  0  0  0  0  0  0
   -4.9106   25.6710  -31.0578 C   0  0  0  0  0  0  0  0  0  0  0  0
 21 22  1  0  0  0
 22 20  1  0  0  0
 20 19  1  0  0  0
 19 18  1  0  0  0
 18 17  1  0  0  0
 17 16  1  0  0  0
 16 15  1  0  0  0
 15 14  1  0  0  0
 14  1  1  0  0  0
  1  2  1  0  0  0
  2  3  1  0  0  0
  3  4  1  0  0  0
  4  6  1  0  0  0
  6  7  2  0  0  0
  7  8  1  0  0  0
  8  9  2  0  0  0
  9 10  1  0  0  0
 10 11  1  0  0  0
 10 12  2  0  0  0
  4  5  1  0  0  0
  5  1  1  0  0  0
 12  6  1  0  0  0
 11 13  1  0  0  0
M  END
> <minimizedAffinity>
-7.52579

> <CNNscore>
0.3668906987

> <CNNaffinity>
5.9944105148

> <CNN_VS>
2.1992933750

> <CNNaffinity_variance>
0.3566698432

$$$$
[H]Oc1c([H])c([H])c([H])c(C2([H])C([H])([H])N(C([H])([H])C([H])([H])C([H])([H])C([H])([H])C([H])([H])C([H])([H])C([H])([H])C([H])([H])C([H])([H])[H])C([H])([H])C2([H])[H])c1[H]


 22 23  0  0  0  0  0  0  0  0999 V2000
   -0.6163   22.1338  -26.9904 N   0  0  0  0  0  0  0  0  0  0  0  0
   -0.1605   23.0169  -28.0289 C   0  0  0  0  0  0  0  0  0  0  0  0
   -1.3705   23.3694  -28.8571 C   0  0  0  0  0  0  0  0  0  0  0  0
   -2.5287   22.8295  -28.0698 C   0  0  0  0  0  0  0  0  0  0  0  0
   -1.9899   22.5789  -26.7112 C   0  0  0  0  0  0  0  0  0  0  0  0
   -3.6836   23.7706  -28.0686 C   0  0  0  0  0  0  0  0  0  0  0  0
   -3.9128   24.5205  -26.9358 C   0  0  0  0  0  0  0  0  0  0  0  0
   -4.9808   25.4225  -26.8834 C   0  0  0  0  0  0  0  0  0  0  0  0
   -5.7966   25.5442  -27.9867 C   0  0  0  0  0  0  0  0  0  0  0  0
   -5.5486   24.7879  -29.1010 C   0  0  0  0  0  0  0  0  0  0  0  0
   -6.3819   24.9269  -30.1983 O   0  0  0  0  0  0  0  0  0  0  0  0
   -4.4879   23.8831  -29.1707 C   0  0  0  0  0  0  0  0  0  0  0  0
   -7.1669   25.5721  -30.1924 H   0  0  0  0  0  0  0  0  0  0  0  0
    0.1664   22.1480  -25.7993 C   0  0  0  0  0  0  0  0  0  0  0  0
   -0.6029   22.3885  -24.5398 C   0  0  0  0  0  0  0  0  0  0  0  0
   -0.1554   21.5698  -23.3809 C   0  0  0  0  0  0  0  0  0  0  0  0
   -1.1620   21.3626  -22.2988 C   0  0  0  0  0  0  0  0  0  0  0  0
   -0.6908   21.9936  -20.9638 C   0  0  0  0  0  0  0  0  0  0  0  0
   -1.0783   21.1387  -19.8212 C   0  0  0  0  0  0  0  0  0  0  0  0
   -1.0949   21.6941  -18.4639 C   0  0  0  0  0  0  0  0  0  0  0  0
   -3.5073   22.2035  -18.5711 C   0  0  0  0  0  0  0  0  0  0  0  0
   -2.1806   22.6127  -18.0380 C   0  0  0  0  0  0  0  0  0  0  0  0
 21 22  1  0  0  0
 22 20  1  0  0  0
 20 19  1  0  0  0
 19 18  1  0  0  0
 18 17  1  0  0  0
 17 16  1  0  0  0
 16 15  1  0  0  0
 15 14  1  0  0  0
 14  1  1  0  0  0
  1  2  1  0  0  0
  2  3  1  0  0  0
  3  4  1  0  0  0
  4  6  1  0  0  0
  6  7  2  0  0  0
  7  8  1  0  0  0
  8  9  2  0  0  0
  9 10  1  0  0  0
 10 11  1  0  0  0
 10 12  2  0  0  0
  4  5  1  0  0  0
  5  1  1  0  0  0
 12  6  1  0  0  0
 11 13  1  0  0  0
M  END
> <minimizedAffinity>
-5.91901

> <CNNscore>
0.3055104017

> <CNNaffinity>
5.8529944420

> <CNN_VS>
1.7881506681

> <CNNaffinity_variance>
0.2036972493

$$$$
[H]Oc1c([H])c([H])c([H])c(C2([H])C([H])([H])N(C([H])([H])C([H])([H])C([H])([H])C([H])([H])C([H])([H])C([H])([H])C([H])([H])C([H])([H])C([H])([H])[H])C([H])([H])C2([H])[H])c1[H]


 22 23  0  0  0  0  0  0  0  0999 V2000
   -0.6339   22.2014  -26.9791 N   0  0  0  0  0  0  0  0  0  0  0  0
   -0.2040   23.0358  -28.0678 C   0  0  0  0  0  0  0  0  0  0  0  0
   -1.4349   23.3555  -28.8782 C   0  0  0  0  0  0  0  0  0  0  0  0
   -2.5729   22.8555  -28.0369 C   0  0  0  0  0  0  0  0  0  0  0  0
   -1.9984   22.6637  -26.6833 C   0  0  0  0  0  0  0  0  0  0  0  0
   -3.7250   23.8001  -28.0467 C   0  0  0  0  0  0  0  0  0  0  0  0
   -3.9678   24.5446  -26.9131 C   0  0  0  0  0  0  0  0  0  0  0  0
   -5.0338   25.4495  -26.8708 C   0  0  0  0  0  0  0  0  0  0  0  0
   -5.8337   25.5797  -27.9846 C   0  0  0  0  0  0  0  0  0  0  0  0
   -5.5723   24.8286  -29.0995 C   0  0  0  0  0  0  0  0  0  0  0  0
   -6.3897   24.9761  -30.2076 O   0  0  0  0  0  0  0  0  0  0  0  0
   -4.5133   23.9210  -29.1593 C   0  0  0  0  0  0  0  0  0  0  0  0
   -7.1728   25.6236  -30.2091 H   0  0  0  0  0  0  0  0  0  0  0  0
    0.1806   22.2657  -25.8113 C   0  0  0  0  0  0  0  0  0  0  0  0
   -0.5681   22.4112  -24.5251 C   0  0  0  0  0  0  0  0  0  0  0  0
    0.0184   21.6575  -23.3842 C   0  0  0  0  0  0  0  0  0  0  0  0
   -0.9564   21.0329  -22.4426 C   0  0  0  0  0  0  0  0  0  0  0  0
   -0.2306   20.2571  -21.3141 C   0  0  0  0  0  0  0  0  0  0  0  0
    1.1013   20.8449  -21.0547 C   0  0  0  0  0  0  0  0  0  0  0  0
    2.2736   19.9732  -20.9253 C   0  0  0  0  0  0  0  0  0  0  0  0
    3.2732   20.7423  -23.0467 C   0  0  0  0  0  0  0  0  0  0  0  0
    3.0690   19.5964  -22.1209 C   0  0  0  0  0  0  0  0  0  0  0  0
 21 22  1  0  0  0
 22 20  1  0  0  0
 20 19  1  0  0  0
 19 18  1  0  0  0
 18 17  1  0  0  0
 17 16  1  0  0  0
 16 15  1  0  0  0
 15 14  1  0  0  0
 14  1  1  0  0  0
  1  2  1  0  0  0
  2  3  1  0  0  0
  3  4  1  0  0  0
  4  6  1  0  0  0
  6  7  2  0  0  0
  7  8  1  0  0  0
  8  9  2  0  0  0
  9 10  1  0  0  0
 10 11  1  0  0  0
 10 12  2  0  0  0
  4  5  1  0  0  0
  5  1  1  0  0  0
 12  6  1  0  0  0
 11 13  1  0  0  0
M  END
> <minimizedAffinity>
-6.31225

> <CNNscore>
0.2777625024

> <CNNaffinity>
5.8769392967

> <CNN_VS>
1.6323933601

> <CNNaffinity_variance>
0.0238312669

$$$$
[H]Oc1c([H])c([H])c([H])c(C2([H])C([H])([H])N(C([H])([H])C([H])([H])C([H])([H])C([H])([H])C([H])([H])C([H])([H])C([H])([H])C([H])([H])C([H])([H])[H])C([H])([H])C2([H])[H])c1[H]


 22 23  0  0  0  0  0  0  0  0999 V2000
   -1.1531   22.9191  -23.5302 N   0  0  0  0  0  0  0  0  0  0  0  0
   -1.2952   23.4187  -22.1898 C   0  0  0  0  0  0  0  0  0  0  0  0
   -2.7327   23.8493  -22.0402 C   0  0  0  0  0  0  0  0  0  0  0  0
   -3.4053   23.3327  -23.2786 C   0  0  0  0  0  0  0  0  0  0  0  0
   -2.4656   22.3327  -23.8408 C   0  0  0  0  0  0  0  0  0  0  0  0
   -4.7480   22.7599  -22.9810 C   0  0  0  0  0  0  0  0  0  0  0  0
   -5.3694   22.0124  -23.9574 C   0  0  0  0  0  0  0  0  0  0  0  0
   -6.6288   21.4482  -23.7282 C   0  0  0  0  0  0  0  0  0  0  0  0
   -7.2328   21.6558  -22.5078 C   0  0  0  0  0  0  0  0  0  0  0  0
   -6.5953   22.4026  -21.5532 C   0  0  0  0  0  0  0  0  0  0  0  0
   -7.2215   22.5982  -20.3337 O   0  0  0  0  0  0  0  0  0  0  0  0
   -5.3389   22.9730  -21.7647 C   0  0  0  0  0  0  0  0  0  0  0  0
   -8.1367   22.2032  -20.1356 H   0  0  0  0  0  0  0  0  0  0  0  0
   -0.1191   21.9545  -23.7083 C   0  0  0  0  0  0  0  0  0  0  0  0
    0.2793   21.7092  -25.1285 C   0  0  0  0  0  0  0  0  0  0  0  0
    0.5274   22.9449  -25.9192 C   0  0  0  0  0  0  0  0  0  0  0  0
   -0.1506   23.0194  -27.2465 C   0  0  0  0  0  0  0  0  0  0  0  0
   -1.4768   22.2173  -27.2467 C   0  0  0  0  0  0  0  0  0  0  0  0
   -2.6370   23.1339  -27.2349 C   0  0  0  0  0  0  0  0  0  0  0  0
   -3.2273   23.5840  -28.4998 C   0  0  0  0  0  0  0  0  0  0  0  0
   -5.2341   22.7424  -29.6641 C   0  0  0  0  0  0  0  0  0  0  0  0
   -4.7006   23.6897  -28.6492 C   0  0  0  0  0  0  0  0  0  0  0  0
 21 22  1  0  0  0
 22 20  1  0  0  0
 20 19  1  0  0  0
 19 18  1  0  0  0
 18 17  1  0  0  0
 17 16  1  0  0  0
 16 15  1  0  0  0
 15 14  1  0  0  0
 14  1  1  0  0  0
  1  2  1  0  0  0
  2  3  1  0  0  0
  3  4  1  0  0  0
  4  6  1  0  0  0
  6  7  2  0  0  0
  7  8  1  0  0  0
  8  9  2  0  0  0
  9 10  1  0  0  0
 10 11  1  0  0  0
 10 12  2  0  0  0
  4  5  1  0  0  0
  5  1  1  0  0  0
 12  6  1  0  0  0
 11 13  1  0  0  0
M  END
> <minimizedAffinity>
-5.85030

> <CNNscore>
0.2760920227

> <CNNaffinity>
5.5720949173

> <CNN_VS>
1.5384109020

> <CNNaffinity_variance>
0.1474197954

$$$$
[H]Oc1c([H])c([H])c([H])c(C2([H])C([H])([H])N(C([H])([H])C([H])([H])C([H])([H])C([H])([H])C([H])([H])C([H])([H])C([H])([H])C([H])([H])C([H])([H])[H])C([H])([H])C2([H])[H])c1[H]


 22 23  0  0  0  0  0  0  0  0999 V2000
   -3.8319   22.8506  -22.8223 N   0  0  0  0  0  0  0  0  0  0  0  0
   -3.6836   21.4448  -23.0828 C   0  0  0  0  0  0  0  0  0  0  0  0
   -3.6151   21.2887  -24.5812 C   0  0  0  0  0  0  0  0  0  0  0  0
   -3.4896   22.6934  -25.0949 C   0  0  0  0  0  0  0  0  0  0  0  0
   -3.0963   23.5028  -23.9162 C   0  0  0  0  0  0  0  0  0  0  0  0
   -2.5098   22.7881  -26.2132 C   0  0  0  0  0  0  0  0  0  0  0  0
   -2.9874   23.0527  -27.4782 C   0  0  0  0  0  0  0  0  0  0  0  0
   -2.1100   23.1563  -28.5628 C   0  0  0  0  0  0  0  0  0  0  0  0
   -0.7613   22.9884  -28.3391 C   0  0  0  0  0  0  0  0  0  0  0  0
   -0.3107   22.7260  -27.0729 C   0  0  0  0  0  0  0  0  0  0  0  0
    1.0493   22.5608  -26.8716 O   0  0  0  0  0  0  0  0  0  0  0  0
   -1.1717   22.6191  -25.9792 C   0  0  0  0  0  0  0  0  0  0  0  0
    1.7131   22.6286  -27.6380 H   0  0  0  0  0  0  0  0  0  0  0  0
   -3.3381   23.2855  -21.5580 C   0  0  0  0  0  0  0  0  0  0  0  0
   -1.8482   23.3505  -21.4492 C   0  0  0  0  0  0  0  0  0  0  0  0
   -1.3106   22.9429  -20.1231 C   0  0  0  0  0  0  0  0  0  0  0  0
   -0.4602   21.7168  -20.1107 C   0  0  0  0  0  0  0  0  0  0  0  0
    0.9201   21.9959  -19.4633 C   0  0  0  0  0  0  0  0  0  0  0  0
    0.7529   22.5056  -18.0853 C   0  0  0  0  0  0  0  0  0  0  0  0
    0.3335   21.5959  -17.0142 C   0  0  0  0  0  0  0  0  0  0  0  0
    2.1708   22.4348  -15.5959 C   0  0  0  0  0  0  0  0  0  0  0  0
    0.8366   21.7784  -15.6294 C   0  0  0  0  0  0  0  0  0  0  0  0
 21 22  1  0  0  0
 22 20  1  0  0  0
 20 19  1  0  0  0
 19 18  1  0  0  0
 18 17  1  0  0  0
 17 16  1  0  0  0
 16 15  1  0  0  0
 15 14  1  0  0  0
 14  1  1  0  0  0
  1  2  1  0  0  0
  2  3  1  0  0  0
  3  4  1  0  0  0
  4  6  1  0  0  0
  6  7  2  0  0  0
  7  8  1  0  0  0
  8  9  2  0  0  0
  9 10  1  0  0  0
 10 11  1  0  0  0
 10 12  2  0  0  0
  4  5  1  0  0  0
  5  1  1  0  0  0
 12  6  1  0  0  0
 11 13  1  0  0  0
M  END
> <minimizedAffinity>
-5.59938

> <CNNscore>
0.2750420272

> <CNNaffinity>
5.2773222923

> <CNN_VS>
1.4514853954

> <CNNaffinity_variance>
0.0559073277

$$$$
[H]Oc1c([H])c([H])c([H])c(C2([H])C([H])([H])N(C([H])([H])C([H])([H])C([H])([H])C([H])([H])C([H])([H])C([H])([H])C([H])([H])C([H])([H])C([H])([H])[H])C([H])([H])C2([H])[H])c1[H]


 22 23  0  0  0  0  0  0  0  0999 V2000
   -3.5326   23.0870  -25.9311 N   0  0  0  0  0  0  0  0  0  0  0  0
   -2.3382   22.8861  -26.7051 C   0  0  0  0  0  0  0  0  0  0  0  0
   -2.7693   22.7936  -28.1473 C   0  0  0  0  0  0  0  0  0  0  0  0
   -4.2151   23.1963  -28.1286 C   0  0  0  0  0  0  0  0  0  0  0  0
   -4.4149   23.8604  -26.8178 C   0  0  0  0  0  0  0  0  0  0  0  0
   -4.5594   24.0763  -29.2803 C   0  0  0  0  0  0  0  0  0  0  0  0
   -3.8786   25.2661  -29.4185 C   0  0  0  0  0  0  0  0  0  0  0  0
   -4.1597   26.1272  -30.4845 C   0  0  0  0  0  0  0  0  0  0  0  0
   -5.1298   25.7605  -31.3910 C   0  0  0  0  0  0  0  0  0  0  0  0
   -5.7929   24.5729  -31.2324 C   0  0  0  0  0  0  0  0  0  0  0  0
   -6.7644   24.2248  -32.1559 O   0  0  0  0  0  0  0  0  0  0  0  0
   -5.5255   23.7017  -30.1748 C   0  0  0  0  0  0  0  0  0  0  0  0
   -6.9934   24.8283  -32.9408 H   0  0  0  0  0  0  0  0  0  0  0  0
   -3.3428   23.7696  -24.6944 C   0  0  0  0  0  0  0  0  0  0  0  0
   -3.4748   22.9158  -23.4739 C   0  0  0  0  0  0  0  0  0  0  0  0
   -4.6960   22.0663  -23.4476 C   0  0  0  0  0  0  0  0  0  0  0  0
   -5.9250   22.7045  -22.8914 C   0  0  0  0  0  0  0  0  0  0  0  0
   -6.9789   21.6412  -22.4904 C   0  0  0  0  0  0  0  0  0  0  0  0
   -7.3783   21.8144  -21.0773 C   0  0  0  0  0  0  0  0  0  0  0  0
   -8.7224   22.3020  -20.7509 C   0  0  0  0  0  0  0  0  0  0  0  0
  -10.3920   22.7910  -19.0005 C   0  0  0  0  0  0  0  0  0  0  0  0
   -9.4401   21.7922  -19.5555 C   0  0  0  0  0  0  0  0  0  0  0  0
 21 22  1  0  0  0
 22 20  1  0  0  0
 20 19  1  0  0  0
 19 18  1  0  0  0
 18 17  1  0  0  0
 17 16  1  0  0  0
 16 15  1  0  0  0
 15 14  1  0  0  0
 14  1  1  0  0  0
  1  2  1  0  0  0
  2  3  1  0  0  0
  3  4  1  0  0  0
  4  6  1  0  0  0
  6  7  2  0  0  0
  7  8  1  0  0  0
  8  9  2  0  0  0
  9 10  1  0  0  0
 10 11  1  0  0  0
 10 12  2  0  0  0
  4  5  1  0  0  0
  5  1  1  0  0  0
 12  6  1  0  0  0
 11 13  1  0  0  0
M  END
> <minimizedAffinity>
-6.35776

> <CNNscore>
0.2572426498

> <CNNaffinity>
5.6114091873

> <CNN_VS>
1.4434937239

> <CNNaffinity_variance>
0.0787942111

$$$$
[H]OC(=O)/C([H])=C(\[H])c1c([H])c([H])c(Oc2c(-c3c([H])c([H])c(OC(F)(F)F)c([H])c3C([H])([H])[H])c(=O)oc3c([H])c(OC([H])([H])C([H])([H])[H])c([H])c([H])c23)c([H])c1[H]


 39 42  0  0  0  0  0  0  0  0999 V2000
    0.1908   21.1975  -22.8836 C   0  0  0  0  0  0  0  0  0  0  0  0
   -1.1041   21.1120  -22.4339 C   0  0  0  0  0  0  0  0  0  0  0  0
   -2.1197   21.5226  -23.2693 C   0  0  0  0  0  0  0  0  0  0  0  0
   -1.8763   22.0146  -24.5362 C   0  0  0  0  0  0  0  0  0  0  0  0
   -2.9065   22.4323  -25.3961 C   0  0  0  0  0  0  0  0  0  0  0  0
   -2.4995   22.8939  -26.6310 C   0  0  0  0  0  0  0  0  0  0  0  0
   -1.1664   22.9558  -27.0320 C   0  0  0  0  0  0  0  0  0  0  0  0
   -0.8453   23.3893  -28.1810 O   0  0  0  0  0  0  0  0  0  0  0  0
   -0.2603   22.5556  -26.1920 O   0  0  0  0  0  0  0  0  0  0  0  0
   -0.5846   22.1019  -24.9931 C   0  0  0  0  0  0  0  0  0  0  0  0
    0.4359   21.6857  -24.1437 C   0  0  0  0  0  0  0  0  0  0  0  0
   -3.4713   23.3732  -27.5918 C   0  0  0  0  0  0  0  0  0  0  0  0
   -3.7386   22.6268  -28.7009 C   0  0  0  0  0  0  0  0  0  0  0  0
   -4.6558   23.0504  -29.6290 C   0  0  0  0  0  0  0  0  0  0  0  0
   -5.3091   24.2425  -29.4318 C   0  0  0  0  0  0  0  0  0  0  0  0
   -5.0389   25.0008  -28.3069 C   0  0  0  0  0  0  0  0  0  0  0  0
   -4.1197   24.5620  -27.3909 C   0  0  0  0  0  0  0  0  0  0  0  0
   -3.8805   25.4320  -26.2105 C   0  0  0  0  0  0  0  0  0  0  0  0
   -6.2450   24.6745  -30.3788 O   0  0  0  0  0  0  0  0  0  0  0  0
   -5.8644   25.5479  -31.4363 C   0  0  0  0  0  0  0  0  0  0  0  0
   -6.3707   25.0459  -32.6095 F   0  0  0  0  0  0  0  0  0  0  0  0
   -6.3778   26.8092  -31.1974 F   0  0  0  0  0  0  0  0  0  0  0  0
   -4.4859   25.6751  -31.5201 F   0  0  0  0  0  0  0  0  0  0  0  0
    1.2156   20.7910  -22.0592 O   0  0  0  0  0  0  0  0  0  0  0  0
    0.8768   19.0050  -20.5024 C   0  0  0  0  0  0  0  0  0  0  0  0
    1.0393   20.4965  -20.6870 C   0  0  0  0  0  0  0  0  0  0  0  0
   -4.1709   22.3475  -24.9483 O   0  0  0  0  0  0  0  0  0  0  0  0
   -4.8024   22.5579  -23.7783 C   0  0  0  0  0  0  0  0  0  0  0  0
   -5.6778   21.7050  -23.1598 C   0  0  0  0  0  0  0  0  0  0  0  0
   -6.3047   21.9841  -21.9458 C   0  0  0  0  0  0  0  0  0  0  0  0
   -6.0550   23.1861  -21.2906 C   0  0  0  0  0  0  0  0  0  0  0  0
   -5.1793   24.0602  -21.8905 C   0  0  0  0  0  0  0  0  0  0  0  0
   -4.5734   23.7626  -23.0882 C   0  0  0  0  0  0  0  0  0  0  0  0
   -6.7193   23.4557  -20.0273 C   0  0  0  0  0  0  0  0  0  0  0  0
   -6.2345   23.1241  -18.8481 C   0  0  0  0  0  0  0  0  0  0  0  0
   -7.0092   23.4553  -17.6363 C   0  0  0  0  0  0  0  0  0  0  0  0
   -8.1083   22.9127  -17.3902 O   0  0  0  0  0  0  0  0  0  0  0  0
   -6.5302   24.3846  -16.7354 O   0  0  0  0  0  0  0  0  0  0  0  0
   -6.2209   24.1365  -15.7886 H   0  0  0  0  0  0  0  0  0  0  0  0
 25 26  1  0  0  0
 26 24  1  0  0  0
 24  1  1  0  0  0
  1  2  2  0  0  0
  2  3  1  0  0  0
  3  4  2  0  0  0
  4  5  1  0  0  0
  5 27  1  0  0  0
 27 28  1  0  0  0
 28 29  2  0  0  0
 29 30  1  0  0  0
 30 31  2  0  0  0
 31 34  1  0  0  0
 34 35  2  0  0  0
 35 36  1  0  0  0
 36 37  2  0  0  0
 36 38  1  0  0  0
 31 32  1  0  0  0
 32 33  2  0  0  0
  5  6  2  0  0  0
  6 12  1  0  0  0
 12 13  2  0  0  0
 13 14  1  0  0  0
 14 15  2  0  0  0
 15 19  1  0  0  0
 19 20  1  0  0  0
 20 21  1  0  0  0
 20 22  1  0  0  0
 20 23  1  0  0  0
 15 16  1  0  0  0
 16 17  2  0  0  0
 17 18  1  0  0  0
  6  7  1  0  0  0
  7  8  2  0  0  0
  7  9  1  0  0  0
  9 10  1  0  0  0
 10 11  2  0  0  0
 11  1  1  0  0  0
 10  4  1  0  0  0
 33 28  1  0  0  0
 17 12  1  0  0  0
 38 39  1  0  0  0
M  END
> <minimizedAffinity>
-9.39054

> <CNNscore>
0.6501913667

> <CNNaffinity>
7.5427827835

> <CNN_VS>
4.9042520523

> <CNNaffinity_variance>
0.4946396351

$$$$
[H]OC(=O)/C([H])=C(\[H])c1c([H])c([H])c(Oc2c(-c3c([H])c([H])c(OC(F)(F)F)c([H])c3C([H])([H])[H])c(=O)oc3c([H])c(OC([H])([H])C([H])([H])[H])c([H])c([H])c23)c([H])c1[H]


 39 42  0  0  0  0  0  0  0  0999 V2000
    1.3734   20.5197  -21.3258 C   0  0  0  0  0  0  0  0  0  0  0  0
    0.0945   20.0823  -21.0820 C   0  0  0  0  0  0  0  0  0  0  0  0
   -0.8989   20.4224  -21.9739 C   0  0  0  0  0  0  0  0  0  0  0  0
   -0.6491   21.1849  -23.0975 C   0  0  0  0  0  0  0  0  0  0  0  0
   -1.6558   21.5334  -24.0143 C   0  0  0  0  0  0  0  0  0  0  0  0
   -1.2437   22.2949  -25.0886 C   0  0  0  0  0  0  0  0  0  0  0  0
    0.0727   22.7083  -25.2832 C   0  0  0  0  0  0  0  0  0  0  0  0
    0.3993   23.4086  -26.2902 O   0  0  0  0  0  0  0  0  0  0  0  0
    0.9572   22.3545  -24.4005 O   0  0  0  0  0  0  0  0  0  0  0  0
    0.6270   21.6247  -23.3485 C   0  0  0  0  0  0  0  0  0  0  0  0
    1.6251   21.2777  -22.4431 C   0  0  0  0  0  0  0  0  0  0  0  0
   -2.1979   22.7337  -26.0857 C   0  0  0  0  0  0  0  0  0  0  0  0
   -2.2129   22.1295  -27.3077 C   0  0  0  0  0  0  0  0  0  0  0  0
   -3.1059   22.5190  -28.2736 C   0  0  0  0  0  0  0  0  0  0  0  0
   -3.9931   23.5310  -27.9989 C   0  0  0  0  0  0  0  0  0  0  0  0
   -3.9790   24.1449  -26.7594 C   0  0  0  0  0  0  0  0  0  0  0  0
   -3.0800   23.7428  -25.8073 C   0  0  0  0  0  0  0  0  0  0  0  0
   -3.1229   24.4514  -24.5020 C   0  0  0  0  0  0  0  0  0  0  0  0
   -4.9043   23.9282  -28.9844 O   0  0  0  0  0  0  0  0  0  0  0  0
   -4.6498   25.0681  -29.7979 C   0  0  0  0  0  0  0  0  0  0  0  0
   -5.1240   24.8082  -31.0598 F   0  0  0  0  0  0  0  0  0  0  0  0
   -5.2963   26.1672  -29.2634 F   0  0  0  0  0  0  0  0  0  0  0  0
   -3.2968   25.3696  -29.8427 F   0  0  0  0  0  0  0  0  0  0  0  0
    2.3758   20.1876  -20.4427 O   0  0  0  0  0  0  0  0  0  0  0  0
    2.4005   21.3783  -18.3666 C   0  0  0  0  0  0  0  0  0  0  0  0
    3.0956   21.1435  -19.6883 C   0  0  0  0  0  0  0  0  0  0  0  0
   -2.9050   21.1034  -23.7680 O   0  0  0  0  0  0  0  0  0  0  0  0
   -3.9840   21.5772  -23.1172 C   0  0  0  0  0  0  0  0  0  0  0  0
   -4.0078   22.0991  -21.8509 C   0  0  0  0  0  0  0  0  0  0  0  0
   -5.1632   22.5710  -21.2289 C   0  0  0  0  0  0  0  0  0  0  0  0
   -6.3834   22.5286  -21.8965 C   0  0  0  0  0  0  0  0  0  0  0  0
   -6.3868   22.0093  -23.1697 C   0  0  0  0  0  0  0  0  0  0  0  0
   -5.2343   21.5499  -23.7622 C   0  0  0  0  0  0  0  0  0  0  0  0
   -7.5739   23.0254  -21.2290 C   0  0  0  0  0  0  0  0  0  0  0  0
   -8.3318   23.9993  -21.6903 C   0  0  0  0  0  0  0  0  0  0  0  0
   -9.5178   24.4124  -20.9150 C   0  0  0  0  0  0  0  0  0  0  0  0
  -10.5460   24.8544  -21.4722 O   0  0  0  0  0  0  0  0  0  0  0  0
   -9.5176   24.3183  -19.5381 O   0  0  0  0  0  0  0  0  0  0  0  0
  -10.1084   23.6549  -19.0237 H   0  0  0  0  0  0  0  0  0  0  0  0
 25 26  1  0  0  0
 26 24  1  0  0  0
 24  1  1  0  0  0
  1  2  2  0  0  0
  2  3  1  0  0  0
  3  4  2  0  0  0
  4  5  1  0  0  0
  5 27  1  0  0  0
 27 28  1  0  0  0
 28 29  2  0  0  0
 29 30  1  0  0  0
 30 31  2  0  0  0
 31 34  1  0  0  0
 34 35  2  0  0  0
 35 36  1  0  0  0
 36 37  2  0  0  0
 36 38  1  0  0  0
 31 32  1  0  0  0
 32 33  2  0  0  0
  5  6  2  0  0  0
  6 12  1  0  0  0
 12 13  2  0  0  0
 13 14  1  0  0  0
 14 15  2  0  0  0
 15 19  1  0  0  0
 19 20  1  0  0  0
 20 21  1  0  0  0
 20 22  1  0  0  0
 20 23  1  0  0  0
 15 16  1  0  0  0
 16 17  2  0  0  0
 17 18  1  0  0  0
  6  7  1  0  0  0
  7  8  2  0  0  0
  7  9  1  0  0  0
  9 10  1  0  0  0
 10 11  2  0  0  0
 11  1  1  0  0  0
 10  4  1  0  0  0
 33 28  1  0  0  0
 17 12  1  0  0  0
 38 39  1  0  0  0
M  END
> <minimizedAffinity>
-8.51545

> <CNNscore>
0.5641793609

> <CNNaffinity>
7.2972960472

> <CNN_VS>
4.1169838905

> <CNNaffinity_variance>
0.3142148852

$$$$
[H]OC(=O)/C([H])=C(\[H])c1c([H])c([H])c(Oc2c(-c3c([H])c([H])c(OC(F)(F)F)c([H])c3C([H])([H])[H])c(=O)oc3c([H])c(OC([H])([H])C([H])([H])[H])c([H])c([H])c23)c([H])c1[H]


 39 42  0  0  0  0  0  0  0  0999 V2000
    0.1824   21.2055  -22.8058 C   0  0  0  0  0  0  0  0  0  0  0  0
   -1.1144   21.0910  -22.3683 C   0  0  0  0  0  0  0  0  0  0  0  0
   -2.1306   21.4874  -23.2098 C   0  0  0  0  0  0  0  0  0  0  0  0
   -1.8860   21.9931  -24.4711 C   0  0  0  0  0  0  0  0  0  0  0  0
   -2.9167   22.3964  -25.3372 C   0  0  0  0  0  0  0  0  0  0  0  0
   -2.5081   22.8749  -26.5652 C   0  0  0  0  0  0  0  0  0  0  0  0
   -1.1731   22.9661  -26.9538 C   0  0  0  0  0  0  0  0  0  0  0  0
   -0.8506   23.4140  -28.0969 O   0  0  0  0  0  0  0  0  0  0  0  0
   -0.2666   22.5779  -26.1086 O   0  0  0  0  0  0  0  0  0  0  0  0
   -0.5923   22.1094  -24.9158 C   0  0  0  0  0  0  0  0  0  0  0  0
    0.4288   21.7074  -24.0603 C   0  0  0  0  0  0  0  0  0  0  0  0
   -3.4808   23.3416  -27.5313 C   0  0  0  0  0  0  0  0  0  0  0  0
   -3.7998   22.5498  -28.5943 C   0  0  0  0  0  0  0  0  0  0  0  0
   -4.7194   22.9605  -29.5258 C   0  0  0  0  0  0  0  0  0  0  0  0
   -5.3222   24.1860  -29.3793 C   0  0  0  0  0  0  0  0  0  0  0  0
   -4.9994   24.9905  -28.3013 C   0  0  0  0  0  0  0  0  0  0  0  0
   -4.0787   24.5638  -27.3811 C   0  0  0  0  0  0  0  0  0  0  0  0
   -3.7814   25.4839  -26.2529 C   0  0  0  0  0  0  0  0  0  0  0  0
   -6.2605   24.6050  -30.3298 O   0  0  0  0  0  0  0  0  0  0  0  0
   -5.8772   25.4426  -31.4148 C   0  0  0  0  0  0  0  0  0  0  0  0
   -6.3814   24.9023  -32.5718 F   0  0  0  0  0  0  0  0  0  0  0  0
   -6.3903   26.7114  -31.2189 F   0  0  0  0  0  0  0  0  0  0  0  0
   -4.4984   25.5662  -31.5000 F   0  0  0  0  0  0  0  0  0  0  0  0
    1.2078   20.8136  -21.9751 O   0  0  0  0  0  0  0  0  0  0  0  0
    3.1310   19.3891  -22.0002 C   0  0  0  0  0  0  0  0  0  0  0  0
    2.5573   20.7319  -22.3910 C   0  0  0  0  0  0  0  0  0  0  0  0
   -4.1830   22.2833  -24.9014 O   0  0  0  0  0  0  0  0  0  0  0  0
   -5.0814   23.0918  -24.3087 C   0  0  0  0  0  0  0  0  0  0  0  0
   -4.9121   23.7754  -23.1337 C   0  0  0  0  0  0  0  0  0  0  0  0
   -5.8866   24.5968  -22.5678 C   0  0  0  0  0  0  0  0  0  0  0  0
   -7.1157   24.7602  -23.1994 C   0  0  0  0  0  0  0  0  0  0  0  0
   -7.3111   24.0848  -24.3811 C   0  0  0  0  0  0  0  0  0  0  0  0
   -6.3349   23.2803  -24.9196 C   0  0  0  0  0  0  0  0  0  0  0  0
   -8.1159   25.6204  -22.5916 C   0  0  0  0  0  0  0  0  0  0  0  0
   -9.4120   25.5168  -22.8037 C   0  0  0  0  0  0  0  0  0  0  0  0
  -10.3262   26.4548  -22.1236 C   0  0  0  0  0  0  0  0  0  0  0  0
  -10.6971   26.2720  -20.9437 O   0  0  0  0  0  0  0  0  0  0  0  0
  -10.7983   27.5705  -22.7848 O   0  0  0  0  0  0  0  0  0  0  0  0
  -10.5289   28.5272  -22.5284 H   0  0  0  0  0  0  0  0  0  0  0  0
 25 26  1  0  0  0
 26 24  1  0  0  0
 24  1  1  0  0  0
  1  2  2  0  0  0
  2  3  1  0  0  0
  3  4  2  0  0  0
  4  5  1  0  0  0
  5 27  1  0  0  0
 27 28  1  0  0  0
 28 29  2  0  0  0
 29 30  1  0  0  0
 30 31  2  0  0  0
 31 34  1  0  0  0
 34 35  2  0  0  0
 35 36  1  0  0  0
 36 37  2  0  0  0
 36 38  1  0  0  0
 31 32  1  0  0  0
 32 33  2  0  0  0
  5  6  2  0  0  0
  6 12  1  0  0  0
 12 13  2  0  0  0
 13 14  1  0  0  0
 14 15  2  0  0  0
 15 19  1  0  0  0
 19 20  1  0  0  0
 20 21  1  0  0  0
 20 22  1  0  0  0
 20 23  1  0  0  0
 15 16  1  0  0  0
 16 17  2  0  0  0
 17 18  1  0  0  0
  6  7  1  0  0  0
  7  8  2  0  0  0
  7  9  1  0  0  0
  9 10  1  0  0  0
 10 11  2  0  0  0
 11  1  1  0  0  0
 10  4  1  0  0  0
 33 28  1  0  0  0
 17 12  1  0  0  0
 38 39  1  0  0  0
M  END
> <minimizedAffinity>
-9.88861

> <CNNscore>
0.5237998962

> <CNNaffinity>
7.4584779739

> <CNN_VS>
3.9067499638

> <CNNaffinity_variance>
0.2986552715

$$$$
[H]OC(=O)/C([H])=C(\[H])c1c([H])c([H])c(Oc2c(-c3c([H])c([H])c(OC(F)(F)F)c([H])c3C([H])([H])[H])c(=O)oc3c([H])c(OC([H])([H])C([H])([H])[H])c([H])c([H])c23)c([H])c1[H]


 39 42  0  0  0  0  0  0  0  0999 V2000
    2.1832   19.8088  -21.2860 C   0  0  0  0  0  0  0  0  0  0  0  0
    0.9712   19.5163  -20.7101 C   0  0  0  0  0  0  0  0  0  0  0  0
   -0.1673   20.0673  -21.2561 C   0  0  0  0  0  0  0  0  0  0  0  0
   -0.1265   20.8993  -22.3573 C   0  0  0  0  0  0  0  0  0  0  0  0
   -1.2833   21.4627  -22.9228 C   0  0  0  0  0  0  0  0  0  0  0  0
   -1.0750   22.2681  -24.0236 C   0  0  0  0  0  0  0  0  0  0  0  0
    0.1826   22.5272  -24.5648 C   0  0  0  0  0  0  0  0  0  0  0  0
    0.3192   23.2764  -25.5803 O   0  0  0  0  0  0  0  0  0  0  0  0
    1.2132   21.9775  -23.9969 O   0  0  0  0  0  0  0  0  0  0  0  0
    1.0813   21.1952  -22.9391 C   0  0  0  0  0  0  0  0  0  0  0  0
    2.2269   20.6354  -22.3820 C   0  0  0  0  0  0  0  0  0  0  0  0
   -2.1906   22.9218  -24.6758 C   0  0  0  0  0  0  0  0  0  0  0  0
   -2.7080   24.0604  -24.1332 C   0  0  0  0  0  0  0  0  0  0  0  0
   -3.7625   24.7061  -24.7274 C   0  0  0  0  0  0  0  0  0  0  0  0
   -4.2986   24.1933  -25.8834 C   0  0  0  0  0  0  0  0  0  0  0  0
   -3.7746   23.0381  -26.4351 C   0  0  0  0  0  0  0  0  0  0  0  0
   -2.7216   22.4068  -25.8277 C   0  0  0  0  0  0  0  0  0  0  0  0
   -2.2155   21.1700  -26.4771 C   0  0  0  0  0  0  0  0  0  0  0  0
   -5.3745   24.8523  -26.4897 O   0  0  0  0  0  0  0  0  0  0  0  0
   -6.6807   24.2872  -26.4725 C   0  0  0  0  0  0  0  0  0  0  0  0
   -6.8074   23.4683  -27.5672 F   0  0  0  0  0  0  0  0  0  0  0  0
   -6.8502   23.5578  -25.3103 F   0  0  0  0  0  0  0  0  0  0  0  0
   -7.6603   25.2688  -26.4875 F   0  0  0  0  0  0  0  0  0  0  0  0
    3.3291   19.2654  -20.7505 O   0  0  0  0  0  0  0  0  0  0  0  0
    5.6589   19.1136  -21.2770 C   0  0  0  0  0  0  0  0  0  0  0  0
    4.5590   19.9604  -20.6784 C   0  0  0  0  0  0  0  0  0  0  0  0
   -2.4654   21.1735  -22.3525 O   0  0  0  0  0  0  0  0  0  0  0  0
   -3.6546   21.7897  -22.2179 C   0  0  0  0  0  0  0  0  0  0  0  0
   -3.9393   22.8384  -21.3837 C   0  0  0  0  0  0  0  0  0  0  0  0
   -5.1973   23.4321  -21.2868 C   0  0  0  0  0  0  0  0  0  0  0  0
   -6.2525   22.9643  -22.0641 C   0  0  0  0  0  0  0  0  0  0  0  0
   -5.9930   21.9122  -22.9104 C   0  0  0  0  0  0  0  0  0  0  0  0
   -4.7440   21.3430  -22.9884 C   0  0  0  0  0  0  0  0  0  0  0  0
   -7.5543   23.5979  -21.9465 C   0  0  0  0  0  0  0  0  0  0  0  0
   -7.8558   24.7747  -22.4562 C   0  0  0  0  0  0  0  0  0  0  0  0
   -9.2183   25.3095  -22.2664 C   0  0  0  0  0  0  0  0  0  0  0  0
  -10.0384   24.7614  -21.4981 O   0  0  0  0  0  0  0  0  0  0  0  0
   -9.6225   26.4427  -22.9425 O   0  0  0  0  0  0  0  0  0  0  0  0
   -9.8125   27.3353  -22.4725 H   0  0  0  0  0  0  0  0  0  0  0  0
 25 26  1  0  0  0
 26 24  1  0  0  0
 24  1  1  0  0  0
  1  2  2  0  0  0
  2  3  1  0  0  0
  3  4  2  0  0  0
  4  5  1  0  0  0
  5 27  1  0  0  0
 27 28  1  0  0  0
 28 29  2  0  0  0
 29 30  1  0  0  0
 30 31  2  0  0  0
 31 34  1  0  0  0
 34 35  2  0  0  0
 35 36  1  0  0  0
 36 37  2  0  0  0
 36 38  1  0  0  0
 31 32  1  0  0  0
 32 33  2  0  0  0
  5  6  2  0  0  0
  6 12  1  0  0  0
 12 13  2  0  0  0
 13 14  1  0  0  0
 14 15  2  0  0  0
 15 19  1  0  0  0
 19 20  1  0  0  0
 20 21  1  0  0  0
 20 22  1  0  0  0
 20 23  1  0  0  0
 15 16  1  0  0  0
 16 17  2  0  0  0
 17 18  1  0  0  0
  6  7  1  0  0  0
  7  8  2  0  0  0
  7  9  1  0  0  0
  9 10  1  0  0  0
 10 11  2  0  0  0
 11  1  1  0  0  0
 10  4  1  0  0  0
 33 28  1  0  0  0
 17 12  1  0  0  0
 38 39  1  0  0  0
M  END
> <minimizedAffinity>
-7.46030

> <CNNscore>
0.1590833813

> <CNNaffinity>
6.5445275307

> <CNN_VS>
1.0411255360

> <CNNaffinity_variance>
0.3123375773

$$$$
[H]OC(=O)/C([H])=C(\[H])c1c([H])c([H])c(Oc2c(-c3c([H])c([H])c(OC(F)(F)F)c([H])c3C([H])([H])[H])c(=O)oc3c([H])c(OC([H])([H])C([H])([H])[H])c([H])c([H])c23)c([H])c1[H]


 39 42  0  0  0  0  0  0  0  0999 V2000
    1.4570   20.1089  -19.9525 C   0  0  0  0  0  0  0  0  0  0  0  0
    0.2035   19.9636  -19.4105 C   0  0  0  0  0  0  0  0  0  0  0  0
   -0.8823   20.4038  -20.1351 C   0  0  0  0  0  0  0  0  0  0  0  0
   -0.7489   20.9831  -21.3813 C   0  0  0  0  0  0  0  0  0  0  0  0
   -1.8513   21.4317  -22.1288 C   0  0  0  0  0  0  0  0  0  0  0  0
   -1.5517   21.9825  -23.3579 C   0  0  0  0  0  0  0  0  0  0  0  0
   -0.2558   22.1020  -23.8559 C   0  0  0  0  0  0  0  0  0  0  0  0
   -0.0345   22.6171  -24.9948 O   0  0  0  0  0  0  0  0  0  0  0  0
    0.7210   21.6693  -23.1175 O   0  0  0  0  0  0  0  0  0  0  0  0
    0.5008   21.1307  -21.9301 C   0  0  0  0  0  0  0  0  0  0  0  0
    1.5928   20.6841  -21.1923 C   0  0  0  0  0  0  0  0  0  0  0  0
   -2.6050   22.5004  -24.2061 C   0  0  0  0  0  0  0  0  0  0  0  0
   -3.1323   21.7037  -25.1786 C   0  0  0  0  0  0  0  0  0  0  0  0
   -4.1332   22.1623  -25.9971 C   0  0  0  0  0  0  0  0  0  0  0  0
   -4.6050   23.4413  -25.8289 C   0  0  0  0  0  0  0  0  0  0  0  0
   -4.0708   24.2509  -24.8427 C   0  0  0  0  0  0  0  0  0  0  0  0
   -3.0717   23.7759  -24.0348 C   0  0  0  0  0  0  0  0  0  0  0  0
   -2.5462   24.7046  -23.0008 C   0  0  0  0  0  0  0  0  0  0  0  0
   -5.6263   23.9091  -26.6641 O   0  0  0  0  0  0  0  0  0  0  0  0
   -5.3274   24.4885  -27.9294 C   0  0  0  0  0  0  0  0  0  0  0  0
   -5.8791   23.6953  -28.9047 F   0  0  0  0  0  0  0  0  0  0  0  0
   -5.8649   25.7609  -27.9901 F   0  0  0  0  0  0  0  0  0  0  0  0
   -3.9596   24.6112  -28.1227 F   0  0  0  0  0  0  0  0  0  0  0  0
    2.5510   19.6738  -19.2392 O   0  0  0  0  0  0  0  0  0  0  0  0
    3.5539   20.7216  -17.3353 C   0  0  0  0  0  0  0  0  0  0  0  0
    2.6005   19.6558  -17.8257 C   0  0  0  0  0  0  0  0  0  0  0  0
   -3.0746   21.2879  -21.5910 O   0  0  0  0  0  0  0  0  0  0  0  0
   -4.1838   22.0434  -21.4863 C   0  0  0  0  0  0  0  0  0  0  0  0
   -4.3167   23.2003  -20.7648 C   0  0  0  0  0  0  0  0  0  0  0  0
   -5.4983   23.9373  -20.6929 C   0  0  0  0  0  0  0  0  0  0  0  0
   -6.6315   23.5095  -21.3780 C   0  0  0  0  0  0  0  0  0  0  0  0
   -6.5245   22.3507  -22.1104 C   0  0  0  0  0  0  0  0  0  0  0  0
   -5.3483   21.6410  -22.1659 C   0  0  0  0  0  0  0  0  0  0  0  0
   -7.8513   24.2928  -21.2885 C   0  0  0  0  0  0  0  0  0  0  0  0
   -8.1489   25.0911  -20.2836 C   0  0  0  0  0  0  0  0  0  0  0  0
   -9.4238   25.8342  -20.3125 C   0  0  0  0  0  0  0  0  0  0  0  0
   -9.4676   27.0539  -20.5838 O   0  0  0  0  0  0  0  0  0  0  0  0
  -10.6125   25.1895  -20.0367 O   0  0  0  0  0  0  0  0  0  0  0  0
  -11.3378   25.0286  -20.7451 H   0  0  0  0  0  0  0  0  0  0  0  0
 25 26  1  0  0  0
 26 24  1  0  0  0
 24  1  1  0  0  0
  1  2  2  0  0  0
  2  3  1  0  0  0
  3  4  2  0  0  0
  4  5  1  0  0  0
  5 27  1  0  0  0
 27 28  1  0  0  0
 28 29  2  0  0  0
 29 30  1  0  0  0
 30 31  2  0  0  0
 31 34  1  0  0  0
 34 35  2  0  0  0
 35 36  1  0  0  0
 36 37  2  0  0  0
 36 38  1  0  0  0
 31 32  1  0  0  0
 32 33  2  0  0  0
  5  6  2  0  0  0
  6 12  1  0  0  0
 12 13  2  0  0  0
 13 14  1  0  0  0
 14 15  2  0  0  0
 15 19  1  0  0  0
 19 20  1  0  0  0
 20 21  1  0  0  0
 20 22  1  0  0  0
 20 23  1  0  0  0
 15 16  1  0  0  0
 16 17  2  0  0  0
 17 18  1  0  0  0
  6  7  1  0  0  0
  7  8  2  0  0  0
  7  9  1  0  0  0
  9 10  1  0  0  0
 10 11  2  0  0  0
 11  1  1  0  0  0
 10  4  1  0  0  0
 33 28  1  0  0  0
 17 12  1  0  0  0
 38 39  1  0  0  0
M  END
> <minimizedAffinity>
-6.85329

> <CNNscore>
0.1478970796

> <CNNaffinity>
6.4743776321

> <CNN_VS>
0.9575415254

> <CNNaffinity_variance>
0.3307405114

$$$$
[H]OC(=O)/C([H])=C(\[H])c1c([H])c([H])c(Oc2c(-c3c([H])c([H])c(OC(F)(F)F)c([H])c3C([H])([H])[H])c(=O)oc3c([H])c(OC([H])([H])C([H])([H])[H])c([H])c([H])c23)c([H])c1[H]


 39 42  0  0  0  0  0  0  0  0999 V2000
    1.9757   20.8143  -21.9585 C   0  0  0  0  0  0  0  0  0  0  0  0
    1.3255   21.2367  -20.8249 C   0  0  0  0  0  0  0  0  0  0  0  0
    0.0721   21.7939  -20.9537 C   0  0  0  0  0  0  0  0  0  0  0  0
   -0.5455   21.9396  -22.1799 C   0  0  0  0  0  0  0  0  0  0  0  0
   -1.8252   22.5036  -22.3199 C   0  0  0  0  0  0  0  0  0  0  0  0
   -2.3057   22.5740  -23.6114 C   0  0  0  0  0  0  0  0  0  0  0  0
   -1.5976   22.1262  -24.7249 C   0  0  0  0  0  0  0  0  0  0  0  0
   -2.0862   22.2141  -25.8932 O   0  0  0  0  0  0  0  0  0  0  0  0
   -0.4196   21.6151  -24.5304 O   0  0  0  0  0  0  0  0  0  0  0  0
    0.0978   21.5187  -23.3174 C   0  0  0  0  0  0  0  0  0  0  0  0
    1.3635   20.9573  -23.1796 C   0  0  0  0  0  0  0  0  0  0  0  0
   -3.6034   23.1577  -23.8805 C   0  0  0  0  0  0  0  0  0  0  0  0
   -3.7296   24.5144  -23.9254 C   0  0  0  0  0  0  0  0  0  0  0  0
   -4.9439   25.0994  -24.1810 C   0  0  0  0  0  0  0  0  0  0  0  0
   -6.0420   24.3019  -24.3933 C   0  0  0  0  0  0  0  0  0  0  0  0
   -5.9154   22.9252  -24.3480 C   0  0  0  0  0  0  0  0  0  0  0  0
   -4.6949   22.3587  -24.0913 C   0  0  0  0  0  0  0  0  0  0  0  0
   -4.6381   20.8744  -24.0552 C   0  0  0  0  0  0  0  0  0  0  0  0
   -7.2810   24.8989  -24.6541 O   0  0  0  0  0  0  0  0  0  0  0  0
   -8.2439   25.0654  -23.6193 C   0  0  0  0  0  0  0  0  0  0  0  0
   -8.0093   26.2711  -23.0060 F   0  0  0  0  0  0  0  0  0  0  0  0
   -9.5135   25.0488  -24.1665 F   0  0  0  0  0  0  0  0  0  0  0  0
   -8.1818   24.0330  -22.6953 F   0  0  0  0  0  0  0  0  0  0  0  0
    3.2289   20.2561  -21.8446 O   0  0  0  0  0  0  0  0  0  0  0  0
    4.1232   18.0508  -22.0999 C   0  0  0  0  0  0  0  0  0  0  0  0
    3.4810   19.0447  -21.1592 C   0  0  0  0  0  0  0  0  0  0  0  0
   -2.4543   22.9164  -21.2064 O   0  0  0  0  0  0  0  0  0  0  0  0
   -3.6258   22.6513  -20.5985 C   0  0  0  0  0  0  0  0  0  0  0  0
   -3.9773   21.4794  -19.9824 C   0  0  0  0  0  0  0  0  0  0  0  0
   -5.2128   21.2650  -19.3723 C   0  0  0  0  0  0  0  0  0  0  0  0
   -6.1730   22.2722  -19.3654 C   0  0  0  0  0  0  0  0  0  0  0  0
   -5.8449   23.4591  -19.9773 C   0  0  0  0  0  0  0  0  0  0  0  0
   -4.6199   23.6469  -20.5724 C   0  0  0  0  0  0  0  0  0  0  0  0
   -7.4530   22.0265  -18.7243 C   0  0  0  0  0  0  0  0  0  0  0  0
   -8.6185   22.1308  -19.3295 C   0  0  0  0  0  0  0  0  0  0  0  0
   -9.8499   21.8536  -18.5646 C   0  0  0  0  0  0  0  0  0  0  0  0
  -10.4371   22.7478  -17.9174 O   0  0  0  0  0  0  0  0  0  0  0  0
  -10.3880   20.5828  -18.5469 O   0  0  0  0  0  0  0  0  0  0  0  0
  -11.2826   20.3489  -18.9927 H   0  0  0  0  0  0  0  0  0  0  0  0
 25 26  1  0  0  0
 26 24  1  0  0  0
 24  1  1  0  0  0
  1  2  2  0  0  0
  2  3  1  0  0  0
  3  4  2  0  0  0
  4  5  1  0  0  0
  5 27  1  0  0  0
 27 28  1  0  0  0
 28 29  2  0  0  0
 29 30  1  0  0  0
 30 31  2  0  0  0
 31 34  1  0  0  0
 34 35  2  0  0  0
 35 36  1  0  0  0
 36 37  2  0  0  0
 36 38  1  0  0  0
 31 32  1  0  0  0
 32 33  2  0  0  0
  5  6  2  0  0  0
  6 12  1  0  0  0
 12 13  2  0  0  0
 13 14  1  0  0  0
 14 15  2  0  0  0
 15 19  1  0  0  0
 19 20  1  0  0  0
 20 21  1  0  0  0
 20 22  1  0  0  0
 20 23  1  0  0  0
 15 16  1  0  0  0
 16 17  2  0  0  0
 17 18  1  0  0  0
  6  7  1  0  0  0
  7  8  2  0  0  0
  7  9  1  0  0  0
  9 10  1  0  0  0
 10 11  2  0  0  0
 11  1  1  0  0  0
 10  4  1  0  0  0
 33 28  1  0  0  0
 17 12  1  0  0  0
 38 39  1  0  0  0
M  END
> <minimizedAffinity>
-7.01050

> <CNNscore>
0.1461638808

> <CNNaffinity>
6.2837238312

> <CNN_VS>
0.9184534550

> <CNNaffinity_variance>
0.1983092576

$$$$
[H]OC(=O)/C([H])=C(\[H])c1c([H])c([H])c(Oc2c(-c3c([H])c([H])c(OC(F)(F)F)c([H])c3C([H])([H])[H])c(=O)oc3c([H])c(OC([H])([H])C([H])([H])[H])c([H])c([H])c23)c([H])c1[H]


 39 42  0  0  0  0  0  0  0  0999 V2000
   -1.0888   21.9828  -25.2631 C   0  0  0  0  0  0  0  0  0  0  0  0
   -2.2759   21.8709  -24.5816 C   0  0  0  0  0  0  0  0  0  0  0  0
   -2.2373   21.5877  -23.2339 C   0  0  0  0  0  0  0  0  0  0  0  0
   -1.0490   21.4140  -22.5527 C   0  0  0  0  0  0  0  0  0  0  0  0
   -1.0004   21.1284  -21.1774 C   0  0  0  0  0  0  0  0  0  0  0  0
    0.2644   20.9886  -20.6437 C   0  0  0  0  0  0  0  0  0  0  0  0
    1.4356   21.1152  -21.3879 C   0  0  0  0  0  0  0  0  0  0  0  0
    2.5757   20.9772  -20.8473 O   0  0  0  0  0  0  0  0  0  0  0  0
    1.3247   21.3793  -22.6547 O   0  0  0  0  0  0  0  0  0  0  0  0
    0.1417   21.5255  -23.2270 C   0  0  0  0  0  0  0  0  0  0  0  0
    0.0948   21.8112  -24.5880 C   0  0  0  0  0  0  0  0  0  0  0  0
    0.4378   20.6704  -19.2416 C   0  0  0  0  0  0  0  0  0  0  0  0
    0.6273   21.6803  -18.3456 C   0  0  0  0  0  0  0  0  0  0  0  0
    0.7917   21.4135  -17.0101 C   0  0  0  0  0  0  0  0  0  0  0  0
    0.7639   20.1101  -16.5773 C   0  0  0  0  0  0  0  0  0  0  0  0
    0.5718   19.0844  -17.4853 C   0  0  0  0  0  0  0  0  0  0  0  0
    0.4095   19.3698  -18.8152 C   0  0  0  0  0  0  0  0  0  0  0  0
    0.2113   18.2159  -19.7299 C   0  0  0  0  0  0  0  0  0  0  0  0
    0.9316   19.8380  -15.2145 O   0  0  0  0  0  0  0  0  0  0  0  0
   -0.1132   20.0983  -14.2837 C   0  0  0  0  0  0  0  0  0  0  0  0
   -1.2921   19.6517  -14.8273 F   0  0  0  0  0  0  0  0  0  0  0  0
    0.1486   19.4314  -13.1012 F   0  0  0  0  0  0  0  0  0  0  0  0
   -0.2013   21.4491  -13.9820 F   0  0  0  0  0  0  0  0  0  0  0  0
   -1.1127   22.2650  -26.6103 O   0  0  0  0  0  0  0  0  0  0  0  0
   -0.1298   23.2884  -28.5378 C   0  0  0  0  0  0  0  0  0  0  0  0
    0.0462   22.2848  -27.4211 C   0  0  0  0  0  0  0  0  0  0  0  0
   -2.1661   21.0185  -20.5177 O   0  0  0  0  0  0  0  0  0  0  0  0
   -2.6133   21.3103  -19.2820 C   0  0  0  0  0  0  0  0  0  0  0  0
   -2.9651   20.4121  -18.3094 C   0  0  0  0  0  0  0  0  0  0  0  0
   -3.4270   20.7793  -17.0459 C   0  0  0  0  0  0  0  0  0  0  0  0
   -3.5529   22.1242  -16.7115 C   0  0  0  0  0  0  0  0  0  0  0  0
   -3.2058   23.0466  -17.6704 C   0  0  0  0  0  0  0  0  0  0  0  0
   -2.7528   22.6601  -18.9096 C   0  0  0  0  0  0  0  0  0  0  0  0
   -4.0363   22.4834  -15.3898 C   0  0  0  0  0  0  0  0  0  0  0  0
   -3.4746   22.0951  -14.2631 C   0  0  0  0  0  0  0  0  0  0  0  0
   -4.0644   22.5298  -12.9819 C   0  0  0  0  0  0  0  0  0  0  0  0
   -4.8980   21.8270  -12.3700 O   0  0  0  0  0  0  0  0  0  0  0  0
   -3.7033   23.7391  -12.4233 O   0  0  0  0  0  0  0  0  0  0  0  0
   -3.1614   23.8132  -11.5546 H   0  0  0  0  0  0  0  0  0  0  0  0
 25 26  1  0  0  0
 26 24  1  0  0  0
 24  1  1  0  0  0
  1  2  2  0  0  0
  2  3  1  0  0  0
  3  4  2  0  0  0
  4  5  1  0  0  0
  5 27  1  0  0  0
 27 28  1  0  0  0
 28 29  2  0  0  0
 29 30  1  0  0  0
 30 31  2  0  0  0
 31 34  1  0  0  0
 34 35  2  0  0  0
 35 36  1  0  0  0
 36 37  2  0  0  0
 36 38  1  0  0  0
 31 32  1  0  0  0
 32 33  2  0  0  0
  5  6  2  0  0  0
  6 12  1  0  0  0
 12 13  2  0  0  0
 13 14  1  0  0  0
 14 15  2  0  0  0
 15 19  1  0  0  0
 19 20  1  0  0  0
 20 21  1  0  0  0
 20 22  1  0  0  0
 20 23  1  0  0  0
 15 16  1  0  0  0
 16 17  2  0  0  0
 17 18  1  0  0  0
  6  7  1  0  0  0
  7  8  2  0  0  0
  7  9  1  0  0  0
  9 10  1  0  0  0
 10 11  2  0  0  0
 11  1  1  0  0  0
 10  4  1  0  0  0
 33 28  1  0  0  0
 17 12  1  0  0  0
 38 39  1  0  0  0
M  END
> <minimizedAffinity>
-5.58309

> <CNNscore>
0.1428512782

> <CNNaffinity>
5.9499664307

> <CNN_VS>
0.8499603271

> <CNNaffinity_variance>
0.1433585137

$$$$
[H]OC(=O)/C([H])=C(\[H])c1c([H])c([H])c(Oc2c(-c3c([H])c([H])c(OC(F)(F)F)c([H])c3C([H])([H])[H])c(=O)oc3c([H])c(OC([H])([H])C([H])([H])[H])c([H])c([H])c23)c([H])c1[H]


 39 42  0  0  0  0  0  0  0  0999 V2000
   -1.7032   22.4204  -24.9498 C   0  0  0  0  0  0  0  0  0  0  0  0
   -2.5915   23.0401  -24.1054 C   0  0  0  0  0  0  0  0  0  0  0  0
   -2.3361   23.0209  -22.7517 C   0  0  0  0  0  0  0  0  0  0  0  0
   -1.2217   22.4012  -22.2223 C   0  0  0  0  0  0  0  0  0  0  0  0
   -0.9518   22.3799  -20.8432 C   0  0  0  0  0  0  0  0  0  0  0  0
    0.2050   21.7245  -20.4739 C   0  0  0  0  0  0  0  0  0  0  0  0
    1.0701   21.1140  -21.3798 C   0  0  0  0  0  0  0  0  0  0  0  0
    2.1229   20.5236  -20.9871 O   0  0  0  0  0  0  0  0  0  0  0  0
    0.7654   21.1675  -22.6412 O   0  0  0  0  0  0  0  0  0  0  0  0
   -0.3286   21.7806  -23.0602 C   0  0  0  0  0  0  0  0  0  0  0  0
   -0.5933   21.8038  -24.4261 C   0  0  0  0  0  0  0  0  0  0  0  0
    0.5739   21.6179  -19.0776 C   0  0  0  0  0  0  0  0  0  0  0  0
    1.3706   22.5745  -18.5220 C   0  0  0  0  0  0  0  0  0  0  0  0
    1.7361   22.5051  -17.2016 C   0  0  0  0  0  0  0  0  0  0  0  0
    1.2899   21.4557  -16.4357 C   0  0  0  0  0  0  0  0  0  0  0  0
    0.4816   20.4843  -16.9981 C   0  0  0  0  0  0  0  0  0  0  0  0
    0.1269   20.5701  -18.3184 C   0  0  0  0  0  0  0  0  0  0  0  0
   -0.7404   19.4881  -18.8521 C   0  0  0  0  0  0  0  0  0  0  0  0
    1.6628   21.3850  -15.0883 O   0  0  0  0  0  0  0  0  0  0  0  0
    1.0146   22.1878  -14.1079 C   0  0  0  0  0  0  0  0  0  0  0  0
   -0.3232   22.2383  -14.4121 F   0  0  0  0  0  0  0  0  0  0  0  0
    1.1977   21.6242  -12.8587 F   0  0  0  0  0  0  0  0  0  0  0  0
    1.5486   23.4670  -14.0632 F   0  0  0  0  0  0  0  0  0  0  0  0
   -1.9461   22.4315  -26.3048 O   0  0  0  0  0  0  0  0  0  0  0  0
   -2.9562   22.9906  -28.4013 C   0  0  0  0  0  0  0  0  0  0  0  0
   -2.9341   23.2422  -26.9109 C   0  0  0  0  0  0  0  0  0  0  0  0
   -1.8265   22.9867  -20.0230 O   0  0  0  0  0  0  0  0  0  0  0  0
   -2.9016   22.6142  -19.3035 C   0  0  0  0  0  0  0  0  0  0  0  0
   -4.1178   22.2237  -19.7982 C   0  0  0  0  0  0  0  0  0  0  0  0
   -5.1972   21.8524  -18.9972 C   0  0  0  0  0  0  0  0  0  0  0  0
   -5.0755   21.8646  -17.6110 C   0  0  0  0  0  0  0  0  0  0  0  0
   -3.8641   22.2526  -17.0887 C   0  0  0  0  0  0  0  0  0  0  0  0
   -2.8142   22.6144  -17.8991 C   0  0  0  0  0  0  0  0  0  0  0  0
   -6.2129   21.4742  -16.7965 C   0  0  0  0  0  0  0  0  0  0  0  0
   -7.4409   21.3367  -17.2535 C   0  0  0  0  0  0  0  0  0  0  0  0
   -8.5113   20.9339  -16.3205 C   0  0  0  0  0  0  0  0  0  0  0  0
   -8.9746   21.7252  -15.4707 O   0  0  0  0  0  0  0  0  0  0  0  0
   -9.0318   19.6565  -16.3668 O   0  0  0  0  0  0  0  0  0  0  0  0
   -9.9916   19.4553  -16.6701 H   0  0  0  0  0  0  0  0  0  0  0  0
 25 26  1  0  0  0
 26 24  1  0  0  0
 24  1  1  0  0  0
  1  2  2  0  0  0
  2  3  1  0  0  0
  3  4  2  0  0  0
  4  5  1  0  0  0
  5 27  1  0  0  0
 27 28  1  0  0  0
 28 29  2  0  0  0
 29 30  1  0  0  0
 30 31  2  0  0  0
 31 34  1  0  0  0
 34 35  2  0  0  0
 35 36  1  0  0  0
 36 37  2  0  0  0
 36 38  1  0  0  0
 31 32  1  0  0  0
 32 33  2  0  0  0
  5  6  2  0  0  0
  6 12  1  0  0  0
 12 13  2  0  0  0
 13 14  1  0  0  0
 14 15  2  0  0  0
 15 19  1  0  0  0
 19 20  1  0  0  0
 20 21  1  0  0  0
 20 22  1  0  0  0
 20 23  1  0  0  0
 15 16  1  0  0  0
 16 17  2  0  0  0
 17 18  1  0  0  0
  6  7  1  0  0  0
  7  8  2  0  0  0
  7  9  1  0  0  0
  9 10  1  0  0  0
 10 11  2  0  0  0
 11  1  1  0  0  0
 10  4  1  0  0  0
 33 28  1  0  0  0
 17 12  1  0  0  0
 38 39  1  0  0  0
M  END
> <minimizedAffinity>
-5.98555

> <CNNscore>
0.1036741138

> <CNNaffinity>
5.9894495010

> <CNN_VS>
0.6209508777

> <CNNaffinity_variance>
0.2006046474

$$$$
[H]OC(=O)/C([H])=C(\[H])c1c([H])c([H])c(Oc2c(-c3c([H])c([H])c(OC(F)(F)F)c([H])c3C([H])([H])[H])c(=O)oc3c([H])c(OC([H])([H])C([H])([H])[H])c([H])c([H])c23)c([H])c1[H]


 39 42  0  0  0  0  0  0  0  0999 V2000
   -6.2787   24.8745  -22.4467 C   0  0  0  0  0  0  0  0  0  0  0  0
   -6.5998   24.0740  -21.3779 C   0  0  0  0  0  0  0  0  0  0  0  0
   -5.6134   23.2874  -20.8245 C   0  0  0  0  0  0  0  0  0  0  0  0
   -4.3206   23.2796  -21.3092 C   0  0  0  0  0  0  0  0  0  0  0  0
   -3.3075   22.4830  -20.7486 C   0  0  0  0  0  0  0  0  0  0  0  0
   -2.0674   22.5925  -21.3438 C   0  0  0  0  0  0  0  0  0  0  0  0
   -1.8017   23.4258  -22.4284 C   0  0  0  0  0  0  0  0  0  0  0  0
   -0.6414   23.4895  -22.9392 O   0  0  0  0  0  0  0  0  0  0  0  0
   -2.7798   24.1369  -22.9020 O   0  0  0  0  0  0  0  0  0  0  0  0
   -3.9918   24.0780  -22.3766 C   0  0  0  0  0  0  0  0  0  0  0  0
   -4.9933   24.8694  -22.9305 C   0  0  0  0  0  0  0  0  0  0  0  0
   -0.9522   21.8017  -20.8662 C   0  0  0  0  0  0  0  0  0  0  0  0
   -0.6873   20.5987  -21.4503 C   0  0  0  0  0  0  0  0  0  0  0  0
    0.3633   19.8264  -21.0240 C   0  0  0  0  0  0  0  0  0  0  0  0
    1.1540   20.2772  -19.9953 C   0  0  0  0  0  0  0  0  0  0  0  0
    0.8865   21.4976  -19.4017 C   0  0  0  0  0  0  0  0  0  0  0  0
   -0.1671   22.2552  -19.8405 C   0  0  0  0  0  0  0  0  0  0  0  0
   -0.3938   23.5522  -19.1520 C   0  0  0  0  0  0  0  0  0  0  0  0
    2.2261   19.4891  -19.5605 O   0  0  0  0  0  0  0  0  0  0  0  0
    3.4052   19.3614  -20.3474 C   0  0  0  0  0  0  0  0  0  0  0  0
    3.6282   20.5583  -20.9819 F   0  0  0  0  0  0  0  0  0  0  0  0
    4.4737   19.0515  -19.5265 F   0  0  0  0  0  0  0  0  0  0  0  0
    3.2897   18.3369  -21.2750 F   0  0  0  0  0  0  0  0  0  0  0  0
   -7.2547   25.6654  -23.0097 O   0  0  0  0  0  0  0  0  0  0  0  0
   -7.8682   24.7990  -25.1548 C   0  0  0  0  0  0  0  0  0  0  0  0
   -8.3364   25.1490  -23.7607 C   0  0  0  0  0  0  0  0  0  0  0  0
   -3.6297   21.7009  -19.7042 O   0  0  0  0  0  0  0  0  0  0  0  0
   -3.4355   21.7312  -18.3725 C   0  0  0  0  0  0  0  0  0  0  0  0
   -2.6397   20.8858  -17.6456 C   0  0  0  0  0  0  0  0  0  0  0  0
   -2.4833   20.9669  -16.2623 C   0  0  0  0  0  0  0  0  0  0  0  0
   -3.1554   21.9477  -15.5393 C   0  0  0  0  0  0  0  0  0  0  0  0
   -3.9609   22.8097  -16.2456 C   0  0  0  0  0  0  0  0  0  0  0  0
   -4.0993   22.7099  -17.6098 C   0  0  0  0  0  0  0  0  0  0  0  0
   -2.9777   22.0131  -14.0992 C   0  0  0  0  0  0  0  0  0  0  0  0
   -1.8325   21.8044  -13.4823 C   0  0  0  0  0  0  0  0  0  0  0  0
   -1.7840   21.9008  -12.0104 C   0  0  0  0  0  0  0  0  0  0  0  0
   -0.7001   21.9034  -11.3873 O   0  0  0  0  0  0  0  0  0  0  0  0
   -2.9510   21.9917  -11.2792 O   0  0  0  0  0  0  0  0  0  0  0  0
   -3.2232   22.8372  -10.7648 H   0  0  0  0  0  0  0  0  0  0  0  0
 25 26  1  0  0  0
 26 24  1  0  0  0
 24  1  1  0  0  0
  1  2  2  0  0  0
  2  3  1  0  0  0
  3  4  2  0  0  0
  4  5  1  0  0  0
  5 27  1  0  0  0
 27 28  1  0  0  0
 28 29  2  0  0  0
 29 30  1  0  0  0
 30 31  2  0  0  0
 31 34  1  0  0  0
 34 35  2  0  0  0
 35 36  1  0  0  0
 36 37  2  0  0  0
 36 38  1  0  0  0
 31 32  1  0  0  0
 32 33  2  0  0  0
  5  6  2  0  0  0
  6 12  1  0  0  0
 12 13  2  0  0  0
 13 14  1  0  0  0
 14 15  2  0  0  0
 15 19  1  0  0  0
 19 20  1  0  0  0
 20 21  1  0  0  0
 20 22  1  0  0  0
 20 23  1  0  0  0
 15 16  1  0  0  0
 16 17  2  0  0  0
 17 18  1  0  0  0
  6  7  1  0  0  0
  7  8  2  0  0  0
  7  9  1  0  0  0
  9 10  1  0  0  0
 10 11  2  0  0  0
 11  1  1  0  0  0
 10  4  1  0  0  0
 33 28  1  0  0  0
 17 12  1  0  0  0
 38 39  1  0  0  0
M  END
> <minimizedAffinity>
-5.72025

> <CNNscore>
0.1005313545

> <CNNaffinity>
5.8223237991

> <CNN_VS>
0.5853260756

> <CNNaffinity_variance>
0.2251537144

$$$$
[H]N=C(c1c([H])c([H])c([H])c(Oc2c([H])c([H])c(N([H])[H])c([H])c2C(=O)N([H])c2c([H])c([H])c(-c3c([H])c([H])c([H])c([H])c3S(=O)(=O)N([H])[H])c([H])c2[H])c1[H])N([H])[H]


 44 47  0  0  0  0  0  0  0  0999 V2000
   -4.4558   24.7706  -27.2456 C   0  0  0  0  0  0  0  0  0  0  0  0
   -3.7025   25.0435  -28.4156 C   0  0  0  0  0  0  0  0  0  0  0  0
   -4.2890   24.9569  -29.6496 C   0  0  0  0  0  0  0  0  0  0  0  0
   -5.6127   24.6004  -29.7143 C   0  0  0  0  0  0  0  0  0  0  0  0
   -6.1940   24.5041  -31.0024 N   0  0  0  0  0  0  0  0  0  0  0  0
   -6.3418   24.3428  -28.5812 C   0  0  0  0  0  0  0  0  0  0  0  0
   -5.7518   24.4339  -27.2763 C   0  0  0  0  0  0  0  0  0  0  0  0
   -7.1050   24.9224  -31.2136 H   0  0  0  0  0  0  0  0  0  0  0  0
   -5.6575   23.9842  -31.7155 H   0  0  0  0  0  0  0  0  0  0  0  0
   -6.7394   24.5155  -26.1660 C   0  0  0  0  0  0  0  0  0  0  0  0
   -7.8841   24.9298  -26.6262 O   0  0  0  0  0  0  0  0  0  0  0  0
   -6.6062   24.2379  -24.8856 N   0  0  0  0  0  0  0  0  0  0  0  0
   -7.9929   24.1889  -24.7817 H   0  0  0  0  0  0  0  0  0  0  0  0
   -6.4667   23.9471  -23.5444 C   0  0  0  0  0  0  0  0  0  0  0  0
   -6.6507   22.6171  -23.0990 C   0  0  0  0  0  0  0  0  0  0  0  0
   -6.6070   22.2851  -21.7641 C   0  0  0  0  0  0  0  0  0  0  0  0
   -6.3811   23.2357  -20.8016 C   0  0  0  0  0  0  0  0  0  0  0  0
   -6.1944   24.5325  -21.2047 C   0  0  0  0  0  0  0  0  0  0  0  0
   -6.2365   24.8783  -22.5446 C   0  0  0  0  0  0  0  0  0  0  0  0
   -6.3793   22.9330  -19.3884 C   0  0  0  0  0  0  0  0  0  0  0  0
   -5.2025   22.7000  -18.7019 C   0  0  0  0  0  0  0  0  0  0  0  0
   -5.1916   22.3761  -17.3692 C   0  0  0  0  0  0  0  0  0  0  0  0
   -6.3885   22.2794  -16.6935 C   0  0  0  0  0  0  0  0  0  0  0  0
   -7.5638   22.5075  -17.3556 C   0  0  0  0  0  0  0  0  0  0  0  0
   -7.5677   22.8370  -18.7069 C   0  0  0  0  0  0  0  0  0  0  0  0
   -9.0802   23.1382  -19.4575 S   0  0  0  0  0  0  0  0  0  0  0  0
  -10.3466   22.9539  -18.2587 N   0  0  0  0  0  0  0  0  0  0  0  0
   -9.3852   22.0378  -20.4601 O   0  0  0  0  0  0  0  0  0  0  0  0
   -9.2136   24.4994  -20.0765 O   0  0  0  0  0  0  0  0  0  0  0  0
  -10.4790   21.9516  -18.0075 H   0  0  0  0  0  0  0  0  0  0  0  0
  -10.0849   23.4749  -17.4054 H   0  0  0  0  0  0  0  0  0  0  0  0
   -3.7350   24.8619  -26.0313 O   0  0  0  0  0  0  0  0  0  0  0  0
   -1.0852   22.3580  -25.7012 C   0  0  0  0  0  0  0  0  0  0  0  0
   -1.7427   21.3053  -25.0997 C   0  0  0  0  0  0  0  0  0  0  0  0
   -3.0746   21.3690  -24.7748 C   0  0  0  0  0  0  0  0  0  0  0  0
   -3.7457   22.5639  -25.0842 C   0  0  0  0  0  0  0  0  0  0  0  0
   -3.1601   23.6196  -25.6700 C   0  0  0  0  0  0  0  0  0  0  0  0
   -1.7770   23.5065  -25.9868 C   0  0  0  0  0  0  0  0  0  0  0  0
    0.8435   22.7215  -27.1197 N   0  0  0  0  0  0  0  0  0  0  0  0
    0.3374   22.2648  -26.0523 C   0  0  0  0  0  0  0  0  0  0  0  0
    1.2043   21.6039  -25.1423 N   0  0  0  0  0  0  0  0  0  0  0  0
    0.4080   23.2201  -27.8935 H   0  0  0  0  0  0  0  0  0  0  0  0
    1.6325   20.7091  -25.4943 H   0  0  0  0  0  0  0  0  0  0  0  0
    1.4499   21.9041  -24.1948 H   0  0  0  0  0  0  0  0  0  0  0  0
 39 40  2  0  0  0
 40 41  1  0  0  0
 40 33  1  0  0  0
 33 34  2  0  0  0
 34 35  1  0  0  0
 35 36  2  0  0  0
 36 37  1  0  0  0
 37 32  1  0  0  0
 32  1  1  0  0  0
  1  2  2  0  0  0
  2  3  1  0  0  0
  3  4  2  0  0  0
  4  5  1  0  0  0
  4  6  1  0  0  0
  6  7  2  0  0  0
  7 10  1  0  0  0
 10 11  2  0  0  0
 10 12  1  0  0  0
 12 14  1  0  0  0
 14 15  2  0  0  0
 15 16  1  0  0  0
 16 17  2  0  0  0
 17 20  1  0  0  0
 20 21  2  0  0  0
 21 22  1  0  0  0
 22 23  2  0  0  0
 23 24  1  0  0  0
 24 25  2  0  0  0
 25 26  1  0  0  0
 26 27  1  0  0  0
 26 28  2  0  0  0
 26 29  2  0  0  0
 17 18  1  0  0  0
 18 19  2  0  0  0
 37 38  2  0  0  0
 38 33  1  0  0  0
  7  1  1  0  0  0
 19 14  1  0  0  0
 25 20  1  0  0  0
 39 42  1  0  0  0
 41 43  1  0  0  0
 41 44  1  0  0  0
  5  8  1  0  0  0
  5  9  1  0  0  0
 12 13  1  0  0  0
 27 30  1  0  0  0
 27 31  1  0  0  0
M  END
> <minimizedAffinity>
-8.27509

> <CNNscore>
0.2167434990

> <CNNaffinity>
6.5976715088

> <CNN_VS>
1.4300024509

> <CNNaffinity_variance>
0.2695235610

$$$$
[H]N=C(c1c([H])c([H])c([H])c(Oc2c([H])c([H])c(N([H])[H])c([H])c2C(=O)N([H])c2c([H])c([H])c(-c3c([H])c([H])c([H])c([H])c3S(=O)(=O)N([H])[H])c([H])c2[H])c1[H])N([H])[H]


 44 47  0  0  0  0  0  0  0  0999 V2000
   -4.4825   24.8664  -27.3012 C   0  0  0  0  0  0  0  0  0  0  0  0
   -3.6734   25.0671  -28.4484 C   0  0  0  0  0  0  0  0  0  0  0  0
   -4.2269   25.0208  -29.6997 C   0  0  0  0  0  0  0  0  0  0  0  0
   -5.5732   24.7755  -29.8040 C   0  0  0  0  0  0  0  0  0  0  0  0
   -6.1206   24.7188  -31.1092 N   0  0  0  0  0  0  0  0  0  0  0  0
   -6.3558   24.5878  -28.6931 C   0  0  0  0  0  0  0  0  0  0  0  0
   -5.8006   24.6387  -27.3709 C   0  0  0  0  0  0  0  0  0  0  0  0
   -6.9866   25.2101  -31.3507 H   0  0  0  0  0  0  0  0  0  0  0  0
   -5.6078   24.1509  -31.8028 H   0  0  0  0  0  0  0  0  0  0  0  0
   -6.8115   24.8103  -26.2923 C   0  0  0  0  0  0  0  0  0  0  0  0
   -7.9609   25.1270  -26.8143 O   0  0  0  0  0  0  0  0  0  0  0  0
   -6.6934   24.6860  -24.9866 N   0  0  0  0  0  0  0  0  0  0  0  0
   -8.0793   24.5983  -24.8988 H   0  0  0  0  0  0  0  0  0  0  0  0
   -6.5697   24.5558  -23.6190 C   0  0  0  0  0  0  0  0  0  0  0  0
   -5.3407   24.8808  -22.9985 C   0  0  0  0  0  0  0  0  0  0  0  0
   -5.1340   24.6904  -21.6512 C   0  0  0  0  0  0  0  0  0  0  0  0
   -6.1176   24.1743  -20.8465 C   0  0  0  0  0  0  0  0  0  0  0  0
   -7.3209   23.8548  -21.4200 C   0  0  0  0  0  0  0  0  0  0  0  0
   -7.5401   24.0417  -22.7741 C   0  0  0  0  0  0  0  0  0  0  0  0
   -5.9196   23.9130  -19.4390 C   0  0  0  0  0  0  0  0  0  0  0  0
   -6.0715   24.9083  -18.4919 C   0  0  0  0  0  0  0  0  0  0  0  0
   -5.8507   24.6803  -17.1576 C   0  0  0  0  0  0  0  0  0  0  0  0
   -5.4656   23.4224  -16.7476 C   0  0  0  0  0  0  0  0  0  0  0  0
   -5.3112   22.4240  -17.6700 C   0  0  0  0  0  0  0  0  0  0  0  0
   -5.5381   22.6615  -19.0216 C   0  0  0  0  0  0  0  0  0  0  0  0
   -5.3531   21.3500  -20.1114 S   0  0  0  0  0  0  0  0  0  0  0  0
   -4.6586   19.9942  -19.2429 N   0  0  0  0  0  0  0  0  0  0  0  0
   -4.2900   21.6852  -21.1441 O   0  0  0  0  0  0  0  0  0  0  0  0
   -6.6258   20.8896  -20.7611 O   0  0  0  0  0  0  0  0  0  0  0  0
   -3.6567   20.1697  -19.0177 H   0  0  0  0  0  0  0  0  0  0  0  0
   -5.1752   19.8569  -18.3584 H   0  0  0  0  0  0  0  0  0  0  0  0
   -3.7943   24.9059  -26.0654 O   0  0  0  0  0  0  0  0  0  0  0  0
   -1.1967   22.3514  -25.7098 C   0  0  0  0  0  0  0  0  0  0  0  0
   -1.8964   21.2856  -25.1835 C   0  0  0  0  0  0  0  0  0  0  0  0
   -3.2415   21.3564  -24.9206 C   0  0  0  0  0  0  0  0  0  0  0  0
   -3.8811   22.5726  -25.2135 C   0  0  0  0  0  0  0  0  0  0  0  0
   -3.2540   23.6418  -25.7274 C   0  0  0  0  0  0  0  0  0  0  0  0
   -1.8587   23.5205  -25.9817 C   0  0  0  0  0  0  0  0  0  0  0  0
    0.7891   22.6607  -27.0608 N   0  0  0  0  0  0  0  0  0  0  0  0
    0.2400   22.2508  -25.9956 C   0  0  0  0  0  0  0  0  0  0  0  0
    1.0701   21.6379  -25.0201 N   0  0  0  0  0  0  0  0  0  0  0  0
    0.3848   23.1203  -27.8746 H   0  0  0  0  0  0  0  0  0  0  0  0
    1.5166   20.7305  -25.3118 H   0  0  0  0  0  0  0  0  0  0  0  0
    1.2738   21.9832  -24.0780 H   0  0  0  0  0  0  0  0  0  0  0  0
 39 40  2  0  0  0
 40 41  1  0  0  0
 40 33  1  0  0  0
 33 34  2  0  0  0
 34 35  1  0  0  0
 35 36  2  0  0  0
 36 37  1  0  0  0
 37 32  1  0  0  0
 32  1  1  0  0  0
  1  2  2  0  0  0
  2  3  1  0  0  0
  3  4  2  0  0  0
  4  5  1  0  0  0
  4  6  1  0  0  0
  6  7  2  0  0  0
  7 10  1  0  0  0
 10 11  2  0  0  0
 10 12  1  0  0  0
 12 14  1  0  0  0
 14 15  2  0  0  0
 15 16  1  0  0  0
 16 17  2  0  0  0
 17 20  1  0  0  0
 20 21  2  0  0  0
 21 22  1  0  0  0
 22 23  2  0  0  0
 23 24  1  0  0  0
 24 25  2  0  0  0
 25 26  1  0  0  0
 26 27  1  0  0  0
 26 28  2  0  0  0
 26 29  2  0  0  0
 17 18  1  0  0  0
 18 19  2  0  0  0
 37 38  2  0  0  0
 38 33  1  0  0  0
  7  1  1  0  0  0
 19 14  1  0  0  0
 25 20  1  0  0  0
 39 42  1  0  0  0
 41 43  1  0  0  0
 41 44  1  0  0  0
  5  8  1  0  0  0
  5  9  1  0  0  0
 12 13  1  0  0  0
 27 30  1  0  0  0
 27 31  1  0  0  0
M  END
> <minimizedAffinity>
-8.17495

> <CNNscore>
0.1998628974

> <CNNaffinity>
6.5665578842

> <CNN_VS>
1.3124113083

> <CNNaffinity_variance>
0.1749571264

$$$$
[H]N=C(c1c([H])c([H])c([H])c(Oc2c([H])c([H])c(N([H])[H])c([H])c2C(=O)N([H])c2c([H])c([H])c(-c3c([H])c([H])c([H])c([H])c3S(=O)(=O)N([H])[H])c([H])c2[H])c1[H])N([H])[H]


 44 47  0  0  0  0  0  0  0  0999 V2000
   -4.5004   23.6252  -28.1145 C   0  0  0  0  0  0  0  0  0  0  0  0
   -4.6145   23.3464  -29.5002 C   0  0  0  0  0  0  0  0  0  0  0  0
   -5.2136   24.2479  -30.3383 C   0  0  0  0  0  0  0  0  0  0  0  0
   -5.6948   25.4142  -29.7981 C   0  0  0  0  0  0  0  0  0  0  0  0
   -6.3227   26.3254  -30.6824 N   0  0  0  0  0  0  0  0  0  0  0  0
   -5.5782   25.6853  -28.4584 C   0  0  0  0  0  0  0  0  0  0  0  0
   -4.9480   24.7598  -27.5610 C   0  0  0  0  0  0  0  0  0  0  0  0
   -6.1045   27.3262  -30.6671 H   0  0  0  0  0  0  0  0  0  0  0  0
   -7.0174   25.9317  -31.3374 H   0  0  0  0  0  0  0  0  0  0  0  0
   -4.5522   25.3523  -26.2544 C   0  0  0  0  0  0  0  0  0  0  0  0
   -4.2590   26.6102  -26.4137 O   0  0  0  0  0  0  0  0  0  0  0  0
   -4.4748   24.8045  -25.0594 N   0  0  0  0  0  0  0  0  0  0  0  0
   -4.4707   26.0813  -24.5063 H   0  0  0  0  0  0  0  0  0  0  0  0
   -4.3936   24.2307  -23.8076 C   0  0  0  0  0  0  0  0  0  0  0  0
   -4.3019   22.8237  -23.6929 C   0  0  0  0  0  0  0  0  0  0  0  0
   -4.3032   22.1927  -22.4698 C   0  0  0  0  0  0  0  0  0  0  0  0
   -4.3938   22.9056  -21.3016 C   0  0  0  0  0  0  0  0  0  0  0  0
   -4.4790   24.2713  -21.3823 C   0  0  0  0  0  0  0  0  0  0  0  0
   -4.4789   24.9169  -22.6069 C   0  0  0  0  0  0  0  0  0  0  0  0
   -4.4497   22.2745  -20.0025 C   0  0  0  0  0  0  0  0  0  0  0  0
   -5.6554   21.9960  -19.3869 C   0  0  0  0  0  0  0  0  0  0  0  0
   -5.7196   21.4308  -18.1389 C   0  0  0  0  0  0  0  0  0  0  0  0
   -4.5483   21.1316  -17.4779 C   0  0  0  0  0  0  0  0  0  0  0  0
   -3.3450   21.3988  -18.0714 C   0  0  0  0  0  0  0  0  0  0  0  0
   -3.2869   21.9708  -19.3379 C   0  0  0  0  0  0  0  0  0  0  0  0
   -1.7403   22.2464  -20.0263 S   0  0  0  0  0  0  0  0  0  0  0  0
   -1.4300   21.0018  -21.2220 N   0  0  0  0  0  0  0  0  0  0  0  0
   -0.6623   22.0052  -18.9829 O   0  0  0  0  0  0  0  0  0  0  0  0
   -1.5770   23.5843  -20.6874 O   0  0  0  0  0  0  0  0  0  0  0  0
   -1.2507   20.0828  -20.7654 H   0  0  0  0  0  0  0  0  0  0  0  0
   -2.2555   20.9080  -21.8366 H   0  0  0  0  0  0  0  0  0  0  0  0
   -3.8913   22.6063  -27.3442 O   0  0  0  0  0  0  0  0  0  0  0  0
   -0.4917   22.5129  -25.9901 C   0  0  0  0  0  0  0  0  0  0  0  0
    0.2771   22.8239  -27.0922 C   0  0  0  0  0  0  0  0  0  0  0  0
   -0.2800   23.0739  -28.3213 C   0  0  0  0  0  0  0  0  0  0  0  0
   -1.6802   22.9988  -28.4094 C   0  0  0  0  0  0  0  0  0  0  0  0
   -2.4792   22.7029  -27.3727 C   0  0  0  0  0  0  0  0  0  0  0  0
   -1.8551   22.4502  -26.1186 C   0  0  0  0  0  0  0  0  0  0  0  0
    1.2614   21.7315  -24.5136 N   0  0  0  0  0  0  0  0  0  0  0  0
    0.1232   22.2613  -24.6807 C   0  0  0  0  0  0  0  0  0  0  0  0
   -0.6130   22.6207  -23.5210 N   0  0  0  0  0  0  0  0  0  0  0  0
    1.9416   21.4042  -25.1971 H   0  0  0  0  0  0  0  0  0  0  0  0
   -0.9146   21.8184  -22.9101 H   0  0  0  0  0  0  0  0  0  0  0  0
   -0.8761   23.5648  -23.2246 H   0  0  0  0  0  0  0  0  0  0  0  0
 39 40  2  0  0  0
 40 41  1  0  0  0
 40 33  1  0  0  0
 33 34  2  0  0  0
 34 35  1  0  0  0
 35 36  2  0  0  0
 36 37  1  0  0  0
 37 32  1  0  0  0
 32  1  1  0  0  0
  1  2  2  0  0  0
  2  3  1  0  0  0
  3  4  2  0  0  0
  4  5  1  0  0  0
  4  6  1  0  0  0
  6  7  2  0  0  0
  7 10  1  0  0  0
 10 11  2  0  0  0
 10 12  1  0  0  0
 12 14  1  0  0  0
 14 15  2  0  0  0
 15 16  1  0  0  0
 16 17  2  0  0  0
 17 20  1  0  0  0
 20 21  2  0  0  0
 21 22  1  0  0  0
 22 23  2  0  0  0
 23 24  1  0  0  0
 24 25  2  0  0  0
 25 26  1  0  0  0
 26 27  1  0  0  0
 26 28  2  0  0  0
 26 29  2  0  0  0
 17 18  1  0  0  0
 18 19  2  0  0  0
 37 38  2  0  0  0
 38 33  1  0  0  0
  7  1  1  0  0  0
 19 14  1  0  0  0
 25 20  1  0  0  0
 39 42  1  0  0  0
 41 43  1  0  0  0
 41 44  1  0  0  0
  5  8  1  0  0  0
  5  9  1  0  0  0
 12 13  1  0  0  0
 27 30  1  0  0  0
 27 31  1  0  0  0
M  END
> <minimizedAffinity>
-9.83501

> <CNNscore>
0.1164977923

> <CNNaffinity>
6.4751524925

> <CNN_VS>
0.7543409467

> <CNNaffinity_variance>
0.3897701204

$$$$
[H]N=C(c1c([H])c([H])c([H])c(Oc2c([H])c([H])c(N([H])[H])c([H])c2C(=O)N([H])c2c([H])c([H])c(-c3c([H])c([H])c([H])c([H])c3S(=O)(=O)N([H])[H])c([H])c2[H])c1[H])N([H])[H]


 44 47  0  0  0  0  0  0  0  0999 V2000
   -4.5714   23.4733  -27.5205 C   0  0  0  0  0  0  0  0  0  0  0  0
   -4.5759   23.1247  -28.8950 C   0  0  0  0  0  0  0  0  0  0  0  0
   -5.1445   23.9616  -29.8172 C   0  0  0  0  0  0  0  0  0  0  0  0
   -5.7035   25.1330  -29.3713 C   0  0  0  0  0  0  0  0  0  0  0  0
   -6.2978   25.9762  -30.3420 N   0  0  0  0  0  0  0  0  0  0  0  0
   -5.6928   25.4719  -28.0420 C   0  0  0  0  0  0  0  0  0  0  0  0
   -5.0967   24.6150  -27.0574 C   0  0  0  0  0  0  0  0  0  0  0  0
   -6.1162   26.9843  -30.3618 H   0  0  0  0  0  0  0  0  0  0  0  0
   -6.9295   25.5255  -31.0233 H   0  0  0  0  0  0  0  0  0  0  0  0
   -4.8166   25.2838  -25.7578 C   0  0  0  0  0  0  0  0  0  0  0  0
   -4.1907   26.4055  -25.9673 O   0  0  0  0  0  0  0  0  0  0  0  0
   -5.1057   24.9110  -24.5283 N   0  0  0  0  0  0  0  0  0  0  0  0
   -4.8831   26.2193  -24.1102 H   0  0  0  0  0  0  0  0  0  0  0  0
   -5.4085   24.5204  -23.2404 C   0  0  0  0  0  0  0  0  0  0  0  0
   -6.6045   24.9775  -22.6389 C   0  0  0  0  0  0  0  0  0  0  0  0
   -6.9160   24.6888  -21.3297 C   0  0  0  0  0  0  0  0  0  0  0  0
   -6.0748   23.9401  -20.5468 C   0  0  0  0  0  0  0  0  0  0  0  0
   -4.9106   23.4797  -21.1050 C   0  0  0  0  0  0  0  0  0  0  0  0
   -4.5867   23.7640  -22.4206 C   0  0  0  0  0  0  0  0  0  0  0  0
   -6.3441   23.6605  -19.1547 C   0  0  0  0  0  0  0  0  0  0  0  0
   -5.7951   24.4283  -18.1451 C   0  0  0  0  0  0  0  0  0  0  0  0
   -6.0146   24.1497  -16.8202 C   0  0  0  0  0  0  0  0  0  0  0  0
   -6.8054   23.0726  -16.4842 C   0  0  0  0  0  0  0  0  0  0  0  0
   -7.3587   22.3014  -17.4694 C   0  0  0  0  0  0  0  0  0  0  0  0
   -7.1332   22.5902  -18.8112 C   0  0  0  0  0  0  0  0  0  0  0  0
   -7.8873   21.5945  -19.9865 S   0  0  0  0  0  0  0  0  0  0  0  0
   -8.4689   20.1401  -19.1982 N   0  0  0  0  0  0  0  0  0  0  0  0
   -6.8463   21.0709  -20.9619 O   0  0  0  0  0  0  0  0  0  0  0  0
   -9.0411   22.2337  -20.7036 O   0  0  0  0  0  0  0  0  0  0  0  0
   -7.6766   19.5180  -18.9326 H   0  0  0  0  0  0  0  0  0  0  0  0
   -8.9836   20.4012  -18.3409 H   0  0  0  0  0  0  0  0  0  0  0  0
   -3.9840   22.5164  -26.6592 O   0  0  0  0  0  0  0  0  0  0  0  0
   -0.5456   22.1596  -25.4551 C   0  0  0  0  0  0  0  0  0  0  0  0
    0.1967   22.4909  -26.5694 C   0  0  0  0  0  0  0  0  0  0  0  0
   -0.3922   22.8413  -27.7585 C   0  0  0  0  0  0  0  0  0  0  0  0
   -1.7967   22.8480  -27.7922 C   0  0  0  0  0  0  0  0  0  0  0  0
   -2.5708   22.5372  -26.7412 C   0  0  0  0  0  0  0  0  0  0  0  0
   -1.9143   22.1791  -25.5300 C   0  0  0  0  0  0  0  0  0  0  0  0
   -0.5090   21.6173  -23.0952 N   0  0  0  0  0  0  0  0  0  0  0  0
    0.1040   21.7999  -24.1884 C   0  0  0  0  0  0  0  0  0  0  0  0
    1.5173   21.6627  -24.1822 N   0  0  0  0  0  0  0  0  0  0  0  0
   -1.5037   21.6662  -22.8826 H   0  0  0  0  0  0  0  0  0  0  0  0
    2.0380   22.3712  -23.6036 H   0  0  0  0  0  0  0  0  0  0  0  0
    2.0712   20.9570  -24.6756 H   0  0  0  0  0  0  0  0  0  0  0  0
 39 40  2  0  0  0
 40 41  1  0  0  0
 40 33  1  0  0  0
 33 34  2  0  0  0
 34 35  1  0  0  0
 35 36  2  0  0  0
 36 37  1  0  0  0
 37 32  1  0  0  0
 32  1  1  0  0  0
  1  2  2  0  0  0
  2  3  1  0  0  0
  3  4  2  0  0  0
  4  5  1  0  0  0
  4  6  1  0  0  0
  6  7  2  0  0  0
  7 10  1  0  0  0
 10 11  2  0  0  0
 10 12  1  0  0  0
 12 14  1  0  0  0
 14 15  2  0  0  0
 15 16  1  0  0  0
 16 17  2  0  0  0
 17 20  1  0  0  0
 20 21  2  0  0  0
 21 22  1  0  0  0
 22 23  2  0  0  0
 23 24  1  0  0  0
 24 25  2  0  0  0
 25 26  1  0  0  0
 26 27  1  0  0  0
 26 28  2  0  0  0
 26 29  2  0  0  0
 17 18  1  0  0  0
 18 19  2  0  0  0
 37 38  2  0  0  0
 38 33  1  0  0  0
  7  1  1  0  0  0
 19 14  1  0  0  0
 25 20  1  0  0  0
 39 42  1  0  0  0
 41 43  1  0  0  0
 41 44  1  0  0  0
  5  8  1  0  0  0
  5  9  1  0  0  0
 12 13  1  0  0  0
 27 30  1  0  0  0
 27 31  1  0  0  0
M  END
> <minimizedAffinity>
-10.16721

> <CNNscore>
0.1153458804

> <CNNaffinity>
6.3693571091

> <CNN_VS>
0.7346791029

> <CNNaffinity_variance>
0.2538165450

$$$$
[H]N=C(c1c([H])c([H])c([H])c(Oc2c([H])c([H])c(N([H])[H])c([H])c2C(=O)N([H])c2c([H])c([H])c(-c3c([H])c([H])c([H])c([H])c3S(=O)(=O)N([H])[H])c([H])c2[H])c1[H])N([H])[H]


 44 47  0  0  0  0  0  0  0  0999 V2000
   -3.1670   22.6600  -25.8760 C   0  0  0  0  0  0  0  0  0  0  0  0
   -2.6516   22.7464  -27.1943 C   0  0  0  0  0  0  0  0  0  0  0  0
   -1.3083   22.6104  -27.4201 C   0  0  0  0  0  0  0  0  0  0  0  0
   -0.4887   22.3920  -26.3413 C   0  0  0  0  0  0  0  0  0  0  0  0
    0.8988   22.2681  -26.5982 N   0  0  0  0  0  0  0  0  0  0  0  0
   -0.9893   22.3024  -25.0673 C   0  0  0  0  0  0  0  0  0  0  0  0
   -2.3941   22.4343  -24.8056 C   0  0  0  0  0  0  0  0  0  0  0  0
    1.4575   21.5167  -26.1824 H   0  0  0  0  0  0  0  0  0  0  0  0
    1.3206   22.9778  -27.2186 H   0  0  0  0  0  0  0  0  0  0  0  0
   -2.8146   21.9298  -23.4702 C   0  0  0  0  0  0  0  0  0  0  0  0
   -1.8479   21.2406  -22.9369 O   0  0  0  0  0  0  0  0  0  0  0  0
   -3.9478   22.0879  -22.8181 N   0  0  0  0  0  0  0  0  0  0  0  0
   -3.2970   21.6990  -21.6513 H   0  0  0  0  0  0  0  0  0  0  0  0
   -5.1347   22.2536  -22.1352 C   0  0  0  0  0  0  0  0  0  0  0  0
   -6.3060   21.6211  -22.6140 C   0  0  0  0  0  0  0  0  0  0  0  0
   -7.5326   21.8190  -22.0221 C   0  0  0  0  0  0  0  0  0  0  0  0
   -7.6732   22.6431  -20.9348 C   0  0  0  0  0  0  0  0  0  0  0  0
   -6.5540   23.2655  -20.4461 C   0  0  0  0  0  0  0  0  0  0  0  0
   -5.3150   23.0742  -21.0335 C   0  0  0  0  0  0  0  0  0  0  0  0
   -8.9523   22.9146  -20.3194 C   0  0  0  0  0  0  0  0  0  0  0  0
   -9.8012   23.8851  -20.8174 C   0  0  0  0  0  0  0  0  0  0  0  0
  -11.0009   24.1761  -20.2198 C   0  0  0  0  0  0  0  0  0  0  0  0
  -11.3722   23.4814  -19.0893 C   0  0  0  0  0  0  0  0  0  0  0  0
  -10.5459   22.5162  -18.5820 C   0  0  0  0  0  0  0  0  0  0  0  0
   -9.3311   22.2251  -19.1937 C   0  0  0  0  0  0  0  0  0  0  0  0
   -8.3661   20.9803  -18.5147 S   0  0  0  0  0  0  0  0  0  0  0  0
   -9.3131   20.1344  -17.3054 N   0  0  0  0  0  0  0  0  0  0  0  0
   -7.2327   21.5905  -17.7072 O   0  0  0  0  0  0  0  0  0  0  0  0
   -7.8568   19.9714  -19.5029 O   0  0  0  0  0  0  0  0  0  0  0  0
   -9.4484   20.7249  -16.4579 H   0  0  0  0  0  0  0  0  0  0  0  0
  -10.2411   19.9067  -17.6990 H   0  0  0  0  0  0  0  0  0  0  0  0
   -4.5651   22.8475  -25.7632 O   0  0  0  0  0  0  0  0  0  0  0  0
   -6.4089   25.6591  -24.3160 C   0  0  0  0  0  0  0  0  0  0  0  0
   -5.7887   26.7495  -24.8894 C   0  0  0  0  0  0  0  0  0  0  0  0
   -4.7434   26.6135  -25.7682 C   0  0  0  0  0  0  0  0  0  0  0  0
   -4.3284   25.3036  -26.0614 C   0  0  0  0  0  0  0  0  0  0  0  0
   -4.8938   24.2057  -25.5366 C   0  0  0  0  0  0  0  0  0  0  0  0
   -5.9736   24.3975  -24.6293 C   0  0  0  0  0  0  0  0  0  0  0  0
   -7.4435   26.3500  -22.2383 N   0  0  0  0  0  0  0  0  0  0  0  0
   -7.5343   25.8258  -23.3877 C   0  0  0  0  0  0  0  0  0  0  0  0
   -8.8091   25.3533  -23.7976 N   0  0  0  0  0  0  0  0  0  0  0  0
   -6.6377   26.7455  -21.7574 H   0  0  0  0  0  0  0  0  0  0  0  0
   -9.1936   24.5478  -23.2398 H   0  0  0  0  0  0  0  0  0  0  0  0
   -9.3814   25.7103  -24.5678 H   0  0  0  0  0  0  0  0  0  0  0  0
 39 40  2  0  0  0
 40 41  1  0  0  0
 40 33  1  0  0  0
 33 34  2  0  0  0
 34 35  1  0  0  0
 35 36  2  0  0  0
 36 37  1  0  0  0
 37 32  1  0  0  0
 32  1  1  0  0  0
  1  2  2  0  0  0
  2  3  1  0  0  0
  3  4  2  0  0  0
  4  5  1  0  0  0
  4  6  1  0  0  0
  6  7  2  0  0  0
  7 10  1  0  0  0
 10 11  2  0  0  0
 10 12  1  0  0  0
 12 14  1  0  0  0
 14 15  2  0  0  0
 15 16  1  0  0  0
 16 17  2  0  0  0
 17 20  1  0  0  0
 20 21  2  0  0  0
 21 22  1  0  0  0
 22 23  2  0  0  0
 23 24  1  0  0  0
 24 25  2  0  0  0
 25 26  1  0  0  0
 26 27  1  0  0  0
 26 28  2  0  0  0
 26 29  2  0  0  0
 17 18  1  0  0  0
 18 19  2  0  0  0
 37 38  2  0  0  0
 38 33  1  0  0  0
  7  1  1  0  0  0
 19 14  1  0  0  0
 25 20  1  0  0  0
 39 42  1  0  0  0
 41 43  1  0  0  0
 41 44  1  0  0  0
  5  8  1  0  0  0
  5  9  1  0  0  0
 12 13  1  0  0  0
 27 30  1  0  0  0
 27 31  1  0  0  0
M  END
> <minimizedAffinity>
-9.63853

> <CNNscore>
0.1142404452

> <CNNaffinity>
6.1791505814

> <CNN_VS>
0.7059088945

> <CNNaffinity_variance>
0.2003287822

$$$$
[H]N=C(c1c([H])c([H])c([H])c(Oc2c([H])c([H])c(N([H])[H])c([H])c2C(=O)N([H])c2c([H])c([H])c(-c3c([H])c([H])c([H])c([H])c3S(=O)(=O)N([H])[H])c([H])c2[H])c1[H])N([H])[H]


 44 47  0  0  0  0  0  0  0  0999 V2000
   -4.5416   23.5757  -27.8725 C   0  0  0  0  0  0  0  0  0  0  0  0
   -4.4337   23.3795  -29.2728 C   0  0  0  0  0  0  0  0  0  0  0  0
   -4.9933   24.2785  -30.1405 C   0  0  0  0  0  0  0  0  0  0  0  0
   -5.6544   25.3604  -29.6155 C   0  0  0  0  0  0  0  0  0  0  0  0
   -6.2368   26.2695  -30.5325 N   0  0  0  0  0  0  0  0  0  0  0  0
   -5.7526   25.5522  -28.2607 C   0  0  0  0  0  0  0  0  0  0  0  0
   -5.1684   24.6282  -27.3311 C   0  0  0  0  0  0  0  0  0  0  0  0
   -6.1195   27.2824  -30.4332 H   0  0  0  0  0  0  0  0  0  0  0  0
   -6.7923   25.8606  -31.3011 H   0  0  0  0  0  0  0  0  0  0  0  0
   -5.0175   25.1660  -25.9517 C   0  0  0  0  0  0  0  0  0  0  0  0
   -4.2354   26.2061  -25.9691 O   0  0  0  0  0  0  0  0  0  0  0  0
   -5.5394   24.7538  -24.8150 N   0  0  0  0  0  0  0  0  0  0  0  0
   -5.2288   25.9903  -24.2576 H   0  0  0  0  0  0  0  0  0  0  0  0
   -6.0861   24.3220  -23.6245 C   0  0  0  0  0  0  0  0  0  0  0  0
   -5.5114   23.2152  -22.9570 C   0  0  0  0  0  0  0  0  0  0  0  0
   -6.0649   22.6896  -21.8117 C   0  0  0  0  0  0  0  0  0  0  0  0
   -7.2050   23.2203  -21.2643 C   0  0  0  0  0  0  0  0  0  0  0  0
   -7.7811   24.2967  -21.8874 C   0  0  0  0  0  0  0  0  0  0  0  0
   -7.2335   24.8336  -23.0399 C   0  0  0  0  0  0  0  0  0  0  0  0
   -7.8427   22.6634  -20.0929 C   0  0  0  0  0  0  0  0  0  0  0  0
   -8.8331   21.7050  -20.1974 C   0  0  0  0  0  0  0  0  0  0  0  0
   -9.4701   21.1964  -19.0943 C   0  0  0  0  0  0  0  0  0  0  0  0
   -9.1136   21.6538  -17.8445 C   0  0  0  0  0  0  0  0  0  0  0  0
   -8.1347   22.6015  -17.7207 C   0  0  0  0  0  0  0  0  0  0  0  0
   -7.4916   23.1120  -18.8433 C   0  0  0  0  0  0  0  0  0  0  0  0
   -6.2538   24.2747  -18.6025 S   0  0  0  0  0  0  0  0  0  0  0  0
   -6.1831   24.6719  -16.8961 N   0  0  0  0  0  0  0  0  0  0  0  0
   -6.6502   25.5902  -19.2516 O   0  0  0  0  0  0  0  0  0  0  0  0
   -4.8864   23.8353  -19.0397 O   0  0  0  0  0  0  0  0  0  0  0  0
   -7.0078   25.2414  -16.6115 H   0  0  0  0  0  0  0  0  0  0  0  0
   -6.1805   23.7983  -16.3439 H   0  0  0  0  0  0  0  0  0  0  0  0
   -3.9515   22.5654  -27.0765 O   0  0  0  0  0  0  0  0  0  0  0  0
   -0.5334   22.2293  -25.8104 C   0  0  0  0  0  0  0  0  0  0  0  0
    0.2256   22.6280  -26.8910 C   0  0  0  0  0  0  0  0  0  0  0  0
   -0.3447   23.0197  -28.0762 C   0  0  0  0  0  0  0  0  0  0  0  0
   -1.7479   22.9970  -28.1422 C   0  0  0  0  0  0  0  0  0  0  0  0
   -2.5377   22.6210  -27.1246 C   0  0  0  0  0  0  0  0  0  0  0  0
   -1.9001   22.2221  -25.9161 C   0  0  0  0  0  0  0  0  0  0  0  0
    1.3468   21.7767  -24.3529 N   0  0  0  0  0  0  0  0  0  0  0  0
    0.0961   21.8260  -24.5467 C   0  0  0  0  0  0  0  0  0  0  0  0
   -0.7525   21.4497  -23.4723 N   0  0  0  0  0  0  0  0  0  0  0  0
    2.1188   21.9992  -24.9785 H   0  0  0  0  0  0  0  0  0  0  0  0
   -0.6907   20.4407  -23.1792 H   0  0  0  0  0  0  0  0  0  0  0  0
   -1.4075   22.0500  -22.9634 H   0  0  0  0  0  0  0  0  0  0  0  0
 39 40  2  0  0  0
 40 41  1  0  0  0
 40 33  1  0  0  0
 33 34  2  0  0  0
 34 35  1  0  0  0
 35 36  2  0  0  0
 36 37  1  0  0  0
 37 32  1  0  0  0
 32  1  1  0  0  0
  1  2  2  0  0  0
  2  3  1  0  0  0
  3  4  2  0  0  0
  4  5  1  0  0  0
  4  6  1  0  0  0
  6  7  2  0  0  0
  7 10  1  0  0  0
 10 11  2  0  0  0
 10 12  1  0  0  0
 12 14  1  0  0  0
 14 15  2  0  0  0
 15 16  1  0  0  0
 16 17  2  0  0  0
 17 20  1  0  0  0
 20 21  2  0  0  0
 21 22  1  0  0  0
 22 23  2  0  0  0
 23 24  1  0  0  0
 24 25  2  0  0  0
 25 26  1  0  0  0
 26 27  1  0  0  0
 26 28  2  0  0  0
 26 29  2  0  0  0
 17 18  1  0  0  0
 18 19  2  0  0  0
 37 38  2  0  0  0
 38 33  1  0  0  0
  7  1  1  0  0  0
 19 14  1  0  0  0
 25 20  1  0  0  0
 39 42  1  0  0  0
 41 43  1  0  0  0
 41 44  1  0  0  0
  5  8  1  0  0  0
  5  9  1  0  0  0
 12 13  1  0  0  0
 27 30  1  0  0  0
 27 31  1  0  0  0
M  END
> <minimizedAffinity>
-10.45359

> <CNNscore>
0.1010194793

> <CNNaffinity>
6.3986430168

> <CNN_VS>
0.6463875771

> <CNNaffinity_variance>
0.1553217024

$$$$
[H]N=C(c1c([H])c([H])c([H])c(Oc2c([H])c([H])c(N([H])[H])c([H])c2C(=O)N([H])c2c([H])c([H])c(-c3c([H])c([H])c([H])c([H])c3S(=O)(=O)N([H])[H])c([H])c2[H])c1[H])N([H])[H]


 44 47  0  0  0  0  0  0  0  0999 V2000
   -6.3096   22.7002  -17.6321 C   0  0  0  0  0  0  0  0  0  0  0  0
   -6.7246   21.5049  -16.9919 C   0  0  0  0  0  0  0  0  0  0  0  0
   -7.9436   20.9540  -17.2824 C   0  0  0  0  0  0  0  0  0  0  0  0
   -8.7400   21.5906  -18.2012 C   0  0  0  0  0  0  0  0  0  0  0  0
  -10.0023   21.0093  -18.4753 N   0  0  0  0  0  0  0  0  0  0  0  0
   -8.3346   22.7435  -18.8243 C   0  0  0  0  0  0  0  0  0  0  0  0
   -7.0587   23.3363  -18.5422 C   0  0  0  0  0  0  0  0  0  0  0  0
  -10.3396   20.8846  -19.4346 H   0  0  0  0  0  0  0  0  0  0  0  0
  -10.5689   20.7254  -17.6600 H   0  0  0  0  0  0  0  0  0  0  0  0
   -6.6097   24.3270  -19.5580 C   0  0  0  0  0  0  0  0  0  0  0  0
   -6.9489   25.5258  -19.1818 O   0  0  0  0  0  0  0  0  0  0  0  0
   -5.9622   24.1511  -20.6911 N   0  0  0  0  0  0  0  0  0  0  0  0
   -5.6472   25.5064  -20.6879 H   0  0  0  0  0  0  0  0  0  0  0  0
   -5.2839   23.9669  -21.8781 C   0  0  0  0  0  0  0  0  0  0  0  0
   -5.2765   22.6881  -22.4828 C   0  0  0  0  0  0  0  0  0  0  0  0
   -4.5479   22.4265  -23.6208 C   0  0  0  0  0  0  0  0  0  0  0  0
   -3.7930   23.4012  -24.2219 C   0  0  0  0  0  0  0  0  0  0  0  0
   -3.7852   24.6516  -23.6603 C   0  0  0  0  0  0  0  0  0  0  0  0
   -4.5139   24.9262  -22.5156 C   0  0  0  0  0  0  0  0  0  0  0  0
   -2.9756   23.1501  -25.3871 C   0  0  0  0  0  0  0  0  0  0  0  0
   -3.4481   23.3863  -26.6644 C   0  0  0  0  0  0  0  0  0  0  0  0
   -2.6943   23.1174  -27.7782 C   0  0  0  0  0  0  0  0  0  0  0  0
   -1.4287   22.5960  -27.6209 C   0  0  0  0  0  0  0  0  0  0  0  0
   -0.9431   22.3564  -26.3645 C   0  0  0  0  0  0  0  0  0  0  0  0
   -1.7121   22.6327  -25.2390 C   0  0  0  0  0  0  0  0  0  0  0  0
   -1.0203   22.3336  -23.6983 S   0  0  0  0  0  0  0  0  0  0  0  0
    0.6417   21.8208  -23.9209 N   0  0  0  0  0  0  0  0  0  0  0  0
   -1.6791   21.1191  -23.0655 O   0  0  0  0  0  0  0  0  0  0  0  0
   -1.0280   23.5114  -22.7675 O   0  0  0  0  0  0  0  0  0  0  0  0
    0.6848   20.8577  -24.3157 H   0  0  0  0  0  0  0  0  0  0  0  0
    1.1112   22.4665  -24.5772 H   0  0  0  0  0  0  0  0  0  0  0  0
   -5.0453   23.1911  -17.2284 O   0  0  0  0  0  0  0  0  0  0  0  0
   -5.5860   24.6066  -13.8962 C   0  0  0  0  0  0  0  0  0  0  0  0
   -4.9159   23.7175  -13.0821 C   0  0  0  0  0  0  0  0  0  0  0  0
   -4.2632   22.6199  -13.5847 C   0  0  0  0  0  0  0  0  0  0  0  0
   -4.3074   22.4391  -14.9773 C   0  0  0  0  0  0  0  0  0  0  0  0
   -4.9411   23.2702  -15.8188 C   0  0  0  0  0  0  0  0  0  0  0  0
   -5.6046   24.3940  -15.2504 C   0  0  0  0  0  0  0  0  0  0  0  0
   -5.6790   26.7497  -12.7727 N   0  0  0  0  0  0  0  0  0  0  0  0
   -6.2674   25.7820  -13.3396 C   0  0  0  0  0  0  0  0  0  0  0  0
   -7.6838   25.8322  -13.4272 N   0  0  0  0  0  0  0  0  0  0  0  0
   -4.6874   26.9102  -12.6061 H   0  0  0  0  0  0  0  0  0  0  0  0
   -8.1954   25.7948  -12.5081 H   0  0  0  0  0  0  0  0  0  0  0  0
   -8.2477   25.8991  -14.2791 H   0  0  0  0  0  0  0  0  0  0  0  0
 39 40  2  0  0  0
 40 41  1  0  0  0
 40 33  1  0  0  0
 33 34  2  0  0  0
 34 35  1  0  0  0
 35 36  2  0  0  0
 36 37  1  0  0  0
 37 32  1  0  0  0
 32  1  1  0  0  0
  1  2  2  0  0  0
  2  3  1  0  0  0
  3  4  2  0  0  0
  4  5  1  0  0  0
  4  6  1  0  0  0
  6  7  2  0  0  0
  7 10  1  0  0  0
 10 11  2  0  0  0
 10 12  1  0  0  0
 12 14  1  0  0  0
 14 15  2  0  0  0
 15 16  1  0  0  0
 16 17  2  0  0  0
 17 20  1  0  0  0
 20 21  2  0  0  0
 21 22  1  0  0  0
 22 23  2  0  0  0
 23 24  1  0  0  0
 24 25  2  0  0  0
 25 26  1  0  0  0
 26 27  1  0  0  0
 26 28  2  0  0  0
 26 29  2  0  0  0
 17 18  1  0  0  0
 18 19  2  0  0  0
 37 38  2  0  0  0
 38 33  1  0  0  0
  7  1  1  0  0  0
 19 14  1  0  0  0
 25 20  1  0  0  0
 39 42  1  0  0  0
 41 43  1  0  0  0
 41 44  1  0  0  0
  5  8  1  0  0  0
  5  9  1  0  0  0
 12 13  1  0  0  0
 27 30  1  0  0  0
 27 31  1  0  0  0
M  END
> <minimizedAffinity>
-8.51872

> <CNNscore>
0.0969868451

> <CNNaffinity>
5.8873577118

> <CNN_VS>
0.5709962249

> <CNNaffinity_variance>
0.1120816916

$$$$
[H]N=C(c1c([H])c([H])c([H])c(Oc2c([H])c([H])c(N([H])[H])c([H])c2C(=O)N([H])c2c([H])c([H])c(-c3c([H])c([H])c([H])c([H])c3S(=O)(=O)N([H])[H])c([H])c2[H])c1[H])N([H])[H]


 44 47  0  0  0  0  0  0  0  0999 V2000
   -6.2141   22.3167  -17.7904 C   0  0  0  0  0  0  0  0  0  0  0  0
   -6.7629   21.1044  -17.3003 C   0  0  0  0  0  0  0  0  0  0  0  0
   -8.0352   20.7344  -17.6441 C   0  0  0  0  0  0  0  0  0  0  0  0
   -8.7520   21.5664  -18.4671 C   0  0  0  0  0  0  0  0  0  0  0  0
  -10.0708   21.1693  -18.7980 N   0  0  0  0  0  0  0  0  0  0  0  0
   -8.2176   22.7358  -18.9456 C   0  0  0  0  0  0  0  0  0  0  0  0
   -6.8840   23.1418  -18.6055 C   0  0  0  0  0  0  0  0  0  0  0  0
  -10.4170   21.2045  -19.7616 H   0  0  0  0  0  0  0  0  0  0  0  0
  -10.6684   20.8504  -18.0184 H   0  0  0  0  0  0  0  0  0  0  0  0
   -6.3232   24.1957  -19.4942 C   0  0  0  0  0  0  0  0  0  0  0  0
   -6.2718   25.3278  -18.8543 O   0  0  0  0  0  0  0  0  0  0  0  0
   -5.9046   24.1245  -20.7408 N   0  0  0  0  0  0  0  0  0  0  0  0
   -5.2370   25.3311  -20.5549 H   0  0  0  0  0  0  0  0  0  0  0  0
   -5.4661   24.0499  -22.0465 C   0  0  0  0  0  0  0  0  0  0  0  0
   -6.0052   23.0635  -22.9052 C   0  0  0  0  0  0  0  0  0  0  0  0
   -5.5453   22.8887  -24.1905 C   0  0  0  0  0  0  0  0  0  0  0  0
   -4.5379   23.6691  -24.6979 C   0  0  0  0  0  0  0  0  0  0  0  0
   -3.9998   24.6366  -23.8896 C   0  0  0  0  0  0  0  0  0  0  0  0
   -4.4543   24.8213  -22.5950 C   0  0  0  0  0  0  0  0  0  0  0  0
   -3.9950   23.4808  -26.0239 C   0  0  0  0  0  0  0  0  0  0  0  0
   -2.8594   22.7222  -26.2377 C   0  0  0  0  0  0  0  0  0  0  0  0
   -2.3149   22.5669  -27.4869 C   0  0  0  0  0  0  0  0  0  0  0  0
   -2.9163   23.1850  -28.5615 C   0  0  0  0  0  0  0  0  0  0  0  0
   -4.0417   23.9390  -28.3701 C   0  0  0  0  0  0  0  0  0  0  0  0
   -4.5897   24.0913  -27.1008 C   0  0  0  0  0  0  0  0  0  0  0  0
   -6.0191   25.0269  -26.9483 S   0  0  0  0  0  0  0  0  0  0  0  0
   -6.3585   25.7861  -28.4920 N   0  0  0  0  0  0  0  0  0  0  0  0
   -5.7652   26.2078  -26.0262 O   0  0  0  0  0  0  0  0  0  0  0  0
   -7.2344   24.2520  -26.5283 O   0  0  0  0  0  0  0  0  0  0  0  0
   -5.6773   26.5491  -28.6899 H   0  0  0  0  0  0  0  0  0  0  0  0
   -6.2865   25.0784  -29.2416 H   0  0  0  0  0  0  0  0  0  0  0  0
   -4.9039   22.6083  -17.3424 O   0  0  0  0  0  0  0  0  0  0  0  0
   -3.7363   22.4465  -13.8769 C   0  0  0  0  0  0  0  0  0  0  0  0
   -4.5832   23.3261  -13.2353 C   0  0  0  0  0  0  0  0  0  0  0  0
   -5.5668   24.0093  -13.9055 C   0  0  0  0  0  0  0  0  0  0  0  0
   -5.6750   23.7721  -15.2861 C   0  0  0  0  0  0  0  0  0  0  0  0
   -4.8820   22.9278  -15.9634 C   0  0  0  0  0  0  0  0  0  0  0  0
   -3.8757   22.2431  -15.2253 C   0  0  0  0  0  0  0  0  0  0  0  0
   -1.5448   22.1718  -12.8838 N   0  0  0  0  0  0  0  0  0  0  0  0
   -2.6985   21.7156  -13.1390 C   0  0  0  0  0  0  0  0  0  0  0  0
   -3.0005   20.4014  -12.6941 N   0  0  0  0  0  0  0  0  0  0  0  0
   -1.1297   23.0741  -13.1085 H   0  0  0  0  0  0  0  0  0  0  0  0
   -2.4381   19.6321  -13.1410 H   0  0  0  0  0  0  0  0  0  0  0  0
   -3.6985   20.1313  -11.9953 H   0  0  0  0  0  0  0  0  0  0  0  0
 39 40  2  0  0  0
 40 41  1  0  0  0
 40 33  1  0  0  0
 33 34  2  0  0  0
 34 35  1  0  0  0
 35 36  2  0  0  0
 36 37  1  0  0  0
 37 32  1  0  0  0
 32  1  1  0  0  0
  1  2  2  0  0  0
  2  3  1  0  0  0
  3  4  2  0  0  0
  4  5  1  0  0  0
  4  6  1  0  0  0
  6  7  2  0  0  0
  7 10  1  0  0  0
 10 11  2  0  0  0
 10 12  1  0  0  0
 12 14  1  0  0  0
 14 15  2  0  0  0
 15 16  1  0  0  0
 16 17  2  0  0  0
 17 20  1  0  0  0
 20 21  2  0  0  0
 21 22  1  0  0  0
 22 23  2  0  0  0
 23 24  1  0  0  0
 24 25  2  0  0  0
 25 26  1  0  0  0
 26 27  1  0  0  0
 26 28  2  0  0  0
 26 29  2  0  0  0
 17 18  1  0  0  0
 18 19  2  0  0  0
 37 38  2  0  0  0
 38 33  1  0  0  0
  7  1  1  0  0  0
 19 14  1  0  0  0
 25 20  1  0  0  0
 39 42  1  0  0  0
 41 43  1  0  0  0
 41 44  1  0  0  0
  5  8  1  0  0  0
  5  9  1  0  0  0
 12 13  1  0  0  0
 27 30  1  0  0  0
 27 31  1  0  0  0
M  END
> <minimizedAffinity>
-8.40052

> <CNNscore>
0.0936866775

> <CNNaffinity>
5.9499874115

> <CNN_VS>
0.5574345589

> <CNNaffinity_variance>
0.2830962837

$$$$
[H]N=C(c1c([H])c([H])c([H])c(Oc2c([H])c([H])c(N([H])[H])c([H])c2C(=O)N([H])c2c([H])c([H])c(-c3c([H])c([H])c([H])c([H])c3S(=O)(=O)N([H])[H])c([H])c2[H])c1[H])N([H])[H]


 44 47  0  0  0  0  0  0  0  0999 V2000
   -4.3770   24.8424  -26.9577 C   0  0  0  0  0  0  0  0  0  0  0  0
   -5.5528   25.5915  -27.2171 C   0  0  0  0  0  0  0  0  0  0  0  0
   -6.0686   25.6492  -28.4839 C   0  0  0  0  0  0  0  0  0  0  0  0
   -5.4165   24.9675  -29.4806 C   0  0  0  0  0  0  0  0  0  0  0  0
   -5.9611   25.0531  -30.7855 N   0  0  0  0  0  0  0  0  0  0  0  0
   -4.2827   24.2381  -29.2270 C   0  0  0  0  0  0  0  0  0  0  0  0
   -3.7269   24.1563  -27.9066 C   0  0  0  0  0  0  0  0  0  0  0  0
   -6.0846   24.2222  -31.3719 H   0  0  0  0  0  0  0  0  0  0  0  0
   -6.2197   25.9957  -31.1190 H   0  0  0  0  0  0  0  0  0  0  0  0
   -2.7603   23.0400  -27.7211 C   0  0  0  0  0  0  0  0  0  0  0  0
   -2.5585   22.4405  -28.8585 O   0  0  0  0  0  0  0  0  0  0  0  0
   -2.1354   22.6255  -26.6386 N   0  0  0  0  0  0  0  0  0  0  0  0
   -1.2411   21.9379  -27.4532 H   0  0  0  0  0  0  0  0  0  0  0  0
   -1.4808   22.1914  -25.5046 C   0  0  0  0  0  0  0  0  0  0  0  0
   -2.2161   21.5497  -24.4806 C   0  0  0  0  0  0  0  0  0  0  0  0
   -1.6314   21.1720  -23.2933 C   0  0  0  0  0  0  0  0  0  0  0  0
   -0.3013   21.4027  -23.0504 C   0  0  0  0  0  0  0  0  0  0  0  0
    0.4372   22.0187  -24.0272 C   0  0  0  0  0  0  0  0  0  0  0  0
   -0.1403   22.4033  -25.2252 C   0  0  0  0  0  0  0  0  0  0  0  0
    0.3345   21.0666  -21.7968 C   0  0  0  0  0  0  0  0  0  0  0  0
    1.3300   20.1104  -21.7262 C   0  0  0  0  0  0  0  0  0  0  0  0
    1.9147   19.7577  -20.5367 C   0  0  0  0  0  0  0  0  0  0  0  0
    1.4980   20.3739  -19.3768 C   0  0  0  0  0  0  0  0  0  0  0  0
    0.5147   21.3237  -19.4266 C   0  0  0  0  0  0  0  0  0  0  0  0
   -0.0731   21.6777  -20.6365 C   0  0  0  0  0  0  0  0  0  0  0  0
   -1.2772   22.8991  -20.6193 S   0  0  0  0  0  0  0  0  0  0  0  0
   -1.0632   23.8759  -19.1789 N   0  0  0  0  0  0  0  0  0  0  0  0
   -2.6453   22.2700  -20.4151 O   0  0  0  0  0  0  0  0  0  0  0  0
   -1.2631   23.8110  -21.8119 O   0  0  0  0  0  0  0  0  0  0  0  0
   -1.3450   23.3486  -18.3258 H   0  0  0  0  0  0  0  0  0  0  0  0
   -0.0671   24.1367  -19.0903 H   0  0  0  0  0  0  0  0  0  0  0  0
   -3.9215   24.8825  -25.6185 O   0  0  0  0  0  0  0  0  0  0  0  0
   -5.5736   23.9786  -22.4795 C   0  0  0  0  0  0  0  0  0  0  0  0
   -6.2865   22.8514  -22.8314 C   0  0  0  0  0  0  0  0  0  0  0  0
   -6.2603   22.3417  -24.1054 C   0  0  0  0  0  0  0  0  0  0  0  0
   -5.4686   23.0238  -25.0445 C   0  0  0  0  0  0  0  0  0  0  0  0
   -4.7528   24.1227  -24.7606 C   0  0  0  0  0  0  0  0  0  0  0  0
   -4.8128   24.6144  -23.4262 C   0  0  0  0  0  0  0  0  0  0  0  0
   -5.1489   23.8879  -20.0972 N   0  0  0  0  0  0  0  0  0  0  0  0
   -5.6052   24.5004  -21.1075 C   0  0  0  0  0  0  0  0  0  0  0  0
   -6.2018   25.7711  -20.8936 N   0  0  0  0  0  0  0  0  0  0  0  0
   -4.6901   22.9813  -20.0293 H   0  0  0  0  0  0  0  0  0  0  0  0
   -7.0824   25.7660  -20.3171 H   0  0  0  0  0  0  0  0  0  0  0  0
   -5.8683   26.6756  -21.2383 H   0  0  0  0  0  0  0  0  0  0  0  0
 39 40  2  0  0  0
 40 41  1  0  0  0
 40 33  1  0  0  0
 33 34  2  0  0  0
 34 35  1  0  0  0
 35 36  2  0  0  0
 36 37  1  0  0  0
 37 32  1  0  0  0
 32  1  1  0  0  0
  1  2  2  0  0  0
  2  3  1  0  0  0
  3  4  2  0  0  0
  4  5  1  0  0  0
  4  6  1  0  0  0
  6  7  2  0  0  0
  7 10  1  0  0  0
 10 11  2  0  0  0
 10 12  1  0  0  0
 12 14  1  0  0  0
 14 15  2  0  0  0
 15 16  1  0  0  0
 16 17  2  0  0  0
 17 20  1  0  0  0
 20 21  2  0  0  0
 21 22  1  0  0  0
 22 23  2  0  0  0
 23 24  1  0  0  0
 24 25  2  0  0  0
 25 26  1  0  0  0
 26 27  1  0  0  0
 26 28  2  0  0  0
 26 29  2  0  0  0
 17 18  1  0  0  0
 18 19  2  0  0  0
 37 38  2  0  0  0
 38 33  1  0  0  0
  7  1  1  0  0  0
 19 14  1  0  0  0
 25 20  1  0  0  0
 39 42  1  0  0  0
 41 43  1  0  0  0
 41 44  1  0  0  0
  5  8  1  0  0  0
  5  9  1  0  0  0
 12 13  1  0  0  0
 27 30  1  0  0  0
 27 31  1  0  0  0
M  END
> <minimizedAffinity>
-9.83378

> <CNNscore>
0.0860920101

> <CNNaffinity>
6.6143913269

> <CNN_VS>
0.5694462657

> <CNNaffinity_variance>
0.1366651356

$$$$
[H]N1C(=NC2([H])C([H])([H])C([H])([H])C([H])([H])C([H])([H])C([H])([H])C([H])([H])C2([H])[H])O[C@@]2([H])C([H])([H])C([H])([H])C([H])([H])C([H])([H])[C@@]2([H])S1(=O)=O


 22 24  0  0  0  0  0  0  0  0999 V2000
   -8.5826   21.1129  -21.1594 O   0  0  0  0  0  0  0  0  0  0  0  0
   -7.5852   22.2290  -21.1480 S   0  0  0  0  0  0  0  0  0  0  0  0
   -7.2440   22.6924  -22.5367 O   0  0  0  0  0  0  0  0  0  0  0  0
   -6.1214   21.7516  -20.3238 N   0  0  0  0  0  0  0  0  0  0  0  0
   -5.3979   22.7429  -19.6269 C   0  0  0  0  0  0  0  0  0  0  0  0
   -4.1431   22.5992  -19.4550 N   0  0  0  0  0  0  0  0  0  0  0  0
   -6.0202   23.8536  -19.1339 O   0  0  0  0  0  0  0  0  0  0  0  0
   -7.1713   24.4499  -19.6162 C   0  0  0  0  0  0  0  0  0  0  0  0
   -6.7336   25.5839  -20.5555 C   0  0  0  0  0  0  0  0  0  0  0  0
   -7.8683   26.5671  -20.6049 C   0  0  0  0  0  0  0  0  0  0  0  0
   -9.1868   25.8669  -20.6199 C   0  0  0  0  0  0  0  0  0  0  0  0
   -9.0239   24.4598  -21.1980 C   0  0  0  0  0  0  0  0  0  0  0  0
   -8.2029   23.6133  -20.2473 C   0  0  0  0  0  0  0  0  0  0  0  0
   -5.8728   20.7713  -20.3925 H   0  0  0  0  0  0  0  0  0  0  0  0
   -3.3889   21.4745  -19.9299 C   0  0  0  0  0  0  0  0  0  0  0  0
   -2.5366   21.8134  -21.1292 C   0  0  0  0  0  0  0  0  0  0  0  0
   -1.1329   22.1953  -20.8018 C   0  0  0  0  0  0  0  0  0  0  0  0
   -0.9822   23.4505  -20.0115 C   0  0  0  0  0  0  0  0  0  0  0  0
   -0.1714   23.2400  -18.7380 C   0  0  0  0  0  0  0  0  0  0  0  0
   -0.5653   22.0020  -18.0001 C   0  0  0  0  0  0  0  0  0  0  0  0
   -2.0518   21.9391  -17.8610 C   0  0  0  0  0  0  0  0  0  0  0  0
   -2.5761   20.8811  -18.8042 C   0  0  0  0  0  0  0  0  0  0  0  0
  1  2  2  0  0  0
  2  3  2  0  0  0
  2  4  1  0  0  0
  4  5  1  0  0  0
  5  6  2  0  0  0
  6 15  1  0  0  0
 15 16  1  0  0  0
 16 17  1  0  0  0
 17 18  1  0  0  0
 18 19  1  0  0  0
 19 20  1  0  0  0
 20 21  1  0  0  0
 21 22  1  0  0  0
  5  7  1  0  0  0
  7  8  1  0  0  0
  8  9  1  0  0  0
  9 10  1  0  0  0
 10 11  1  0  0  0
 11 12  1  0  0  0
 12 13  1  0  0  0
 13  2  1  0  0  0
 22 15  1  0  0  0
 13  8  1  0  0  0
  4 14  1  0  0  0
M  END
> <minimizedAffinity>
-5.46664

> <CNNscore>
0.4759401679

> <CNNaffinity>
5.1239933968

> <CNN_VS>
2.4387142658

> <CNNaffinity_variance>
0.2083669603

$$$$
[H]N1C(=NC2([H])C([H])([H])C([H])([H])C([H])([H])C([H])([H])C([H])([H])C([H])([H])C2([H])[H])O[C@@]2([H])C([H])([H])C([H])([H])C([H])([H])C([H])([H])[C@@]2([H])S1(=O)=O


 22 24  0  0  0  0  0  0  0  0999 V2000
   -4.0787   24.0023  -21.3811 O   0  0  0  0  0  0  0  0  0  0  0  0
   -5.4298   23.7067  -20.8086 S   0  0  0  0  0  0  0  0  0  0  0  0
   -5.7707   24.6255  -19.6685 O   0  0  0  0  0  0  0  0  0  0  0  0
   -5.5299   22.0505  -20.2638 N   0  0  0  0  0  0  0  0  0  0  0  0
   -6.7797   21.3997  -20.3423 C   0  0  0  0  0  0  0  0  0  0  0  0
   -7.0401   20.4429  -19.5414 N   0  0  0  0  0  0  0  0  0  0  0  0
   -7.7147   21.7784  -21.2624 O   0  0  0  0  0  0  0  0  0  0  0  0
   -7.8682   23.0297  -21.8314 C   0  0  0  0  0  0  0  0  0  0  0  0
   -8.9350   23.7712  -21.0117 C   0  0  0  0  0  0  0  0  0  0  0  0
   -9.5205   24.8212  -21.9126 C   0  0  0  0  0  0  0  0  0  0  0  0
   -8.4666   25.4484  -22.7640 C   0  0  0  0  0  0  0  0  0  0  0  0
   -7.1035   25.3293  -22.0794 C   0  0  0  0  0  0  0  0  0  0  0  0
   -6.6826   23.8748  -22.0379 C   0  0  0  0  0  0  0  0  0  0  0  0
   -4.6679   21.6439  -19.9186 H   0  0  0  0  0  0  0  0  0  0  0  0
   -6.1336   19.9640  -18.5374 C   0  0  0  0  0  0  0  0  0  0  0  0
   -6.2568   20.7213  -17.2370 C   0  0  0  0  0  0  0  0  0  0  0  0
   -7.1705   20.0930  -16.2401 C   0  0  0  0  0  0  0  0  0  0  0  0
   -8.6048   20.0294  -16.6420 C   0  0  0  0  0  0  0  0  0  0  0  0
   -9.1653   18.6138  -16.5687 C   0  0  0  0  0  0  0  0  0  0  0  0
   -8.2393   17.5948  -17.1489 C   0  0  0  0  0  0  0  0  0  0  0  0
   -7.7502   18.0487  -18.4859 C   0  0  0  0  0  0  0  0  0  0  0  0
   -6.3073   18.4761  -18.3475 C   0  0  0  0  0  0  0  0  0  0  0  0
  1  2  2  0  0  0
  2  3  2  0  0  0
  2  4  1  0  0  0
  4  5  1  0  0  0
  5  6  2  0  0  0
  6 15  1  0  0  0
 15 16  1  0  0  0
 16 17  1  0  0  0
 17 18  1  0  0  0
 18 19  1  0  0  0
 19 20  1  0  0  0
 20 21  1  0  0  0
 21 22  1  0  0  0
  5  7  1  0  0  0
  7  8  1  0  0  0
  8  9  1  0  0  0
  9 10  1  0  0  0
 10 11  1  0  0  0
 11 12  1  0  0  0
 12 13  1  0  0  0
 13  2  1  0  0  0
 22 15  1  0  0  0
 13  8  1  0  0  0
  4 14  1  0  0  0
M  END
> <minimizedAffinity>
-5.06724

> <CNNscore>
0.3577006459

> <CNNaffinity>
4.7740139961

> <CNN_VS>
1.7076679468

> <CNNaffinity_variance>
0.0322111920

$$$$
[H]N1C(=NC2([H])C([H])([H])C([H])([H])C([H])([H])C([H])([H])C([H])([H])C([H])([H])C2([H])[H])O[C@@]2([H])C([H])([H])C([H])([H])C([H])([H])C([H])([H])[C@@]2([H])S1(=O)=O


 22 24  0  0  0  0  0  0  0  0999 V2000
   -8.9093   23.1196  -21.1375 O   0  0  0  0  0  0  0  0  0  0  0  0
   -7.4601   22.8513  -21.3990 S   0  0  0  0  0  0  0  0  0  0  0  0
   -7.2605   21.6449  -22.2736 O   0  0  0  0  0  0  0  0  0  0  0  0
   -6.5849   22.6304  -19.9040 N   0  0  0  0  0  0  0  0  0  0  0  0
   -5.2343   23.0376  -19.8583 C   0  0  0  0  0  0  0  0  0  0  0  0
   -4.4367   22.4740  -19.0394 N   0  0  0  0  0  0  0  0  0  0  0  0
   -4.7683   24.0254  -20.6775 O   0  0  0  0  0  0  0  0  0  0  0  0
   -5.2625   24.3846  -21.9184 C   0  0  0  0  0  0  0  0  0  0  0  0
   -4.4220   23.6458  -22.9708 C   0  0  0  0  0  0  0  0  0  0  0  0
   -4.5293   24.4369  -24.2434 C   0  0  0  0  0  0  0  0  0  0  0  0
   -5.9115   24.9692  -24.4313 C   0  0  0  0  0  0  0  0  0  0  0  0
   -6.9154   24.0897  -23.6834 C   0  0  0  0  0  0  0  0  0  0  0  0
   -6.6993   24.2309  -22.1908 C   0  0  0  0  0  0  0  0  0  0  0  0
   -7.1080   22.2173  -19.1402 H   0  0  0  0  0  0  0  0  0  0  0  0
   -4.8182   21.4272  -18.1349 C   0  0  0  0  0  0  0  0  0  0  0  0
   -4.3707   20.0640  -18.6050 C   0  0  0  0  0  0  0  0  0  0  0  0
   -3.0623   19.6167  -18.0471 C   0  0  0  0  0  0  0  0  0  0  0  0
   -1.8833   20.4332  -18.4549 C   0  0  0  0  0  0  0  0  0  0  0  0
   -1.0913   20.9462  -17.2579 C   0  0  0  0  0  0  0  0  0  0  0  0
   -1.9666   21.4889  -16.1754 C   0  0  0  0  0  0  0  0  0  0  0  0
   -2.9783   22.4238  -16.7544 C   0  0  0  0  0  0  0  0  0  0  0  0
   -4.3252   21.7385  -16.7421 C   0  0  0  0  0  0  0  0  0  0  0  0
  1  2  2  0  0  0
  2  3  2  0  0  0
  2  4  1  0  0  0
  4  5  1  0  0  0
  5  6  2  0  0  0
  6 15  1  0  0  0
 15 16  1  0  0  0
 16 17  1  0  0  0
 17 18  1  0  0  0
 18 19  1  0  0  0
 19 20  1  0  0  0
 20 21  1  0  0  0
 21 22  1  0  0  0
  5  7  1  0  0  0
  7  8  1  0  0  0
  8  9  1  0  0  0
  9 10  1  0  0  0
 10 11  1  0  0  0
 11 12  1  0  0  0
 12 13  1  0  0  0
 13  2  1  0  0  0
 22 15  1  0  0  0
 13  8  1  0  0  0
  4 14  1  0  0  0
M  END
> <minimizedAffinity>
-4.84158

> <CNNscore>
0.3039040864

> <CNNaffinity>
5.0206069946

> <CNN_VS>
1.5257829428

> <CNNaffinity_variance>
0.0954823121

$$$$
[H]N1C(=NC2([H])C([H])([H])C([H])([H])C([H])([H])C([H])([H])C([H])([H])C([H])([H])C2([H])[H])O[C@@]2([H])C([H])([H])C([H])([H])C([H])([H])C([H])([H])[C@@]2([H])S1(=O)=O


 22 24  0  0  0  0  0  0  0  0999 V2000
   -3.0029   25.6595  -22.8653 O   0  0  0  0  0  0  0  0  0  0  0  0
   -3.3529   24.2470  -22.5146 S   0  0  0  0  0  0  0  0  0  0  0  0
   -4.3751   24.1775  -21.4146 O   0  0  0  0  0  0  0  0  0  0  0  0
   -1.9320   23.3500  -22.0385 N   0  0  0  0  0  0  0  0  0  0  0  0
   -1.8912   21.9688  -22.3255 C   0  0  0  0  0  0  0  0  0  0  0  0
   -1.1795   21.1985  -21.6011 N   0  0  0  0  0  0  0  0  0  0  0  0
   -2.6019   21.4443  -23.3666 O   0  0  0  0  0  0  0  0  0  0  0  0
   -3.7691   21.9424  -23.9168 C   0  0  0  0  0  0  0  0  0  0  0  0
   -4.9364   21.1999  -23.2491 C   0  0  0  0  0  0  0  0  0  0  0  0
   -6.0978   21.2766  -24.1989 C   0  0  0  0  0  0  0  0  0  0  0  0
   -6.1641   22.6130  -24.8611 C   0  0  0  0  0  0  0  0  0  0  0  0
   -5.4893   23.6661  -23.9799 C   0  0  0  0  0  0  0  0  0  0  0  0
   -4.0005   23.3946  -23.9157 C   0  0  0  0  0  0  0  0  0  0  0  0
   -1.2040   23.8838  -21.5773 H   0  0  0  0  0  0  0  0  0  0  0  0
   -0.3948   21.6413  -20.4843 C   0  0  0  0  0  0  0  0  0  0  0  0
   -0.8046   20.9804  -19.1901 C   0  0  0  0  0  0  0  0  0  0  0  0
   -0.0144   19.7654  -18.8395 C   0  0  0  0  0  0  0  0  0  0  0  0
   -0.1630   18.6163  -19.7777 C   0  0  0  0  0  0  0  0  0  0  0  0
    1.1786   18.1224  -20.3065 C   0  0  0  0  0  0  0  0  0  0  0  0
    2.0838   19.2377  -20.7178 C   0  0  0  0  0  0  0  0  0  0  0  0
    1.3437   20.2067  -21.5816 C   0  0  0  0  0  0  0  0  0  0  0  0
    1.0752   21.4571  -20.7763 C   0  0  0  0  0  0  0  0  0  0  0  0
  1  2  2  0  0  0
  2  3  2  0  0  0
  2  4  1  0  0  0
  4  5  1  0  0  0
  5  6  2  0  0  0
  6 15  1  0  0  0
 15 16  1  0  0  0
 16 17  1  0  0  0
 17 18  1  0  0  0
 18 19  1  0  0  0
 19 20  1  0  0  0
 20 21  1  0  0  0
 21 22  1  0  0  0
  5  7  1  0  0  0
  7  8  1  0  0  0
  8  9  1  0  0  0
  9 10  1  0  0  0
 10 11  1  0  0  0
 11 12  1  0  0  0
 12 13  1  0  0  0
 13  2  1  0  0  0
 22 15  1  0  0  0
 13  8  1  0  0  0
  4 14  1  0  0  0
M  END
> <minimizedAffinity>
-4.99332

> <CNNscore>
0.2727119327

> <CNNaffinity>
5.1615905762

> <CNN_VS>
1.4076273441

> <CNNaffinity_variance>
0.4395306110

$$$$
[H]N1C(=NC2([H])C([H])([H])C([H])([H])C([H])([H])C([H])([H])C([H])([H])C([H])([H])C2([H])[H])O[C@@]2([H])C([H])([H])C([H])([H])C([H])([H])C([H])([H])[C@@]2([H])S1(=O)=O


 22 24  0  0  0  0  0  0  0  0999 V2000
    0.5759   23.2837  -26.9925 O   0  0  0  0  0  0  0  0  0  0  0  0
   -0.3807   22.5970  -26.0683 S   0  0  0  0  0  0  0  0  0  0  0  0
   -0.5891   21.1563  -26.4437 O   0  0  0  0  0  0  0  0  0  0  0  0
   -1.9234   23.4152  -26.0438 N   0  0  0  0  0  0  0  0  0  0  0  0
   -2.6687   23.3923  -24.8455 C   0  0  0  0  0  0  0  0  0  0  0  0
   -3.9375   23.5031  -24.8938 N   0  0  0  0  0  0  0  0  0  0  0  0
   -2.0524   23.2532  -23.6352 O   0  0  0  0  0  0  0  0  0  0  0  0
   -0.8456   22.6277  -23.3789 C   0  0  0  0  0  0  0  0  0  0  0  0
   -1.1649   21.1880  -22.9488 C   0  0  0  0  0  0  0  0  0  0  0  0
    0.0026   20.7113  -22.1325 C   0  0  0  0  0  0  0  0  0  0  0  0
    1.2934   21.1967  -22.7045 C   0  0  0  0  0  0  0  0  0  0  0  0
    1.1317   21.4669  -24.2017 C   0  0  0  0  0  0  0  0  0  0  0  0
    0.2061   22.6484  -24.4064 C   0  0  0  0  0  0  0  0  0  0  0  0
   -2.1985   23.8700  -26.9070 H   0  0  0  0  0  0  0  0  0  0  0  0
   -4.6871   23.6533  -26.1082 C   0  0  0  0  0  0  0  0  0  0  0  0
   -6.1314   23.2421  -25.9521 C   0  0  0  0  0  0  0  0  0  0  0  0
   -7.0614   24.3621  -25.6295 C   0  0  0  0  0  0  0  0  0  0  0  0
   -6.8334   25.0197  -24.3110 C   0  0  0  0  0  0  0  0  0  0  0  0
   -6.6481   26.5273  -24.4394 C   0  0  0  0  0  0  0  0  0  0  0  0
   -5.7415   26.9043  -25.5657 C   0  0  0  0  0  0  0  0  0  0  0  0
   -4.4948   26.0820  -25.5176 C   0  0  0  0  0  0  0  0  0  0  0  0
   -4.5507   25.0629  -26.6321 C   0  0  0  0  0  0  0  0  0  0  0  0
  1  2  2  0  0  0
  2  3  2  0  0  0
  2  4  1  0  0  0
  4  5  1  0  0  0
  5  6  2  0  0  0
  6 15  1  0  0  0
 15 16  1  0  0  0
 16 17  1  0  0  0
 17 18  1  0  0  0
 18 19  1  0  0  0
 19 20  1  0  0  0
 20 21  1  0  0  0
 21 22  1  0  0  0
  5  7  1  0  0  0
  7  8  1  0  0  0
  8  9  1  0  0  0
  9 10  1  0  0  0
 10 11  1  0  0  0
 11 12  1  0  0  0
 12 13  1  0  0  0
 13  2  1  0  0  0
 22 15  1  0  0  0
 13  8  1  0  0  0
  4 14  1  0  0  0
M  END
> <minimizedAffinity>
-6.67265

> <CNNscore>
0.2634734511

> <CNNaffinity>
5.7675123215

> <CNN_VS>
1.5195863247

> <CNNaffinity_variance>
0.7960261106

$$$$
[H]N1C(=NC2([H])C([H])([H])C([H])([H])C([H])([H])C([H])([H])C([H])([H])C([H])([H])C2([H])[H])O[C@@]2([H])C([H])([H])C([H])([H])C([H])([H])C([H])([H])[C@@]2([H])S1(=O)=O


 22 24  0  0  0  0  0  0  0  0999 V2000
   -5.6083   25.4388  -20.7194 O   0  0  0  0  0  0  0  0  0  0  0  0
   -5.7522   24.0376  -21.2260 S   0  0  0  0  0  0  0  0  0  0  0  0
   -7.0034   23.8597  -22.0401 O   0  0  0  0  0  0  0  0  0  0  0  0
   -5.7550   22.8926  -19.9073 N   0  0  0  0  0  0  0  0  0  0  0  0
   -5.2127   21.6105  -20.1395 C   0  0  0  0  0  0  0  0  0  0  0  0
   -5.6213   20.6218  -19.4465 N   0  0  0  0  0  0  0  0  0  0  0  0
   -4.2575   21.4120  -21.0946 O   0  0  0  0  0  0  0  0  0  0  0  0
   -4.0577   22.1553  -22.2438 C   0  0  0  0  0  0  0  0  0  0  0  0
   -4.7968   21.4356  -23.3820 C   0  0  0  0  0  0  0  0  0  0  0  0
   -4.1329   21.8553  -24.6625 C   0  0  0  0  0  0  0  0  0  0  0  0
   -3.7593   23.3004  -24.6265 C   0  0  0  0  0  0  0  0  0  0  0  0
   -4.6669   24.0497  -23.6489 C   0  0  0  0  0  0  0  0  0  0  0  0
   -4.3769   23.5907  -22.2348 C   0  0  0  0  0  0  0  0  0  0  0  0
   -6.1510   23.2221  -19.0342 H   0  0  0  0  0  0  0  0  0  0  0  0
   -6.6191   20.7159  -18.4194 C   0  0  0  0  0  0  0  0  0  0  0  0
   -7.8291   19.8600  -18.7074 C   0  0  0  0  0  0  0  0  0  0  0  0
   -7.7904   18.5057  -18.0846 C   0  0  0  0  0  0  0  0  0  0  0  0
   -6.7104   17.6063  -18.5823 C   0  0  0  0  0  0  0  0  0  0  0  0
   -5.8436   17.0614  -17.4531 C   0  0  0  0  0  0  0  0  0  0  0  0
   -5.4661   18.1092  -16.4570 C   0  0  0  0  0  0  0  0  0  0  0  0
   -4.9564   19.3252  -17.1602 C   0  0  0  0  0  0  0  0  0  0  0  0
   -6.0101   20.4050  -17.0732 C   0  0  0  0  0  0  0  0  0  0  0  0
  1  2  2  0  0  0
  2  3  2  0  0  0
  2  4  1  0  0  0
  4  5  1  0  0  0
  5  6  2  0  0  0
  6 15  1  0  0  0
 15 16  1  0  0  0
 16 17  1  0  0  0
 17 18  1  0  0  0
 18 19  1  0  0  0
 19 20  1  0  0  0
 20 21  1  0  0  0
 21 22  1  0  0  0
  5  7  1  0  0  0
  7  8  1  0  0  0
  8  9  1  0  0  0
  9 10  1  0  0  0
 10 11  1  0  0  0
 11 12  1  0  0  0
 12 13  1  0  0  0
 13  2  1  0  0  0
 22 15  1  0  0  0
 13  8  1  0  0  0
  4 14  1  0  0  0
M  END
> <minimizedAffinity>
-4.81216

> <CNNscore>
0.2452305704

> <CNNaffinity>
4.9745588303

> <CNN_VS>
1.2199138403

> <CNNaffinity_variance>
0.1798997819

$$$$
[H]N1C(=NC2([H])C([H])([H])C([H])([H])C([H])([H])C([H])([H])C([H])([H])C([H])([H])C2([H])[H])O[C@@]2([H])C([H])([H])C([H])([H])C([H])([H])C([H])([H])[C@@]2([H])S1(=O)=O


 22 24  0  0  0  0  0  0  0  0999 V2000
   -9.8289   22.2498  -19.9515 O   0  0  0  0  0  0  0  0  0  0  0  0
   -8.3759   22.5337  -19.7308 S   0  0  0  0  0  0  0  0  0  0  0  0
   -8.1470   23.9278  -19.2169 O   0  0  0  0  0  0  0  0  0  0  0  0
   -7.4630   22.3047  -21.2020 N   0  0  0  0  0  0  0  0  0  0  0  0
   -6.1287   21.8580  -21.0932 C   0  0  0  0  0  0  0  0  0  0  0  0
   -5.2935   22.1476  -22.0115 N   0  0  0  0  0  0  0  0  0  0  0  0
   -5.7178   21.1208  -20.0200 O   0  0  0  0  0  0  0  0  0  0  0  0
   -6.2504   21.1345  -18.7435 C   0  0  0  0  0  0  0  0  0  0  0  0
   -5.4030   22.1082  -17.9107 C   0  0  0  0  0  0  0  0  0  0  0  0
   -5.5664   21.7035  -16.4732 C   0  0  0  0  0  0  0  0  0  0  0  0
   -6.9717   21.2882  -16.1874 C   0  0  0  0  0  0  0  0  0  0  0  0
   -7.9255   21.9582  -17.1784 C   0  0  0  0  0  0  0  0  0  0  0  0
   -7.6853   21.4032  -18.5672 C   0  0  0  0  0  0  0  0  0  0  0  0
   -7.9543   22.5071  -22.0653 H   0  0  0  0  0  0  0  0  0  0  0  0
   -5.6159   22.9152  -23.1803 C   0  0  0  0  0  0  0  0  0  0  0  0
   -4.8333   24.2038  -23.2610 C   0  0  0  0  0  0  0  0  0  0  0  0
   -3.5823   24.1176  -24.0678 C   0  0  0  0  0  0  0  0  0  0  0  0
   -2.5335   23.2092  -23.5219 C   0  0  0  0  0  0  0  0  0  0  0  0
   -2.0825   22.1673  -24.5389 C   0  0  0  0  0  0  0  0  0  0  0  0
   -3.2248   21.5423  -25.2716 C   0  0  0  0  0  0  0  0  0  0  0  0
   -4.2817   21.1155  -24.3053 C   0  0  0  0  0  0  0  0  0  0  0  0
   -5.4481   22.0695  -24.4199 C   0  0  0  0  0  0  0  0  0  0  0  0
  1  2  2  0  0  0
  2  3  2  0  0  0
  2  4  1  0  0  0
  4  5  1  0  0  0
  5  6  2  0  0  0
  6 15  1  0  0  0
 15 16  1  0  0  0
 16 17  1  0  0  0
 17 18  1  0  0  0
 18 19  1  0  0  0
 19 20  1  0  0  0
 20 21  1  0  0  0
 21 22  1  0  0  0
  5  7  1  0  0  0
  7  8  1  0  0  0
  8  9  1  0  0  0
  9 10  1  0  0  0
 10 11  1  0  0  0
 11 12  1  0  0  0
 12 13  1  0  0  0
 13  2  1  0  0  0
 22 15  1  0  0  0
 13  8  1  0  0  0
  4 14  1  0  0  0
M  END
> <minimizedAffinity>
-5.66718

> <CNNscore>
0.2310323417

> <CNNaffinity>
5.1880068779

> <CNN_VS>
1.1985974312

> <CNNaffinity_variance>
0.1201512814

$$$$
[H]N1C(=NC2([H])C([H])([H])C([H])([H])C([H])([H])C([H])([H])C([H])([H])C([H])([H])C2([H])[H])O[C@@]2([H])C([H])([H])C([H])([H])C([H])([H])C([H])([H])[C@@]2([H])S1(=O)=O


 22 24  0  0  0  0  0  0  0  0999 V2000
   -4.1401   21.0560  -23.3246 O   0  0  0  0  0  0  0  0  0  0  0  0
   -4.7353   22.1709  -22.5225 S   0  0  0  0  0  0  0  0  0  0  0  0
   -3.8471   23.3836  -22.4995 O   0  0  0  0  0  0  0  0  0  0  0  0
   -5.0564   21.6605  -20.8835 N   0  0  0  0  0  0  0  0  0  0  0  0
   -6.1553   22.2370  -20.2112 C   0  0  0  0  0  0  0  0  0  0  0  0
   -6.1455   22.3071  -18.9386 N   0  0  0  0  0  0  0  0  0  0  0  0
   -7.2287   22.7212  -20.9021 O   0  0  0  0  0  0  0  0  0  0  0  0
   -7.2385   23.2092  -22.1963 C   0  0  0  0  0  0  0  0  0  0  0  0
   -7.0969   24.7361  -22.1048 C   0  0  0  0  0  0  0  0  0  0  0  0
   -7.6815   25.3014  -23.3679 C   0  0  0  0  0  0  0  0  0  0  0  0
   -7.3392   24.4515  -24.5467 C   0  0  0  0  0  0  0  0  0  0  0  0
   -6.0511   23.6730  -24.2722 C   0  0  0  0  0  0  0  0  0  0  0  0
   -6.2987   22.6523  -23.1807 C   0  0  0  0  0  0  0  0  0  0  0  0
   -4.4247   20.9647  -20.5035 H   0  0  0  0  0  0  0  0  0  0  0  0
   -5.0717   21.8311  -18.1142 C   0  0  0  0  0  0  0  0  0  0  0  0
   -4.0805   22.9169  -17.7702 C   0  0  0  0  0  0  0  0  0  0  0  0
   -4.3368   23.5980  -16.4688 C   0  0  0  0  0  0  0  0  0  0  0  0
   -5.6085   24.3727  -16.3949 C   0  0  0  0  0  0  0  0  0  0  0  0
   -6.4750   23.9534  -15.2130 C   0  0  0  0  0  0  0  0  0  0  0  0
   -6.5595   22.4700  -15.0558 C   0  0  0  0  0  0  0  0  0  0  0  0
   -6.8726   21.8321  -16.3703 C   0  0  0  0  0  0  0  0  0  0  0  0
   -5.6231   21.1537  -16.8825 C   0  0  0  0  0  0  0  0  0  0  0  0
  1  2  2  0  0  0
  2  3  2  0  0  0
  2  4  1  0  0  0
  4  5  1  0  0  0
  5  6  2  0  0  0
  6 15  1  0  0  0
 15 16  1  0  0  0
 16 17  1  0  0  0
 17 18  1  0  0  0
 18 19  1  0  0  0
 19 20  1  0  0  0
 20 21  1  0  0  0
 21 22  1  0  0  0
  5  7  1  0  0  0
  7  8  1  0  0  0
  8  9  1  0  0  0
  9 10  1  0  0  0
 10 11  1  0  0  0
 11 12  1  0  0  0
 12 13  1  0  0  0
 13  2  1  0  0  0
 22 15  1  0  0  0
 13  8  1  0  0  0
  4 14  1  0  0  0
M  END
> <minimizedAffinity>
-5.02744

> <CNNscore>
0.2279512137

> <CNNaffinity>
4.9361715317

> <CNN_VS>
1.1252063513

> <CNNaffinity_variance>
0.1289782226

$$$$
[H]N1C(=NC2([H])C([H])([H])C([H])([H])C([H])([H])C([H])([H])C([H])([H])C([H])([H])C2([H])[H])O[C@@]2([H])C([H])([H])C([H])([H])C([H])([H])C([H])([H])[C@@]2([H])S1(=O)=O


 22 24  0  0  0  0  0  0  0  0999 V2000
   -8.7427   20.8801  -20.5971 O   0  0  0  0  0  0  0  0  0  0  0  0
   -8.1840   22.2685  -20.6270 S   0  0  0  0  0  0  0  0  0  0  0  0
   -9.2299   23.3024  -20.3155 O   0  0  0  0  0  0  0  0  0  0  0  0
   -7.4690   22.6220  -22.1806 N   0  0  0  0  0  0  0  0  0  0  0  0
   -6.3638   23.4989  -22.2193 C   0  0  0  0  0  0  0  0  0  0  0  0
   -6.1327   24.1704  -23.2778 N   0  0  0  0  0  0  0  0  0  0  0  0
   -5.5381   23.6397  -21.1412 O   0  0  0  0  0  0  0  0  0  0  0  0
   -5.8614   23.4468  -19.8102 C   0  0  0  0  0  0  0  0  0  0  0  0
   -6.2209   24.8224  -19.2284 C   0  0  0  0  0  0  0  0  0  0  0  0
   -5.9941   24.7378  -17.7458 C   0  0  0  0  0  0  0  0  0  0  0  0
   -6.4243   23.4123  -17.2102 C   0  0  0  0  0  0  0  0  0  0  0  0
   -7.4936   22.8041  -18.1199 C   0  0  0  0  0  0  0  0  0  0  0  0
   -6.8774   22.4446  -19.4561 C   0  0  0  0  0  0  0  0  0  0  0  0
   -7.8953   22.1663  -22.9795 H   0  0  0  0  0  0  0  0  0  0  0  0
   -6.9336   24.1008  -24.4664 C   0  0  0  0  0  0  0  0  0  0  0  0
   -7.0819   25.4418  -25.1442 C   0  0  0  0  0  0  0  0  0  0  0  0
   -6.0894   25.7003  -26.2266 C   0  0  0  0  0  0  0  0  0  0  0  0
   -4.6694   25.7889  -25.7808 C   0  0  0  0  0  0  0  0  0  0  0  0
   -3.7622   24.8282  -26.5407 C   0  0  0  0  0  0  0  0  0  0  0  0
   -4.3567   23.4653  -26.6870 C   0  0  0  0  0  0  0  0  0  0  0  0
   -4.8766   22.9886  -25.3697 C   0  0  0  0  0  0  0  0  0  0  0  0
   -6.3863   23.0487  -25.4011 C   0  0  0  0  0  0  0  0  0  0  0  0
  1  2  2  0  0  0
  2  3  2  0  0  0
  2  4  1  0  0  0
  4  5  1  0  0  0
  5  6  2  0  0  0
  6 15  1  0  0  0
 15 16  1  0  0  0
 16 17  1  0  0  0
 17 18  1  0  0  0
 18 19  1  0  0  0
 19 20  1  0  0  0
 20 21  1  0  0  0
 21 22  1  0  0  0
  5  7  1  0  0  0
  7  8  1  0  0  0
  8  9  1  0  0  0
  9 10  1  0  0  0
 10 11  1  0  0  0
 11 12  1  0  0  0
 12 13  1  0  0  0
 13  2  1  0  0  0
 22 15  1  0  0  0
 13  8  1  0  0  0
  4 14  1  0  0  0
M  END
> <minimizedAffinity>
-6.32733

> <CNNscore>
0.2267403156

> <CNNaffinity>
5.2981910706

> <CNN_VS>
1.2013134956

> <CNNaffinity_variance>
0.1106957421

$$$$
[H]C(=NN([H])C(=S)N([H])C([H])([H])c1c([H])c([H])c(OC([H])(C([H])([H])[H])C([H])([H])[H])c([H])c1[H])c1c([H])c([H])c([N+](=O)[O-])c([H])c1[H]


 28 29  0  0  0  0  0  0  0  0999 V2000
    0.2960   21.9460  -24.0221 C   0  0  0  0  0  0  0  0  0  0  0  0
    1.7010   21.2777  -23.5476 S   0  0  0  0  0  0  0  0  0  0  0  0
   -0.8767   21.6888  -23.2869 N   0  0  0  0  0  0  0  0  0  0  0  0
   -1.4148   20.8153  -23.4380 H   0  0  0  0  0  0  0  0  0  0  0  0
   -1.3469   22.6418  -22.3094 C   0  0  0  0  0  0  0  0  0  0  0  0
   -5.3522   23.9201  -23.1703 C   0  0  0  0  0  0  0  0  0  0  0  0
   -5.0479   22.5833  -22.9101 C   0  0  0  0  0  0  0  0  0  0  0  0
   -3.7583   22.1918  -22.6360 C   0  0  0  0  0  0  0  0  0  0  0  0
   -2.7236   23.1007  -22.6084 C   0  0  0  0  0  0  0  0  0  0  0  0
   -3.0583   24.4062  -22.8686 C   0  0  0  0  0  0  0  0  0  0  0  0
   -4.3515   24.8366  -23.1494 C   0  0  0  0  0  0  0  0  0  0  0  0
   -6.6532   24.2604  -23.4382 O   0  0  0  0  0  0  0  0  0  0  0  0
   -8.8773   25.1421  -23.0668 C   0  0  0  0  0  0  0  0  0  0  0  0
   -7.7004   24.3230  -22.5383 C   0  0  0  0  0  0  0  0  0  0  0  0
   -7.2282   25.0117  -21.2568 C   0  0  0  0  0  0  0  0  0  0  0  0
    0.2437   22.7864  -25.1721 N   0  0  0  0  0  0  0  0  0  0  0  0
    0.2000   23.8427  -25.0752 H   0  0  0  0  0  0  0  0  0  0  0  0
    0.2450   22.2805  -26.4301 N   0  0  0  0  0  0  0  0  0  0  0  0
   -0.5484   22.1931  -27.3615 C   0  0  0  0  0  0  0  0  0  0  0  0
   -1.9114   22.6636  -27.4168 C   0  0  0  0  0  0  0  0  0  0  0  0
   -2.8268   22.5666  -26.3946 C   0  0  0  0  0  0  0  0  0  0  0  0
   -4.1331   23.0392  -26.5027 C   0  0  0  0  0  0  0  0  0  0  0  0
   -4.5799   23.6367  -27.6582 C   0  0  0  0  0  0  0  0  0  0  0  0
   -3.6871   23.7479  -28.6982 C   0  0  0  0  0  0  0  0  0  0  0  0
   -2.4061   23.2799  -28.5799 C   0  0  0  0  0  0  0  0  0  0  0  0
   -5.9216   24.1184  -27.7602 N   0  0  0  0  0  0  0  0  0  0  0  0
   -6.8335   23.4994  -27.1802 O   0  0  0  0  0  0  0  0  0  0  0  0
   -6.1310   25.2522  -28.5024 O   0  0  0  0  0  0  0  0  0  0  0  0
 13 14  1  0  0  0
 14 15  1  0  0  0
 14 12  1  0  0  0
 12  6  1  0  0  0
  6  7  2  0  0  0
  7  8  1  0  0  0
  8  9  2  0  0  0
  9  5  1  0  0  0
  5  3  1  0  0  0
  3  1  1  0  0  0
  1  2  2  0  0  0
  1 16  1  0  0  0
 16 18  1  0  0  0
 18 19  2  0  0  0
 19 20  1  0  0  0
 20 21  2  0  0  0
 21 22  1  0  0  0
 22 23  2  0  0  0
 23 26  1  0  0  0
 26 27  2  0  0  0
 26 28  1  0  0  0
 23 24  1  0  0  0
 24 25  2  0  0  0
  9 10  1  0  0  0
 10 11  2  0  0  0
 11  6  1  0  0  0
 25 20  1  0  0  0
  3  4  1  0  0  0
 16 17  1  0  0  0
M  CHG 1  26   1
M  CHG 1  28  -1
M  END
> <minimizedAffinity>
-6.78337

> <CNNscore>
0.5985091925

> <CNNaffinity>
6.3469552994

> <CNN_VS>
3.7987110615

> <CNNaffinity_variance>
0.0987946615

$$$$
[H]C(=NN([H])C(=S)N([H])C([H])([H])c1c([H])c([H])c(OC([H])(C([H])([H])[H])C([H])([H])[H])c([H])c1[H])c1c([H])c([H])c([N+](=O)[O-])c([H])c1[H]


 28 29  0  0  0  0  0  0  0  0999 V2000
   -6.0609   26.1453  -26.2286 C   0  0  0  0  0  0  0  0  0  0  0  0
   -4.9945   27.2447  -25.6813 S   0  0  0  0  0  0  0  0  0  0  0  0
   -6.9947   25.5827  -25.3380 N   0  0  0  0  0  0  0  0  0  0  0  0
   -7.8346   25.0894  -25.6941 H   0  0  0  0  0  0  0  0  0  0  0  0
   -6.7943   25.6856  -23.9118 C   0  0  0  0  0  0  0  0  0  0  0  0
   -4.2205   22.5944  -22.4156 C   0  0  0  0  0  0  0  0  0  0  0  0
   -3.9027   23.9460  -22.2762 C   0  0  0  0  0  0  0  0  0  0  0  0
   -4.7397   24.9232  -22.7620 C   0  0  0  0  0  0  0  0  0  0  0  0
   -5.9177   24.6054  -23.4015 C   0  0  0  0  0  0  0  0  0  0  0  0
   -6.1990   23.2673  -23.5211 C   0  0  0  0  0  0  0  0  0  0  0  0
   -5.3753   22.2533  -23.0416 C   0  0  0  0  0  0  0  0  0  0  0  0
   -3.3535   21.6578  -21.9142 O   0  0  0  0  0  0  0  0  0  0  0  0
   -1.0600   21.0436  -22.3878 C   0  0  0  0  0  0  0  0  0  0  0  0
   -2.0379   21.8560  -21.5398 C   0  0  0  0  0  0  0  0  0  0  0  0
   -1.8473   21.3987  -20.0928 C   0  0  0  0  0  0  0  0  0  0  0  0
   -6.0569   25.7489  -27.5978 N   0  0  0  0  0  0  0  0  0  0  0  0
   -5.8840   26.4559  -28.3706 H   0  0  0  0  0  0  0  0  0  0  0  0
   -6.2737   24.4640  -27.9725 N   0  0  0  0  0  0  0  0  0  0  0  0
   -5.6268   23.4228  -28.0186 C   0  0  0  0  0  0  0  0  0  0  0  0
   -4.2508   23.2123  -27.6384 C   0  0  0  0  0  0  0  0  0  0  0  0
   -3.8084   22.9752  -26.3576 C   0  0  0  0  0  0  0  0  0  0  0  0
   -2.4646   22.7783  -26.0467 C   0  0  0  0  0  0  0  0  0  0  0  0
   -1.4964   22.8121  -27.0230 C   0  0  0  0  0  0  0  0  0  0  0  0
   -1.9082   23.0473  -28.3137 C   0  0  0  0  0  0  0  0  0  0  0  0
   -3.2317   23.2392  -28.6069 C   0  0  0  0  0  0  0  0  0  0  0  0
   -0.1202   22.6091  -26.6947 N   0  0  0  0  0  0  0  0  0  0  0  0
    0.7330   22.6611  -27.6005 O   0  0  0  0  0  0  0  0  0  0  0  0
    0.1864   22.3646  -25.3808 O   0  0  0  0  0  0  0  0  0  0  0  0
 13 14  1  0  0  0
 14 15  1  0  0  0
 14 12  1  0  0  0
 12  6  1  0  0  0
  6  7  2  0  0  0
  7  8  1  0  0  0
  8  9  2  0  0  0
  9  5  1  0  0  0
  5  3  1  0  0  0
  3  1  1  0  0  0
  1  2  2  0  0  0
  1 16  1  0  0  0
 16 18  1  0  0  0
 18 19  2  0  0  0
 19 20  1  0  0  0
 20 21  2  0  0  0
 21 22  1  0  0  0
 22 23  2  0  0  0
 23 26  1  0  0  0
 26 27  2  0  0  0
 26 28  1  0  0  0
 23 24  1  0  0  0
 24 25  2  0  0  0
  9 10  1  0  0  0
 10 11  2  0  0  0
 11  6  1  0  0  0
 25 20  1  0  0  0
  3  4  1  0  0  0
 16 17  1  0  0  0
M  CHG 1  26   1
M  CHG 1  28  -1
M  END
> <minimizedAffinity>
-7.14902

> <CNNscore>
0.5851463079

> <CNNaffinity>
6.5485229492

> <CNN_VS>
3.8318440914

> <CNNaffinity_variance>
0.1180037633

$$$$
[H]C(=NN([H])C(=S)N([H])C([H])([H])c1c([H])c([H])c(OC([H])(C([H])([H])[H])C([H])([H])[H])c([H])c1[H])c1c([H])c([H])c([N+](=O)[O-])c([H])c1[H]


 28 29  0  0  0  0  0  0  0  0999 V2000
   -5.3322   24.1184  -21.6816 C   0  0  0  0  0  0  0  0  0  0  0  0
   -5.8774   23.8411  -20.1743 S   0  0  0  0  0  0  0  0  0  0  0  0
   -5.5776   25.3646  -22.2887 N   0  0  0  0  0  0  0  0  0  0  0  0
   -4.9065   26.1477  -22.1791 H   0  0  0  0  0  0  0  0  0  0  0  0
   -6.7713   25.5691  -23.0749 C   0  0  0  0  0  0  0  0  0  0  0  0
   -5.9205   25.8632  -27.2710 C   0  0  0  0  0  0  0  0  0  0  0  0
   -6.9324   25.0353  -26.7831 C   0  0  0  0  0  0  0  0  0  0  0  0
   -7.1909   24.9537  -25.4348 C   0  0  0  0  0  0  0  0  0  0  0  0
   -6.4639   25.6829  -24.5198 C   0  0  0  0  0  0  0  0  0  0  0  0
   -5.4770   26.4865  -25.0340 C   0  0  0  0  0  0  0  0  0  0  0  0
   -5.1888   26.5930  -26.3913 C   0  0  0  0  0  0  0  0  0  0  0  0
   -5.7015   25.9101  -28.6238 O   0  0  0  0  0  0  0  0  0  0  0  0
   -3.7172   25.7358  -30.0000 C   0  0  0  0  0  0  0  0  0  0  0  0
   -4.9273   25.0444  -29.3732 C   0  0  0  0  0  0  0  0  0  0  0  0
   -5.7610   24.4883  -30.5286 C   0  0  0  0  0  0  0  0  0  0  0  0
   -4.6110   23.1131  -22.3892 N   0  0  0  0  0  0  0  0  0  0  0  0
   -3.5702   22.9749  -22.2323 H   0  0  0  0  0  0  0  0  0  0  0  0
   -5.2146   22.2966  -23.2879 N   0  0  0  0  0  0  0  0  0  0  0  0
   -4.9739   21.8676  -24.4116 C   0  0  0  0  0  0  0  0  0  0  0  0
   -3.8207   22.1327  -25.2374 C   0  0  0  0  0  0  0  0  0  0  0  0
   -2.5324   21.7453  -24.9501 C   0  0  0  0  0  0  0  0  0  0  0  0
   -1.4540   22.0289  -25.7856 C   0  0  0  0  0  0  0  0  0  0  0  0
   -1.6277   22.7231  -26.9602 C   0  0  0  0  0  0  0  0  0  0  0  0
   -2.9049   23.1240  -27.2745 C   0  0  0  0  0  0  0  0  0  0  0  0
   -3.9566   22.8393  -26.4456 C   0  0  0  0  0  0  0  0  0  0  0  0
   -0.5155   23.0095  -27.8111 N   0  0  0  0  0  0  0  0  0  0  0  0
    0.6394   22.8504  -27.3731 O   0  0  0  0  0  0  0  0  0  0  0  0
   -0.7884   23.4500  -29.0806 O   0  0  0  0  0  0  0  0  0  0  0  0
 13 14  1  0  0  0
 14 15  1  0  0  0
 14 12  1  0  0  0
 12  6  1  0  0  0
  6  7  2  0  0  0
  7  8  1  0  0  0
  8  9  2  0  0  0
  9  5  1  0  0  0
  5  3  1  0  0  0
  3  1  1  0  0  0
  1  2  2  0  0  0
  1 16  1  0  0  0
 16 18  1  0  0  0
 18 19  2  0  0  0
 19 20  1  0  0  0
 20 21  2  0  0  0
 21 22  1  0  0  0
 22 23  2  0  0  0
 23 26  1  0  0  0
 26 27  2  0  0  0
 26 28  1  0  0  0
 23 24  1  0  0  0
 24 25  2  0  0  0
  9 10  1  0  0  0
 10 11  2  0  0  0
 11  6  1  0  0  0
 25 20  1  0  0  0
  3  4  1  0  0  0
 16 17  1  0  0  0
M  CHG 1  26   1
M  CHG 1  28  -1
M  END
> <minimizedAffinity>
-7.92336

> <CNNscore>
0.4408408999

> <CNNaffinity>
6.3086729050

> <CNN_VS>
2.7811210155

> <CNNaffinity_variance>
0.1206082553

$$$$
[H]C(=NN([H])C(=S)N([H])C([H])([H])c1c([H])c([H])c(OC([H])(C([H])([H])[H])C([H])([H])[H])c([H])c1[H])c1c([H])c([H])c([N+](=O)[O-])c([H])c1[H]


 28 29  0  0  0  0  0  0  0  0999 V2000
   -4.3247   23.1162  -21.5350 C   0  0  0  0  0  0  0  0  0  0  0  0
   -5.1398   22.3808  -20.3347 S   0  0  0  0  0  0  0  0  0  0  0  0
   -5.0360   23.8145  -22.5291 N   0  0  0  0  0  0  0  0  0  0  0  0
   -6.0431   23.6263  -22.6897 H   0  0  0  0  0  0  0  0  0  0  0  0
   -4.3698   24.8055  -23.3408 C   0  0  0  0  0  0  0  0  0  0  0  0
   -5.5889   24.5064  -27.4447 C   0  0  0  0  0  0  0  0  0  0  0  0
   -6.1946   23.7485  -26.4416 C   0  0  0  0  0  0  0  0  0  0  0  0
   -5.7907   23.8575  -25.1314 C   0  0  0  0  0  0  0  0  0  0  0  0
   -4.7778   24.7150  -24.7623 C   0  0  0  0  0  0  0  0  0  0  0  0
   -4.2046   25.4448  -25.7737 C   0  0  0  0  0  0  0  0  0  0  0  0
   -4.5883   25.3593  -27.1086 C   0  0  0  0  0  0  0  0  0  0  0  0
   -6.0272   24.3620  -28.7360 O   0  0  0  0  0  0  0  0  0  0  0  0
   -5.8817   24.5390  -31.1462 C   0  0  0  0  0  0  0  0  0  0  0  0
   -5.2669   24.0324  -29.8422 C   0  0  0  0  0  0  0  0  0  0  0  0
   -5.1785   22.5102  -29.9622 C   0  0  0  0  0  0  0  0  0  0  0  0
   -2.9015   23.0590  -21.5873 N   0  0  0  0  0  0  0  0  0  0  0  0
   -2.3165   23.9425  -21.5220 H   0  0  0  0  0  0  0  0  0  0  0  0
   -2.2360   21.8856  -21.7240 N   0  0  0  0  0  0  0  0  0  0  0  0
   -1.6323   21.2963  -22.6145 C   0  0  0  0  0  0  0  0  0  0  0  0
   -1.4128   21.7244  -23.9750 C   0  0  0  0  0  0  0  0  0  0  0  0
   -0.1928   22.0599  -24.5147 C   0  0  0  0  0  0  0  0  0  0  0  0
   -0.0384   22.4676  -25.8381 C   0  0  0  0  0  0  0  0  0  0  0  0
   -1.1181   22.5564  -26.6855 C   0  0  0  0  0  0  0  0  0  0  0  0
   -2.3516   22.2274  -26.1743 C   0  0  0  0  0  0  0  0  0  0  0  0
   -2.4906   21.8280  -24.8722 C   0  0  0  0  0  0  0  0  0  0  0  0
   -0.9503   22.9756  -28.0416 N   0  0  0  0  0  0  0  0  0  0  0  0
   -1.9577   23.2509  -28.7200 O   0  0  0  0  0  0  0  0  0  0  0  0
    0.3305   23.0516  -28.5253 O   0  0  0  0  0  0  0  0  0  0  0  0
 13 14  1  0  0  0
 14 15  1  0  0  0
 14 12  1  0  0  0
 12  6  1  0  0  0
  6  7  2  0  0  0
  7  8  1  0  0  0
  8  9  2  0  0  0
  9  5  1  0  0  0
  5  3  1  0  0  0
  3  1  1  0  0  0
  1  2  2  0  0  0
  1 16  1  0  0  0
 16 18  1  0  0  0
 18 19  2  0  0  0
 19 20  1  0  0  0
 20 21  2  0  0  0
 21 22  1  0  0  0
 22 23  2  0  0  0
 23 26  1  0  0  0
 26 27  2  0  0  0
 26 28  1  0  0  0
 23 24  1  0  0  0
 24 25  2  0  0  0
  9 10  1  0  0  0
 10 11  2  0  0  0
 11  6  1  0  0  0
 25 20  1  0  0  0
  3  4  1  0  0  0
 16 17  1  0  0  0
M  CHG 1  26   1
M  CHG 1  28  -1
M  END
> <minimizedAffinity>
-7.70497

> <CNNscore>
0.3630712926

> <CNNaffinity>
6.4274024963

> <CNN_VS>
2.3336052895

> <CNNaffinity_variance>
0.0890727118

$$$$
[H]C(=NN([H])C(=S)N([H])C([H])([H])c1c([H])c([H])c(OC([H])(C([H])([H])[H])C([H])([H])[H])c([H])c1[H])c1c([H])c([H])c([N+](=O)[O-])c([H])c1[H]


 28 29  0  0  0  0  0  0  0  0999 V2000
   -4.5521   24.6931  -28.8150 C   0  0  0  0  0  0  0  0  0  0  0  0
   -3.9227   25.5800  -30.0246 S   0  0  0  0  0  0  0  0  0  0  0  0
   -3.9814   23.4450  -28.5014 N   0  0  0  0  0  0  0  0  0  0  0  0
   -4.5748   22.6581  -28.1787 H   0  0  0  0  0  0  0  0  0  0  0  0
   -2.5570   23.2439  -28.6256 C   0  0  0  0  0  0  0  0  0  0  0  0
   -0.8602   21.9166  -24.9138 C   0  0  0  0  0  0  0  0  0  0  0  0
   -2.2395   22.0348  -25.0901 C   0  0  0  0  0  0  0  0  0  0  0  0
   -2.7655   22.4619  -26.2870 C   0  0  0  0  0  0  0  0  0  0  0  0
   -1.9541   22.7874  -27.3515 C   0  0  0  0  0  0  0  0  0  0  0  0
   -0.6033   22.6596  -27.1435 C   0  0  0  0  0  0  0  0  0  0  0  0
   -0.0376   22.2308  -25.9465 C   0  0  0  0  0  0  0  0  0  0  0  0
   -0.3847   21.4865  -23.7017 O   0  0  0  0  0  0  0  0  0  0  0  0
   -1.0706   22.7834  -21.7759 C   0  0  0  0  0  0  0  0  0  0  0  0
   -1.0742   21.4403  -22.5048 C   0  0  0  0  0  0  0  0  0  0  0  0
   -0.4023   20.4332  -21.5702 C   0  0  0  0  0  0  0  0  0  0  0  0
   -5.6728   25.1684  -28.0735 N   0  0  0  0  0  0  0  0  0  0  0  0
   -6.6058   24.6632  -28.1098 H   0  0  0  0  0  0  0  0  0  0  0  0
   -5.6001   26.2777  -27.2971 N   0  0  0  0  0  0  0  0  0  0  0  0
   -5.4485   26.5295  -26.1062 C   0  0  0  0  0  0  0  0  0  0  0  0
   -5.2776   25.6010  -25.0149 C   0  0  0  0  0  0  0  0  0  0  0  0
   -6.1832   24.6332  -24.6467 C   0  0  0  0  0  0  0  0  0  0  0  0
   -5.9661   23.7612  -23.5819 C   0  0  0  0  0  0  0  0  0  0  0  0
   -4.8147   23.8266  -22.8325 C   0  0  0  0  0  0  0  0  0  0  0  0
   -3.8901   24.7845  -23.1766 C   0  0  0  0  0  0  0  0  0  0  0  0
   -4.1146   25.6356  -24.2252 C   0  0  0  0  0  0  0  0  0  0  0  0
   -4.6006   22.9279  -21.7418 N   0  0  0  0  0  0  0  0  0  0  0  0
   -4.5318   21.7053  -21.9685 O   0  0  0  0  0  0  0  0  0  0  0  0
   -4.4816   23.4722  -20.4889 O   0  0  0  0  0  0  0  0  0  0  0  0
 13 14  1  0  0  0
 14 15  1  0  0  0
 14 12  1  0  0  0
 12  6  1  0  0  0
  6  7  2  0  0  0
  7  8  1  0  0  0
  8  9  2  0  0  0
  9  5  1  0  0  0
  5  3  1  0  0  0
  3  1  1  0  0  0
  1  2  2  0  0  0
  1 16  1  0  0  0
 16 18  1  0  0  0
 18 19  2  0  0  0
 19 20  1  0  0  0
 20 21  2  0  0  0
 21 22  1  0  0  0
 22 23  2  0  0  0
 23 26  1  0  0  0
 26 27  2  0  0  0
 26 28  1  0  0  0
 23 24  1  0  0  0
 24 25  2  0  0  0
  9 10  1  0  0  0
 10 11  2  0  0  0
 11  6  1  0  0  0
 25 20  1  0  0  0
  3  4  1  0  0  0
 16 17  1  0  0  0
M  CHG 1  26   1
M  CHG 1  28  -1
M  END
> <minimizedAffinity>
-7.29865

> <CNNscore>
0.2885707021

> <CNNaffinity>
6.2822451591

> <CNN_VS>
1.8128719330

> <CNNaffinity_variance>
0.0829565674

$$$$
[H]C(=NN([H])C(=S)N([H])C([H])([H])c1c([H])c([H])c(OC([H])(C([H])([H])[H])C([H])([H])[H])c([H])c1[H])c1c([H])c([H])c([N+](=O)[O-])c([H])c1[H]


 28 29  0  0  0  0  0  0  0  0999 V2000
   -6.1794   23.5402  -21.3771 C   0  0  0  0  0  0  0  0  0  0  0  0
   -6.9015   23.8717  -19.9577 S   0  0  0  0  0  0  0  0  0  0  0  0
   -5.7007   24.5971  -22.1744 N   0  0  0  0  0  0  0  0  0  0  0  0
   -4.6876   24.8161  -22.2098 H   0  0  0  0  0  0  0  0  0  0  0  0
   -6.6177   25.3926  -22.9561 C   0  0  0  0  0  0  0  0  0  0  0  0
   -5.3610   25.7614  -27.0429 C   0  0  0  0  0  0  0  0  0  0  0  0
   -6.6173   25.2577  -26.7036 C   0  0  0  0  0  0  0  0  0  0  0  0
   -7.0032   25.1467  -25.3882 C   0  0  0  0  0  0  0  0  0  0  0  0
   -6.1674   25.5269  -24.3613 C   0  0  0  0  0  0  0  0  0  0  0  0
   -4.9399   26.0177  -24.7307 C   0  0  0  0  0  0  0  0  0  0  0  0
   -4.5176   26.1436  -26.0507 C   0  0  0  0  0  0  0  0  0  0  0  0
   -5.0229   25.8526  -28.3687 O   0  0  0  0  0  0  0  0  0  0  0  0
   -5.0057   23.7077  -29.4916 C   0  0  0  0  0  0  0  0  0  0  0  0
   -5.5601   25.1298  -29.4173 C   0  0  0  0  0  0  0  0  0  0  0  0
   -5.2004   25.8095  -30.7394 C   0  0  0  0  0  0  0  0  0  0  0  0
   -6.0285   22.1931  -21.8176 N   0  0  0  0  0  0  0  0  0  0  0  0
   -5.5332   21.4734  -21.2145 H   0  0  0  0  0  0  0  0  0  0  0  0
   -6.5037   21.7736  -23.0162 N   0  0  0  0  0  0  0  0  0  0  0  0
   -6.0567   21.5947  -24.1444 C   0  0  0  0  0  0  0  0  0  0  0  0
   -4.7068   21.8024  -24.6102 C   0  0  0  0  0  0  0  0  0  0  0  0
   -4.3600   22.4188  -25.7900 C   0  0  0  0  0  0  0  0  0  0  0  0
   -3.0370   22.5931  -26.1911 C   0  0  0  0  0  0  0  0  0  0  0  0
   -1.9936   22.1490  -25.4128 C   0  0  0  0  0  0  0  0  0  0  0  0
   -2.3090   21.5283  -24.2270 C   0  0  0  0  0  0  0  0  0  0  0  0
   -3.6128   21.3630  -23.8436 C   0  0  0  0  0  0  0  0  0  0  0  0
   -0.6396   22.3321  -25.8323 N   0  0  0  0  0  0  0  0  0  0  0  0
    0.2753   21.7980  -25.1774 O   0  0  0  0  0  0  0  0  0  0  0  0
   -0.4223   23.0974  -26.9491 O   0  0  0  0  0  0  0  0  0  0  0  0
 13 14  1  0  0  0
 14 15  1  0  0  0
 14 12  1  0  0  0
 12  6  1  0  0  0
  6  7  2  0  0  0
  7  8  1  0  0  0
  8  9  2  0  0  0
  9  5  1  0  0  0
  5  3  1  0  0  0
  3  1  1  0  0  0
  1  2  2  0  0  0
  1 16  1  0  0  0
 16 18  1  0  0  0
 18 19  2  0  0  0
 19 20  1  0  0  0
 20 21  2  0  0  0
 21 22  1  0  0  0
 22 23  2  0  0  0
 23 26  1  0  0  0
 26 27  2  0  0  0
 26 28  1  0  0  0
 23 24  1  0  0  0
 24 25  2  0  0  0
  9 10  1  0  0  0
 10 11  2  0  0  0
 11  6  1  0  0  0
 25 20  1  0  0  0
  3  4  1  0  0  0
 16 17  1  0  0  0
M  CHG 1  26   1
M  CHG 1  28  -1
M  END
> <minimizedAffinity>
-6.99707

> <CNNscore>
0.2878346741

> <CNNaffinity>
6.0362901688

> <CNN_VS>
1.7374535799

> <CNNaffinity_variance>
0.0739132017

$$$$
[H]C(=NN([H])C(=S)N([H])C([H])([H])c1c([H])c([H])c(OC([H])(C([H])([H])[H])C([H])([H])[H])c([H])c1[H])c1c([H])c([H])c([N+](=O)[O-])c([H])c1[H]


 28 29  0  0  0  0  0  0  0  0999 V2000
   -5.2154   25.6788  -24.5798 C   0  0  0  0  0  0  0  0  0  0  0  0
   -5.1867   26.9045  -25.6488 S   0  0  0  0  0  0  0  0  0  0  0  0
   -4.4981   25.7942  -23.3740 N   0  0  0  0  0  0  0  0  0  0  0  0
   -3.8015   26.5514  -23.2433 H   0  0  0  0  0  0  0  0  0  0  0  0
   -4.7240   24.8563  -22.2998 C   0  0  0  0  0  0  0  0  0  0  0  0
   -1.5742   21.9599  -21.9716 C   0  0  0  0  0  0  0  0  0  0  0  0
   -2.8891   21.6586  -21.6143 C   0  0  0  0  0  0  0  0  0  0  0  0
   -3.8858   22.5996  -21.7262 C   0  0  0  0  0  0  0  0  0  0  0  0
   -3.6244   23.8690  -22.1930 C   0  0  0  0  0  0  0  0  0  0  0  0
   -2.3212   24.1310  -22.5352 C   0  0  0  0  0  0  0  0  0  0  0  0
   -1.2888   23.2033  -22.4347 C   0  0  0  0  0  0  0  0  0  0  0  0
   -0.6161   20.9876  -21.8419 O   0  0  0  0  0  0  0  0  0  0  0  0
    1.6052   20.0869  -21.5010 C   0  0  0  0  0  0  0  0  0  0  0  0
    0.4916   21.0140  -21.0157 C   0  0  0  0  0  0  0  0  0  0  0  0
    0.0957   20.5295  -19.6200 C   0  0  0  0  0  0  0  0  0  0  0  0
   -5.9585   24.4938  -24.8539 N   0  0  0  0  0  0  0  0  0  0  0  0
   -6.4138   23.9411  -24.0702 H   0  0  0  0  0  0  0  0  0  0  0  0
   -6.1144   24.0213  -26.1152 N   0  0  0  0  0  0  0  0  0  0  0  0
   -5.4126   23.4771  -26.9613 C   0  0  0  0  0  0  0  0  0  0  0  0
   -4.0170   23.1228  -26.8661 C   0  0  0  0  0  0  0  0  0  0  0  0
   -3.4238   22.5169  -25.7829 C   0  0  0  0  0  0  0  0  0  0  0  0
   -2.0683   22.1964  -25.7449 C   0  0  0  0  0  0  0  0  0  0  0  0
   -1.2415   22.4754  -26.8080 C   0  0  0  0  0  0  0  0  0  0  0  0
   -1.8060   23.0814  -27.9058 C   0  0  0  0  0  0  0  0  0  0  0  0
   -3.1393   23.3913  -27.9314 C   0  0  0  0  0  0  0  0  0  0  0  0
    0.1478   22.1431  -26.7601 N   0  0  0  0  0  0  0  0  0  0  0  0
    0.8597   22.3691  -27.7567 O   0  0  0  0  0  0  0  0  0  0  0  0
    0.6244   21.5856  -25.6016 O   0  0  0  0  0  0  0  0  0  0  0  0
 13 14  1  0  0  0
 14 15  1  0  0  0
 14 12  1  0  0  0
 12  6  1  0  0  0
  6  7  2  0  0  0
  7  8  1  0  0  0
  8  9  2  0  0  0
  9  5  1  0  0  0
  5  3  1  0  0  0
  3  1  1  0  0  0
  1  2  2  0  0  0
  1 16  1  0  0  0
 16 18  1  0  0  0
 18 19  2  0  0  0
 19 20  1  0  0  0
 20 21  2  0  0  0
 21 22  1  0  0  0
 22 23  2  0  0  0
 23 26  1  0  0  0
 26 27  2  0  0  0
 26 28  1  0  0  0
 23 24  1  0  0  0
 24 25  2  0  0  0
  9 10  1  0  0  0
 10 11  2  0  0  0
 11  6  1  0  0  0
 25 20  1  0  0  0
  3  4  1  0  0  0
 16 17  1  0  0  0
M  CHG 1  26   1
M  CHG 1  28  -1
M  END
> <minimizedAffinity>
-6.72199

> <CNNscore>
0.2860166728

> <CNNaffinity>
6.1064071655

> <CNN_VS>
1.7465342283

> <CNNaffinity_variance>
0.1837421656

$$$$
[H]C(=NN([H])C(=S)N([H])C([H])([H])c1c([H])c([H])c(OC([H])(C([H])([H])[H])C([H])([H])[H])c([H])c1[H])c1c([H])c([H])c([N+](=O)[O-])c([H])c1[H]


 28 29  0  0  0  0  0  0  0  0999 V2000
   -6.1551   24.8664  -21.3598 C   0  0  0  0  0  0  0  0  0  0  0  0
   -6.7482   25.3233  -19.9158 S   0  0  0  0  0  0  0  0  0  0  0  0
   -5.3920   23.6871  -21.4537 N   0  0  0  0  0  0  0  0  0  0  0  0
   -4.5952   23.5201  -20.8112 H   0  0  0  0  0  0  0  0  0  0  0  0
   -5.7104   22.6911  -22.4494 C   0  0  0  0  0  0  0  0  0  0  0  0
   -2.6641   22.3532  -25.4534 C   0  0  0  0  0  0  0  0  0  0  0  0
   -3.4548   21.2644  -25.0837 C   0  0  0  0  0  0  0  0  0  0  0  0
   -4.4266   21.3913  -24.1187 C   0  0  0  0  0  0  0  0  0  0  0  0
   -4.6545   22.5925  -23.4842 C   0  0  0  0  0  0  0  0  0  0  0  0
   -3.8591   23.6419  -23.8721 C   0  0  0  0  0  0  0  0  0  0  0  0
   -2.8676   23.5486  -24.8440 C   0  0  0  0  0  0  0  0  0  0  0  0
   -1.7084   22.1761  -26.4207 O   0  0  0  0  0  0  0  0  0  0  0  0
    0.2953   22.4539  -27.7509 C   0  0  0  0  0  0  0  0  0  0  0  0
   -0.4165   22.6673  -26.4156 C   0  0  0  0  0  0  0  0  0  0  0  0
    0.4042   21.9265  -25.3587 C   0  0  0  0  0  0  0  0  0  0  0  0
   -6.4012   25.6480  -22.5260 N   0  0  0  0  0  0  0  0  0  0  0  0
   -5.7030   26.3784  -22.8515 H   0  0  0  0  0  0  0  0  0  0  0  0
   -7.5284   25.4978  -23.2647 N   0  0  0  0  0  0  0  0  0  0  0  0
   -7.8080   25.2180  -24.4258 C   0  0  0  0  0  0  0  0  0  0  0  0
   -6.9055   24.9223  -25.5122 C   0  0  0  0  0  0  0  0  0  0  0  0
   -6.8353   23.7229  -26.1821 C   0  0  0  0  0  0  0  0  0  0  0  0
   -5.9425   23.4918  -27.2265 C   0  0  0  0  0  0  0  0  0  0  0  0
   -5.0711   24.4695  -27.6467 C   0  0  0  0  0  0  0  0  0  0  0  0
   -5.1176   25.6799  -26.9957 C   0  0  0  0  0  0  0  0  0  0  0  0
   -5.9995   25.8951  -25.9709 C   0  0  0  0  0  0  0  0  0  0  0  0
   -4.1586   24.2234  -28.7189 N   0  0  0  0  0  0  0  0  0  0  0  0
   -3.7486   23.0633  -28.9116 O   0  0  0  0  0  0  0  0  0  0  0  0
   -3.7810   25.2956  -29.4856 O   0  0  0  0  0  0  0  0  0  0  0  0
 13 14  1  0  0  0
 14 15  1  0  0  0
 14 12  1  0  0  0
 12  6  1  0  0  0
  6  7  2  0  0  0
  7  8  1  0  0  0
  8  9  2  0  0  0
  9  5  1  0  0  0
  5  3  1  0  0  0
  3  1  1  0  0  0
  1  2  2  0  0  0
  1 16  1  0  0  0
 16 18  1  0  0  0
 18 19  2  0  0  0
 19 20  1  0  0  0
 20 21  2  0  0  0
 21 22  1  0  0  0
 22 23  2  0  0  0
 23 26  1  0  0  0
 26 27  2  0  0  0
 26 28  1  0  0  0
 23 24  1  0  0  0
 24 25  2  0  0  0
  9 10  1  0  0  0
 10 11  2  0  0  0
 11  6  1  0  0  0
 25 20  1  0  0  0
  3  4  1  0  0  0
 16 17  1  0  0  0
M  CHG 1  26   1
M  CHG 1  28  -1
M  END
> <minimizedAffinity>
-7.00268

> <CNNscore>
0.2847338021

> <CNNaffinity>
5.7472186089

> <CNN_VS>
1.6364274025

> <CNNaffinity_variance>
0.5194410086

$$$$
[H]C(=NN([H])C(=S)N([H])C([H])([H])c1c([H])c([H])c(OC([H])(C([H])([H])[H])C([H])([H])[H])c([H])c1[H])c1c([H])c([H])c([N+](=O)[O-])c([H])c1[H]


 28 29  0  0  0  0  0  0  0  0999 V2000
   -6.3645   25.5273  -25.8776 C   0  0  0  0  0  0  0  0  0  0  0  0
   -5.0771   26.0037  -25.0050 S   0  0  0  0  0  0  0  0  0  0  0  0
   -7.5855   25.2685  -25.2265 N   0  0  0  0  0  0  0  0  0  0  0  0
   -8.4869   25.5213  -25.6727 H   0  0  0  0  0  0  0  0  0  0  0  0
   -7.5984   24.6451  -23.9242 C   0  0  0  0  0  0  0  0  0  0  0  0
  -10.0427   26.7996  -21.1311 C   0  0  0  0  0  0  0  0  0  0  0  0
   -8.6630   26.6800  -20.9597 C   0  0  0  0  0  0  0  0  0  0  0  0
   -7.8953   25.9856  -21.8653 C   0  0  0  0  0  0  0  0  0  0  0  0
   -8.4574   25.3850  -22.9702 C   0  0  0  0  0  0  0  0  0  0  0  0
   -9.8162   25.5225  -23.1077 C   0  0  0  0  0  0  0  0  0  0  0  0
  -10.6224   26.2175  -22.2113 C   0  0  0  0  0  0  0  0  0  0  0  0
  -10.7645   27.5022  -20.2006 O   0  0  0  0  0  0  0  0  0  0  0  0
  -11.5317   29.2817  -21.6520 C   0  0  0  0  0  0  0  0  0  0  0  0
  -11.1113   28.8392  -20.2510 C   0  0  0  0  0  0  0  0  0  0  0  0
   -9.9013   29.6923  -19.8671 C   0  0  0  0  0  0  0  0  0  0  0  0
   -6.2657   25.3705  -27.2909 N   0  0  0  0  0  0  0  0  0  0  0  0
   -6.1125   26.2087  -27.9241 H   0  0  0  0  0  0  0  0  0  0  0  0
   -6.3641   24.1560  -27.8858 N   0  0  0  0  0  0  0  0  0  0  0  0
   -5.6170   23.2137  -28.1278 C   0  0  0  0  0  0  0  0  0  0  0  0
   -4.2144   23.0864  -27.8136 C   0  0  0  0  0  0  0  0  0  0  0  0
   -3.1813   23.2788  -28.7013 C   0  0  0  0  0  0  0  0  0  0  0  0
   -1.8418   23.1424  -28.3427 C   0  0  0  0  0  0  0  0  0  0  0  0
   -1.4800   22.8022  -27.0602 C   0  0  0  0  0  0  0  0  0  0  0  0
   -2.4912   22.6030  -26.1499 C   0  0  0  0  0  0  0  0  0  0  0  0
   -3.8038   22.7401  -26.5140 C   0  0  0  0  0  0  0  0  0  0  0  0
   -0.1033   22.6644  -26.7015 N   0  0  0  0  0  0  0  0  0  0  0  0
    0.7467   22.5278  -27.6014 O   0  0  0  0  0  0  0  0  0  0  0  0
    0.2072   22.6908  -25.3661 O   0  0  0  0  0  0  0  0  0  0  0  0
 13 14  1  0  0  0
 14 15  1  0  0  0
 14 12  1  0  0  0
 12  6  1  0  0  0
  6  7  2  0  0  0
  7  8  1  0  0  0
  8  9  2  0  0  0
  9  5  1  0  0  0
  5  3  1  0  0  0
  3  1  1  0  0  0
  1  2  2  0  0  0
  1 16  1  0  0  0
 16 18  1  0  0  0
 18 19  2  0  0  0
 19 20  1  0  0  0
 20 21  2  0  0  0
 21 22  1  0  0  0
 22 23  2  0  0  0
 23 26  1  0  0  0
 26 27  2  0  0  0
 26 28  1  0  0  0
 23 24  1  0  0  0
 24 25  2  0  0  0
  9 10  1  0  0  0
 10 11  2  0  0  0
 11  6  1  0  0  0
 25 20  1  0  0  0
  3  4  1  0  0  0
 16 17  1  0  0  0
M  CHG 1  26   1
M  CHG 1  28  -1
M  END
> <minimizedAffinity>
-7.48129

> <CNNscore>
0.2434664667

> <CNNaffinity>
5.6403641701

> <CNN_VS>
1.3732395172

> <CNNaffinity_variance>
0.1100258231

$$$$
[H]c1nc(N([H])[H])c(C(=O)N([H])c2c([H])nc([H])c([H])c2N2C([H])([H])C([H])([H])C([H])(N([H])[H])C([H])([H])C2([H])[H])nc1-c1c([H])c([H])c(OC([H])([H])[H])c([H])c1[H]


 36 39  0  0  0  0  0  0  0  0999 V2000
   -3.2199   23.0738  -26.9821 C   0  0  0  0  0  0  0  0  0  0  0  0
   -3.6749   22.6133  -28.0472 O   0  0  0  0  0  0  0  0  0  0  0  0
   -3.9028   23.8155  -26.0082 N   0  0  0  0  0  0  0  0  0  0  0  0
   -3.3125   24.0912  -25.1615 H   0  0  0  0  0  0  0  0  0  0  0  0
   -0.0926   22.0135  -25.2768 C   0  0  0  0  0  0  0  0  0  0  0  0
    0.8233   22.2163  -26.2732 C   0  0  0  0  0  0  0  0  0  0  0  0
    0.4500   22.6936  -27.5000 N   0  0  0  0  0  0  0  0  0  0  0  0
   -0.8546   22.9732  -27.7388 C   0  0  0  0  0  0  0  0  0  0  0  0
   -1.2805   23.4727  -29.0101 N   0  0  0  0  0  0  0  0  0  0  0  0
   -1.7792   22.7775  -26.7593 C   0  0  0  0  0  0  0  0  0  0  0  0
   -1.3749   22.3012  -25.5489 N   0  0  0  0  0  0  0  0  0  0  0  0
   -1.4656   24.4850  -29.1595 H   0  0  0  0  0  0  0  0  0  0  0  0
   -1.4045   22.8162  -29.7852 H   0  0  0  0  0  0  0  0  0  0  0  0
    1.0485   20.5454  -21.4337 C   0  0  0  0  0  0  0  0  0  0  0  0
   -0.2811   20.6233  -21.7669 C   0  0  0  0  0  0  0  0  0  0  0  0
   -0.6282   21.0986  -23.0075 C   0  0  0  0  0  0  0  0  0  0  0  0
    0.2620   21.5119  -23.9649 C   0  0  0  0  0  0  0  0  0  0  0  0
    1.6116   21.4201  -23.5946 C   0  0  0  0  0  0  0  0  0  0  0  0
    2.0006   20.9477  -22.3570 C   0  0  0  0  0  0  0  0  0  0  0  0
    0.4193   19.8993  -19.1973 C   0  0  0  0  0  0  0  0  0  0  0  0
    1.4009   20.0684  -20.1886 O   0  0  0  0  0  0  0  0  0  0  0  0
   -5.2541   24.2179  -25.9917 C   0  0  0  0  0  0  0  0  0  0  0  0
   -5.8737   24.7793  -27.0672 C   0  0  0  0  0  0  0  0  0  0  0  0
   -7.1759   25.1135  -27.0425 N   0  0  0  0  0  0  0  0  0  0  0  0
   -7.9337   24.9118  -25.9584 C   0  0  0  0  0  0  0  0  0  0  0  0
   -7.3656   24.3501  -24.8434 C   0  0  0  0  0  0  0  0  0  0  0  0
   -6.0166   23.9979  -24.8501 C   0  0  0  0  0  0  0  0  0  0  0  0
   -5.4350   23.4566  -23.6806 N   0  0  0  0  0  0  0  0  0  0  0  0
   -4.6996   22.2253  -23.6249 C   0  0  0  0  0  0  0  0  0  0  0  0
   -3.3923   22.4421  -22.8984 C   0  0  0  0  0  0  0  0  0  0  0  0
   -3.1244   23.9024  -22.7189 C   0  0  0  0  0  0  0  0  0  0  0  0
   -1.9202   24.0953  -21.8992 N   0  0  0  0  0  0  0  0  0  0  0  0
   -4.2176   24.6575  -22.0129 C   0  0  0  0  0  0  0  0  0  0  0  0
   -5.5816   24.1954  -22.4340 C   0  0  0  0  0  0  0  0  0  0  0  0
   -1.8706   25.0670  -21.5780 H   0  0  0  0  0  0  0  0  0  0  0  0
   -1.0721   23.7478  -22.3897 H   0  0  0  0  0  0  0  0  0  0  0  0
 20 21  1  0  0  0
 21 14  1  0  0  0
 14 15  2  0  0  0
 15 16  1  0  0  0
 16 17  2  0  0  0
 17  5  1  0  0  0
  5  6  2  0  0  0
  6  7  1  0  0  0
  7  8  2  0  0  0
  8  9  1  0  0  0
  8 10  1  0  0  0
 10  1  1  0  0  0
  1  2  2  0  0  0
  1  3  1  0  0  0
  3 22  1  0  0  0
 22 23  2  0  0  0
 23 24  1  0  0  0
 24 25  2  0  0  0
 25 26  1  0  0  0
 26 27  2  0  0  0
 27 28  1  0  0  0
 28 29  1  0  0  0
 29 30  1  0  0  0
 30 31  1  0  0  0
 31 32  1  0  0  0
 31 33  1  0  0  0
 33 34  1  0  0  0
 10 11  2  0  0  0
 17 18  1  0  0  0
 18 19  2  0  0  0
 19 14  1  0  0  0
 11  5  1  0  0  0
 27 22  1  0  0  0
 34 28  1  0  0  0
  9 12  1  0  0  0
  9 13  1  0  0  0
  3  4  1  0  0  0
 32 35  1  0  0  0
 32 36  1  0  0  0
M  END
> <minimizedAffinity>
-8.31780

> <CNNscore>
0.8382921219

> <CNNaffinity>
7.6073694229

> <CNN_VS>
6.3771977425

> <CNNaffinity_variance>
0.1424550861

$$$$
[H]c1nc(N([H])[H])c(C(=O)N([H])c2c([H])nc([H])c([H])c2N2C([H])([H])C([H])([H])C([H])(N([H])[H])C([H])([H])C2([H])[H])nc1-c1c([H])c([H])c(OC([H])([H])[H])c([H])c1[H]


 36 39  0  0  0  0  0  0  0  0999 V2000
   -2.9416   23.1342  -27.2203 C   0  0  0  0  0  0  0  0  0  0  0  0
   -3.3785   22.5606  -28.2370 O   0  0  0  0  0  0  0  0  0  0  0  0
   -3.6311   24.0040  -26.3641 N   0  0  0  0  0  0  0  0  0  0  0  0
   -3.0580   24.3647  -25.5378 H   0  0  0  0  0  0  0  0  0  0  0  0
    0.0847   22.0848  -25.3354 C   0  0  0  0  0  0  0  0  0  0  0  0
    1.0523   22.2604  -26.2871 C   0  0  0  0  0  0  0  0  0  0  0  0
    0.7466   22.7157  -27.5407 N   0  0  0  0  0  0  0  0  0  0  0  0
   -0.5415   23.0003  -27.8520 C   0  0  0  0  0  0  0  0  0  0  0  0
   -0.8972   23.4773  -29.1532 N   0  0  0  0  0  0  0  0  0  0  0  0
   -1.5168   22.8315  -26.9177 C   0  0  0  0  0  0  0  0  0  0  0  0
   -1.1794   22.3767  -25.6789 N   0  0  0  0  0  0  0  0  0  0  0  0
   -1.0655   24.4877  -29.3319 H   0  0  0  0  0  0  0  0  0  0  0  0
   -0.9868   22.8061  -29.9205 H   0  0  0  0  0  0  0  0  0  0  0  0
    0.8201   20.6829  -21.3706 C   0  0  0  0  0  0  0  0  0  0  0  0
    1.8708   20.8656  -22.2353 C   0  0  0  0  0  0  0  0  0  0  0  0
    1.6139   21.3167  -23.5065 C   0  0  0  0  0  0  0  0  0  0  0  0
    0.3671   21.6072  -23.9973 C   0  0  0  0  0  0  0  0  0  0  0  0
   -0.6845   21.4106  -23.0904 C   0  0  0  0  0  0  0  0  0  0  0  0
   -0.4670   20.9584  -21.8043 C   0  0  0  0  0  0  0  0  0  0  0  0
    0.9273   21.0980  -18.9976 C   0  0  0  0  0  0  0  0  0  0  0  0
    1.0742   20.2300  -20.0929 O   0  0  0  0  0  0  0  0  0  0  0  0
   -4.9704   24.4386  -26.4390 C   0  0  0  0  0  0  0  0  0  0  0  0
   -5.4471   25.1985  -27.4642 C   0  0  0  0  0  0  0  0  0  0  0  0
   -6.7394   25.5630  -27.5373 N   0  0  0  0  0  0  0  0  0  0  0  0
   -7.6273   25.1978  -26.6055 C   0  0  0  0  0  0  0  0  0  0  0  0
   -7.2066   24.4322  -25.5480 C   0  0  0  0  0  0  0  0  0  0  0  0
   -5.8703   24.0454  -25.4548 C   0  0  0  0  0  0  0  0  0  0  0  0
   -5.4428   23.2898  -24.3388 N   0  0  0  0  0  0  0  0  0  0  0  0
   -5.0752   23.8427  -23.0665 C   0  0  0  0  0  0  0  0  0  0  0  0
   -5.7867   23.0988  -21.9600 C   0  0  0  0  0  0  0  0  0  0  0  0
   -6.8638   22.2252  -22.5196 C   0  0  0  0  0  0  0  0  0  0  0  0
   -7.4578   21.4122  -21.4494 N   0  0  0  0  0  0  0  0  0  0  0  0
   -6.3965   21.2433  -23.5595 C   0  0  0  0  0  0  0  0  0  0  0  0
   -5.3700   21.8416  -24.4757 C   0  0  0  0  0  0  0  0  0  0  0  0
   -8.0155   20.6555  -21.8570 H   0  0  0  0  0  0  0  0  0  0  0  0
   -7.9574   22.0071  -20.7587 H   0  0  0  0  0  0  0  0  0  0  0  0
 20 21  1  0  0  0
 21 14  1  0  0  0
 14 15  2  0  0  0
 15 16  1  0  0  0
 16 17  2  0  0  0
 17  5  1  0  0  0
  5  6  2  0  0  0
  6  7  1  0  0  0
  7  8  2  0  0  0
  8  9  1  0  0  0
  8 10  1  0  0  0
 10  1  1  0  0  0
  1  2  2  0  0  0
  1  3  1  0  0  0
  3 22  1  0  0  0
 22 23  2  0  0  0
 23 24  1  0  0  0
 24 25  2  0  0  0
 25 26  1  0  0  0
 26 27  2  0  0  0
 27 28  1  0  0  0
 28 29  1  0  0  0
 29 30  1  0  0  0
 30 31  1  0  0  0
 31 32  1  0  0  0
 31 33  1  0  0  0
 33 34  1  0  0  0
 10 11  2  0  0  0
 17 18  1  0  0  0
 18 19  2  0  0  0
 19 14  1  0  0  0
 11  5  1  0  0  0
 27 22  1  0  0  0
 34 28  1  0  0  0
  9 12  1  0  0  0
  9 13  1  0  0  0
  3  4  1  0  0  0
 32 35  1  0  0  0
 32 36  1  0  0  0
M  END
> <minimizedAffinity>
-8.21047

> <CNNscore>
0.8207963705

> <CNNaffinity>
7.6531934738

> <CNN_VS>
6.2817134857

> <CNNaffinity_variance>
0.1947203577

$$$$
[H]c1nc(N([H])[H])c(C(=O)N([H])c2c([H])nc([H])c([H])c2N2C([H])([H])C([H])([H])C([H])(N([H])[H])C([H])([H])C2([H])[H])nc1-c1c([H])c([H])c(OC([H])([H])[H])c([H])c1[H]


 36 39  0  0  0  0  0  0  0  0999 V2000
   -2.0596   22.5233  -26.4747 C   0  0  0  0  0  0  0  0  0  0  0  0
   -1.9577   21.7179  -27.4205 O   0  0  0  0  0  0  0  0  0  0  0  0
   -2.8768   23.6599  -26.4012 N   0  0  0  0  0  0  0  0  0  0  0  0
   -2.8152   24.1954  -25.4789 H   0  0  0  0  0  0  0  0  0  0  0  0
   -1.0448   21.7434  -22.9855 C   0  0  0  0  0  0  0  0  0  0  0  0
    0.3098   21.6181  -23.1353 C   0  0  0  0  0  0  0  0  0  0  0  0
    0.9117   21.7814  -24.3531 N   0  0  0  0  0  0  0  0  0  0  0  0
    0.1543   22.0736  -25.4384 C   0  0  0  0  0  0  0  0  0  0  0  0
    0.7501   22.2501  -26.7272 N   0  0  0  0  0  0  0  0  0  0  0  0
   -1.1945   22.2018  -25.3079 C   0  0  0  0  0  0  0  0  0  0  0  0
   -1.7629   22.0332  -24.0816 N   0  0  0  0  0  0  0  0  0  0  0  0
    0.9313   23.1980  -27.1145 H   0  0  0  0  0  0  0  0  0  0  0  0
    1.0012   21.4232  -27.2754 H   0  0  0  0  0  0  0  0  0  0  0  0
   -2.9499   21.2266  -19.2001 C   0  0  0  0  0  0  0  0  0  0  0  0
   -3.6692   21.7089  -20.2655 C   0  0  0  0  0  0  0  0  0  0  0  0
   -3.0386   21.8686  -21.4748 C   0  0  0  0  0  0  0  0  0  0  0  0
   -1.7197   21.5802  -21.7142 C   0  0  0  0  0  0  0  0  0  0  0  0
   -1.0125   21.0896  -20.6069 C   0  0  0  0  0  0  0  0  0  0  0  0
   -1.6108   20.9151  -19.3750 C   0  0  0  0  0  0  0  0  0  0  0  0
   -4.8898   21.5402  -17.8025 C   0  0  0  0  0  0  0  0  0  0  0  0
   -3.5800   21.0647  -17.9840 O   0  0  0  0  0  0  0  0  0  0  0  0
   -3.7737   24.1659  -27.3644 C   0  0  0  0  0  0  0  0  0  0  0  0
   -3.5343   24.1059  -28.7042 C   0  0  0  0  0  0  0  0  0  0  0  0
   -4.4253   24.5544  -29.6059 N   0  0  0  0  0  0  0  0  0  0  0  0
   -5.5964   25.0842  -29.2346 C   0  0  0  0  0  0  0  0  0  0  0  0
   -5.8942   25.1722  -27.8985 C   0  0  0  0  0  0  0  0  0  0  0  0
   -4.9823   24.7132  -26.9489 C   0  0  0  0  0  0  0  0  0  0  0  0
   -5.2856   24.8466  -25.5744 N   0  0  0  0  0  0  0  0  0  0  0  0
   -5.2386   26.0788  -24.8401 C   0  0  0  0  0  0  0  0  0  0  0  0
   -6.5168   26.2550  -24.0533 C   0  0  0  0  0  0  0  0  0  0  0  0
   -7.5481   25.2658  -24.4940 C   0  0  0  0  0  0  0  0  0  0  0  0
   -8.7360   25.3618  -23.6344 N   0  0  0  0  0  0  0  0  0  0  0  0
   -7.1103   23.8284  -24.4171 C   0  0  0  0  0  0  0  0  0  0  0  0
   -5.6808   23.6535  -24.8383 C   0  0  0  0  0  0  0  0  0  0  0  0
   -9.3338   24.5417  -23.7752 H   0  0  0  0  0  0  0  0  0  0  0  0
   -9.2101   26.2797  -23.7497 H   0  0  0  0  0  0  0  0  0  0  0  0
 20 21  1  0  0  0
 21 14  1  0  0  0
 14 15  2  0  0  0
 15 16  1  0  0  0
 16 17  2  0  0  0
 17  5  1  0  0  0
  5  6  2  0  0  0
  6  7  1  0  0  0
  7  8  2  0  0  0
  8  9  1  0  0  0
  8 10  1  0  0  0
 10  1  1  0  0  0
  1  2  2  0  0  0
  1  3  1  0  0  0
  3 22  1  0  0  0
 22 23  2  0  0  0
 23 24  1  0  0  0
 24 25  2  0  0  0
 25 26  1  0  0  0
 26 27  2  0  0  0
 27 28  1  0  0  0
 28 29  1  0  0  0
 29 30  1  0  0  0
 30 31  1  0  0  0
 31 32  1  0  0  0
 31 33  1  0  0  0
 33 34  1  0  0  0
 10 11  2  0  0  0
 17 18  1  0  0  0
 18 19  2  0  0  0
 19 14  1  0  0  0
 11  5  1  0  0  0
 27 22  1  0  0  0
 34 28  1  0  0  0
  9 12  1  0  0  0
  9 13  1  0  0  0
  3  4  1  0  0  0
 32 35  1  0  0  0
 32 36  1  0  0  0
M  END
> <minimizedAffinity>
-7.91552

> <CNNscore>
0.4075691104

> <CNNaffinity>
7.0610718727

> <CNN_VS>
2.8778748512

> <CNNaffinity_variance>
0.1066220030

$$$$
[H]c1nc(N([H])[H])c(C(=O)N([H])c2c([H])nc([H])c([H])c2N2C([H])([H])C([H])([H])C([H])(N([H])[H])C([H])([H])C2([H])[H])nc1-c1c([H])c([H])c(OC([H])([H])[H])c([H])c1[H]


 36 39  0  0  0  0  0  0  0  0999 V2000
   -2.4481   22.6597  -25.7193 C   0  0  0  0  0  0  0  0  0  0  0  0
   -2.7417   21.9906  -26.7291 O   0  0  0  0  0  0  0  0  0  0  0  0
   -3.1618   23.7304  -25.1634 N   0  0  0  0  0  0  0  0  0  0  0  0
   -2.7289   24.1443  -24.2787 H   0  0  0  0  0  0  0  0  0  0  0  0
   -0.1043   21.4871  -23.0841 C   0  0  0  0  0  0  0  0  0  0  0  0
    1.0725   21.4603  -23.7822 C   0  0  0  0  0  0  0  0  0  0  0  0
    1.1280   21.8165  -25.1021 N   0  0  0  0  0  0  0  0  0  0  0  0
   -0.0046   22.2050  -25.7370 C   0  0  0  0  0  0  0  0  0  0  0  0
    0.0166   22.5832  -27.1168 N   0  0  0  0  0  0  0  0  0  0  0  0
   -1.1840   22.2376  -25.0583 C   0  0  0  0  0  0  0  0  0  0  0  0
   -1.2054   21.8770  -23.7450 N   0  0  0  0  0  0  0  0  0  0  0  0
    0.0259   23.5826  -27.4039 H   0  0  0  0  0  0  0  0  0  0  0  0
    0.0223   21.8514  -27.8320 H   0  0  0  0  0  0  0  0  0  0  0  0
   -0.4321   20.4967  -18.9443 C   0  0  0  0  0  0  0  0  0  0  0  0
    0.0264   19.5586  -19.8358 C   0  0  0  0  0  0  0  0  0  0  0  0
    0.1243   19.8960  -21.1633 C   0  0  0  0  0  0  0  0  0  0  0  0
   -0.2049   21.1198  -21.6865 C   0  0  0  0  0  0  0  0  0  0  0  0
   -0.6696   22.0558  -20.7510 C   0  0  0  0  0  0  0  0  0  0  0  0
   -0.7822   21.7548  -19.4084 C   0  0  0  0  0  0  0  0  0  0  0  0
    0.4366   20.6141  -16.6979 C   0  0  0  0  0  0  0  0  0  0  0  0
   -0.5316   20.1614  -17.6103 O   0  0  0  0  0  0  0  0  0  0  0  0
   -4.3716   24.3071  -25.6016 C   0  0  0  0  0  0  0  0  0  0  0  0
   -4.4876   24.9814  -26.7796 C   0  0  0  0  0  0  0  0  0  0  0  0
   -5.6627   25.4837  -27.1980 N   0  0  0  0  0  0  0  0  0  0  0  0
   -6.7824   25.3475  -26.4784 C   0  0  0  0  0  0  0  0  0  0  0  0
   -6.7284   24.6784  -25.2822 C   0  0  0  0  0  0  0  0  0  0  0  0
   -5.5188   24.1514  -24.8316 C   0  0  0  0  0  0  0  0  0  0  0  0
   -5.4701   23.4988  -23.5783 N   0  0  0  0  0  0  0  0  0  0  0  0
   -5.3672   24.1642  -22.3108 C   0  0  0  0  0  0  0  0  0  0  0  0
   -6.4108   23.6219  -21.3617 C   0  0  0  0  0  0  0  0  0  0  0  0
   -7.4092   22.7860  -22.0972 C   0  0  0  0  0  0  0  0  0  0  0  0
   -8.3387   22.1608  -21.1462 N   0  0  0  0  0  0  0  0  0  0  0  0
   -6.8155   21.6507  -22.8860 C   0  0  0  0  0  0  0  0  0  0  0  0
   -5.5327   22.0438  -23.5575 C   0  0  0  0  0  0  0  0  0  0  0  0
   -8.8616   21.4130  -21.6123 H   0  0  0  0  0  0  0  0  0  0  0  0
   -8.9216   22.8749  -20.6658 H   0  0  0  0  0  0  0  0  0  0  0  0
 20 21  1  0  0  0
 21 14  1  0  0  0
 14 15  2  0  0  0
 15 16  1  0  0  0
 16 17  2  0  0  0
 17  5  1  0  0  0
  5  6  2  0  0  0
  6  7  1  0  0  0
  7  8  2  0  0  0
  8  9  1  0  0  0
  8 10  1  0  0  0
 10  1  1  0  0  0
  1  2  2  0  0  0
  1  3  1  0  0  0
  3 22  1  0  0  0
 22 23  2  0  0  0
 23 24  1  0  0  0
 24 25  2  0  0  0
 25 26  1  0  0  0
 26 27  2  0  0  0
 27 28  1  0  0  0
 28 29  1  0  0  0
 29 30  1  0  0  0
 30 31  1  0  0  0
 31 32  1  0  0  0
 31 33  1  0  0  0
 33 34  1  0  0  0
 10 11  2  0  0  0
 17 18  1  0  0  0
 18 19  2  0  0  0
 19 14  1  0  0  0
 11  5  1  0  0  0
 27 22  1  0  0  0
 34 28  1  0  0  0
  9 12  1  0  0  0
  9 13  1  0  0  0
  3  4  1  0  0  0
 32 35  1  0  0  0
 32 36  1  0  0  0
M  END
> <minimizedAffinity>
-7.19312

> <CNNscore>
0.3995406926

> <CNNaffinity>
6.8059082031

> <CNN_VS>
2.7192373276

> <CNNaffinity_variance>
0.1959502697

$$$$
[H]c1nc(N([H])[H])c(C(=O)N([H])c2c([H])nc([H])c([H])c2N2C([H])([H])C([H])([H])C([H])(N([H])[H])C([H])([H])C2([H])[H])nc1-c1c([H])c([H])c(OC([H])([H])[H])c([H])c1[H]


 36 39  0  0  0  0  0  0  0  0999 V2000
   -3.3364   22.2647  -24.8130 C   0  0  0  0  0  0  0  0  0  0  0  0
   -3.9611   21.2023  -24.9997 O   0  0  0  0  0  0  0  0  0  0  0  0
   -3.8659   23.5504  -24.6357 N   0  0  0  0  0  0  0  0  0  0  0  0
   -3.1377   24.3145  -24.4707 H   0  0  0  0  0  0  0  0  0  0  0  0
    0.0778   21.5770  -23.5160 C   0  0  0  0  0  0  0  0  0  0  0  0
    0.8263   21.7875  -24.6422 C   0  0  0  0  0  0  0  0  0  0  0  0
    0.2468   22.1511  -25.8271 N   0  0  0  0  0  0  0  0  0  0  0  0
   -1.0980   22.3072  -25.8924 C   0  0  0  0  0  0  0  0  0  0  0  0
   -1.7375   22.6856  -27.1151 N   0  0  0  0  0  0  0  0  0  0  0  0
   -1.8580   22.1018  -24.7821 C   0  0  0  0  0  0  0  0  0  0  0  0
   -1.2503   21.7408  -23.6178 N   0  0  0  0  0  0  0  0  0  0  0  0
   -2.0315   23.6675  -27.2908 H   0  0  0  0  0  0  0  0  0  0  0  0
   -1.9072   21.9715  -27.8282 H   0  0  0  0  0  0  0  0  0  0  0  0
    1.8583   20.4277  -19.8098 C   0  0  0  0  0  0  0  0  0  0  0  0
    0.5379   20.8021  -19.8451 C   0  0  0  0  0  0  0  0  0  0  0  0
   -0.0166   21.1689  -21.0466 C   0  0  0  0  0  0  0  0  0  0  0  0
    0.6528   21.1934  -22.2429 C   0  0  0  0  0  0  0  0  0  0  0  0
    1.9989   20.8058  -22.1739 C   0  0  0  0  0  0  0  0  0  0  0  0
    2.5925   20.4304  -20.9853 C   0  0  0  0  0  0  0  0  0  0  0  0
    1.7109   20.2645  -17.4085 C   0  0  0  0  0  0  0  0  0  0  0  0
    2.4186   20.0586  -18.6049 O   0  0  0  0  0  0  0  0  0  0  0  0
   -5.2166   23.9548  -24.6238 C   0  0  0  0  0  0  0  0  0  0  0  0
   -5.9522   24.0493  -23.4811 C   0  0  0  0  0  0  0  0  0  0  0  0
   -7.2257   24.4809  -23.4895 N   0  0  0  0  0  0  0  0  0  0  0  0
   -7.8390   24.8414  -24.6226 C   0  0  0  0  0  0  0  0  0  0  0  0
   -7.1496   24.7674  -25.8061 C   0  0  0  0  0  0  0  0  0  0  0  0
   -5.8287   24.3213  -25.8172 C   0  0  0  0  0  0  0  0  0  0  0  0
   -5.1433   24.2124  -27.0490 N   0  0  0  0  0  0  0  0  0  0  0  0
   -5.0968   23.0291  -27.8597 C   0  0  0  0  0  0  0  0  0  0  0  0
   -5.4366   23.3753  -29.2910 C   0  0  0  0  0  0  0  0  0  0  0  0
   -5.9971   24.7588  -29.3802 C   0  0  0  0  0  0  0  0  0  0  0  0
   -6.1999   25.1289  -30.7878 N   0  0  0  0  0  0  0  0  0  0  0  0
   -5.1123   25.8312  -28.8051 C   0  0  0  0  0  0  0  0  0  0  0  0
   -4.4314   25.3820  -27.5458 C   0  0  0  0  0  0  0  0  0  0  0  0
   -6.3517   26.1394  -30.8628 H   0  0  0  0  0  0  0  0  0  0  0  0
   -6.9317   24.5377  -31.2301 H   0  0  0  0  0  0  0  0  0  0  0  0
 20 21  1  0  0  0
 21 14  1  0  0  0
 14 15  2  0  0  0
 15 16  1  0  0  0
 16 17  2  0  0  0
 17  5  1  0  0  0
  5  6  2  0  0  0
  6  7  1  0  0  0
  7  8  2  0  0  0
  8  9  1  0  0  0
  8 10  1  0  0  0
 10  1  1  0  0  0
  1  2  2  0  0  0
  1  3  1  0  0  0
  3 22  1  0  0  0
 22 23  2  0  0  0
 23 24  1  0  0  0
 24 25  2  0  0  0
 25 26  1  0  0  0
 26 27  2  0  0  0
 27 28  1  0  0  0
 28 29  1  0  0  0
 29 30  1  0  0  0
 30 31  1  0  0  0
 31 32  1  0  0  0
 31 33  1  0  0  0
 33 34  1  0  0  0
 10 11  2  0  0  0
 17 18  1  0  0  0
 18 19  2  0  0  0
 19 14  1  0  0  0
 11  5  1  0  0  0
 27 22  1  0  0  0
 34 28  1  0  0  0
  9 12  1  0  0  0
  9 13  1  0  0  0
  3  4  1  0  0  0
 32 35  1  0  0  0
 32 36  1  0  0  0
M  END
> <minimizedAffinity>
-8.05481

> <CNNscore>
0.3239639997

> <CNNaffinity>
7.0674233437

> <CNN_VS>
2.2895908356

> <CNNaffinity_variance>
0.2025215328

$$$$
[H]c1nc(N([H])[H])c(C(=O)N([H])c2c([H])nc([H])c([H])c2N2C([H])([H])C([H])([H])C([H])(N([H])[H])C([H])([H])C2([H])[H])nc1-c1c([H])c([H])c(OC([H])([H])[H])c([H])c1[H]


 36 39  0  0  0  0  0  0  0  0999 V2000
   -0.2031   21.9912  -24.6672 C   0  0  0  0  0  0  0  0  0  0  0  0
    0.9417   21.7582  -25.1016 O   0  0  0  0  0  0  0  0  0  0  0  0
   -0.6610   21.8666  -23.3482 N   0  0  0  0  0  0  0  0  0  0  0  0
   -1.6829   22.1418  -23.2023 H   0  0  0  0  0  0  0  0  0  0  0  0
   -3.3077   23.3356  -26.2055 C   0  0  0  0  0  0  0  0  0  0  0  0
   -2.9683   23.3093  -27.5311 C   0  0  0  0  0  0  0  0  0  0  0  0
   -1.7436   22.8618  -27.9458 N   0  0  0  0  0  0  0  0  0  0  0  0
   -0.8429   22.4343  -27.0276 C   0  0  0  0  0  0  0  0  0  0  0  0
    0.4473   21.9608  -27.4256 N   0  0  0  0  0  0  0  0  0  0  0  0
   -1.1635   22.4535  -25.7050 C   0  0  0  0  0  0  0  0  0  0  0  0
   -2.3912   22.9048  -25.3249 N   0  0  0  0  0  0  0  0  0  0  0  0
    0.6539   20.9439  -27.4918 H   0  0  0  0  0  0  0  0  0  0  0  0
    1.1786   22.6411  -27.6485 H   0  0  0  0  0  0  0  0  0  0  0  0
   -7.1326   24.6111  -24.8023 C   0  0  0  0  0  0  0  0  0  0  0  0
   -6.1156   25.5238  -24.9348 C   0  0  0  0  0  0  0  0  0  0  0  0
   -4.8924   25.0941  -25.3873 C   0  0  0  0  0  0  0  0  0  0  0  0
   -4.5934   23.7996  -25.7261 C   0  0  0  0  0  0  0  0  0  0  0  0
   -5.6525   22.8918  -25.5800 C   0  0  0  0  0  0  0  0  0  0  0  0
   -6.8964   23.2849  -25.1283 C   0  0  0  0  0  0  0  0  0  0  0  0
   -8.6029   25.1487  -22.9681 C   0  0  0  0  0  0  0  0  0  0  0  0
   -8.3626   25.0389  -24.3484 O   0  0  0  0  0  0  0  0  0  0  0  0
    0.0496   21.4537  -22.2024 C   0  0  0  0  0  0  0  0  0  0  0  0
    1.2011   20.7287  -22.2655 C   0  0  0  0  0  0  0  0  0  0  0  0
    1.8859   20.3850  -21.1603 N   0  0  0  0  0  0  0  0  0  0  0  0
    1.4718   20.7378  -19.9380 C   0  0  0  0  0  0  0  0  0  0  0  0
    0.3180   21.4683  -19.8103 C   0  0  0  0  0  0  0  0  0  0  0  0
   -0.4059   21.8331  -20.9447 C   0  0  0  0  0  0  0  0  0  0  0  0
   -1.6142   22.5519  -20.7955 N   0  0  0  0  0  0  0  0  0  0  0  0
   -2.0188   23.6555  -21.6190 C   0  0  0  0  0  0  0  0  0  0  0  0
   -3.4376   23.4459  -22.0952 C   0  0  0  0  0  0  0  0  0  0  0  0
   -3.8850   22.0457  -21.8199 C   0  0  0  0  0  0  0  0  0  0  0  0
   -5.3046   21.8943  -22.1677 N   0  0  0  0  0  0  0  0  0  0  0  0
   -3.7760   21.6253  -20.3793 C   0  0  0  0  0  0  0  0  0  0  0  0
   -2.5271   22.1500  -19.7342 C   0  0  0  0  0  0  0  0  0  0  0  0
   -5.6704   21.0265  -21.7642 H   0  0  0  0  0  0  0  0  0  0  0  0
   -5.4547   22.0041  -23.1905 H   0  0  0  0  0  0  0  0  0  0  0  0
 20 21  1  0  0  0
 21 14  1  0  0  0
 14 15  2  0  0  0
 15 16  1  0  0  0
 16 17  2  0  0  0
 17  5  1  0  0  0
  5  6  2  0  0  0
  6  7  1  0  0  0
  7  8  2  0  0  0
  8  9  1  0  0  0
  8 10  1  0  0  0
 10  1  1  0  0  0
  1  2  2  0  0  0
  1  3  1  0  0  0
  3 22  1  0  0  0
 22 23  2  0  0  0
 23 24  1  0  0  0
 24 25  2  0  0  0
 25 26  1  0  0  0
 26 27  2  0  0  0
 27 28  1  0  0  0
 28 29  1  0  0  0
 29 30  1  0  0  0
 30 31  1  0  0  0
 31 32  1  0  0  0
 31 33  1  0  0  0
 33 34  1  0  0  0
 10 11  2  0  0  0
 17 18  1  0  0  0
 18 19  2  0  0  0
 19 14  1  0  0  0
 11  5  1  0  0  0
 27 22  1  0  0  0
 34 28  1  0  0  0
  9 12  1  0  0  0
  9 13  1  0  0  0
  3  4  1  0  0  0
 32 35  1  0  0  0
 32 36  1  0  0  0
M  END
> <minimizedAffinity>
-7.63344

> <CNNscore>
0.3104003668

> <CNNaffinity>
6.8253240585

> <CNN_VS>
2.1185832024

> <CNNaffinity_variance>
0.2270027101

$$$$
[H]c1nc(N([H])[H])c(C(=O)N([H])c2c([H])nc([H])c([H])c2N2C([H])([H])C([H])([H])C([H])(N([H])[H])C([H])([H])C2([H])[H])nc1-c1c([H])c([H])c(OC([H])([H])[H])c([H])c1[H]


 36 39  0  0  0  0  0  0  0  0999 V2000
   -2.5665   22.8979  -26.7560 C   0  0  0  0  0  0  0  0  0  0  0  0
   -2.3507   22.0884  -27.6789 O   0  0  0  0  0  0  0  0  0  0  0  0
   -3.3673   24.0478  -26.7944 N   0  0  0  0  0  0  0  0  0  0  0  0
   -3.4225   24.5847  -25.8725 H   0  0  0  0  0  0  0  0  0  0  0  0
   -2.0386   22.1748  -23.1490 C   0  0  0  0  0  0  0  0  0  0  0  0
   -0.6860   21.9675  -23.1251 C   0  0  0  0  0  0  0  0  0  0  0  0
    0.0702   22.0566  -24.2619 N   0  0  0  0  0  0  0  0  0  0  0  0
   -0.5286   22.3562  -25.4403 C   0  0  0  0  0  0  0  0  0  0  0  0
    0.2311   22.4566  -26.6486 N   0  0  0  0  0  0  0  0  0  0  0  0
   -1.8729   22.5655  -25.4826 C   0  0  0  0  0  0  0  0  0  0  0  0
   -2.5972   22.4695  -24.3331 N   0  0  0  0  0  0  0  0  0  0  0  0
    0.5159   23.3795  -27.0339 H   0  0  0  0  0  0  0  0  0  0  0  0
    0.4971   21.5994  -27.1403 H   0  0  0  0  0  0  0  0  0  0  0  0
   -4.5786   21.9143  -19.7275 C   0  0  0  0  0  0  0  0  0  0  0  0
   -3.2408   22.1772  -19.5654 C   0  0  0  0  0  0  0  0  0  0  0  0
   -2.4401   22.2566  -20.6780 C   0  0  0  0  0  0  0  0  0  0  0  0
   -2.8737   22.0918  -21.9682 C   0  0  0  0  0  0  0  0  0  0  0  0
   -4.2441   21.8247  -22.1005 C   0  0  0  0  0  0  0  0  0  0  0  0
   -5.0817   21.7371  -21.0066 C   0  0  0  0  0  0  0  0  0  0  0  0
   -5.8263   23.0077  -17.9774 C   0  0  0  0  0  0  0  0  0  0  0  0
   -5.3860   21.8339  -18.6123 O   0  0  0  0  0  0  0  0  0  0  0  0
   -4.1170   24.5658  -27.8705 C   0  0  0  0  0  0  0  0  0  0  0  0
   -3.7975   24.3366  -29.1748 C   0  0  0  0  0  0  0  0  0  0  0  0
   -4.5536   24.8035  -30.1841 N   0  0  0  0  0  0  0  0  0  0  0  0
   -5.6618   25.5189  -29.9605 C   0  0  0  0  0  0  0  0  0  0  0  0
   -6.0348   25.7830  -28.6672 C   0  0  0  0  0  0  0  0  0  0  0  0
   -5.2629   25.3080  -27.6077 C   0  0  0  0  0  0  0  0  0  0  0  0
   -5.6375   25.6216  -26.2810 N   0  0  0  0  0  0  0  0  0  0  0  0
   -6.3208   24.7286  -25.3891 C   0  0  0  0  0  0  0  0  0  0  0  0
   -5.6108   24.6942  -24.0555 C   0  0  0  0  0  0  0  0  0  0  0  0
   -4.2721   25.3537  -24.1535 C   0  0  0  0  0  0  0  0  0  0  0  0
   -3.6507   25.4290  -22.8241 N   0  0  0  0  0  0  0  0  0  0  0  0
   -4.3071   26.7690  -24.6628 C   0  0  0  0  0  0  0  0  0  0  0  0
   -5.3075   26.9439  -25.7672 C   0  0  0  0  0  0  0  0  0  0  0  0
   -2.8604   26.0807  -22.8466 H   0  0  0  0  0  0  0  0  0  0  0  0
   -3.4320   24.4813  -22.4572 H   0  0  0  0  0  0  0  0  0  0  0  0
 20 21  1  0  0  0
 21 14  1  0  0  0
 14 15  2  0  0  0
 15 16  1  0  0  0
 16 17  2  0  0  0
 17  5  1  0  0  0
  5  6  2  0  0  0
  6  7  1  0  0  0
  7  8  2  0  0  0
  8  9  1  0  0  0
  8 10  1  0  0  0
 10  1  1  0  0  0
  1  2  2  0  0  0
  1  3  1  0  0  0
  3 22  1  0  0  0
 22 23  2  0  0  0
 23 24  1  0  0  0
 24 25  2  0  0  0
 25 26  1  0  0  0
 26 27  2  0  0  0
 27 28  1  0  0  0
 28 29  1  0  0  0
 29 30  1  0  0  0
 30 31  1  0  0  0
 31 32  1  0  0  0
 31 33  1  0  0  0
 33 34  1  0  0  0
 10 11  2  0  0  0
 17 18  1  0  0  0
 18 19  2  0  0  0
 19 14  1  0  0  0
 11  5  1  0  0  0
 27 22  1  0  0  0
 34 28  1  0  0  0
  9 12  1  0  0  0
  9 13  1  0  0  0
  3  4  1  0  0  0
 32 35  1  0  0  0
 32 36  1  0  0  0
M  END
> <minimizedAffinity>
-7.78911

> <CNNscore>
0.2565194368

> <CNNaffinity>
6.9797577858

> <CNN_VS>
1.7904435396

> <CNNaffinity_variance>
0.0632421225

$$$$
[H]c1nc(N([H])[H])c(C(=O)N([H])c2c([H])nc([H])c([H])c2N2C([H])([H])C([H])([H])C([H])(N([H])[H])C([H])([H])C2([H])[H])nc1-c1c([H])c([H])c(OC([H])([H])[H])c([H])c1[H]


 36 39  0  0  0  0  0  0  0  0999 V2000
   -3.9634   23.3295  -25.3422 C   0  0  0  0  0  0  0  0  0  0  0  0
   -4.8631   22.6791  -25.9089 O   0  0  0  0  0  0  0  0  0  0  0  0
   -4.1124   24.3637  -24.4077 N   0  0  0  0  0  0  0  0  0  0  0  0
   -3.1949   24.7666  -24.0373 H   0  0  0  0  0  0  0  0  0  0  0  0
   -0.4633   22.1132  -25.0556 C   0  0  0  0  0  0  0  0  0  0  0  0
   -0.0616   22.1801  -26.3622 C   0  0  0  0  0  0  0  0  0  0  0  0
   -0.9059   22.6144  -27.3474 N   0  0  0  0  0  0  0  0  0  0  0  0
   -2.1691   22.9875  -27.0277 C   0  0  0  0  0  0  0  0  0  0  0  0
   -3.0789   23.4458  -28.0324 N   0  0  0  0  0  0  0  0  0  0  0  0
   -2.5856   22.9274  -25.7332 C   0  0  0  0  0  0  0  0  0  0  0  0
   -1.7205   22.4906  -24.7761 N   0  0  0  0  0  0  0  0  0  0  0  0
   -3.2595   24.4595  -28.1773 H   0  0  0  0  0  0  0  0  0  0  0  0
   -3.5596   22.7577  -28.6178 H   0  0  0  0  0  0  0  0  0  0  0  0
    2.0029   20.7833  -21.8345 C   0  0  0  0  0  0  0  0  0  0  0  0
    2.5557   20.9992  -23.0725 C   0  0  0  0  0  0  0  0  0  0  0  0
    1.7460   21.4264  -24.0960 C   0  0  0  0  0  0  0  0  0  0  0  0
    0.3999   21.6613  -23.9836 C   0  0  0  0  0  0  0  0  0  0  0  0
   -0.1346   21.4319  -22.7074 C   0  0  0  0  0  0  0  0  0  0  0  0
    0.6464   21.0023  -21.6532 C   0  0  0  0  0  0  0  0  0  0  0  0
    4.0817   20.9305  -20.6212 C   0  0  0  0  0  0  0  0  0  0  0  0
    2.8130   20.3544  -20.8041 O   0  0  0  0  0  0  0  0  0  0  0  0
   -5.2995   24.9160  -23.8842 C   0  0  0  0  0  0  0  0  0  0  0  0
   -5.9241   25.9921  -24.4388 C   0  0  0  0  0  0  0  0  0  0  0  0
   -7.0800   26.4734  -23.9485 N   0  0  0  0  0  0  0  0  0  0  0  0
   -7.6793   25.9197  -22.8881 C   0  0  0  0  0  0  0  0  0  0  0  0
   -7.0975   24.8333  -22.2859 C   0  0  0  0  0  0  0  0  0  0  0  0
   -5.8985   24.3209  -22.7797 C   0  0  0  0  0  0  0  0  0  0  0  0
   -5.2900   23.2255  -22.1248 N   0  0  0  0  0  0  0  0  0  0  0  0
   -4.0656   23.2931  -21.3792 C   0  0  0  0  0  0  0  0  0  0  0  0
   -4.2495   22.6338  -20.0318 C   0  0  0  0  0  0  0  0  0  0  0  0
   -5.6981   22.3774  -19.7634 C   0  0  0  0  0  0  0  0  0  0  0  0
   -5.8511   21.6206  -18.5132 N   0  0  0  0  0  0  0  0  0  0  0  0
   -6.3951   21.5601  -20.8169 C   0  0  0  0  0  0  0  0  0  0  0  0
   -5.9465   21.9275  -22.2008 C   0  0  0  0  0  0  0  0  0  0  0  0
   -6.8008   21.2413  -18.4508 H   0  0  0  0  0  0  0  0  0  0  0  0
   -5.5445   22.1823  -17.6940 H   0  0  0  0  0  0  0  0  0  0  0  0
 20 21  1  0  0  0
 21 14  1  0  0  0
 14 15  2  0  0  0
 15 16  1  0  0  0
 16 17  2  0  0  0
 17  5  1  0  0  0
  5  6  2  0  0  0
  6  7  1  0  0  0
  7  8  2  0  0  0
  8  9  1  0  0  0
  8 10  1  0  0  0
 10  1  1  0  0  0
  1  2  2  0  0  0
  1  3  1  0  0  0
  3 22  1  0  0  0
 22 23  2  0  0  0
 23 24  1  0  0  0
 24 25  2  0  0  0
 25 26  1  0  0  0
 26 27  2  0  0  0
 27 28  1  0  0  0
 28 29  1  0  0  0
 29 30  1  0  0  0
 30 31  1  0  0  0
 31 32  1  0  0  0
 31 33  1  0  0  0
 33 34  1  0  0  0
 10 11  2  0  0  0
 17 18  1  0  0  0
 18 19  2  0  0  0
 19 14  1  0  0  0
 11  5  1  0  0  0
 27 22  1  0  0  0
 34 28  1  0  0  0
  9 12  1  0  0  0
  9 13  1  0  0  0
  3  4  1  0  0  0
 32 35  1  0  0  0
 32 36  1  0  0  0
M  END
> <minimizedAffinity>
-7.87710

> <CNNscore>
0.2473932952

> <CNNaffinity>
6.7090964317

> <CNN_VS>
1.6597855091

> <CNNaffinity_variance>
0.2826587558

$$$$
[H]c1nc(N([H])[H])c(C(=O)N([H])c2c([H])nc([H])c([H])c2N2C([H])([H])C([H])([H])C([H])(N([H])[H])C([H])([H])C2([H])[H])nc1-c1c([H])c([H])c(OC([H])([H])[H])c([H])c1[H]


 36 39  0  0  0  0  0  0  0  0999 V2000
    1.2347   20.6175  -20.2861 C   0  0  0  0  0  0  0  0  0  0  0  0
    1.3160   19.3997  -20.0332 O   0  0  0  0  0  0  0  0  0  0  0  0
    0.9851   21.6644  -19.3880 N   0  0  0  0  0  0  0  0  0  0  0  0
    0.9788   22.6381  -19.8277 H   0  0  0  0  0  0  0  0  0  0  0  0
    0.4517   21.5488  -23.7977 C   0  0  0  0  0  0  0  0  0  0  0  0
    1.7072   21.5722  -24.3420 C   0  0  0  0  0  0  0  0  0  0  0  0
    2.8161   21.2907  -23.5916 N   0  0  0  0  0  0  0  0  0  0  0  0
    2.6736   20.9816  -22.2797 C   0  0  0  0  0  0  0  0  0  0  0  0
    3.8113   20.6828  -21.4651 N   0  0  0  0  0  0  0  0  0  0  0  0
    1.4325   20.9537  -21.7217 C   0  0  0  0  0  0  0  0  0  0  0  0
    0.3488   21.2387  -22.4961 N   0  0  0  0  0  0  0  0  0  0  0  0
    4.0738   19.7019  -21.2408 H   0  0  0  0  0  0  0  0  0  0  0  0
    4.3750   21.4539  -21.0977 H   0  0  0  0  0  0  0  0  0  0  0  0
   -3.0240   22.4251  -26.1167 C   0  0  0  0  0  0  0  0  0  0  0  0
   -3.1576   22.0488  -24.8031 C   0  0  0  0  0  0  0  0  0  0  0  0
   -2.0278   21.7706  -24.0739 C   0  0  0  0  0  0  0  0  0  0  0  0
   -0.7468   21.8385  -24.5580 C   0  0  0  0  0  0  0  0  0  0  0  0
   -0.6438   22.2257  -25.9021 C   0  0  0  0  0  0  0  0  0  0  0  0
   -1.7556   22.5135  -26.6681 C   0  0  0  0  0  0  0  0  0  0  0  0
   -5.0408   23.7106  -26.4252 C   0  0  0  0  0  0  0  0  0  0  0  0
   -4.1564   22.7054  -26.8523 O   0  0  0  0  0  0  0  0  0  0  0  0
    0.7681   21.6007  -17.9962 C   0  0  0  0  0  0  0  0  0  0  0  0
   -0.3110   20.9811  -17.4417 C   0  0  0  0  0  0  0  0  0  0  0  0
   -0.4733   20.8937  -16.1097 N   0  0  0  0  0  0  0  0  0  0  0  0
    0.4181   21.4113  -15.2568 C   0  0  0  0  0  0  0  0  0  0  0  0
    1.5257   22.0483  -15.7557 C   0  0  0  0  0  0  0  0  0  0  0  0
    1.7105   22.1496  -17.1339 C   0  0  0  0  0  0  0  0  0  0  0  0
    2.8364   22.8435  -17.6339 N   0  0  0  0  0  0  0  0  0  0  0  0
    2.8835   24.2553  -17.8871 C   0  0  0  0  0  0  0  0  0  0  0  0
    4.1237   24.8472  -17.2583 C   0  0  0  0  0  0  0  0  0  0  0  0
    4.7639   23.8655  -16.3293 C   0  0  0  0  0  0  0  0  0  0  0  0
    6.0355   24.4044  -15.8275 N   0  0  0  0  0  0  0  0  0  0  0  0
    5.1069   22.5417  -16.9566 C   0  0  0  0  0  0  0  0  0  0  0  0
    4.0460   22.0816  -17.9126 C   0  0  0  0  0  0  0  0  0  0  0  0
    6.5825   23.6554  -15.3922 H   0  0  0  0  0  0  0  0  0  0  0  0
    5.8797   25.2418  -15.2316 H   0  0  0  0  0  0  0  0  0  0  0  0
 20 21  1  0  0  0
 21 14  1  0  0  0
 14 15  2  0  0  0
 15 16  1  0  0  0
 16 17  2  0  0  0
 17  5  1  0  0  0
  5  6  2  0  0  0
  6  7  1  0  0  0
  7  8  2  0  0  0
  8  9  1  0  0  0
  8 10  1  0  0  0
 10  1  1  0  0  0
  1  2  2  0  0  0
  1  3  1  0  0  0
  3 22  1  0  0  0
 22 23  2  0  0  0
 23 24  1  0  0  0
 24 25  2  0  0  0
 25 26  1  0  0  0
 26 27  2  0  0  0
 27 28  1  0  0  0
 28 29  1  0  0  0
 29 30  1  0  0  0
 30 31  1  0  0  0
 31 32  1  0  0  0
 31 33  1  0  0  0
 33 34  1  0  0  0
 10 11  2  0  0  0
 17 18  1  0  0  0
 18 19  2  0  0  0
 19 14  1  0  0  0
 11  5  1  0  0  0
 27 22  1  0  0  0
 34 28  1  0  0  0
  9 12  1  0  0  0
  9 13  1  0  0  0
  3  4  1  0  0  0
 32 35  1  0  0  0
 32 36  1  0  0  0
M  END
> <minimizedAffinity>
-7.12642

> <CNNscore>
0.1358727813

> <CNNaffinity>
5.6276650429

> <CNN_VS>
0.7646465302

> <CNNaffinity_variance>
0.1168054119

$$$$
[H]c1c([H])c(N([H])C(=O)N([H])[C@]([H])(C(=O)N([H])[C@]([H])(C(=O)N([H])[H])C([H])([H])C([H])([H])C([H])([H])[H])C([H])([H])C([H])(C([H])([H])[H])C([H])([H])[H])c([H])c([H])c1Br


 31 31  0  0  0  0  0  0  0  0999 V2000
   -5.0252   23.4341  -27.3241 C   0  0  0  0  0  0  0  0  0  0  0  0
   -5.8843   24.4112  -26.6660 N   0  0  0  0  0  0  0  0  0  0  0  0
   -6.5538   24.0569  -25.4718 C   0  0  0  0  0  0  0  0  0  0  0  0
   -6.4084   22.8928  -24.9739 O   0  0  0  0  0  0  0  0  0  0  0  0
   -7.3822   24.9752  -24.8217 N   0  0  0  0  0  0  0  0  0  0  0  0
   -5.9929   25.3357  -27.0722 H   0  0  0  0  0  0  0  0  0  0  0  0
   -7.4559   25.9282  -25.3089 H   0  0  0  0  0  0  0  0  0  0  0  0
   -8.1140   24.8074  -23.6251 C   0  0  0  0  0  0  0  0  0  0  0  0
   -7.7225   24.0728  -22.5397 C   0  0  0  0  0  0  0  0  0  0  0  0
   -8.5284   23.9434  -21.3938 C   0  0  0  0  0  0  0  0  0  0  0  0
   -9.7540   24.5540  -21.3120 C   0  0  0  0  0  0  0  0  0  0  0  0
  -10.8481   24.3769  -19.7538 Br  0  0  0  0  0  0  0  0  0  0  0  0
  -10.1597   25.2942  -22.3925 C   0  0  0  0  0  0  0  0  0  0  0  0
   -9.3737   25.4209  -23.5117 C   0  0  0  0  0  0  0  0  0  0  0  0
   -2.5995   22.8044  -27.2483 N   0  0  0  0  0  0  0  0  0  0  0  0
   -3.6696   23.6609  -26.8231 C   0  0  0  0  0  0  0  0  0  0  0  0
   -3.4313   24.6082  -26.0028 O   0  0  0  0  0  0  0  0  0  0  0  0
   -2.8279   22.0504  -27.9247 H   0  0  0  0  0  0  0  0  0  0  0  0
   -1.2534   22.9852  -26.7522 C   0  0  0  0  0  0  0  0  0  0  0  0
   -0.2921   22.8408  -27.8721 C   0  0  0  0  0  0  0  0  0  0  0  0
   -0.6161   23.4203  -29.1465 N   0  0  0  0  0  0  0  0  0  0  0  0
    0.7909   22.2452  -27.7871 O   0  0  0  0  0  0  0  0  0  0  0  0
   -1.6172   23.5303  -29.3783 H   0  0  0  0  0  0  0  0  0  0  0  0
    0.1229   23.7236  -29.8231 H   0  0  0  0  0  0  0  0  0  0  0  0
   -0.9355   21.9596  -25.7062 C   0  0  0  0  0  0  0  0  0  0  0  0
   -0.7792   21.3864  -23.2377 C   0  0  0  0  0  0  0  0  0  0  0  0
   -1.3647   22.2068  -24.3226 C   0  0  0  0  0  0  0  0  0  0  0  0
   -5.2513   23.4019  -28.7782 C   0  0  0  0  0  0  0  0  0  0  0  0
   -5.3942   24.6353  -29.5530 C   0  0  0  0  0  0  0  0  0  0  0  0
   -5.8502   24.2489  -30.9941 C   0  0  0  0  0  0  0  0  0  0  0  0
   -4.1373   25.4235  -29.7952 C   0  0  0  0  0  0  0  0  0  0  0  0
 26 27  1  0  0  0
 27 25  1  0  0  0
 25 19  1  0  0  0
 19 15  1  0  0  0
 15 16  1  0  0  0
 16 17  2  0  0  0
 16  1  1  0  0  0
  1 28  1  0  0  0
 28 29  1  0  0  0
 29 30  1  0  0  0
 29 31  1  0  0  0
  1  2  1  0  0  0
  2  3  1  0  0  0
  3  4  2  0  0  0
  3  5  1  0  0  0
  5  8  1  0  0  0
  8  9  2  0  0  0
  9 10  1  0  0  0
 10 11  2  0  0  0
 11 12  1  0  0  0
 11 13  1  0  0  0
 13 14  2  0  0  0
 19 20  1  0  0  0
 20 21  1  0  0  0
 20 22  2  0  0  0
 14  8  1  0  0  0
 15 18  1  0  0  0
  2  6  1  0  0  0
  5  7  1  0  0  0
 21 23  1  0  0  0
 21 24  1  0  0  0
M  END
> <minimizedAffinity>
-7.38985

> <CNNscore>
0.3981491327

> <CNNaffinity>
6.4191575050

> <CNN_VS>
2.5557820797

> <CNNaffinity_variance>
0.0796501413

$$$$
[H]c1c([H])c(N([H])C(=O)N([H])[C@]([H])(C(=O)N([H])[C@]([H])(C(=O)N([H])[H])C([H])([H])C([H])([H])C([H])([H])[H])C([H])([H])C([H])(C([H])([H])[H])C([H])([H])[H])c([H])c([H])c1Br


 31 31  0  0  0  0  0  0  0  0999 V2000
   -5.1546   23.1324  -26.3200 C   0  0  0  0  0  0  0  0  0  0  0  0
   -5.8696   23.5831  -25.1319 N   0  0  0  0  0  0  0  0  0  0  0  0
   -6.0419   22.6954  -24.0446 C   0  0  0  0  0  0  0  0  0  0  0  0
   -5.5765   21.5103  -24.1017 O   0  0  0  0  0  0  0  0  0  0  0  0
   -6.7228   23.1031  -22.8947 N   0  0  0  0  0  0  0  0  0  0  0  0
   -6.2364   24.5296  -25.0978 H   0  0  0  0  0  0  0  0  0  0  0  0
   -7.0882   24.1112  -22.9299 H   0  0  0  0  0  0  0  0  0  0  0  0
   -6.9783   22.3682  -21.7157 C   0  0  0  0  0  0  0  0  0  0  0  0
   -6.0356   21.8196  -20.8902 C   0  0  0  0  0  0  0  0  0  0  0  0
   -6.3832   21.0823  -19.7436 C   0  0  0  0  0  0  0  0  0  0  0  0
   -7.6949   20.8788  -19.3979 C   0  0  0  0  0  0  0  0  0  0  0  0
   -8.1657   19.8762  -17.8391 Br  0  0  0  0  0  0  0  0  0  0  0  0
   -8.6513   21.4232  -20.2159 C   0  0  0  0  0  0  0  0  0  0  0  0
   -8.3127   22.1430  -21.3357 C   0  0  0  0  0  0  0  0  0  0  0  0
   -2.7212   22.5367  -26.4204 N   0  0  0  0  0  0  0  0  0  0  0  0
   -3.7500   23.4935  -26.1278 C   0  0  0  0  0  0  0  0  0  0  0  0
   -3.4311   24.6493  -25.6926 O   0  0  0  0  0  0  0  0  0  0  0  0
   -3.0168   21.6097  -26.7830 H   0  0  0  0  0  0  0  0  0  0  0  0
   -1.3250   22.8527  -26.2171 C   0  0  0  0  0  0  0  0  0  0  0  0
   -0.6164   22.8142  -27.5193 C   0  0  0  0  0  0  0  0  0  0  0  0
   -1.3321   23.1751  -28.7119 N   0  0  0  0  0  0  0  0  0  0  0  0
    0.5707   22.4870  -27.6561 O   0  0  0  0  0  0  0  0  0  0  0  0
   -2.3560   23.0349  -28.7129 H   0  0  0  0  0  0  0  0  0  0  0  0
   -0.8479   23.5658  -29.5538 H   0  0  0  0  0  0  0  0  0  0  0  0
   -0.6898   21.8597  -25.2910 C   0  0  0  0  0  0  0  0  0  0  0  0
   -1.2619   23.0479  -23.1213 C   0  0  0  0  0  0  0  0  0  0  0  0
   -1.1586   21.7925  -23.8998 C   0  0  0  0  0  0  0  0  0  0  0  0
   -5.8350   23.5504  -27.5565 C   0  0  0  0  0  0  0  0  0  0  0  0
   -5.0862   23.8023  -28.7885 C   0  0  0  0  0  0  0  0  0  0  0  0
   -5.6987   25.0620  -29.4756 C   0  0  0  0  0  0  0  0  0  0  0  0
   -5.1841   22.7512  -29.8586 C   0  0  0  0  0  0  0  0  0  0  0  0
 26 27  1  0  0  0
 27 25  1  0  0  0
 25 19  1  0  0  0
 19 15  1  0  0  0
 15 16  1  0  0  0
 16 17  2  0  0  0
 16  1  1  0  0  0
  1 28  1  0  0  0
 28 29  1  0  0  0
 29 30  1  0  0  0
 29 31  1  0  0  0
  1  2  1  0  0  0
  2  3  1  0  0  0
  3  4  2  0  0  0
  3  5  1  0  0  0
  5  8  1  0  0  0
  8  9  2  0  0  0
  9 10  1  0  0  0
 10 11  2  0  0  0
 11 12  1  0  0  0
 11 13  1  0  0  0
 13 14  2  0  0  0
 19 20  1  0  0  0
 20 21  1  0  0  0
 20 22  2  0  0  0
 14  8  1  0  0  0
 15 18  1  0  0  0
  2  6  1  0  0  0
  5  7  1  0  0  0
 21 23  1  0  0  0
 21 24  1  0  0  0
M  END
> <minimizedAffinity>
-6.59618

> <CNNscore>
0.3873244822

> <CNNaffinity>
6.2400083542

> <CNN_VS>
2.4169080257

> <CNNaffinity_variance>
0.0327367336

$$$$
[H]c1c([H])c(N([H])C(=O)N([H])[C@]([H])(C(=O)N([H])[C@]([H])(C(=O)N([H])[H])C([H])([H])C([H])([H])C([H])([H])[H])C([H])([H])C([H])(C([H])([H])[H])C([H])([H])[H])c([H])c([H])c1Br


 31 31  0  0  0  0  0  0  0  0999 V2000
   -4.1513   23.6370  -24.2778 C   0  0  0  0  0  0  0  0  0  0  0  0
   -3.8282   23.1637  -22.9372 N   0  0  0  0  0  0  0  0  0  0  0  0
   -4.8423   23.1162  -21.9526 C   0  0  0  0  0  0  0  0  0  0  0  0
   -6.0296   23.4843  -22.2337 O   0  0  0  0  0  0  0  0  0  0  0  0
   -4.5585   22.6662  -20.6606 N   0  0  0  0  0  0  0  0  0  0  0  0
   -2.8785   22.8732  -22.7245 H   0  0  0  0  0  0  0  0  0  0  0  0
   -3.5358   22.3822  -20.5048 H   0  0  0  0  0  0  0  0  0  0  0  0
   -5.4356   22.5374  -19.5608 C   0  0  0  0  0  0  0  0  0  0  0  0
   -5.7343   23.5151  -18.6520 C   0  0  0  0  0  0  0  0  0  0  0  0
   -6.6064   23.2907  -17.5711 C   0  0  0  0  0  0  0  0  0  0  0  0
   -7.2027   22.0706  -17.3782 C   0  0  0  0  0  0  0  0  0  0  0  0
   -8.3877   21.7671  -15.9084 Br  0  0  0  0  0  0  0  0  0  0  0  0
   -6.9131   21.0806  -18.2816 C   0  0  0  0  0  0  0  0  0  0  0  0
   -6.0615   21.2988  -19.3370 C   0  0  0  0  0  0  0  0  0  0  0  0
   -2.4141   23.3614  -26.0646 N   0  0  0  0  0  0  0  0  0  0  0  0
   -3.4156   22.7859  -25.2130 C   0  0  0  0  0  0  0  0  0  0  0  0
   -3.6633   21.5367  -25.2857 O   0  0  0  0  0  0  0  0  0  0  0  0
   -2.2314   24.3793  -25.9709 H   0  0  0  0  0  0  0  0  0  0  0  0
   -1.6871   22.5531  -27.0179 C   0  0  0  0  0  0  0  0  0  0  0  0
   -0.2318   22.7853  -26.8523 C   0  0  0  0  0  0  0  0  0  0  0  0
    0.3962   22.4112  -25.6152 N   0  0  0  0  0  0  0  0  0  0  0  0
    0.4958   23.2882  -27.7199 O   0  0  0  0  0  0  0  0  0  0  0  0
   -0.1929   22.4029  -24.7662 H   0  0  0  0  0  0  0  0  0  0  0  0
    1.4098   22.1549  -25.5617 H   0  0  0  0  0  0  0  0  0  0  0  0
   -2.0781   22.9126  -28.4197 C   0  0  0  0  0  0  0  0  0  0  0  0
   -4.5460   23.0142  -29.0076 C   0  0  0  0  0  0  0  0  0  0  0  0
   -3.2946   23.7100  -28.6302 C   0  0  0  0  0  0  0  0  0  0  0  0
   -4.0158   25.0986  -24.3868 C   0  0  0  0  0  0  0  0  0  0  0  0
   -4.9474   25.8906  -25.1910 C   0  0  0  0  0  0  0  0  0  0  0  0
   -4.3324   27.3119  -25.3805 C   0  0  0  0  0  0  0  0  0  0  0  0
   -6.2867   26.1805  -24.5730 C   0  0  0  0  0  0  0  0  0  0  0  0
 26 27  1  0  0  0
 27 25  1  0  0  0
 25 19  1  0  0  0
 19 15  1  0  0  0
 15 16  1  0  0  0
 16 17  2  0  0  0
 16  1  1  0  0  0
  1 28  1  0  0  0
 28 29  1  0  0  0
 29 30  1  0  0  0
 29 31  1  0  0  0
  1  2  1  0  0  0
  2  3  1  0  0  0
  3  4  2  0  0  0
  3  5  1  0  0  0
  5  8  1  0  0  0
  8  9  2  0  0  0
  9 10  1  0  0  0
 10 11  2  0  0  0
 11 12  1  0  0  0
 11 13  1  0  0  0
 13 14  2  0  0  0
 19 20  1  0  0  0
 20 21  1  0  0  0
 20 22  2  0  0  0
 14  8  1  0  0  0
 15 18  1  0  0  0
  2  6  1  0  0  0
  5  7  1  0  0  0
 21 23  1  0  0  0
 21 24  1  0  0  0
M  END
> <minimizedAffinity>
-6.19004

> <CNNscore>
0.3725278974

> <CNNaffinity>
5.7426867485

> <CNN_VS>
2.1393110752

> <CNNaffinity_variance>
0.0297592431

$$$$
[H]c1c([H])c(N([H])C(=O)N([H])[C@]([H])(C(=O)N([H])[C@]([H])(C(=O)N([H])[H])C([H])([H])C([H])([H])C([H])([H])[H])C([H])([H])C([H])(C([H])([H])[H])C([H])([H])[H])c([H])c([H])c1Br


 31 31  0  0  0  0  0  0  0  0999 V2000
   -3.7860   23.7188  -24.0633 C   0  0  0  0  0  0  0  0  0  0  0  0
   -2.6150   23.9083  -23.2156 N   0  0  0  0  0  0  0  0  0  0  0  0
   -2.4225   23.0659  -22.0961 C   0  0  0  0  0  0  0  0  0  0  0  0
   -3.2653   22.1481  -21.8291 O   0  0  0  0  0  0  0  0  0  0  0  0
   -1.3083   23.2268  -21.2685 N   0  0  0  0  0  0  0  0  0  0  0  0
   -1.9502   24.6432  -23.4379 H   0  0  0  0  0  0  0  0  0  0  0  0
   -0.6525   24.0249  -21.5580 H   0  0  0  0  0  0  0  0  0  0  0  0
   -0.9454   22.4799  -20.1256 C   0  0  0  0  0  0  0  0  0  0  0  0
   -1.2590   22.7888  -18.8305 C   0  0  0  0  0  0  0  0  0  0  0  0
   -0.8357   21.9953  -17.7486 C   0  0  0  0  0  0  0  0  0  0  0  0
   -0.0832   20.8655  -17.9451 C   0  0  0  0  0  0  0  0  0  0  0  0
    0.4915   19.7882  -16.4735 Br  0  0  0  0  0  0  0  0  0  0  0  0
    0.2386   20.5429  -19.2384 C   0  0  0  0  0  0  0  0  0  0  0  0
   -0.1740   21.3171  -20.2952 C   0  0  0  0  0  0  0  0  0  0  0  0
   -2.1916   23.3423  -25.9614 N   0  0  0  0  0  0  0  0  0  0  0  0
   -3.3477   22.9324  -25.2164 C   0  0  0  0  0  0  0  0  0  0  0  0
   -3.9903   21.8896  -25.5724 O   0  0  0  0  0  0  0  0  0  0  0  0
   -1.6870   24.1897  -25.6368 H   0  0  0  0  0  0  0  0  0  0  0  0
   -1.7471   22.6022  -27.1213 C   0  0  0  0  0  0  0  0  0  0  0  0
   -0.2661   22.6378  -27.1905 C   0  0  0  0  0  0  0  0  0  0  0  0
    0.4935   22.3065  -26.0166 N   0  0  0  0  0  0  0  0  0  0  0  0
    0.3760   22.9382  -28.2065 O   0  0  0  0  0  0  0  0  0  0  0  0
    0.0472   22.4708  -25.0991 H   0  0  0  0  0  0  0  0  0  0  0  0
    1.4621   21.9134  -26.0740 H   0  0  0  0  0  0  0  0  0  0  0  0
   -2.3047   23.2043  -28.3757 C   0  0  0  0  0  0  0  0  0  0  0  0
   -4.7816   23.5159  -28.8392 C   0  0  0  0  0  0  0  0  0  0  0  0
   -3.5657   22.6738  -28.9126 C   0  0  0  0  0  0  0  0  0  0  0  0
   -4.5018   24.9840  -24.2943 C   0  0  0  0  0  0  0  0  0  0  0  0
   -4.9630   25.3637  -25.6304 C   0  0  0  0  0  0  0  0  0  0  0  0
   -4.7611   26.9024  -25.7906 C   0  0  0  0  0  0  0  0  0  0  0  0
   -6.4290   25.1834  -25.9093 C   0  0  0  0  0  0  0  0  0  0  0  0
 26 27  1  0  0  0
 27 25  1  0  0  0
 25 19  1  0  0  0
 19 15  1  0  0  0
 15 16  1  0  0  0
 16 17  2  0  0  0
 16  1  1  0  0  0
  1 28  1  0  0  0
 28 29  1  0  0  0
 29 30  1  0  0  0
 29 31  1  0  0  0
  1  2  1  0  0  0
  2  3  1  0  0  0
  3  4  2  0  0  0
  3  5  1  0  0  0
  5  8  1  0  0  0
  8  9  2  0  0  0
  9 10  1  0  0  0
 10 11  2  0  0  0
 11 12  1  0  0  0
 11 13  1  0  0  0
 13 14  2  0  0  0
 19 20  1  0  0  0
 20 21  1  0  0  0
 20 22  2  0  0  0
 14  8  1  0  0  0
 15 18  1  0  0  0
  2  6  1  0  0  0
  5  7  1  0  0  0
 21 23  1  0  0  0
 21 24  1  0  0  0
M  END
> <minimizedAffinity>
-6.14300

> <CNNscore>
0.3376710713

> <CNNaffinity>
5.8955831528

> <CNN_VS>
1.9907678366

> <CNNaffinity_variance>
0.0969393104

$$$$
[H]c1c([H])c(N([H])C(=O)N([H])[C@]([H])(C(=O)N([H])[C@]([H])(C(=O)N([H])[H])C([H])([H])C([H])([H])C([H])([H])[H])C([H])([H])C([H])(C([H])([H])[H])C([H])([H])[H])c([H])c([H])c1Br


 31 31  0  0  0  0  0  0  0  0999 V2000
   -5.2573   24.7893  -27.0835 C   0  0  0  0  0  0  0  0  0  0  0  0
   -4.3184   23.6740  -27.1044 N   0  0  0  0  0  0  0  0  0  0  0  0
   -3.4128   23.5064  -26.0310 C   0  0  0  0  0  0  0  0  0  0  0  0
   -3.4163   24.3232  -25.0529 O   0  0  0  0  0  0  0  0  0  0  0  0
   -2.5036   22.4455  -26.0270 N   0  0  0  0  0  0  0  0  0  0  0  0
   -4.3245   23.0296  -27.8893 H   0  0  0  0  0  0  0  0  0  0  0  0
   -2.5611   21.8091  -26.8888 H   0  0  0  0  0  0  0  0  0  0  0  0
   -1.5429   22.1132  -25.0461 C   0  0  0  0  0  0  0  0  0  0  0  0
   -0.1851   22.1888  -25.1926 C   0  0  0  0  0  0  0  0  0  0  0  0
    0.7002   21.8155  -24.1648 C   0  0  0  0  0  0  0  0  0  0  0  0
    0.2378   21.3554  -22.9582 C   0  0  0  0  0  0  0  0  0  0  0  0
    1.4424   20.8484  -21.5624 Br  0  0  0  0  0  0  0  0  0  0  0  0
   -1.1215   21.2746  -22.7965 C   0  0  0  0  0  0  0  0  0  0  0  0
   -1.9865   21.6385  -23.7995 C   0  0  0  0  0  0  0  0  0  0  0  0
   -6.3777   24.6768  -24.8433 N   0  0  0  0  0  0  0  0  0  0  0  0
   -6.3834   24.3755  -26.2464 C   0  0  0  0  0  0  0  0  0  0  0  0
   -7.3674   23.7397  -26.7510 O   0  0  0  0  0  0  0  0  0  0  0  0
   -5.5658   25.2049  -24.4690 H   0  0  0  0  0  0  0  0  0  0  0  0
   -7.4626   24.2596  -23.9834 C   0  0  0  0  0  0  0  0  0  0  0  0
   -8.0813   25.4528  -23.3568 C   0  0  0  0  0  0  0  0  0  0  0  0
   -9.5113   25.5916  -23.3859 N   0  0  0  0  0  0  0  0  0  0  0  0
   -7.4425   26.3562  -22.7992 O   0  0  0  0  0  0  0  0  0  0  0  0
  -10.0178   25.1341  -24.1620 H   0  0  0  0  0  0  0  0  0  0  0  0
  -10.0322   26.1320  -22.6562 H   0  0  0  0  0  0  0  0  0  0  0  0
   -6.9585   23.3518  -22.9023 C   0  0  0  0  0  0  0  0  0  0  0  0
   -6.0133   21.3150  -24.0874 C   0  0  0  0  0  0  0  0  0  0  0  0
   -5.8134   22.4776  -23.1923 C   0  0  0  0  0  0  0  0  0  0  0  0
   -5.5259   25.3005  -28.4374 C   0  0  0  0  0  0  0  0  0  0  0  0
   -4.8525   24.7394  -29.6095 C   0  0  0  0  0  0  0  0  0  0  0  0
   -3.7939   25.7757  -30.0989 C   0  0  0  0  0  0  0  0  0  0  0  0
   -5.7027   24.5212  -30.8298 C   0  0  0  0  0  0  0  0  0  0  0  0
 26 27  1  0  0  0
 27 25  1  0  0  0
 25 19  1  0  0  0
 19 15  1  0  0  0
 15 16  1  0  0  0
 16 17  2  0  0  0
 16  1  1  0  0  0
  1 28  1  0  0  0
 28 29  1  0  0  0
 29 30  1  0  0  0
 29 31  1  0  0  0
  1  2  1  0  0  0
  2  3  1  0  0  0
  3  4  2  0  0  0
  3  5  1  0  0  0
  5  8  1  0  0  0
  8  9  2  0  0  0
  9 10  1  0  0  0
 10 11  2  0  0  0
 11 12  1  0  0  0
 11 13  1  0  0  0
 13 14  2  0  0  0
 19 20  1  0  0  0
 20 21  1  0  0  0
 20 22  2  0  0  0
 14  8  1  0  0  0
 15 18  1  0  0  0
  2  6  1  0  0  0
  5  7  1  0  0  0
 21 23  1  0  0  0
 21 24  1  0  0  0
M  END
> <minimizedAffinity>
-7.54002

> <CNNscore>
0.3066163957

> <CNNaffinity>
6.3321523666

> <CNN_VS>
1.9415417910

> <CNNaffinity_variance>
0.1082196385

$$$$
[H]c1c([H])c(N([H])C(=O)N([H])[C@]([H])(C(=O)N([H])[C@]([H])(C(=O)N([H])[H])C([H])([H])C([H])([H])C([H])([H])[H])C([H])([H])C([H])(C([H])([H])[H])C([H])([H])[H])c([H])c([H])c1Br


 31 31  0  0  0  0  0  0  0  0999 V2000
   -2.8283   22.2141  -24.7776 C   0  0  0  0  0  0  0  0  0  0  0  0
   -2.2846   21.4306  -23.6747 N   0  0  0  0  0  0  0  0  0  0  0  0
   -1.4483   22.0572  -22.7217 C   0  0  0  0  0  0  0  0  0  0  0  0
   -1.1711   23.2967  -22.8252 O   0  0  0  0  0  0  0  0  0  0  0  0
   -0.9151   21.3285  -21.6555 N   0  0  0  0  0  0  0  0  0  0  0  0
   -2.5120   20.4434  -23.6026 H   0  0  0  0  0  0  0  0  0  0  0  0
   -1.1908   20.2918  -21.6451 H   0  0  0  0  0  0  0  0  0  0  0  0
   -0.0802   21.7815  -20.6098 C   0  0  0  0  0  0  0  0  0  0  0  0
   -0.4064   22.7206  -19.6702 C   0  0  0  0  0  0  0  0  0  0  0  0
    0.4993   23.1279  -18.6737 C   0  0  0  0  0  0  0  0  0  0  0  0
    1.7616   22.5966  -18.5980 C   0  0  0  0  0  0  0  0  0  0  0  0
    2.9915   23.1514  -17.2430 Br  0  0  0  0  0  0  0  0  0  0  0  0
    2.1028   21.6536  -19.5331 C   0  0  0  0  0  0  0  0  0  0  0  0
    1.2192   21.2556  -20.5065 C   0  0  0  0  0  0  0  0  0  0  0  0
   -5.0572   23.3622  -24.7899 N   0  0  0  0  0  0  0  0  0  0  0  0
   -4.2850   22.1603  -24.6538 C   0  0  0  0  0  0  0  0  0  0  0  0
   -4.8753   21.0549  -24.4157 O   0  0  0  0  0  0  0  0  0  0  0  0
   -4.5445   24.2418  -24.9939 H   0  0  0  0  0  0  0  0  0  0  0  0
   -6.4960   23.3480  -24.6475 C   0  0  0  0  0  0  0  0  0  0  0  0
   -7.1172   23.9269  -25.8634 C   0  0  0  0  0  0  0  0  0  0  0  0
   -8.1691   24.8944  -25.7141 N   0  0  0  0  0  0  0  0  0  0  0  0
   -6.7886   23.6312  -27.0208 O   0  0  0  0  0  0  0  0  0  0  0  0
   -8.7397   24.8477  -24.8537 H   0  0  0  0  0  0  0  0  0  0  0  0
   -8.3608   25.6234  -26.4405 H   0  0  0  0  0  0  0  0  0  0  0  0
   -6.9156   24.1573  -23.4576 C   0  0  0  0  0  0  0  0  0  0  0  0
   -7.2718   21.9849  -22.1925 C   0  0  0  0  0  0  0  0  0  0  0  0
   -7.1790   23.4628  -22.1895 C   0  0  0  0  0  0  0  0  0  0  0  0
   -2.2084   21.8500  -26.0620 C   0  0  0  0  0  0  0  0  0  0  0  0
   -1.3679   22.7968  -26.7961 C   0  0  0  0  0  0  0  0  0  0  0  0
   -2.0129   23.0273  -28.1979 C   0  0  0  0  0  0  0  0  0  0  0  0
    0.0223   22.3358  -27.1344 C   0  0  0  0  0  0  0  0  0  0  0  0
 26 27  1  0  0  0
 27 25  1  0  0  0
 25 19  1  0  0  0
 19 15  1  0  0  0
 15 16  1  0  0  0
 16 17  2  0  0  0
 16  1  1  0  0  0
  1 28  1  0  0  0
 28 29  1  0  0  0
 29 30  1  0  0  0
 29 31  1  0  0  0
  1  2  1  0  0  0
  2  3  1  0  0  0
  3  4  2  0  0  0
  3  5  1  0  0  0
  5  8  1  0  0  0
  8  9  2  0  0  0
  9 10  1  0  0  0
 10 11  2  0  0  0
 11 12  1  0  0  0
 11 13  1  0  0  0
 13 14  2  0  0  0
 19 20  1  0  0  0
 20 21  1  0  0  0
 20 22  2  0  0  0
 14  8  1  0  0  0
 15 18  1  0  0  0
  2  6  1  0  0  0
  5  7  1  0  0  0
 21 23  1  0  0  0
 21 24  1  0  0  0
M  END
> <minimizedAffinity>
-6.48466

> <CNNscore>
0.2954668105

> <CNNaffinity>
5.6646370888

> <CNN_VS>
1.6737122536

> <CNNaffinity_variance>
0.1311716139

$$$$
[H]c1c([H])c(N([H])C(=O)N([H])[C@]([H])(C(=O)N([H])[C@]([H])(C(=O)N([H])[H])C([H])([H])C([H])([H])C([H])([H])[H])C([H])([H])C([H])(C([H])([H])[H])C([H])([H])[H])c([H])c([H])c1Br


 31 31  0  0  0  0  0  0  0  0999 V2000
   -7.2955   23.1961  -21.6048 C   0  0  0  0  0  0  0  0  0  0  0  0
   -6.9847   22.7044  -22.9418 N   0  0  0  0  0  0  0  0  0  0  0  0
   -5.6835   22.8864  -23.4653 C   0  0  0  0  0  0  0  0  0  0  0  0
   -4.7890   23.4756  -22.7749 O   0  0  0  0  0  0  0  0  0  0  0  0
   -5.3604   22.4240  -24.7435 N   0  0  0  0  0  0  0  0  0  0  0  0
   -7.7057   22.2366  -23.4829 H   0  0  0  0  0  0  0  0  0  0  0  0
   -6.1703   21.9464  -25.2602 H   0  0  0  0  0  0  0  0  0  0  0  0
   -4.1234   22.5021  -25.4213 C   0  0  0  0  0  0  0  0  0  0  0  0
   -3.8799   23.2007  -26.5718 C   0  0  0  0  0  0  0  0  0  0  0  0
   -2.6168   23.2050  -27.1914 C   0  0  0  0  0  0  0  0  0  0  0  0
   -1.5625   22.5031  -26.6647 C   0  0  0  0  0  0  0  0  0  0  0  0
    0.1536   22.5098  -27.5082 Br  0  0  0  0  0  0  0  0  0  0  0  0
   -1.7915   21.7982  -25.5111 C   0  0  0  0  0  0  0  0  0  0  0  0
   -3.0245   21.7933  -24.9058 C   0  0  0  0  0  0  0  0  0  0  0  0
   -7.8951   22.0697  -19.4466 N   0  0  0  0  0  0  0  0  0  0  0  0
   -7.9144   22.0853  -20.8814 C   0  0  0  0  0  0  0  0  0  0  0  0
   -8.4630   21.1239  -21.5154 O   0  0  0  0  0  0  0  0  0  0  0  0
   -7.4495   22.8736  -18.9637 H   0  0  0  0  0  0  0  0  0  0  0  0
   -8.4749   20.9743  -18.7018 C   0  0  0  0  0  0  0  0  0  0  0  0
   -9.6843   21.4498  -17.9874 C   0  0  0  0  0  0  0  0  0  0  0  0
  -10.9090   20.7107  -18.1242 N   0  0  0  0  0  0  0  0  0  0  0  0
   -9.7161   22.4576  -17.2674 O   0  0  0  0  0  0  0  0  0  0  0  0
  -11.0417   20.1666  -18.9927 H   0  0  0  0  0  0  0  0  0  0  0  0
  -11.6463   20.7144  -17.3811 H   0  0  0  0  0  0  0  0  0  0  0  0
   -7.4965   20.4444  -17.6973 C   0  0  0  0  0  0  0  0  0  0  0  0
   -7.9273   17.9791  -18.1252 C   0  0  0  0  0  0  0  0  0  0  0  0
   -7.6921   19.0864  -17.1706 C   0  0  0  0  0  0  0  0  0  0  0  0
   -7.9906   24.4928  -21.6493 C   0  0  0  0  0  0  0  0  0  0  0  0
   -9.4433   24.5824  -21.4951 C   0  0  0  0  0  0  0  0  0  0  0  0
   -9.9849   25.5533  -22.5897 C   0  0  0  0  0  0  0  0  0  0  0  0
   -9.9446   25.1975  -20.2184 C   0  0  0  0  0  0  0  0  0  0  0  0
 26 27  1  0  0  0
 27 25  1  0  0  0
 25 19  1  0  0  0
 19 15  1  0  0  0
 15 16  1  0  0  0
 16 17  2  0  0  0
 16  1  1  0  0  0
  1 28  1  0  0  0
 28 29  1  0  0  0
 29 30  1  0  0  0
 29 31  1  0  0  0
  1  2  1  0  0  0
  2  3  1  0  0  0
  3  4  2  0  0  0
  3  5  1  0  0  0
  5  8  1  0  0  0
  8  9  2  0  0  0
  9 10  1  0  0  0
 10 11  2  0  0  0
 11 12  1  0  0  0
 11 13  1  0  0  0
 13 14  2  0  0  0
 19 20  1  0  0  0
 20 21  1  0  0  0
 20 22  2  0  0  0
 14  8  1  0  0  0
 15 18  1  0  0  0
  2  6  1  0  0  0
  5  7  1  0  0  0
 21 23  1  0  0  0
 21 24  1  0  0  0
M  END
> <minimizedAffinity>
-6.27931

> <CNNscore>
0.2527453899

> <CNNaffinity>
5.2237830162

> <CNN_VS>
1.3202871084

> <CNNaffinity_variance>
0.1274406016

$$$$
[H]c1c([H])c(N([H])C(=O)N([H])[C@]([H])(C(=O)N([H])[C@]([H])(C(=O)N([H])[H])C([H])([H])C([H])([H])C([H])([H])[H])C([H])([H])C([H])(C([H])([H])[H])C([H])([H])[H])c([H])c([H])c1Br


 31 31  0  0  0  0  0  0  0  0999 V2000
   -3.0794   22.4959  -24.6878 C   0  0  0  0  0  0  0  0  0  0  0  0
   -2.4631   21.5321  -23.7839 N   0  0  0  0  0  0  0  0  0  0  0  0
   -1.2109   21.8294  -23.1978 C   0  0  0  0  0  0  0  0  0  0  0  0
   -0.6245   22.9308  -23.4572 O   0  0  0  0  0  0  0  0  0  0  0  0
   -0.5997   20.9228  -22.3280 N   0  0  0  0  0  0  0  0  0  0  0  0
   -2.9395   20.6574  -23.5848 H   0  0  0  0  0  0  0  0  0  0  0  0
   -1.1546   20.0186  -22.1684 H   0  0  0  0  0  0  0  0  0  0  0  0
    0.6299   21.0509  -21.6443 C   0  0  0  0  0  0  0  0  0  0  0  0
    0.7876   21.4162  -20.3356 C   0  0  0  0  0  0  0  0  0  0  0  0
    2.0567   21.5392  -19.7410 C   0  0  0  0  0  0  0  0  0  0  0  0
    3.2037   21.2956  -20.4528 C   0  0  0  0  0  0  0  0  0  0  0  0
    4.9279   21.4634  -19.6431 Br  0  0  0  0  0  0  0  0  0  0  0  0
    3.0612   20.9279  -21.7661 C   0  0  0  0  0  0  0  0  0  0  0  0
    1.8225   20.8079  -22.3474 C   0  0  0  0  0  0  0  0  0  0  0  0
   -4.6904   23.3140  -22.9495 N   0  0  0  0  0  0  0  0  0  0  0  0
   -4.4518   22.6926  -24.2209 C   0  0  0  0  0  0  0  0  0  0  0  0
   -5.4396   22.3074  -24.9300 O   0  0  0  0  0  0  0  0  0  0  0  0
   -3.8632   23.6246  -22.4041 H   0  0  0  0  0  0  0  0  0  0  0  0
   -6.0335   23.4999  -22.4472 C   0  0  0  0  0  0  0  0  0  0  0  0
   -6.1031   24.7701  -21.6851 C   0  0  0  0  0  0  0  0  0  0  0  0
   -6.8115   25.8842  -22.2524 N   0  0  0  0  0  0  0  0  0  0  0  0
   -5.5847   24.9439  -20.5733 O   0  0  0  0  0  0  0  0  0  0  0  0
   -6.8740   25.9332  -23.2828 H   0  0  0  0  0  0  0  0  0  0  0  0
   -7.2518   26.6242  -21.6571 H   0  0  0  0  0  0  0  0  0  0  0  0
   -6.4177   22.3698  -21.5404 C   0  0  0  0  0  0  0  0  0  0  0  0
   -8.5484   21.6106  -20.3870 C   0  0  0  0  0  0  0  0  0  0  0  0
   -7.7781   21.8217  -21.6339 C   0  0  0  0  0  0  0  0  0  0  0  0
   -2.8503   22.1435  -26.0984 C   0  0  0  0  0  0  0  0  0  0  0  0
   -1.9415   22.9240  -26.9392 C   0  0  0  0  0  0  0  0  0  0  0  0
   -2.5313   22.9585  -28.3832 C   0  0  0  0  0  0  0  0  0  0  0  0
   -0.5665   22.3538  -27.1483 C   0  0  0  0  0  0  0  0  0  0  0  0
 26 27  1  0  0  0
 27 25  1  0  0  0
 25 19  1  0  0  0
 19 15  1  0  0  0
 15 16  1  0  0  0
 16 17  2  0  0  0
 16  1  1  0  0  0
  1 28  1  0  0  0
 28 29  1  0  0  0
 29 30  1  0  0  0
 29 31  1  0  0  0
  1  2  1  0  0  0
  2  3  1  0  0  0
  3  4  2  0  0  0
  3  5  1  0  0  0
  5  8  1  0  0  0
  8  9  2  0  0  0
  9 10  1  0  0  0
 10 11  2  0  0  0
 11 12  1  0  0  0
 11 13  1  0  0  0
 13 14  2  0  0  0
 19 20  1  0  0  0
 20 21  1  0  0  0
 20 22  2  0  0  0
 14  8  1  0  0  0
 15 18  1  0  0  0
  2  6  1  0  0  0
  5  7  1  0  0  0
 21 23  1  0  0  0
 21 24  1  0  0  0
M  END
> <minimizedAffinity>
-6.25696

> <CNNscore>
0.2405920029

> <CNNaffinity>
5.6421265602

> <CNN_VS>
1.3574504852

> <CNNaffinity_variance>
0.0541168861

$$$$
[H]c1c([H])c(N([H])C(=O)N([H])[C@]([H])(C(=O)N([H])[C@]([H])(C(=O)N([H])[H])C([H])([H])C([H])([H])C([H])([H])[H])C([H])([H])C([H])(C([H])([H])[H])C([H])([H])[H])c([H])c([H])c1Br


 31 31  0  0  0  0  0  0  0  0999 V2000
   -5.2351   23.1855  -25.0536 C   0  0  0  0  0  0  0  0  0  0  0  0
   -5.9247   23.9230  -24.0018 N   0  0  0  0  0  0  0  0  0  0  0  0
   -6.5965   23.2132  -22.9795 C   0  0  0  0  0  0  0  0  0  0  0  0
   -6.6000   21.9388  -22.9769 O   0  0  0  0  0  0  0  0  0  0  0  0
   -7.2643   23.8965  -21.9602 N   0  0  0  0  0  0  0  0  0  0  0  0
   -5.9155   24.9385  -24.0144 H   0  0  0  0  0  0  0  0  0  0  0  0
   -7.2192   24.9655  -22.0395 H   0  0  0  0  0  0  0  0  0  0  0  0
   -7.9712   23.3635  -20.8594 C   0  0  0  0  0  0  0  0  0  0  0  0
   -9.3312   23.2701  -20.7465 C   0  0  0  0  0  0  0  0  0  0  0  0
   -9.9521   22.7421  -19.5997 C   0  0  0  0  0  0  0  0  0  0  0  0
   -9.2154   22.2924  -18.5337 C   0  0  0  0  0  0  0  0  0  0  0  0
  -10.0610   21.5753  -16.9757 Br  0  0  0  0  0  0  0  0  0  0  0  0
   -7.8506   22.3794  -18.6327 C   0  0  0  0  0  0  0  0  0  0  0  0
   -7.2436   22.8950  -19.7518 C   0  0  0  0  0  0  0  0  0  0  0  0
   -2.8556   22.5275  -25.4910 N   0  0  0  0  0  0  0  0  0  0  0  0
   -3.8022   23.3859  -24.8378 C   0  0  0  0  0  0  0  0  0  0  0  0
   -3.3859   24.3117  -24.0654 O   0  0  0  0  0  0  0  0  0  0  0  0
   -3.2297   21.7916  -26.1208 H   0  0  0  0  0  0  0  0  0  0  0  0
   -1.4337   22.6822  -25.2790 C   0  0  0  0  0  0  0  0  0  0  0  0
   -0.7301   22.6060  -26.5822 C   0  0  0  0  0  0  0  0  0  0  0  0
    0.7010   22.4769  -26.5938 N   0  0  0  0  0  0  0  0  0  0  0  0
   -1.2976   22.6463  -27.6828 O   0  0  0  0  0  0  0  0  0  0  0  0
    1.2194   22.8570  -25.7847 H   0  0  0  0  0  0  0  0  0  0  0  0
    1.2112   22.0182  -27.3845 H   0  0  0  0  0  0  0  0  0  0  0  0
   -0.9137   21.5979  -24.3841 C   0  0  0  0  0  0  0  0  0  0  0  0
   -1.8849   21.6446  -22.0386 C   0  0  0  0  0  0  0  0  0  0  0  0
   -0.7450   21.8851  -22.9527 C   0  0  0  0  0  0  0  0  0  0  0  0
   -5.8026   23.4715  -26.3813 C   0  0  0  0  0  0  0  0  0  0  0  0
   -5.0745   24.2782  -27.3616 C   0  0  0  0  0  0  0  0  0  0  0  0
   -5.9332   25.5414  -27.6793 C   0  0  0  0  0  0  0  0  0  0  0  0
   -4.8669   23.6601  -28.7160 C   0  0  0  0  0  0  0  0  0  0  0  0
 26 27  1  0  0  0
 27 25  1  0  0  0
 25 19  1  0  0  0
 19 15  1  0  0  0
 15 16  1  0  0  0
 16 17  2  0  0  0
 16  1  1  0  0  0
  1 28  1  0  0  0
 28 29  1  0  0  0
 29 30  1  0  0  0
 29 31  1  0  0  0
  1  2  1  0  0  0
  2  3  1  0  0  0
  3  4  2  0  0  0
  3  5  1  0  0  0
  5  8  1  0  0  0
  8  9  2  0  0  0
  9 10  1  0  0  0
 10 11  2  0  0  0
 11 12  1  0  0  0
 11 13  1  0  0  0
 13 14  2  0  0  0
 19 20  1  0  0  0
 20 21  1  0  0  0
 20 22  2  0  0  0
 14  8  1  0  0  0
 15 18  1  0  0  0
  2  6  1  0  0  0
  5  7  1  0  0  0
 21 23  1  0  0  0
 21 24  1  0  0  0
M  END
> <minimizedAffinity>
-5.90708

> <CNNscore>
0.2090729922

> <CNNaffinity>
5.9196085930

> <CNN_VS>
1.2376302481

> <CNNaffinity_variance>
0.1616217494

$$$$
[H]OC(C([H])([H])[H])(C([H])([H])[H])C([H])([H])C(=O)N([H])C([H])([H])C([H])([H])c1c([H])c([H])c2nc([H])nc(N([H])c3c([H])c([H])c(Oc4c([H])c([H])c([H])c(C(F)(F)F)c4[H])c(Cl)c3[H])c2c1[H]


 42 45  0  0  0  0  0  0  0  0999 V2000
   -1.1038   21.7041  -24.0081 C   0  0  0  0  0  0  0  0  0  0  0  0
    0.2395   21.8058  -24.2357 C   0  0  0  0  0  0  0  0  0  0  0  0
    0.7123   22.2317  -25.4382 C   0  0  0  0  0  0  0  0  0  0  0  0
   -0.1487   22.5719  -26.4727 C   0  0  0  0  0  0  0  0  0  0  0  0
    0.3956   22.9712  -27.6399 N   0  0  0  0  0  0  0  0  0  0  0  0
   -0.4211   23.2843  -28.6559 C   0  0  0  0  0  0  0  0  0  0  0  0
   -1.7260   23.1759  -28.4377 N   0  0  0  0  0  0  0  0  0  0  0  0
   -2.3369   22.7944  -27.3272 C   0  0  0  0  0  0  0  0  0  0  0  0
   -1.5047   22.4666  -26.2499 C   0  0  0  0  0  0  0  0  0  0  0  0
   -1.9900   22.0476  -25.0542 C   0  0  0  0  0  0  0  0  0  0  0  0
   -3.7319   22.6470  -27.2248 N   0  0  0  0  0  0  0  0  0  0  0  0
   -4.2715   21.9454  -27.7938 H   0  0  0  0  0  0  0  0  0  0  0  0
   -4.5270   23.4372  -26.3535 C   0  0  0  0  0  0  0  0  0  0  0  0
   -5.5519   22.9706  -25.5906 C   0  0  0  0  0  0  0  0  0  0  0  0
   -6.2249   23.7784  -24.6693 C   0  0  0  0  0  0  0  0  0  0  0  0
   -5.8490   25.1240  -24.5097 C   0  0  0  0  0  0  0  0  0  0  0  0
   -4.8178   25.6156  -25.2764 C   0  0  0  0  0  0  0  0  0  0  0  0
   -4.3022   27.3086  -25.1491 Cl  0  0  0  0  0  0  0  0  0  0  0  0
   -4.1887   24.7749  -26.1665 C   0  0  0  0  0  0  0  0  0  0  0  0
   -6.5304   25.8427  -23.6028 O   0  0  0  0  0  0  0  0  0  0  0  0
   -7.1949   25.6200  -22.4566 C   0  0  0  0  0  0  0  0  0  0  0  0
   -6.4558   25.5116  -21.2669 C   0  0  0  0  0  0  0  0  0  0  0  0
   -7.1104   25.2876  -20.0889 C   0  0  0  0  0  0  0  0  0  0  0  0
   -8.4831   25.1702  -20.0814 C   0  0  0  0  0  0  0  0  0  0  0  0
   -9.2363   25.2691  -21.2291 C   0  0  0  0  0  0  0  0  0  0  0  0
   -8.5891   25.4951  -22.4137 C   0  0  0  0  0  0  0  0  0  0  0  0
  -10.7116   25.1066  -21.1358 C   0  0  0  0  0  0  0  0  0  0  0  0
  -11.0347   23.7358  -21.1201 F   0  0  0  0  0  0  0  0  0  0  0  0
  -11.1116   25.6069  -19.9138 F   0  0  0  0  0  0  0  0  0  0  0  0
  -11.3701   25.7676  -22.1333 F   0  0  0  0  0  0  0  0  0  0  0  0
   -1.6452   21.2091  -22.7637 C   0  0  0  0  0  0  0  0  0  0  0  0
   -1.4580   22.0784  -21.5367 C   0  0  0  0  0  0  0  0  0  0  0  0
    0.7742   21.4405  -20.0618 C   0  0  0  0  0  0  0  0  0  0  0  0
    0.9824   21.7006  -18.8604 O   0  0  0  0  0  0  0  0  0  0  0  0
   -0.3405   21.7584  -20.8001 N   0  0  0  0  0  0  0  0  0  0  0  0
   -0.9531   22.2155  -19.6664 H   0  0  0  0  0  0  0  0  0  0  0  0
    1.9014   20.6934  -20.7361 C   0  0  0  0  0  0  0  0  0  0  0  0
    0.5484   18.6387  -20.7152 C   0  0  0  0  0  0  0  0  0  0  0  0
    1.9105   19.2359  -20.5469 C   0  0  0  0  0  0  0  0  0  0  0  0
    2.6018   18.7835  -19.2714 C   0  0  0  0  0  0  0  0  0  0  0  0
    2.7075   18.7133  -21.6271 O   0  0  0  0  0  0  0  0  0  0  0  0
    3.4604   19.3553  -21.7320 H   0  0  0  0  0  0  0  0  0  0  0  0
 38 39  1  0  0  0
 39 40  1  0  0  0
 39 41  1  0  0  0
 39 37  1  0  0  0
 37 33  1  0  0  0
 33 34  2  0  0  0
 33 35  1  0  0  0
 35 32  1  0  0  0
 32 31  1  0  0  0
 31  1  1  0  0  0
  1  2  2  0  0  0
  2  3  1  0  0  0
  3  4  2  0  0  0
  4  5  1  0  0  0
  5  6  2  0  0  0
  6  7  1  0  0  0
  7  8  2  0  0  0
  8 11  1  0  0  0
 11 13  1  0  0  0
 13 14  2  0  0  0
 14 15  1  0  0  0
 15 16  2  0  0  0
 16 20  1  0  0  0
 20 21  1  0  0  0
 21 22  2  0  0  0
 22 23  1  0  0  0
 23 24  2  0  0  0
 24 25  1  0  0  0
 25 27  1  0  0  0
 27 28  1  0  0  0
 27 29  1  0  0  0
 27 30  1  0  0  0
 25 26  2  0  0  0
 16 17  1  0  0  0
 17 18  1  0  0  0
 17 19  2  0  0  0
  8  9  1  0  0  0
  9 10  2  0  0  0
 10  1  1  0  0  0
  9  4  1  0  0  0
 19 13  1  0  0  0
 26 21  1  0  0  0
 41 42  1  0  0  0
 35 36  1  0  0  0
 11 12  1  0  0  0
M  END
> <minimizedAffinity>
-8.99074

> <CNNscore>
0.4760271013

> <CNNaffinity>
7.3955140114

> <CNN_VS>
3.5204651356

> <CNNaffinity_variance>
0.0805471539

$$$$
[H]OC(C([H])([H])[H])(C([H])([H])[H])C([H])([H])C(=O)N([H])C([H])([H])C([H])([H])c1c([H])c([H])c2nc([H])nc(N([H])c3c([H])c([H])c(Oc4c([H])c([H])c([H])c(C(F)(F)F)c4[H])c(Cl)c3[H])c2c1[H]


 42 45  0  0  0  0  0  0  0  0999 V2000
   -4.5088   23.4006  -27.6204 C   0  0  0  0  0  0  0  0  0  0  0  0
   -3.9553   23.7129  -28.8298 C   0  0  0  0  0  0  0  0  0  0  0  0
   -2.6231   23.5472  -29.0502 C   0  0  0  0  0  0  0  0  0  0  0  0
   -1.7823   23.0619  -28.0578 C   0  0  0  0  0  0  0  0  0  0  0  0
   -0.4711   22.9393  -28.3472 N   0  0  0  0  0  0  0  0  0  0  0  0
    0.3581   22.4910  -27.3940 C   0  0  0  0  0  0  0  0  0  0  0  0
   -0.1782   22.1971  -26.2158 N   0  0  0  0  0  0  0  0  0  0  0  0
   -1.4481   22.2883  -25.8537 C   0  0  0  0  0  0  0  0  0  0  0  0
   -2.3348   22.7498  -26.8343 C   0  0  0  0  0  0  0  0  0  0  0  0
   -3.6624   22.9058  -26.6022 C   0  0  0  0  0  0  0  0  0  0  0  0
   -1.9011   22.0154  -24.5504 N   0  0  0  0  0  0  0  0  0  0  0  0
   -2.9186   22.0488  -24.2849 H   0  0  0  0  0  0  0  0  0  0  0  0
   -1.0236   21.6818  -23.4852 C   0  0  0  0  0  0  0  0  0  0  0  0
   -1.4147   21.3083  -22.2371 C   0  0  0  0  0  0  0  0  0  0  0  0
   -0.5040   20.8852  -21.2646 C   0  0  0  0  0  0  0  0  0  0  0  0
    0.8694   20.8380  -21.5625 C   0  0  0  0  0  0  0  0  0  0  0  0
    1.2849   21.2168  -22.8183 C   0  0  0  0  0  0  0  0  0  0  0  0
    3.0030   21.2070  -23.2614 Cl  0  0  0  0  0  0  0  0  0  0  0  0
    0.3444   21.6230  -23.7378 C   0  0  0  0  0  0  0  0  0  0  0  0
    1.6896   20.4148  -20.5870 O   0  0  0  0  0  0  0  0  0  0  0  0
    2.7189   19.5613  -20.4569 C   0  0  0  0  0  0  0  0  0  0  0  0
    3.9227   20.0447  -19.9179 C   0  0  0  0  0  0  0  0  0  0  0  0
    4.9821   19.1944  -19.7739 C   0  0  0  0  0  0  0  0  0  0  0  0
    4.8585   17.8772  -20.1584 C   0  0  0  0  0  0  0  0  0  0  0  0
    3.6944   17.3726  -20.6917 C   0  0  0  0  0  0  0  0  0  0  0  0
    2.6272   18.2169  -20.8382 C   0  0  0  0  0  0  0  0  0  0  0  0
    3.6533   15.9440  -21.1028 C   0  0  0  0  0  0  0  0  0  0  0  0
    4.8948   15.5772  -21.6574 F   0  0  0  0  0  0  0  0  0  0  0  0
    3.5059   15.1838  -19.9610 F   0  0  0  0  0  0  0  0  0  0  0  0
    2.6220   15.6803  -21.9587 F   0  0  0  0  0  0  0  0  0  0  0  0
   -5.9085   23.6087  -27.3300 C   0  0  0  0  0  0  0  0  0  0  0  0
   -6.3724   25.0418  -27.1656 C   0  0  0  0  0  0  0  0  0  0  0  0
   -6.7056   25.8004  -24.5429 C   0  0  0  0  0  0  0  0  0  0  0  0
   -6.7048   26.9616  -24.0891 O   0  0  0  0  0  0  0  0  0  0  0  0
   -6.5393   25.4197  -25.8529 N   0  0  0  0  0  0  0  0  0  0  0  0
   -6.5689   26.7332  -26.2316 H   0  0  0  0  0  0  0  0  0  0  0  0
   -6.9151   24.7292  -23.4979 C   0  0  0  0  0  0  0  0  0  0  0  0
   -5.0531   23.1551  -23.1690 C   0  0  0  0  0  0  0  0  0  0  0  0
   -5.7418   24.3907  -22.6799 C   0  0  0  0  0  0  0  0  0  0  0  0
   -6.0186   24.3620  -21.1859 C   0  0  0  0  0  0  0  0  0  0  0  0
   -4.8088   25.4695  -22.8815 O   0  0  0  0  0  0  0  0  0  0  0  0
   -5.3635   26.2953  -22.9039 H   0  0  0  0  0  0  0  0  0  0  0  0
 38 39  1  0  0  0
 39 40  1  0  0  0
 39 41  1  0  0  0
 39 37  1  0  0  0
 37 33  1  0  0  0
 33 34  2  0  0  0
 33 35  1  0  0  0
 35 32  1  0  0  0
 32 31  1  0  0  0
 31  1  1  0  0  0
  1  2  2  0  0  0
  2  3  1  0  0  0
  3  4  2  0  0  0
  4  5  1  0  0  0
  5  6  2  0  0  0
  6  7  1  0  0  0
  7  8  2  0  0  0
  8 11  1  0  0  0
 11 13  1  0  0  0
 13 14  2  0  0  0
 14 15  1  0  0  0
 15 16  2  0  0  0
 16 20  1  0  0  0
 20 21  1  0  0  0
 21 22  2  0  0  0
 22 23  1  0  0  0
 23 24  2  0  0  0
 24 25  1  0  0  0
 25 27  1  0  0  0
 27 28  1  0  0  0
 27 29  1  0  0  0
 27 30  1  0  0  0
 25 26  2  0  0  0
 16 17  1  0  0  0
 17 18  1  0  0  0
 17 19  2  0  0  0
  8  9  1  0  0  0
  9 10  2  0  0  0
 10  1  1  0  0  0
  9  4  1  0  0  0
 19 13  1  0  0  0
 26 21  1  0  0  0
 41 42  1  0  0  0
 35 36  1  0  0  0
 11 12  1  0  0  0
M  END
> <minimizedAffinity>
-8.35014

> <CNNscore>
0.3853429258

> <CNNaffinity>
7.4097456932

> <CNN_VS>
2.8552930355

> <CNNaffinity_variance>
0.1044080257

$$$$
[H]OC(C([H])([H])[H])(C([H])([H])[H])C([H])([H])C(=O)N([H])C([H])([H])C([H])([H])c1c([H])c([H])c2nc([H])nc(N([H])c3c([H])c([H])c(Oc4c([H])c([H])c([H])c(C(F)(F)F)c4[H])c(Cl)c3[H])c2c1[H]


 42 45  0  0  0  0  0  0  0  0999 V2000
   -4.2318   23.3240  -27.5787 C   0  0  0  0  0  0  0  0  0  0  0  0
   -3.4590   23.4732  -28.6954 C   0  0  0  0  0  0  0  0  0  0  0  0
   -2.1238   23.2147  -28.6585 C   0  0  0  0  0  0  0  0  0  0  0  0
   -1.5016   22.7969  -27.4899 C   0  0  0  0  0  0  0  0  0  0  0  0
   -0.1722   22.5748  -27.5286 N   0  0  0  0  0  0  0  0  0  0  0  0
    0.4479   22.1900  -26.4041 C   0  0  0  0  0  0  0  0  0  0  0  0
   -0.3014   22.0548  -25.3168 N   0  0  0  0  0  0  0  0  0  0  0  0
   -1.6049   22.2514  -25.1965 C   0  0  0  0  0  0  0  0  0  0  0  0
   -2.2759   22.6493  -26.3594 C   0  0  0  0  0  0  0  0  0  0  0  0
   -3.6091   22.8992  -26.3830 C   0  0  0  0  0  0  0  0  0  0  0  0
   -2.2922   22.1462  -23.9739 N   0  0  0  0  0  0  0  0  0  0  0  0
   -3.3408   22.0810  -23.9165 H   0  0  0  0  0  0  0  0  0  0  0  0
   -1.6299   22.1285  -22.7182 C   0  0  0  0  0  0  0  0  0  0  0  0
   -1.6474   23.1409  -21.8100 C   0  0  0  0  0  0  0  0  0  0  0  0
   -1.0669   23.0187  -20.5442 C   0  0  0  0  0  0  0  0  0  0  0  0
   -0.4348   21.8180  -20.1750 C   0  0  0  0  0  0  0  0  0  0  0  0
   -0.4025   20.7841  -21.0822 C   0  0  0  0  0  0  0  0  0  0  0  0
    0.3972   19.2474  -20.6984 Cl  0  0  0  0  0  0  0  0  0  0  0  0
   -0.9920   20.9587  -22.3139 C   0  0  0  0  0  0  0  0  0  0  0  0
    0.0954   21.7634  -18.9425 O   0  0  0  0  0  0  0  0  0  0  0  0
   -0.3392   21.5993  -17.6818 C   0  0  0  0  0  0  0  0  0  0  0  0
   -1.6765   21.2190  -17.4812 C   0  0  0  0  0  0  0  0  0  0  0  0
   -2.1401   21.0438  -16.2082 C   0  0  0  0  0  0  0  0  0  0  0  0
   -1.2937   21.2423  -15.1393 C   0  0  0  0  0  0  0  0  0  0  0  0
    0.0206   21.6171  -15.3012 C   0  0  0  0  0  0  0  0  0  0  0  0
    0.4942   21.7934  -16.5732 C   0  0  0  0  0  0  0  0  0  0  0  0
    0.8596   21.8334  -14.0925 C   0  0  0  0  0  0  0  0  0  0  0  0
    1.3876   23.1389  -14.1126 F   0  0  0  0  0  0  0  0  0  0  0  0
    0.0306   21.7739  -12.9913 F   0  0  0  0  0  0  0  0  0  0  0  0
    1.8437   20.8943  -13.9698 F   0  0  0  0  0  0  0  0  0  0  0  0
   -5.6422   23.6357  -27.5632 C   0  0  0  0  0  0  0  0  0  0  0  0
   -6.0240   25.0932  -27.4024 C   0  0  0  0  0  0  0  0  0  0  0  0
   -6.7645   25.7644  -24.8400 C   0  0  0  0  0  0  0  0  0  0  0  0
   -6.7199   26.8942  -24.3149 O   0  0  0  0  0  0  0  0  0  0  0  0
   -6.3950   25.4274  -26.1201 N   0  0  0  0  0  0  0  0  0  0  0  0
   -6.2040   26.7507  -26.4063 H   0  0  0  0  0  0  0  0  0  0  0  0
   -7.2887   24.6798  -23.9276 C   0  0  0  0  0  0  0  0  0  0  0  0
   -4.9595   24.4741  -23.1624 C   0  0  0  0  0  0  0  0  0  0  0  0
   -6.2777   23.7882  -23.3418 C   0  0  0  0  0  0  0  0  0  0  0  0
   -6.1560   22.4466  -24.0452 C   0  0  0  0  0  0  0  0  0  0  0  0
   -6.7518   23.4894  -22.0147 O   0  0  0  0  0  0  0  0  0  0  0  0
   -7.7361   23.3767  -22.1070 H   0  0  0  0  0  0  0  0  0  0  0  0
 38 39  1  0  0  0
 39 40  1  0  0  0
 39 41  1  0  0  0
 39 37  1  0  0  0
 37 33  1  0  0  0
 33 34  2  0  0  0
 33 35  1  0  0  0
 35 32  1  0  0  0
 32 31  1  0  0  0
 31  1  1  0  0  0
  1  2  2  0  0  0
  2  3  1  0  0  0
  3  4  2  0  0  0
  4  5  1  0  0  0
  5  6  2  0  0  0
  6  7  1  0  0  0
  7  8  2  0  0  0
  8 11  1  0  0  0
 11 13  1  0  0  0
 13 14  2  0  0  0
 14 15  1  0  0  0
 15 16  2  0  0  0
 16 20  1  0  0  0
 20 21  1  0  0  0
 21 22  2  0  0  0
 22 23  1  0  0  0
 23 24  2  0  0  0
 24 25  1  0  0  0
 25 27  1  0  0  0
 27 28  1  0  0  0
 27 29  1  0  0  0
 27 30  1  0  0  0
 25 26  2  0  0  0
 16 17  1  0  0  0
 17 18  1  0  0  0
 17 19  2  0  0  0
  8  9  1  0  0  0
  9 10  2  0  0  0
 10  1  1  0  0  0
  9  4  1  0  0  0
 19 13  1  0  0  0
 26 21  1  0  0  0
 41 42  1  0  0  0
 35 36  1  0  0  0
 11 12  1  0  0  0
M  END
> <minimizedAffinity>
-8.36033

> <CNNscore>
0.3741768599

> <CNNaffinity>
7.3629407883

> <CNN_VS>
2.7550420761

> <CNNaffinity_variance>
0.1066552773

$$$$
[H]OC(C([H])([H])[H])(C([H])([H])[H])C([H])([H])C(=O)N([H])C([H])([H])C([H])([H])c1c([H])c([H])c2nc([H])nc(N([H])c3c([H])c([H])c(Oc4c([H])c([H])c([H])c(C(F)(F)F)c4[H])c(Cl)c3[H])c2c1[H]


 42 45  0  0  0  0  0  0  0  0999 V2000
   -1.1375   21.7643  -24.1930 C   0  0  0  0  0  0  0  0  0  0  0  0
    0.2075   21.8423  -24.4191 C   0  0  0  0  0  0  0  0  0  0  0  0
    0.6892   22.2587  -25.6214 C   0  0  0  0  0  0  0  0  0  0  0  0
   -0.1644   22.6129  -26.6573 C   0  0  0  0  0  0  0  0  0  0  0  0
    0.3881   23.0015  -27.8242 N   0  0  0  0  0  0  0  0  0  0  0  0
   -0.4217   23.3280  -28.8414 C   0  0  0  0  0  0  0  0  0  0  0  0
   -1.7285   23.2427  -28.6248 N   0  0  0  0  0  0  0  0  0  0  0  0
   -2.3474   22.8730  -27.5146 C   0  0  0  0  0  0  0  0  0  0  0  0
   -1.5223   22.5316  -26.4360 C   0  0  0  0  0  0  0  0  0  0  0  0
   -2.0164   22.1224  -25.2405 C   0  0  0  0  0  0  0  0  0  0  0  0
   -3.7449   22.7501  -27.4138 N   0  0  0  0  0  0  0  0  0  0  0  0
   -4.3011   22.0894  -28.0147 H   0  0  0  0  0  0  0  0  0  0  0  0
   -4.5202   23.5125  -26.5008 C   0  0  0  0  0  0  0  0  0  0  0  0
   -5.5372   23.0250  -25.7405 C   0  0  0  0  0  0  0  0  0  0  0  0
   -6.1896   23.8021  -24.7789 C   0  0  0  0  0  0  0  0  0  0  0  0
   -5.8003   25.1377  -24.5740 C   0  0  0  0  0  0  0  0  0  0  0  0
   -4.7767   25.6504  -25.3372 C   0  0  0  0  0  0  0  0  0  0  0  0
   -4.2453   27.3332  -25.1534 Cl  0  0  0  0  0  0  0  0  0  0  0  0
   -4.1681   24.8395  -26.2683 C   0  0  0  0  0  0  0  0  0  0  0  0
   -6.4619   25.8264  -23.6299 O   0  0  0  0  0  0  0  0  0  0  0  0
   -7.1130   25.5648  -22.4842 C   0  0  0  0  0  0  0  0  0  0  0  0
   -8.5010   25.7768  -22.4420 C   0  0  0  0  0  0  0  0  0  0  0  0
   -9.1845   25.5152  -21.2885 C   0  0  0  0  0  0  0  0  0  0  0  0
   -8.5067   25.0490  -20.1832 C   0  0  0  0  0  0  0  0  0  0  0  0
   -7.1476   24.8329  -20.1907 C   0  0  0  0  0  0  0  0  0  0  0  0
   -6.4548   25.0906  -21.3426 C   0  0  0  0  0  0  0  0  0  0  0  0
   -6.4905   24.3506  -18.9468 C   0  0  0  0  0  0  0  0  0  0  0  0
   -7.3999   23.5721  -18.2047 F   0  0  0  0  0  0  0  0  0  0  0  0
   -5.4705   23.4979  -19.3155 F   0  0  0  0  0  0  0  0  0  0  0  0
   -5.9782   25.3737  -18.2009 F   0  0  0  0  0  0  0  0  0  0  0  0
   -1.6890   21.2801  -22.9488 C   0  0  0  0  0  0  0  0  0  0  0  0
   -2.4544   22.2756  -22.1008 C   0  0  0  0  0  0  0  0  0  0  0  0
   -1.2075   22.8898  -19.7273 C   0  0  0  0  0  0  0  0  0  0  0  0
   -0.6224   23.9517  -19.4370 O   0  0  0  0  0  0  0  0  0  0  0  0
   -1.8310   22.5814  -20.9126 N   0  0  0  0  0  0  0  0  0  0  0  0
   -1.6297   23.8630  -21.3444 H   0  0  0  0  0  0  0  0  0  0  0  0
   -1.2022   21.8598  -18.6217 C   0  0  0  0  0  0  0  0  0  0  0  0
   -2.0389   21.5375  -16.3306 C   0  0  0  0  0  0  0  0  0  0  0  0
   -2.3883   21.8420  -17.7539 C   0  0  0  0  0  0  0  0  0  0  0  0
   -3.5258   20.9831  -18.2809 C   0  0  0  0  0  0  0  0  0  0  0  0
   -2.8877   23.1932  -17.7581 O   0  0  0  0  0  0  0  0  0  0  0  0
   -2.7779   23.5105  -18.6947 H   0  0  0  0  0  0  0  0  0  0  0  0
 38 39  1  0  0  0
 39 40  1  0  0  0
 39 41  1  0  0  0
 39 37  1  0  0  0
 37 33  1  0  0  0
 33 34  2  0  0  0
 33 35  1  0  0  0
 35 32  1  0  0  0
 32 31  1  0  0  0
 31  1  1  0  0  0
  1  2  2  0  0  0
  2  3  1  0  0  0
  3  4  2  0  0  0
  4  5  1  0  0  0
  5  6  2  0  0  0
  6  7  1  0  0  0
  7  8  2  0  0  0
  8 11  1  0  0  0
 11 13  1  0  0  0
 13 14  2  0  0  0
 14 15  1  0  0  0
 15 16  2  0  0  0
 16 20  1  0  0  0
 20 21  1  0  0  0
 21 22  2  0  0  0
 22 23  1  0  0  0
 23 24  2  0  0  0
 24 25  1  0  0  0
 25 27  1  0  0  0
 27 28  1  0  0  0
 27 29  1  0  0  0
 27 30  1  0  0  0
 25 26  2  0  0  0
 16 17  1  0  0  0
 17 18  1  0  0  0
 17 19  2  0  0  0
  8  9  1  0  0  0
  9 10  2  0  0  0
 10  1  1  0  0  0
  9  4  1  0  0  0
 19 13  1  0  0  0
 26 21  1  0  0  0
 41 42  1  0  0  0
 35 36  1  0  0  0
 11 12  1  0  0  0
M  END
> <minimizedAffinity>
-9.25321

> <CNNscore>
0.3451410234

> <CNNaffinity>
7.3243227005

> <CNN_VS>
2.5279242992

> <CNNaffinity_variance>
0.2910415530

$$$$
[H]OC(C([H])([H])[H])(C([H])([H])[H])C([H])([H])C(=O)N([H])C([H])([H])C([H])([H])c1c([H])c([H])c2nc([H])nc(N([H])c3c([H])c([H])c(Oc4c([H])c([H])c([H])c(C(F)(F)F)c4[H])c(Cl)c3[H])c2c1[H]


 42 45  0  0  0  0  0  0  0  0999 V2000
   -1.6210   21.7802  -23.9250 C   0  0  0  0  0  0  0  0  0  0  0  0
   -0.2559   21.8133  -23.9677 C   0  0  0  0  0  0  0  0  0  0  0  0
    0.3971   22.1882  -25.1009 C   0  0  0  0  0  0  0  0  0  0  0  0
   -0.2968   22.5440  -26.2494 C   0  0  0  0  0  0  0  0  0  0  0  0
    0.4207   22.8898  -27.3374 N   0  0  0  0  0  0  0  0  0  0  0  0
   -0.2333   23.2170  -28.4610 C   0  0  0  0  0  0  0  0  0  0  0  0
   -1.5595   23.1751  -28.4223 N   0  0  0  0  0  0  0  0  0  0  0  0
   -2.3344   22.8489  -27.3999 C   0  0  0  0  0  0  0  0  0  0  0  0
   -1.6741   22.5078  -26.2131 C   0  0  0  0  0  0  0  0  0  0  0  0
   -2.3382   22.1403  -25.0885 C   0  0  0  0  0  0  0  0  0  0  0  0
   -3.7359   22.7696  -27.4875 N   0  0  0  0  0  0  0  0  0  0  0  0
   -4.2267   22.1299  -28.1635 H   0  0  0  0  0  0  0  0  0  0  0  0
   -4.6026   23.5512  -26.6790 C   0  0  0  0  0  0  0  0  0  0  0  0
   -5.6973   23.0802  -26.0232 C   0  0  0  0  0  0  0  0  0  0  0  0
   -6.4470   23.8774  -25.1533 C   0  0  0  0  0  0  0  0  0  0  0  0
   -6.0777   25.2164  -24.9344 C   0  0  0  0  0  0  0  0  0  0  0  0
   -4.9761   25.7124  -25.5928 C   0  0  0  0  0  0  0  0  0  0  0  0
   -4.4621   27.3981  -25.3865 Cl  0  0  0  0  0  0  0  0  0  0  0  0
   -4.2733   24.8821  -26.4364 C   0  0  0  0  0  0  0  0  0  0  0  0
   -6.8349   25.9248  -24.0812 O   0  0  0  0  0  0  0  0  0  0  0  0
   -7.4328   25.7353  -22.8930 C   0  0  0  0  0  0  0  0  0  0  0  0
   -6.6480   25.8162  -21.7307 C   0  0  0  0  0  0  0  0  0  0  0  0
   -7.2348   25.6295  -20.5112 C   0  0  0  0  0  0  0  0  0  0  0  0
   -8.5846   25.3640  -20.4357 C   0  0  0  0  0  0  0  0  0  0  0  0
   -9.3809   25.2760  -21.5548 C   0  0  0  0  0  0  0  0  0  0  0  0
   -8.8020   25.4633  -22.7807 C   0  0  0  0  0  0  0  0  0  0  0  0
  -10.8247   24.9624  -21.3856 C   0  0  0  0  0  0  0  0  0  0  0  0
  -10.9691   23.6376  -20.9298 F   0  0  0  0  0  0  0  0  0  0  0  0
  -11.3130   25.7681  -20.3777 F   0  0  0  0  0  0  0  0  0  0  0  0
  -11.5403   25.1824  -22.5280 F   0  0  0  0  0  0  0  0  0  0  0  0
   -2.3509   21.3405  -22.7585 C   0  0  0  0  0  0  0  0  0  0  0  0
   -3.8328   21.6540  -22.7146 C   0  0  0  0  0  0  0  0  0  0  0  0
   -4.9358   21.3982  -20.2080 C   0  0  0  0  0  0  0  0  0  0  0  0
   -4.5708   20.6258  -19.3001 O   0  0  0  0  0  0  0  0  0  0  0  0
   -4.3858   21.5273  -21.4608 N   0  0  0  0  0  0  0  0  0  0  0  0
   -3.3785   20.6764  -21.0991 H   0  0  0  0  0  0  0  0  0  0  0  0
   -6.1172   22.2666  -19.8421 C   0  0  0  0  0  0  0  0  0  0  0  0
   -7.8963   21.8411  -21.4873 C   0  0  0  0  0  0  0  0  0  0  0  0
   -7.4439   21.6766  -20.0701 C   0  0  0  0  0  0  0  0  0  0  0  0
   -8.4935   22.1090  -19.0597 C   0  0  0  0  0  0  0  0  0  0  0  0
   -7.2737   20.2600  -19.8713 O   0  0  0  0  0  0  0  0  0  0  0  0
   -6.6544   20.1764  -19.0970 H   0  0  0  0  0  0  0  0  0  0  0  0
 38 39  1  0  0  0
 39 40  1  0  0  0
 39 41  1  0  0  0
 39 37  1  0  0  0
 37 33  1  0  0  0
 33 34  2  0  0  0
 33 35  1  0  0  0
 35 32  1  0  0  0
 32 31  1  0  0  0
 31  1  1  0  0  0
  1  2  2  0  0  0
  2  3  1  0  0  0
  3  4  2  0  0  0
  4  5  1  0  0  0
  5  6  2  0  0  0
  6  7  1  0  0  0
  7  8  2  0  0  0
  8 11  1  0  0  0
 11 13  1  0  0  0
 13 14  2  0  0  0
 14 15  1  0  0  0
 15 16  2  0  0  0
 16 20  1  0  0  0
 20 21  1  0  0  0
 21 22  2  0  0  0
 22 23  1  0  0  0
 23 24  2  0  0  0
 24 25  1  0  0  0
 25 27  1  0  0  0
 27 28  1  0  0  0
 27 29  1  0  0  0
 27 30  1  0  0  0
 25 26  2  0  0  0
 16 17  1  0  0  0
 17 18  1  0  0  0
 17 19  2  0  0  0
  8  9  1  0  0  0
  9 10  2  0  0  0
 10  1  1  0  0  0
  9  4  1  0  0  0
 19 13  1  0  0  0
 26 21  1  0  0  0
 41 42  1  0  0  0
 35 36  1  0  0  0
 11 12  1  0  0  0
M  END
> <minimizedAffinity>
-9.24952

> <CNNscore>
0.3415178955

> <CNNaffinity>
7.3201074600

> <CNN_VS>
2.4999477863

> <CNNaffinity_variance>
0.2063031942

$$$$
[H]OC(C([H])([H])[H])(C([H])([H])[H])C([H])([H])C(=O)N([H])C([H])([H])C([H])([H])c1c([H])c([H])c2nc([H])nc(N([H])c3c([H])c([H])c(Oc4c([H])c([H])c([H])c(C(F)(F)F)c4[H])c(Cl)c3[H])c2c1[H]


 42 45  0  0  0  0  0  0  0  0999 V2000
   -0.8193   21.6623  -23.9754 C   0  0  0  0  0  0  0  0  0  0  0  0
    0.5129   21.7153  -24.2736 C   0  0  0  0  0  0  0  0  0  0  0  0
    0.9367   22.1206  -25.5012 C   0  0  0  0  0  0  0  0  0  0  0  0
    0.0352   22.4882  -26.4908 C   0  0  0  0  0  0  0  0  0  0  0  0
    0.5313   22.8645  -27.6868 N   0  0  0  0  0  0  0  0  0  0  0  0
   -0.3260   23.2037  -28.6600 C   0  0  0  0  0  0  0  0  0  0  0  0
   -1.6207   23.1426  -28.3733 N   0  0  0  0  0  0  0  0  0  0  0  0
   -2.1856   22.7864  -27.2304 C   0  0  0  0  0  0  0  0  0  0  0  0
   -1.3101   22.4321  -26.1966 C   0  0  0  0  0  0  0  0  0  0  0  0
   -1.7465   22.0343  -24.9752 C   0  0  0  0  0  0  0  0  0  0  0  0
   -3.5777   22.6892  -27.0544 N   0  0  0  0  0  0  0  0  0  0  0  0
   -4.2012   22.1814  -27.7330 H   0  0  0  0  0  0  0  0  0  0  0  0
   -4.2565   23.2747  -25.9534 C   0  0  0  0  0  0  0  0  0  0  0  0
   -4.2861   24.6047  -25.6700 C   0  0  0  0  0  0  0  0  0  0  0  0
   -5.0642   25.1304  -24.6344 C   0  0  0  0  0  0  0  0  0  0  0  0
   -5.8499   24.2741  -23.8428 C   0  0  0  0  0  0  0  0  0  0  0  0
   -5.8291   22.9248  -24.1109 C   0  0  0  0  0  0  0  0  0  0  0  0
   -6.7747   21.7789  -23.1409 Cl  0  0  0  0  0  0  0  0  0  0  0  0
   -5.0462   22.4620  -25.1443 C   0  0  0  0  0  0  0  0  0  0  0  0
   -6.5798   24.8437  -22.8701 O   0  0  0  0  0  0  0  0  0  0  0  0
   -7.8073   24.7069  -22.3415 C   0  0  0  0  0  0  0  0  0  0  0  0
   -8.8510   25.4865  -22.8672 C   0  0  0  0  0  0  0  0  0  0  0  0
  -10.1081   25.3624  -22.3471 C   0  0  0  0  0  0  0  0  0  0  0  0
  -10.3369   24.4778  -21.3159 C   0  0  0  0  0  0  0  0  0  0  0  0
   -9.3365   23.7014  -20.7770 C   0  0  0  0  0  0  0  0  0  0  0  0
   -8.0742   23.8178  -21.2929 C   0  0  0  0  0  0  0  0  0  0  0  0
   -9.6645   22.7891  -19.6493 C   0  0  0  0  0  0  0  0  0  0  0  0
  -11.0460   22.8485  -19.3814 F   0  0  0  0  0  0  0  0  0  0  0  0
   -9.4121   21.4988  -20.0675 F   0  0  0  0  0  0  0  0  0  0  0  0
   -8.9235   23.0567  -18.5336 F   0  0  0  0  0  0  0  0  0  0  0  0
   -1.3119   21.1906  -22.7019 C   0  0  0  0  0  0  0  0  0  0  0  0
   -1.3605   22.1940  -21.5676 C   0  0  0  0  0  0  0  0  0  0  0  0
   -3.9112   22.7782  -20.7203 C   0  0  0  0  0  0  0  0  0  0  0  0
   -4.4323   23.9066  -20.6233 O   0  0  0  0  0  0  0  0  0  0  0  0
   -2.6370   22.4847  -21.1434 N   0  0  0  0  0  0  0  0  0  0  0  0
   -2.4510   23.7983  -21.4739 H   0  0  0  0  0  0  0  0  0  0  0  0
   -4.8204   21.6413  -20.3154 C   0  0  0  0  0  0  0  0  0  0  0  0
   -3.8463   20.2879  -18.5064 C   0  0  0  0  0  0  0  0  0  0  0  0
   -4.8569   21.3269  -18.8801 C   0  0  0  0  0  0  0  0  0  0  0  0
   -6.2475   21.0173  -18.3513 C   0  0  0  0  0  0  0  0  0  0  0  0
   -4.4473   22.5354  -18.2117 O   0  0  0  0  0  0  0  0  0  0  0  0
   -4.8750   23.2751  -18.7215 H   0  0  0  0  0  0  0  0  0  0  0  0
 38 39  1  0  0  0
 39 40  1  0  0  0
 39 41  1  0  0  0
 39 37  1  0  0  0
 37 33  1  0  0  0
 33 34  2  0  0  0
 33 35  1  0  0  0
 35 32  1  0  0  0
 32 31  1  0  0  0
 31  1  1  0  0  0
  1  2  2  0  0  0
  2  3  1  0  0  0
  3  4  2  0  0  0
  4  5  1  0  0  0
  5  6  2  0  0  0
  6  7  1  0  0  0
  7  8  2  0  0  0
  8 11  1  0  0  0
 11 13  1  0  0  0
 13 14  2  0  0  0
 14 15  1  0  0  0
 15 16  2  0  0  0
 16 20  1  0  0  0
 20 21  1  0  0  0
 21 22  2  0  0  0
 22 23  1  0  0  0
 23 24  2  0  0  0
 24 25  1  0  0  0
 25 27  1  0  0  0
 27 28  1  0  0  0
 27 29  1  0  0  0
 27 30  1  0  0  0
 25 26  2  0  0  0
 16 17  1  0  0  0
 17 18  1  0  0  0
 17 19  2  0  0  0
  8  9  1  0  0  0
  9 10  2  0  0  0
 10  1  1  0  0  0
  9  4  1  0  0  0
 19 13  1  0  0  0
 26 21  1  0  0  0
 41 42  1  0  0  0
 35 36  1  0  0  0
 11 12  1  0  0  0
M  END
> <minimizedAffinity>
-8.76993

> <CNNscore>
0.3370094299

> <CNNaffinity>
7.2034711838

> <CNN_VS>
2.4276378155

> <CNNaffinity_variance>
0.1843538880

$$$$
[H]OC(C([H])([H])[H])(C([H])([H])[H])C([H])([H])C(=O)N([H])C([H])([H])C([H])([H])c1c([H])c([H])c2nc([H])nc(N([H])c3c([H])c([H])c(Oc4c([H])c([H])c([H])c(C(F)(F)F)c4[H])c(Cl)c3[H])c2c1[H]


 42 45  0  0  0  0  0  0  0  0999 V2000
   -4.3920   22.8501  -26.1741 C   0  0  0  0  0  0  0  0  0  0  0  0
   -4.1806   23.2207  -27.4720 C   0  0  0  0  0  0  0  0  0  0  0  0
   -2.9317   23.1914  -28.0106 C   0  0  0  0  0  0  0  0  0  0  0  0
   -1.8326   22.7905  -27.2632 C   0  0  0  0  0  0  0  0  0  0  0  0
   -0.6249   22.8022  -27.8625 N   0  0  0  0  0  0  0  0  0  0  0  0
    0.4499   22.4371  -27.1493 C   0  0  0  0  0  0  0  0  0  0  0  0
    0.2458   22.0866  -25.8854 N   0  0  0  0  0  0  0  0  0  0  0  0
   -0.9014   22.0475  -25.2263 C   0  0  0  0  0  0  0  0  0  0  0  0
   -2.0396   22.4201  -25.9519 C   0  0  0  0  0  0  0  0  0  0  0  0
   -3.2803   22.4402  -25.4033 C   0  0  0  0  0  0  0  0  0  0  0  0
   -0.9969   21.7260  -23.8604 N   0  0  0  0  0  0  0  0  0  0  0  0
   -1.9119   21.7228  -23.3409 H   0  0  0  0  0  0  0  0  0  0  0  0
    0.1325   21.3886  -23.0689 C   0  0  0  0  0  0  0  0  0  0  0  0
    1.4112   21.3059  -23.5252 C   0  0  0  0  0  0  0  0  0  0  0  0
    2.4951   21.0775  -22.6724 C   0  0  0  0  0  0  0  0  0  0  0  0
    2.2808   20.9221  -21.2913 C   0  0  0  0  0  0  0  0  0  0  0  0
    0.9936   20.9975  -20.8115 C   0  0  0  0  0  0  0  0  0  0  0  0
    0.6410   20.7879  -19.0852 Cl  0  0  0  0  0  0  0  0  0  0  0  0
   -0.0359   21.2264  -21.6963 C   0  0  0  0  0  0  0  0  0  0  0  0
    3.3651   20.7134  -20.5270 O   0  0  0  0  0  0  0  0  0  0  0  0
    4.1812   21.4384  -19.7438 C   0  0  0  0  0  0  0  0  0  0  0  0
    5.5388   21.0822  -19.6840 C   0  0  0  0  0  0  0  0  0  0  0  0
    6.3879   21.8065  -18.8963 C   0  0  0  0  0  0  0  0  0  0  0  0
    5.9046   22.8737  -18.1713 C   0  0  0  0  0  0  0  0  0  0  0  0
    4.5804   23.2474  -18.2059 C   0  0  0  0  0  0  0  0  0  0  0  0
    3.7227   22.5285  -18.9937 C   0  0  0  0  0  0  0  0  0  0  0  0
    4.1372   24.3976  -17.3740 C   0  0  0  0  0  0  0  0  0  0  0  0
    4.1764   24.0378  -16.0129 F   0  0  0  0  0  0  0  0  0  0  0  0
    5.0639   25.4080  -17.5286 F   0  0  0  0  0  0  0  0  0  0  0  0
    2.9029   24.8556  -17.7382 F   0  0  0  0  0  0  0  0  0  0  0  0
   -5.6932   22.9145  -25.5502 C   0  0  0  0  0  0  0  0  0  0  0  0
   -5.9293   22.0139  -24.3547 C   0  0  0  0  0  0  0  0  0  0  0  0
   -6.0200   23.3608  -21.9583 C   0  0  0  0  0  0  0  0  0  0  0  0
   -6.0506   22.8631  -20.8157 O   0  0  0  0  0  0  0  0  0  0  0  0
   -5.9746   22.6892  -23.1565 N   0  0  0  0  0  0  0  0  0  0  0  0
   -5.8262   21.5092  -22.4821 H   0  0  0  0  0  0  0  0  0  0  0  0
   -6.0374   24.8717  -21.9744 C   0  0  0  0  0  0  0  0  0  0  0  0
   -8.4625   24.6924  -22.3482 C   0  0  0  0  0  0  0  0  0  0  0  0
   -7.2210   25.4946  -22.5837 C   0  0  0  0  0  0  0  0  0  0  0  0
   -7.0336   25.8810  -24.0415 C   0  0  0  0  0  0  0  0  0  0  0  0
   -7.4107   26.7341  -21.8746 O   0  0  0  0  0  0  0  0  0  0  0  0
   -6.4952   27.0948  -21.7274 H   0  0  0  0  0  0  0  0  0  0  0  0
 38 39  1  0  0  0
 39 40  1  0  0  0
 39 41  1  0  0  0
 39 37  1  0  0  0
 37 33  1  0  0  0
 33 34  2  0  0  0
 33 35  1  0  0  0
 35 32  1  0  0  0
 32 31  1  0  0  0
 31  1  1  0  0  0
  1  2  2  0  0  0
  2  3  1  0  0  0
  3  4  2  0  0  0
  4  5  1  0  0  0
  5  6  2  0  0  0
  6  7  1  0  0  0
  7  8  2  0  0  0
  8 11  1  0  0  0
 11 13  1  0  0  0
 13 14  2  0  0  0
 14 15  1  0  0  0
 15 16  2  0  0  0
 16 20  1  0  0  0
 20 21  1  0  0  0
 21 22  2  0  0  0
 22 23  1  0  0  0
 23 24  2  0  0  0
 24 25  1  0  0  0
 25 27  1  0  0  0
 27 28  1  0  0  0
 27 29  1  0  0  0
 27 30  1  0  0  0
 25 26  2  0  0  0
 16 17  1  0  0  0
 17 18  1  0  0  0
 17 19  2  0  0  0
  8  9  1  0  0  0
  9 10  2  0  0  0
 10  1  1  0  0  0
  9  4  1  0  0  0
 19 13  1  0  0  0
 26 21  1  0  0  0
 41 42  1  0  0  0
 35 36  1  0  0  0
 11 12  1  0  0  0
M  END
> <minimizedAffinity>
-9.16616

> <CNNscore>
0.3293201625

> <CNNaffinity>
7.2870421410

> <CNN_VS>
2.3997700214

> <CNNaffinity_variance>
0.1334430277

$$$$
[H]OC(C([H])([H])[H])(C([H])([H])[H])C([H])([H])C(=O)N([H])C([H])([H])C([H])([H])c1c([H])c([H])c2nc([H])nc(N([H])c3c([H])c([H])c(Oc4c([H])c([H])c([H])c(C(F)(F)F)c4[H])c(Cl)c3[H])c2c1[H]


 42 45  0  0  0  0  0  0  0  0999 V2000
   -3.8088   23.1249  -27.1892 C   0  0  0  0  0  0  0  0  0  0  0  0
   -2.9948   23.2354  -28.2809 C   0  0  0  0  0  0  0  0  0  0  0  0
   -1.6687   22.9441  -28.1937 C   0  0  0  0  0  0  0  0  0  0  0  0
   -1.0977   22.5310  -26.9977 C   0  0  0  0  0  0  0  0  0  0  0  0
    0.2261   22.2750  -26.9868 N   0  0  0  0  0  0  0  0  0  0  0  0
    0.7974   21.8942  -25.8354 C   0  0  0  0  0  0  0  0  0  0  0  0
    0.0083   21.7965  -24.7726 N   0  0  0  0  0  0  0  0  0  0  0  0
   -1.2930   22.0278  -24.7006 C   0  0  0  0  0  0  0  0  0  0  0  0
   -1.9136   22.4224  -25.8923 C   0  0  0  0  0  0  0  0  0  0  0  0
   -3.2384   22.7052  -25.9660 C   0  0  0  0  0  0  0  0  0  0  0  0
   -2.0242   21.9610  -23.5009 N   0  0  0  0  0  0  0  0  0  0  0  0
   -3.0640   21.8019  -23.4784 H   0  0  0  0  0  0  0  0  0  0  0  0
   -1.4221   22.1114  -22.2239 C   0  0  0  0  0  0  0  0  0  0  0  0
   -1.6516   23.1427  -21.3673 C   0  0  0  0  0  0  0  0  0  0  0  0
   -1.1126   23.1766  -20.0779 C   0  0  0  0  0  0  0  0  0  0  0  0
   -0.2998   22.1205  -19.6292 C   0  0  0  0  0  0  0  0  0  0  0  0
   -0.0520   21.0707  -20.4832 C   0  0  0  0  0  0  0  0  0  0  0  0
    0.9830   19.7137  -19.9978 Cl  0  0  0  0  0  0  0  0  0  0  0  0
   -0.6103   21.0882  -21.7414 C   0  0  0  0  0  0  0  0  0  0  0  0
    0.1796   22.2108  -18.3780 O   0  0  0  0  0  0  0  0  0  0  0  0
    1.2491   22.7405  -17.7612 C   0  0  0  0  0  0  0  0  0  0  0  0
    1.9685   23.7500  -18.4220 C   0  0  0  0  0  0  0  0  0  0  0  0
    3.0582   24.3051  -17.8131 C   0  0  0  0  0  0  0  0  0  0  0  0
    3.4381   23.8695  -16.5625 C   0  0  0  0  0  0  0  0  0  0  0  0
    2.7567   22.8814  -15.8891 C   0  0  0  0  0  0  0  0  0  0  0  0
    1.6627   22.3206  -16.4908 C   0  0  0  0  0  0  0  0  0  0  0  0
    3.2481   22.4536  -14.5523 C   0  0  0  0  0  0  0  0  0  0  0  0
    2.5790   21.2786  -14.1579 F   0  0  0  0  0  0  0  0  0  0  0  0
    4.5775   22.1092  -14.6854 F   0  0  0  0  0  0  0  0  0  0  0  0
    3.1274   23.4401  -13.6155 F   0  0  0  0  0  0  0  0  0  0  0  0
   -5.2105   23.4721  -27.2275 C   0  0  0  0  0  0  0  0  0  0  0  0
   -5.5551   24.9476  -27.2242 C   0  0  0  0  0  0  0  0  0  0  0  0
   -6.7690   25.7925  -24.9052 C   0  0  0  0  0  0  0  0  0  0  0  0
   -6.7039   26.9264  -24.3912 O   0  0  0  0  0  0  0  0  0  0  0  0
   -6.1632   25.3688  -26.0637 N   0  0  0  0  0  0  0  0  0  0  0  0
   -5.7478   26.6486  -26.3069 H   0  0  0  0  0  0  0  0  0  0  0  0
   -7.6186   24.8116  -24.1310 C   0  0  0  0  0  0  0  0  0  0  0  0
   -6.3120   22.7696  -23.7116 C   0  0  0  0  0  0  0  0  0  0  0  0
   -6.9144   24.0068  -23.1228 C   0  0  0  0  0  0  0  0  0  0  0  0
   -7.7329   23.7294  -21.8727 C   0  0  0  0  0  0  0  0  0  0  0  0
   -5.8061   24.8184  -22.6891 O   0  0  0  0  0  0  0  0  0  0  0  0
   -6.1633   25.7458  -22.6403 H   0  0  0  0  0  0  0  0  0  0  0  0
 38 39  1  0  0  0
 39 40  1  0  0  0
 39 41  1  0  0  0
 39 37  1  0  0  0
 37 33  1  0  0  0
 33 34  2  0  0  0
 33 35  1  0  0  0
 35 32  1  0  0  0
 32 31  1  0  0  0
 31  1  1  0  0  0
  1  2  2  0  0  0
  2  3  1  0  0  0
  3  4  2  0  0  0
  4  5  1  0  0  0
  5  6  2  0  0  0
  6  7  1  0  0  0
  7  8  2  0  0  0
  8 11  1  0  0  0
 11 13  1  0  0  0
 13 14  2  0  0  0
 14 15  1  0  0  0
 15 16  2  0  0  0
 16 20  1  0  0  0
 20 21  1  0  0  0
 21 22  2  0  0  0
 22 23  1  0  0  0
 23 24  2  0  0  0
 24 25  1  0  0  0
 25 27  1  0  0  0
 27 28  1  0  0  0
 27 29  1  0  0  0
 27 30  1  0  0  0
 25 26  2  0  0  0
 16 17  1  0  0  0
 17 18  1  0  0  0
 17 19  2  0  0  0
  8  9  1  0  0  0
  9 10  2  0  0  0
 10  1  1  0  0  0
  9  4  1  0  0  0
 19 13  1  0  0  0
 26 21  1  0  0  0
 41 42  1  0  0  0
 35 36  1  0  0  0
 11 12  1  0  0  0
M  END
> <minimizedAffinity>
-8.80508

> <CNNscore>
0.3262346089

> <CNNaffinity>
7.1846189499

> <CNN_VS>
2.3438713551

> <CNNaffinity_variance>
0.0527176037

$$$$
[H]OC(C([H])([H])[H])(C([H])([H])[H])C([H])([H])C(=O)N([H])C([H])([H])C([H])([H])c1c([H])c([H])c2nc([H])nc(N([H])c3c([H])c([H])c(Oc4c([H])c([H])c([H])c(C(F)(F)F)c4[H])c(Cl)c3[H])c2c1[H]


 42 45  0  0  0  0  0  0  0  0999 V2000
   -3.6302   23.4090  -27.8656 C   0  0  0  0  0  0  0  0  0  0  0  0
   -2.7077   23.5699  -28.8604 C   0  0  0  0  0  0  0  0  0  0  0  0
   -1.3982   23.2651  -28.6526 C   0  0  0  0  0  0  0  0  0  0  0  0
   -0.9543   22.7867  -27.4273 C   0  0  0  0  0  0  0  0  0  0  0  0
    0.3609   22.5211  -27.2937 N   0  0  0  0  0  0  0  0  0  0  0  0
    0.8098   22.0772  -26.1110 C   0  0  0  0  0  0  0  0  0  0  0  0
   -0.0849   21.9305  -25.1415 N   0  0  0  0  0  0  0  0  0  0  0  0
   -1.3863   22.1670  -25.1919 C   0  0  0  0  0  0  0  0  0  0  0  0
   -1.8800   22.6270  -26.4189 C   0  0  0  0  0  0  0  0  0  0  0  0
   -3.1897   22.9227  -26.6137 C   0  0  0  0  0  0  0  0  0  0  0  0
   -2.2374   22.0435  -24.0789 N   0  0  0  0  0  0  0  0  0  0  0  0
   -3.2763   21.9051  -24.1717 H   0  0  0  0  0  0  0  0  0  0  0  0
   -1.7672   22.1044  -22.7406 C   0  0  0  0  0  0  0  0  0  0  0  0
   -1.9404   23.1577  -21.8976 C   0  0  0  0  0  0  0  0  0  0  0  0
   -1.5502   23.1123  -20.5559 C   0  0  0  0  0  0  0  0  0  0  0  0
   -0.9537   21.9493  -20.0375 C   0  0  0  0  0  0  0  0  0  0  0  0
   -0.7655   20.8750  -20.8763 C   0  0  0  0  0  0  0  0  0  0  0  0
    0.0020   19.3820  -20.3018 Cl  0  0  0  0  0  0  0  0  0  0  0  0
   -1.1706   20.9740  -22.1882 C   0  0  0  0  0  0  0  0  0  0  0  0
   -0.6098   21.9685  -18.7395 O   0  0  0  0  0  0  0  0  0  0  0  0
    0.5196   22.0058  -18.0129 C   0  0  0  0  0  0  0  0  0  0  0  0
    0.7804   20.9447  -17.1300 C   0  0  0  0  0  0  0  0  0  0  0  0
    1.9238   20.9599  -16.3826 C   0  0  0  0  0  0  0  0  0  0  0  0
    2.8047   22.0126  -16.5024 C   0  0  0  0  0  0  0  0  0  0  0  0
    2.5780   23.0681  -17.3560 C   0  0  0  0  0  0  0  0  0  0  0  0
    1.4357   23.0605  -18.1099 C   0  0  0  0  0  0  0  0  0  0  0  0
    3.5689   24.1758  -17.4069 C   0  0  0  0  0  0  0  0  0  0  0  0
    4.6477   23.8056  -18.2333 F   0  0  0  0  0  0  0  0  0  0  0  0
    2.9647   25.2502  -18.0266 F   0  0  0  0  0  0  0  0  0  0  0  0
    3.9927   24.5498  -16.1634 F   0  0  0  0  0  0  0  0  0  0  0  0
   -5.0198   23.7676  -28.0297 C   0  0  0  0  0  0  0  0  0  0  0  0
   -5.3738   25.2344  -27.8910 C   0  0  0  0  0  0  0  0  0  0  0  0
   -4.4930   26.3653  -25.5435 C   0  0  0  0  0  0  0  0  0  0  0  0
   -4.1972   27.5605  -25.3481 O   0  0  0  0  0  0  0  0  0  0  0  0
   -4.9332   25.7987  -26.7157 N   0  0  0  0  0  0  0  0  0  0  0  0
   -5.0051   27.0413  -27.2817 H   0  0  0  0  0  0  0  0  0  0  0  0
   -4.3321   25.4827  -24.3275 C   0  0  0  0  0  0  0  0  0  0  0  0
   -5.2628   24.9557  -22.1119 C   0  0  0  0  0  0  0  0  0  0  0  0
   -5.5554   25.2229  -23.5553 C   0  0  0  0  0  0  0  0  0  0  0  0
   -6.4680   24.1790  -24.1773 C   0  0  0  0  0  0  0  0  0  0  0  0
   -6.2985   26.4565  -23.5863 O   0  0  0  0  0  0  0  0  0  0  0  0
   -6.1805   26.8108  -24.5086 H   0  0  0  0  0  0  0  0  0  0  0  0
 38 39  1  0  0  0
 39 40  1  0  0  0
 39 41  1  0  0  0
 39 37  1  0  0  0
 37 33  1  0  0  0
 33 34  2  0  0  0
 33 35  1  0  0  0
 35 32  1  0  0  0
 32 31  1  0  0  0
 31  1  1  0  0  0
  1  2  2  0  0  0
  2  3  1  0  0  0
  3  4  2  0  0  0
  4  5  1  0  0  0
  5  6  2  0  0  0
  6  7  1  0  0  0
  7  8  2  0  0  0
  8 11  1  0  0  0
 11 13  1  0  0  0
 13 14  2  0  0  0
 14 15  1  0  0  0
 15 16  2  0  0  0
 16 20  1  0  0  0
 20 21  1  0  0  0
 21 22  2  0  0  0
 22 23  1  0  0  0
 23 24  2  0  0  0
 24 25  1  0  0  0
 25 27  1  0  0  0
 27 28  1  0  0  0
 27 29  1  0  0  0
 27 30  1  0  0  0
 25 26  2  0  0  0
 16 17  1  0  0  0
 17 18  1  0  0  0
 17 19  2  0  0  0
  8  9  1  0  0  0
  9 10  2  0  0  0
 10  1  1  0  0  0
  9  4  1  0  0  0
 19 13  1  0  0  0
 26 21  1  0  0  0
 41 42  1  0  0  0
 35 36  1  0  0  0
 11 12  1  0  0  0
M  END
> <minimizedAffinity>
-9.07451

> <CNNscore>
0.3021986783

> <CNNaffinity>
7.3506026268

> <CNN_VS>
2.2213423252

> <CNNaffinity_variance>
0.0589196607

$$$$
[H]OC(=O)c1c([H])c([H])c(C([H])([H])N([H])C(=O)c2c([H])c([H])c(C(C([H])([H])[H])(C([H])([H])[H])C([H])([H])[H])c([H])c2[H])c([H])c1F


 26 27  0  0  0  0  0  0  0  0999 V2000
   -0.3023   21.9065  -24.7643 C   0  0  0  0  0  0  0  0  0  0  0  0
    0.7778   21.6973  -25.3913 O   0  0  0  0  0  0  0  0  0  0  0  0
   -1.4801   22.1215  -25.4903 N   0  0  0  0  0  0  0  0  0  0  0  0
   -2.3749   22.2819  -24.9331 H   0  0  0  0  0  0  0  0  0  0  0  0
   -0.3619   22.0183  -20.4976 C   0  0  0  0  0  0  0  0  0  0  0  0
    0.4869   21.1725  -21.1862 C   0  0  0  0  0  0  0  0  0  0  0  0
    0.5085   21.1217  -22.5638 C   0  0  0  0  0  0  0  0  0  0  0  0
   -0.3287   21.9232  -23.3095 C   0  0  0  0  0  0  0  0  0  0  0  0
   -1.1848   22.7731  -22.6663 C   0  0  0  0  0  0  0  0  0  0  0  0
   -1.1816   22.8015  -21.2703 C   0  0  0  0  0  0  0  0  0  0  0  0
   -1.6636   22.7966  -18.5998 C   0  0  0  0  0  0  0  0  0  0  0  0
   -0.3901   22.0799  -19.0019 C   0  0  0  0  0  0  0  0  0  0  0  0
    0.7683   22.9154  -18.5101 C   0  0  0  0  0  0  0  0  0  0  0  0
   -0.3083   20.6993  -18.3832 C   0  0  0  0  0  0  0  0  0  0  0  0
   -1.6355   22.1326  -26.9143 C   0  0  0  0  0  0  0  0  0  0  0  0
   -2.8252   22.8982  -27.3582 C   0  0  0  0  0  0  0  0  0  0  0  0
   -3.3519   23.8594  -26.4711 C   0  0  0  0  0  0  0  0  0  0  0  0
   -4.4311   24.6272  -26.8234 C   0  0  0  0  0  0  0  0  0  0  0  0
   -5.0674   24.5111  -28.0577 C   0  0  0  0  0  0  0  0  0  0  0  0
   -4.5597   23.5714  -28.9316 C   0  0  0  0  0  0  0  0  0  0  0  0
   -5.1387   23.4215  -30.1500 F   0  0  0  0  0  0  0  0  0  0  0  0
   -3.4571   22.7905  -28.5653 C   0  0  0  0  0  0  0  0  0  0  0  0
   -6.1952   25.3649  -28.3752 C   0  0  0  0  0  0  0  0  0  0  0  0
   -7.0686   25.5409  -27.4808 O   0  0  0  0  0  0  0  0  0  0  0  0
   -6.3133   25.9637  -29.5993 O   0  0  0  0  0  0  0  0  0  0  0  0
   -5.9097   26.8714  -29.8552 H   0  0  0  0  0  0  0  0  0  0  0  0
 11 12  1  0  0  0
 12 13  1  0  0  0
 12 14  1  0  0  0
 12  5  1  0  0  0
  5  6  2  0  0  0
  6  7  1  0  0  0
  7  8  2  0  0  0
  8  1  1  0  0  0
  1  2  2  0  0  0
  1  3  1  0  0  0
  3 15  1  0  0  0
 15 16  1  0  0  0
 16 17  2  0  0  0
 17 18  1  0  0  0
 18 19  2  0  0  0
 19 23  1  0  0  0
 23 24  2  0  0  0
 23 25  1  0  0  0
 19 20  1  0  0  0
 20 21  1  0  0  0
 20 22  2  0  0  0
  8  9  1  0  0  0
  9 10  2  0  0  0
 10  5  1  0  0  0
 22 16  1  0  0  0
  3  4  1  0  0  0
 25 26  1  0  0  0
M  END
> <minimizedAffinity>
-7.72264

> <CNNscore>
0.4920396209

> <CNNaffinity>
5.8112058640

> <CNN_VS>
2.8593435287

> <CNNaffinity_variance>
0.3571247458

$$$$
[H]OC(=O)c1c([H])c([H])c(C([H])([H])N([H])C(=O)c2c([H])c([H])c(C(C([H])([H])[H])(C([H])([H])[H])C([H])([H])[H])c([H])c2[H])c([H])c1F


 26 27  0  0  0  0  0  0  0  0999 V2000
   -0.2380   22.2645  -25.7783 C   0  0  0  0  0  0  0  0  0  0  0  0
    0.5403   22.6275  -26.7089 O   0  0  0  0  0  0  0  0  0  0  0  0
   -1.6214   22.3233  -25.9861 N   0  0  0  0  0  0  0  0  0  0  0  0
   -2.2494   21.9986  -25.1879 H   0  0  0  0  0  0  0  0  0  0  0  0
    1.2902   20.9278  -22.0235 C   0  0  0  0  0  0  0  0  0  0  0  0
    2.1132   21.0899  -23.1218 C   0  0  0  0  0  0  0  0  0  0  0  0
    1.6291   21.5127  -24.3416 C   0  0  0  0  0  0  0  0  0  0  0  0
    0.2893   21.7898  -24.5079 C   0  0  0  0  0  0  0  0  0  0  0  0
   -0.5587   21.6406  -23.4461 C   0  0  0  0  0  0  0  0  0  0  0  0
   -0.0371   21.2118  -22.2239 C   0  0  0  0  0  0  0  0  0  0  0  0
    2.0318   18.9739  -20.7847 C   0  0  0  0  0  0  0  0  0  0  0  0
    1.8087   20.4704  -20.6955 C   0  0  0  0  0  0  0  0  0  0  0  0
    0.7572   20.7040  -19.6364 C   0  0  0  0  0  0  0  0  0  0  0  0
    3.0783   21.2012  -20.3085 C   0  0  0  0  0  0  0  0  0  0  0  0
   -2.3069   22.7551  -27.1676 C   0  0  0  0  0  0  0  0  0  0  0  0
   -3.6268   23.3652  -26.8774 C   0  0  0  0  0  0  0  0  0  0  0  0
   -4.3668   22.8392  -25.7985 C   0  0  0  0  0  0  0  0  0  0  0  0
   -5.5810   23.3712  -25.4507 C   0  0  0  0  0  0  0  0  0  0  0  0
   -6.1539   24.4464  -26.1271 C   0  0  0  0  0  0  0  0  0  0  0  0
   -5.4374   24.9665  -27.1857 C   0  0  0  0  0  0  0  0  0  0  0  0
   -5.9474   26.0184  -27.8753 F   0  0  0  0  0  0  0  0  0  0  0  0
   -4.1978   24.4182  -27.5356 C   0  0  0  0  0  0  0  0  0  0  0  0
   -7.4349   24.9730  -25.6989 C   0  0  0  0  0  0  0  0  0  0  0  0
   -8.4598   24.6253  -26.3490 O   0  0  0  0  0  0  0  0  0  0  0  0
   -7.5364   25.8161  -24.6267 O   0  0  0  0  0  0  0  0  0  0  0  0
   -7.6444   25.5210  -23.6502 H   0  0  0  0  0  0  0  0  0  0  0  0
 11 12  1  0  0  0
 12 13  1  0  0  0
 12 14  1  0  0  0
 12  5  1  0  0  0
  5  6  2  0  0  0
  6  7  1  0  0  0
  7  8  2  0  0  0
  8  1  1  0  0  0
  1  2  2  0  0  0
  1  3  1  0  0  0
  3 15  1  0  0  0
 15 16  1  0  0  0
 16 17  2  0  0  0
 17 18  1  0  0  0
 18 19  2  0  0  0
 19 23  1  0  0  0
 23 24  2  0  0  0
 23 25  1  0  0  0
 19 20  1  0  0  0
 20 21  1  0  0  0
 20 22  2  0  0  0
  8  9  1  0  0  0
  9 10  2  0  0  0
 10  5  1  0  0  0
 22 16  1  0  0  0
  3  4  1  0  0  0
 25 26  1  0  0  0
M  END
> <minimizedAffinity>
-7.58889

> <CNNscore>
0.4447568953

> <CNNaffinity>
5.6485128403

> <CNN_VS>
2.5122151375

> <CNNaffinity_variance>
0.2044070959

$$$$
[H]OC(=O)c1c([H])c([H])c(C([H])([H])N([H])C(=O)c2c([H])c([H])c(C(C([H])([H])[H])(C([H])([H])[H])C([H])([H])[H])c([H])c2[H])c([H])c1F


 26 27  0  0  0  0  0  0  0  0999 V2000
   -1.1520   22.2550  -25.3701 C   0  0  0  0  0  0  0  0  0  0  0  0
   -0.0176   21.8424  -25.7526 O   0  0  0  0  0  0  0  0  0  0  0  0
   -1.5048   22.1237  -24.0215 N   0  0  0  0  0  0  0  0  0  0  0  0
   -2.4616   22.4924  -23.7288 H   0  0  0  0  0  0  0  0  0  0  0  0
   -3.8315   24.0675  -28.1550 C   0  0  0  0  0  0  0  0  0  0  0  0
   -4.0383   24.1560  -26.7915 C   0  0  0  0  0  0  0  0  0  0  0  0
   -3.1844   23.5672  -25.8832 C   0  0  0  0  0  0  0  0  0  0  0  0
   -2.0819   22.8599  -26.3118 C   0  0  0  0  0  0  0  0  0  0  0  0
   -1.8425   22.7477  -27.6530 C   0  0  0  0  0  0  0  0  0  0  0  0
   -2.7256   23.3564  -28.5471 C   0  0  0  0  0  0  0  0  0  0  0  0
   -5.8005   25.4747  -28.3670 C   0  0  0  0  0  0  0  0  0  0  0  0
   -4.7535   24.7053  -29.1474 C   0  0  0  0  0  0  0  0  0  0  0  0
   -5.4755   23.6315  -29.9269 C   0  0  0  0  0  0  0  0  0  0  0  0
   -4.0045   25.6035  -30.1106 C   0  0  0  0  0  0  0  0  0  0  0  0
   -0.7157   21.5631  -22.9655 C   0  0  0  0  0  0  0  0  0  0  0  0
   -1.2557   21.8675  -21.6186 C   0  0  0  0  0  0  0  0  0  0  0  0
   -2.6549   21.8201  -21.4497 C   0  0  0  0  0  0  0  0  0  0  0  0
   -3.2257   22.0594  -20.2269 C   0  0  0  0  0  0  0  0  0  0  0  0
   -2.4759   22.3596  -19.0913 C   0  0  0  0  0  0  0  0  0  0  0  0
   -1.1057   22.4098  -19.2478 C   0  0  0  0  0  0  0  0  0  0  0  0
   -0.3278   22.6923  -18.1720 F   0  0  0  0  0  0  0  0  0  0  0  0
   -0.5293   22.1644  -20.4997 C   0  0  0  0  0  0  0  0  0  0  0  0
   -3.1402   22.5867  -17.8229 C   0  0  0  0  0  0  0  0  0  0  0  0
   -3.8022   23.6535  -17.6894 O   0  0  0  0  0  0  0  0  0  0  0  0
   -3.0582   21.6792  -16.8029 O   0  0  0  0  0  0  0  0  0  0  0  0
   -3.6856   20.8782  -16.6718 H   0  0  0  0  0  0  0  0  0  0  0  0
 11 12  1  0  0  0
 12 13  1  0  0  0
 12 14  1  0  0  0
 12  5  1  0  0  0
  5  6  2  0  0  0
  6  7  1  0  0  0
  7  8  2  0  0  0
  8  1  1  0  0  0
  1  2  2  0  0  0
  1  3  1  0  0  0
  3 15  1  0  0  0
 15 16  1  0  0  0
 16 17  2  0  0  0
 17 18  1  0  0  0
 18 19  2  0  0  0
 19 23  1  0  0  0
 23 24  2  0  0  0
 23 25  1  0  0  0
 19 20  1  0  0  0
 20 21  1  0  0  0
 20 22  2  0  0  0
  8  9  1  0  0  0
  9 10  2  0  0  0
 10  5  1  0  0  0
 22 16  1  0  0  0
  3  4  1  0  0  0
 25 26  1  0  0  0
M  END
> <minimizedAffinity>
-7.55415

> <CNNscore>
0.3059687614

> <CNNaffinity>
5.5104656219

> <CNN_VS>
1.6860303879

> <CNNaffinity_variance>
0.4613105357

$$$$
[H]OC(=O)c1c([H])c([H])c(C([H])([H])N([H])C(=O)c2c([H])c([H])c(C(C([H])([H])[H])(C([H])([H])[H])C([H])([H])[H])c([H])c2[H])c([H])c1F


 26 27  0  0  0  0  0  0  0  0999 V2000
   -0.4142   21.9167  -25.0184 C   0  0  0  0  0  0  0  0  0  0  0  0
    0.7059   21.6421  -25.5412 O   0  0  0  0  0  0  0  0  0  0  0  0
   -0.5797   21.7520  -23.6379 N   0  0  0  0  0  0  0  0  0  0  0  0
   -1.5305   22.0041  -23.2264 H   0  0  0  0  0  0  0  0  0  0  0  0
   -3.6941   23.2854  -27.3826 C   0  0  0  0  0  0  0  0  0  0  0  0
   -2.5377   22.8007  -27.9636 C   0  0  0  0  0  0  0  0  0  0  0  0
   -1.4689   22.3641  -27.2100 C   0  0  0  0  0  0  0  0  0  0  0  0
   -1.5192   22.3990  -25.8332 C   0  0  0  0  0  0  0  0  0  0  0  0
   -2.6451   22.8729  -25.2194 C   0  0  0  0  0  0  0  0  0  0  0  0
   -3.7106   23.3065  -26.0109 C   0  0  0  0  0  0  0  0  0  0  0  0
   -4.9552   22.8696  -29.4170 C   0  0  0  0  0  0  0  0  0  0  0  0
   -4.8593   23.7600  -28.1943 C   0  0  0  0  0  0  0  0  0  0  0  0
   -4.5945   25.1646  -28.6828 C   0  0  0  0  0  0  0  0  0  0  0  0
   -6.1442   23.7445  -27.3913 C   0  0  0  0  0  0  0  0  0  0  0  0
    0.3955   21.2975  -22.6920 C   0  0  0  0  0  0  0  0  0  0  0  0
   -0.1181   21.2734  -21.3013 C   0  0  0  0  0  0  0  0  0  0  0  0
   -0.1078   20.0376  -20.6223 C   0  0  0  0  0  0  0  0  0  0  0  0
   -0.5380   19.9427  -19.3246 C   0  0  0  0  0  0  0  0  0  0  0  0
   -1.0053   21.0400  -18.6038 C   0  0  0  0  0  0  0  0  0  0  0  0
   -1.0205   22.2534  -19.2611 C   0  0  0  0  0  0  0  0  0  0  0  0
   -1.4608   23.3557  -18.6029 F   0  0  0  0  0  0  0  0  0  0  0  0
   -0.5797   22.3430  -20.5867 C   0  0  0  0  0  0  0  0  0  0  0  0
   -1.4313   20.8756  -17.2278 C   0  0  0  0  0  0  0  0  0  0  0  0
   -0.6176   21.1996  -16.3185 O   0  0  0  0  0  0  0  0  0  0  0  0
   -2.6717   20.3888  -16.9192 O   0  0  0  0  0  0  0  0  0  0  0  0
   -3.5221   20.9544  -16.8234 H   0  0  0  0  0  0  0  0  0  0  0  0
 11 12  1  0  0  0
 12 13  1  0  0  0
 12 14  1  0  0  0
 12  5  1  0  0  0
  5  6  2  0  0  0
  6  7  1  0  0  0
  7  8  2  0  0  0
  8  1  1  0  0  0
  1  2  2  0  0  0
  1  3  1  0  0  0
  3 15  1  0  0  0
 15 16  1  0  0  0
 16 17  2  0  0  0
 17 18  1  0  0  0
 18 19  2  0  0  0
 19 23  1  0  0  0
 23 24  2  0  0  0
 23 25  1  0  0  0
 19 20  1  0  0  0
 20 21  1  0  0  0
 20 22  2  0  0  0
  8  9  1  0  0  0
  9 10  2  0  0  0
 10  5  1  0  0  0
 22 16  1  0  0  0
  3  4  1  0  0  0
 25 26  1  0  0  0
M  END
> <minimizedAffinity>
-7.08670

> <CNNscore>
0.2791579664

> <CNNaffinity>
5.3480710983

> <CNN_VS>
1.4929566383

> <CNNaffinity_variance>
0.5191586614

$$$$
[H]OC(=O)c1c([H])c([H])c(C([H])([H])N([H])C(=O)c2c([H])c([H])c(C(C([H])([H])[H])(C([H])([H])[H])C([H])([H])[H])c([H])c2[H])c([H])c1F


 26 27  0  0  0  0  0  0  0  0999 V2000
    0.4363   22.2718  -24.8166 C   0  0  0  0  0  0  0  0  0  0  0  0
    0.9603   23.3759  -25.1477 O   0  0  0  0  0  0  0  0  0  0  0  0
   -0.5747   21.7302  -25.6197 N   0  0  0  0  0  0  0  0  0  0  0  0
   -0.9866   20.7932  -25.3209 H   0  0  0  0  0  0  0  0  0  0  0  0
    1.7010   20.2573  -21.2722 C   0  0  0  0  0  0  0  0  0  0  0  0
    2.5910   20.5690  -22.2824 C   0  0  0  0  0  0  0  0  0  0  0  0
    2.1922   21.2116  -23.4351 C   0  0  0  0  0  0  0  0  0  0  0  0
    0.8738   21.5676  -23.6207 C   0  0  0  0  0  0  0  0  0  0  0  0
   -0.0387   21.2759  -22.6454 C   0  0  0  0  0  0  0  0  0  0  0  0
    0.3973   20.6254  -21.4894 C   0  0  0  0  0  0  0  0  0  0  0  0
    2.5705   20.6255  -19.0338 C   0  0  0  0  0  0  0  0  0  0  0  0
    2.1269   19.5609  -20.0171 C   0  0  0  0  0  0  0  0  0  0  0  0
    3.3271   18.6903  -20.3062 C   0  0  0  0  0  0  0  0  0  0  0  0
    1.0144   18.7044  -19.4472 C   0  0  0  0  0  0  0  0  0  0  0  0
   -1.1184   22.2813  -26.8251 C   0  0  0  0  0  0  0  0  0  0  0  0
   -2.5121   22.7603  -26.6623 C   0  0  0  0  0  0  0  0  0  0  0  0
   -2.9797   23.7315  -27.5714 C   0  0  0  0  0  0  0  0  0  0  0  0
   -4.2658   24.1998  -27.5030 C   0  0  0  0  0  0  0  0  0  0  0  0
   -5.1794   23.7560  -26.5489 C   0  0  0  0  0  0  0  0  0  0  0  0
   -4.7298   22.8067  -25.6537 C   0  0  0  0  0  0  0  0  0  0  0  0
   -5.5810   22.3358  -24.7071 F   0  0  0  0  0  0  0  0  0  0  0  0
   -3.4148   22.3328  -25.7293 C   0  0  0  0  0  0  0  0  0  0  0  0
   -6.5310   24.2801  -26.5402 C   0  0  0  0  0  0  0  0  0  0  0  0
   -7.4610   23.5121  -26.9134 O   0  0  0  0  0  0  0  0  0  0  0  0
   -6.7962   25.5610  -26.1405 O   0  0  0  0  0  0  0  0  0  0  0  0
   -6.9731   25.8543  -25.1736 H   0  0  0  0  0  0  0  0  0  0  0  0
 11 12  1  0  0  0
 12 13  1  0  0  0
 12 14  1  0  0  0
 12  5  1  0  0  0
  5  6  2  0  0  0
  6  7  1  0  0  0
  7  8  2  0  0  0
  8  1  1  0  0  0
  1  2  2  0  0  0
  1  3  1  0  0  0
  3 15  1  0  0  0
 15 16  1  0  0  0
 16 17  2  0  0  0
 17 18  1  0  0  0
 18 19  2  0  0  0
 19 23  1  0  0  0
 23 24  2  0  0  0
 23 25  1  0  0  0
 19 20  1  0  0  0
 20 21  1  0  0  0
 20 22  2  0  0  0
  8  9  1  0  0  0
  9 10  2  0  0  0
 10  5  1  0  0  0
 22 16  1  0  0  0
  3  4  1  0  0  0
 25 26  1  0  0  0
M  END
> <minimizedAffinity>
-6.57276

> <CNNscore>
0.2646699250

> <CNNaffinity>
5.2675466537

> <CNN_VS>
1.3941612244

> <CNNaffinity_variance>
0.1349522769

$$$$
[H]OC(=O)c1c([H])c([H])c(C([H])([H])N([H])C(=O)c2c([H])c([H])c(C(C([H])([H])[H])(C([H])([H])[H])C([H])([H])[H])c([H])c2[H])c([H])c1F


 26 27  0  0  0  0  0  0  0  0999 V2000
   -0.9687   22.1405  -25.1268 C   0  0  0  0  0  0  0  0  0  0  0  0
   -0.5441   22.9049  -26.0427 O   0  0  0  0  0  0  0  0  0  0  0  0
   -2.3141   21.7529  -25.1330 N   0  0  0  0  0  0  0  0  0  0  0  0
   -2.6375   21.0986  -24.3557 H   0  0  0  0  0  0  0  0  0  0  0  0
    1.6273   20.7963  -22.0165 C   0  0  0  0  0  0  0  0  0  0  0  0
    2.1156   21.1670  -23.2550 C   0  0  0  0  0  0  0  0  0  0  0  0
    1.2857   21.5944  -24.2696 C   0  0  0  0  0  0  0  0  0  0  0  0
   -0.0775   21.6652  -24.0794 C   0  0  0  0  0  0  0  0  0  0  0  0
   -0.6007   21.3059  -22.8687 C   0  0  0  0  0  0  0  0  0  0  0  0
    0.2666   20.8785  -21.8613 C   0  0  0  0  0  0  0  0  0  0  0  0
    3.0554   18.9676  -21.2965 C   0  0  0  0  0  0  0  0  0  0  0  0
    2.5223   20.3325  -20.9094 C   0  0  0  0  0  0  0  0  0  0  0  0
    1.7118   20.1552  -19.6470 C   0  0  0  0  0  0  0  0  0  0  0  0
    3.6450   21.3159  -20.6481 C   0  0  0  0  0  0  0  0  0  0  0  0
   -3.3214   22.1185  -26.0839 C   0  0  0  0  0  0  0  0  0  0  0  0
   -4.4273   22.8999  -25.4801 C   0  0  0  0  0  0  0  0  0  0  0  0
   -4.6425   24.2075  -25.9620 C   0  0  0  0  0  0  0  0  0  0  0  0
   -5.6647   24.9792  -25.4742 C   0  0  0  0  0  0  0  0  0  0  0  0
   -6.5424   24.5315  -24.4887 C   0  0  0  0  0  0  0  0  0  0  0  0
   -6.3381   23.2535  -24.0099 C   0  0  0  0  0  0  0  0  0  0  0  0
   -7.1682   22.7659  -23.0531 F   0  0  0  0  0  0  0  0  0  0  0  0
   -5.2919   22.4708  -24.5125 C   0  0  0  0  0  0  0  0  0  0  0  0
   -7.6138   25.3920  -24.0267 C   0  0  0  0  0  0  0  0  0  0  0  0
   -7.3026   26.3854  -23.3125 O   0  0  0  0  0  0  0  0  0  0  0  0
   -8.9187   25.1424  -24.3520 O   0  0  0  0  0  0  0  0  0  0  0  0
   -9.3911   25.4753  -25.1995 H   0  0  0  0  0  0  0  0  0  0  0  0
 11 12  1  0  0  0
 12 13  1  0  0  0
 12 14  1  0  0  0
 12  5  1  0  0  0
  5  6  2  0  0  0
  6  7  1  0  0  0
  7  8  2  0  0  0
  8  1  1  0  0  0
  1  2  2  0  0  0
  1  3  1  0  0  0
  3 15  1  0  0  0
 15 16  1  0  0  0
 16 17  2  0  0  0
 17 18  1  0  0  0
 18 19  2  0  0  0
 19 23  1  0  0  0
 23 24  2  0  0  0
 23 25  1  0  0  0
 19 20  1  0  0  0
 20 21  1  0  0  0
 20 22  2  0  0  0
  8  9  1  0  0  0
  9 10  2  0  0  0
 10  5  1  0  0  0
 22 16  1  0  0  0
  3  4  1  0  0  0
 25 26  1  0  0  0
M  END
> <minimizedAffinity>
-7.04270

> <CNNscore>
0.2578581572

> <CNNaffinity>
5.3204298019

> <CNN_VS>
1.3719161749

> <CNNaffinity_variance>
0.2053331435

$$$$
[H]OC(=O)c1c([H])c([H])c(C([H])([H])N([H])C(=O)c2c([H])c([H])c(C(C([H])([H])[H])(C([H])([H])[H])C([H])([H])[H])c([H])c2[H])c([H])c1F


 26 27  0  0  0  0  0  0  0  0999 V2000
   -4.9373   25.3366  -23.7291 C   0  0  0  0  0  0  0  0  0  0  0  0
   -3.8814   25.2304  -23.0383 O   0  0  0  0  0  0  0  0  0  0  0  0
   -6.1641   25.5051  -23.0756 N   0  0  0  0  0  0  0  0  0  0  0  0
   -7.0329   25.6043  -23.6857 H   0  0  0  0  0  0  0  0  0  0  0  0
   -4.8483   25.1720  -27.9935 C   0  0  0  0  0  0  0  0  0  0  0  0
   -4.0242   24.3743  -27.2226 C   0  0  0  0  0  0  0  0  0  0  0  0
   -4.0382   24.4253  -25.8449 C   0  0  0  0  0  0  0  0  0  0  0  0
   -4.8857   25.2869  -25.1825 C   0  0  0  0  0  0  0  0  0  0  0  0
   -5.7162   26.0941  -25.9087 C   0  0  0  0  0  0  0  0  0  0  0  0
   -5.6787   26.0178  -27.3024 C   0  0  0  0  0  0  0  0  0  0  0  0
   -5.1269   23.6903  -29.8986 C   0  0  0  0  0  0  0  0  0  0  0  0
   -4.8397   25.1213  -29.4899 C   0  0  0  0  0  0  0  0  0  0  0  0
   -3.4588   25.4635  -29.9977 C   0  0  0  0  0  0  0  0  0  0  0  0
   -5.8448   26.0843  -30.0884 C   0  0  0  0  0  0  0  0  0  0  0  0
   -6.3955   25.5819  -21.6639 C   0  0  0  0  0  0  0  0  0  0  0  0
   -6.9561   24.3291  -21.1030 C   0  0  0  0  0  0  0  0  0  0  0  0
   -7.0621   24.2313  -19.7003 C   0  0  0  0  0  0  0  0  0  0  0  0
   -7.5986   23.1169  -19.1099 C   0  0  0  0  0  0  0  0  0  0  0  0
   -8.0659   22.0274  -19.8425 C   0  0  0  0  0  0  0  0  0  0  0  0
   -7.9644   22.1137  -21.2160 C   0  0  0  0  0  0  0  0  0  0  0  0
   -8.4102   21.0824  -21.9775 F   0  0  0  0  0  0  0  0  0  0  0  0
   -7.4153   23.2550  -21.8124 C   0  0  0  0  0  0  0  0  0  0  0  0
   -8.6374   20.8846  -19.1575 C   0  0  0  0  0  0  0  0  0  0  0  0
   -7.9158   19.8569  -19.0273 O   0  0  0  0  0  0  0  0  0  0  0  0
   -9.9131   20.9136  -18.6652 O   0  0  0  0  0  0  0  0  0  0  0  0
  -10.1807   21.2538  -17.7352 H   0  0  0  0  0  0  0  0  0  0  0  0
 11 12  1  0  0  0
 12 13  1  0  0  0
 12 14  1  0  0  0
 12  5  1  0  0  0
  5  6  2  0  0  0
  6  7  1  0  0  0
  7  8  2  0  0  0
  8  1  1  0  0  0
  1  2  2  0  0  0
  1  3  1  0  0  0
  3 15  1  0  0  0
 15 16  1  0  0  0
 16 17  2  0  0  0
 17 18  1  0  0  0
 18 19  2  0  0  0
 19 23  1  0  0  0
 23 24  2  0  0  0
 23 25  1  0  0  0
 19 20  1  0  0  0
 20 21  1  0  0  0
 20 22  2  0  0  0
  8  9  1  0  0  0
  9 10  2  0  0  0
 10  5  1  0  0  0
 22 16  1  0  0  0
  3  4  1  0  0  0
 25 26  1  0  0  0
M  END
> <minimizedAffinity>
-7.17397

> <CNNscore>
0.2405602187

> <CNNaffinity>
5.3167138100

> <CNN_VS>
1.2789897919

> <CNNaffinity_variance>
0.1886865348

$$$$
[H]OC(=O)c1c([H])c([H])c(C([H])([H])N([H])C(=O)c2c([H])c([H])c(C(C([H])([H])[H])(C([H])([H])[H])C([H])([H])[H])c([H])c2[H])c([H])c1F


 26 27  0  0  0  0  0  0  0  0999 V2000
   -5.9614   25.5286  -23.9002 C   0  0  0  0  0  0  0  0  0  0  0  0
   -6.8487   26.3931  -23.6379 O   0  0  0  0  0  0  0  0  0  0  0  0
   -5.3127   24.8771  -22.8442 N   0  0  0  0  0  0  0  0  0  0  0  0
   -4.5799   24.1454  -23.0981 H   0  0  0  0  0  0  0  0  0  0  0  0
   -4.9152   24.5380  -27.9182 C   0  0  0  0  0  0  0  0  0  0  0  0
   -4.4928   25.7157  -27.3313 C   0  0  0  0  0  0  0  0  0  0  0  0
   -4.8317   26.0499  -26.0374 C   0  0  0  0  0  0  0  0  0  0  0  0
   -5.6155   25.2090  -25.2770 C   0  0  0  0  0  0  0  0  0  0  0  0
   -6.0553   24.0347  -25.8213 C   0  0  0  0  0  0  0  0  0  0  0  0
   -5.6936   23.7248  -27.1339 C   0  0  0  0  0  0  0  0  0  0  0  0
   -3.0409   24.0414  -29.3819 C   0  0  0  0  0  0  0  0  0  0  0  0
   -4.5501   24.1676  -29.3222 C   0  0  0  0  0  0  0  0  0  0  0  0
   -4.9432   25.2871  -30.2572 C   0  0  0  0  0  0  0  0  0  0  0  0
   -5.2342   22.8883  -29.7595 C   0  0  0  0  0  0  0  0  0  0  0  0
   -5.5316   25.0627  -21.4406 C   0  0  0  0  0  0  0  0  0  0  0  0
   -6.7823   24.4253  -20.9632 C   0  0  0  0  0  0  0  0  0  0  0  0
   -7.6550   25.2061  -20.1778 C   0  0  0  0  0  0  0  0  0  0  0  0
   -8.8440   24.6957  -19.7260 C   0  0  0  0  0  0  0  0  0  0  0  0
   -9.2613   23.3963  -20.0073 C   0  0  0  0  0  0  0  0  0  0  0  0
   -8.4125   22.6242  -20.7741 C   0  0  0  0  0  0  0  0  0  0  0  0
   -8.7736   21.3527  -21.0824 F   0  0  0  0  0  0  0  0  0  0  0  0
   -7.1995   23.1519  -21.2322 C   0  0  0  0  0  0  0  0  0  0  0  0
  -10.5387   22.9218  -19.5125 C   0  0  0  0  0  0  0  0  0  0  0  0
  -11.5785   23.5260  -19.8970 O   0  0  0  0  0  0  0  0  0  0  0  0
  -10.6212   21.8555  -18.6599 O   0  0  0  0  0  0  0  0  0  0  0  0
  -10.6810   20.8723  -18.9463 H   0  0  0  0  0  0  0  0  0  0  0  0
 11 12  1  0  0  0
 12 13  1  0  0  0
 12 14  1  0  0  0
 12  5  1  0  0  0
  5  6  2  0  0  0
  6  7  1  0  0  0
  7  8  2  0  0  0
  8  1  1  0  0  0
  1  2  2  0  0  0
  1  3  1  0  0  0
  3 15  1  0  0  0
 15 16  1  0  0  0
 16 17  2  0  0  0
 17 18  1  0  0  0
 18 19  2  0  0  0
 19 23  1  0  0  0
 23 24  2  0  0  0
 23 25  1  0  0  0
 19 20  1  0  0  0
 20 21  1  0  0  0
 20 22  2  0  0  0
  8  9  1  0  0  0
  9 10  2  0  0  0
 10  5  1  0  0  0
 22 16  1  0  0  0
  3  4  1  0  0  0
 25 26  1  0  0  0
M  END
> <minimizedAffinity>
-6.77036

> <CNNscore>
0.2018316537

> <CNNaffinity>
5.2819890976

> <CNN_VS>
1.0660725832

> <CNNaffinity_variance>
0.1269108355

$$$$
[H]OC(=O)c1c([H])c([H])c(C([H])([H])N([H])C(=O)c2c([H])c([H])c(C(C([H])([H])[H])(C([H])([H])[H])C([H])([H])[H])c([H])c2[H])c([H])c1F


 26 27  0  0  0  0  0  0  0  0999 V2000
    0.6457   21.0139  -20.3887 C   0  0  0  0  0  0  0  0  0  0  0  0
    0.7141   19.7813  -20.6707 O   0  0  0  0  0  0  0  0  0  0  0  0
   -0.4077   21.7742  -20.9111 N   0  0  0  0  0  0  0  0  0  0  0  0
   -0.4443   22.8060  -20.6446 H   0  0  0  0  0  0  0  0  0  0  0  0
    3.5566   22.9069  -17.9060 C   0  0  0  0  0  0  0  0  0  0  0  0
    3.9075   21.9178  -18.8051 C   0  0  0  0  0  0  0  0  0  0  0  0
    2.9747   21.2936  -19.6057 C   0  0  0  0  0  0  0  0  0  0  0  0
    1.6426   21.6396  -19.5330 C   0  0  0  0  0  0  0  0  0  0  0  0
    1.2539   22.6127  -18.6551 C   0  0  0  0  0  0  0  0  0  0  0  0
    2.2231   23.2265  -17.8591 C   0  0  0  0  0  0  0  0  0  0  0  0
    5.8211   22.7436  -17.0415 C   0  0  0  0  0  0  0  0  0  0  0  0
    4.5640   23.5903  -17.0344 C   0  0  0  0  0  0  0  0  0  0  0  0
    4.0571   23.6272  -15.6118 C   0  0  0  0  0  0  0  0  0  0  0  0
    4.8417   25.0043  -17.5025 C   0  0  0  0  0  0  0  0  0  0  0  0
   -1.4712   21.3225  -21.7580 C   0  0  0  0  0  0  0  0  0  0  0  0
   -1.2644   21.6787  -23.1823 C   0  0  0  0  0  0  0  0  0  0  0  0
    0.0363   22.0500  -23.5808 C   0  0  0  0  0  0  0  0  0  0  0  0
    0.3112   22.3629  -24.8865 C   0  0  0  0  0  0  0  0  0  0  0  0
   -0.6577   22.3354  -25.8877 C   0  0  0  0  0  0  0  0  0  0  0  0
   -1.9341   21.9748  -25.5064 C   0  0  0  0  0  0  0  0  0  0  0  0
   -2.9146   21.9263  -26.4436 F   0  0  0  0  0  0  0  0  0  0  0  0
   -2.2078   21.6566  -24.1709 C   0  0  0  0  0  0  0  0  0  0  0  0
   -0.2983   22.6621  -27.2536 C   0  0  0  0  0  0  0  0  0  0  0  0
   -1.2059   23.1092  -28.0088 O   0  0  0  0  0  0  0  0  0  0  0  0
    0.9790   22.4959  -27.7137 O   0  0  0  0  0  0  0  0  0  0  0  0
    1.7284   23.1928  -27.6435 H   0  0  0  0  0  0  0  0  0  0  0  0
 11 12  1  0  0  0
 12 13  1  0  0  0
 12 14  1  0  0  0
 12  5  1  0  0  0
  5  6  2  0  0  0
  6  7  1  0  0  0
  7  8  2  0  0  0
  8  1  1  0  0  0
  1  2  2  0  0  0
  1  3  1  0  0  0
  3 15  1  0  0  0
 15 16  1  0  0  0
 16 17  2  0  0  0
 17 18  1  0  0  0
 18 19  2  0  0  0
 19 23  1  0  0  0
 23 24  2  0  0  0
 23 25  1  0  0  0
 19 20  1  0  0  0
 20 21  1  0  0  0
 20 22  2  0  0  0
  8  9  1  0  0  0
  9 10  2  0  0  0
 10  5  1  0  0  0
 22 16  1  0  0  0
  3  4  1  0  0  0
 25 26  1  0  0  0
M  END
> <minimizedAffinity>
-6.75063

> <CNNscore>
0.1953194588

> <CNNaffinity>
4.4461135864

> <CNN_VS>
0.8684124947

> <CNNaffinity_variance>
0.1703044027

$$$$
[H]Oc1c([H])c(O[H])c([H])c([C@@]([H])(O[H])C([H])([H])N([H])[C@@]([H])(C([H])([H])[H])C([H])([H])c2c([H])c([H])c(OC([H])([H])[H])c([H])c2[H])c1[H]


 27 28  0  0  0  0  0  0  0  0999 V2000
   -3.6585   22.6891  -23.2660 C   0  0  0  0  0  0  0  0  0  0  0  0
   -2.2605   22.8543  -22.7829 C   0  0  0  0  0  0  0  0  0  0  0  0
   -2.0170   24.2600  -22.5592 O   0  0  0  0  0  0  0  0  0  0  0  0
   -1.8836   24.3517  -21.6020 H   0  0  0  0  0  0  0  0  0  0  0  0
   -1.2061   22.4871  -23.7807 C   0  0  0  0  0  0  0  0  0  0  0  0
    0.0305   22.0231  -23.4426 C   0  0  0  0  0  0  0  0  0  0  0  0
    0.9866   21.6884  -24.4079 C   0  0  0  0  0  0  0  0  0  0  0  0
    2.2462   21.2163  -24.0810 O   0  0  0  0  0  0  0  0  0  0  0  0
    0.6542   21.8369  -25.7304 C   0  0  0  0  0  0  0  0  0  0  0  0
   -0.5738   22.2986  -26.1314 C   0  0  0  0  0  0  0  0  0  0  0  0
   -0.8737   22.4350  -27.4803 O   0  0  0  0  0  0  0  0  0  0  0  0
   -1.4839   22.6160  -25.1457 C   0  0  0  0  0  0  0  0  0  0  0  0
    2.3168   20.1901  -23.9929 H   0  0  0  0  0  0  0  0  0  0  0  0
   -1.2887   21.5956  -27.9126 H   0  0  0  0  0  0  0  0  0  0  0  0
   -4.3499   23.7702  -23.8011 N   0  0  0  0  0  0  0  0  0  0  0  0
   -3.8377   24.6878  -23.7846 H   0  0  0  0  0  0  0  0  0  0  0  0
   -5.7298   23.8419  -23.9169 C   0  0  0  0  0  0  0  0  0  0  0  0
   -6.2767   25.2179  -23.6663 C   0  0  0  0  0  0  0  0  0  0  0  0
   -6.3419   23.2135  -25.1389 C   0  0  0  0  0  0  0  0  0  0  0  0
   -4.5068   24.9526  -28.6364 C   0  0  0  0  0  0  0  0  0  0  0  0
   -4.0198   23.7954  -28.0659 C   0  0  0  0  0  0  0  0  0  0  0  0
   -4.6103   23.2351  -26.9451 C   0  0  0  0  0  0  0  0  0  0  0  0
   -5.7163   23.8129  -26.3479 C   0  0  0  0  0  0  0  0  0  0  0  0
   -6.2050   24.9717  -26.9180 C   0  0  0  0  0  0  0  0  0  0  0  0
   -5.6093   25.5252  -28.0379 C   0  0  0  0  0  0  0  0  0  0  0  0
   -4.6804   25.8448  -30.9168 C   0  0  0  0  0  0  0  0  0  0  0  0
   -3.9307   25.5356  -29.7635 O   0  0  0  0  0  0  0  0  0  0  0  0
 26 27  1  0  0  0
 27 20  1  0  0  0
 20 21  2  0  0  0
 21 22  1  0  0  0
 22 23  2  0  0  0
 23 19  1  0  0  0
 19 17  1  0  0  0
 17 18  1  0  0  0
 17 15  1  0  0  0
 15  1  1  0  0  0
  1  2  1  0  0  0
  2  3  1  0  0  0
  2  5  1  0  0  0
  5  6  2  0  0  0
  6  7  1  0  0  0
  7  8  1  0  0  0
  7  9  2  0  0  0
  9 10  1  0  0  0
 10 11  1  0  0  0
 10 12  2  0  0  0
 23 24  1  0  0  0
 24 25  2  0  0  0
 25 20  1  0  0  0
 12  5  1  0  0  0
 15 16  1  0  0  0
  3  4  1  0  0  0
  8 13  1  0  0  0
 11 14  1  0  0  0
M  END
> <minimizedAffinity>
-6.91978

> <CNNscore>
0.4671327770

> <CNNaffinity>
5.7106370926

> <CNN_VS>
2.6676256657

> <CNNaffinity_variance>
0.1773170829

$$$$
[H]Oc1c([H])c(O[H])c([H])c([C@@]([H])(O[H])C([H])([H])N([H])[C@@]([H])(C([H])([H])[H])C([H])([H])c2c([H])c([H])c(OC([H])([H])[H])c([H])c2[H])c1[H]


 27 28  0  0  0  0  0  0  0  0999 V2000
   -3.8178   21.8528  -23.2861 C   0  0  0  0  0  0  0  0  0  0  0  0
   -2.3802   21.6446  -23.6103 C   0  0  0  0  0  0  0  0  0  0  0  0
   -1.5914   22.5161  -22.7716 O   0  0  0  0  0  0  0  0  0  0  0  0
   -1.0834   21.9276  -22.1901 H   0  0  0  0  0  0  0  0  0  0  0  0
   -1.9837   22.0623  -24.9926 C   0  0  0  0  0  0  0  0  0  0  0  0
   -0.6907   22.1941  -25.4043 C   0  0  0  0  0  0  0  0  0  0  0  0
   -0.3633   22.5846  -26.7075 C   0  0  0  0  0  0  0  0  0  0  0  0
    0.9441   22.7232  -27.1408 O   0  0  0  0  0  0  0  0  0  0  0  0
   -1.3859   22.8384  -27.5859 C   0  0  0  0  0  0  0  0  0  0  0  0
   -2.7056   22.7225  -27.2295 C   0  0  0  0  0  0  0  0  0  0  0  0
   -3.7133   22.9876  -28.1473 O   0  0  0  0  0  0  0  0  0  0  0  0
   -2.9805   22.3353  -25.9353 C   0  0  0  0  0  0  0  0  0  0  0  0
    1.3623   21.8687  -27.5418 H   0  0  0  0  0  0  0  0  0  0  0  0
   -4.0144   22.1701  -28.6992 H   0  0  0  0  0  0  0  0  0  0  0  0
   -4.1940   22.7825  -22.3231 N   0  0  0  0  0  0  0  0  0  0  0  0
   -4.2711   22.4121  -21.3425 H   0  0  0  0  0  0  0  0  0  0  0  0
   -4.8822   23.9563  -22.5896 C   0  0  0  0  0  0  0  0  0  0  0  0
   -5.6039   24.5071  -21.3933 C   0  0  0  0  0  0  0  0  0  0  0  0
   -4.1322   25.0296  -23.3302 C   0  0  0  0  0  0  0  0  0  0  0  0
   -5.9336   25.5683  -27.2147 C   0  0  0  0  0  0  0  0  0  0  0  0
   -4.7856   26.2409  -26.8522 C   0  0  0  0  0  0  0  0  0  0  0  0
   -4.2053   26.0660  -25.6066 C   0  0  0  0  0  0  0  0  0  0  0  0
   -4.7529   25.2076  -24.6701 C   0  0  0  0  0  0  0  0  0  0  0  0
   -5.9024   24.5334  -25.0318 C   0  0  0  0  0  0  0  0  0  0  0  0
   -6.4761   24.7137  -26.2784 C   0  0  0  0  0  0  0  0  0  0  0  0
   -5.8079   25.6403  -29.6654 C   0  0  0  0  0  0  0  0  0  0  0  0
   -6.5362   25.7270  -28.4613 O   0  0  0  0  0  0  0  0  0  0  0  0
 26 27  1  0  0  0
 27 20  1  0  0  0
 20 21  2  0  0  0
 21 22  1  0  0  0
 22 23  2  0  0  0
 23 19  1  0  0  0
 19 17  1  0  0  0
 17 18  1  0  0  0
 17 15  1  0  0  0
 15  1  1  0  0  0
  1  2  1  0  0  0
  2  3  1  0  0  0
  2  5  1  0  0  0
  5  6  2  0  0  0
  6  7  1  0  0  0
  7  8  1  0  0  0
  7  9  2  0  0  0
  9 10  1  0  0  0
 10 11  1  0  0  0
 10 12  2  0  0  0
 23 24  1  0  0  0
 24 25  2  0  0  0
 25 20  1  0  0  0
 12  5  1  0  0  0
 15 16  1  0  0  0
  3  4  1  0  0  0
  8 13  1  0  0  0
 11 14  1  0  0  0
M  END
> <minimizedAffinity>
-7.38544

> <CNNscore>
0.4196657836

> <CNNaffinity>
5.7603669167

> <CNN_VS>
2.4174289703

> <CNNaffinity_variance>
0.1290090382

$$$$
[H]Oc1c([H])c(O[H])c([H])c([C@@]([H])(O[H])C([H])([H])N([H])[C@@]([H])(C([H])([H])[H])C([H])([H])c2c([H])c([H])c(OC([H])([H])[H])c([H])c2[H])c1[H]


 27 28  0  0  0  0  0  0  0  0999 V2000
   -4.6725   23.1975  -21.9846 C   0  0  0  0  0  0  0  0  0  0  0  0
   -5.7017   24.0273  -22.6680 C   0  0  0  0  0  0  0  0  0  0  0  0
   -6.8322   23.1859  -22.9832 O   0  0  0  0  0  0  0  0  0  0  0  0
   -7.5653   23.5221  -22.4428 H   0  0  0  0  0  0  0  0  0  0  0  0
   -5.2922   24.5529  -24.0091 C   0  0  0  0  0  0  0  0  0  0  0  0
   -5.3332   23.8187  -25.1571 C   0  0  0  0  0  0  0  0  0  0  0  0
   -4.9436   24.3499  -26.3916 C   0  0  0  0  0  0  0  0  0  0  0  0
   -4.9791   23.6176  -27.5659 O   0  0  0  0  0  0  0  0  0  0  0  0
   -4.5099   25.6507  -26.4314 C   0  0  0  0  0  0  0  0  0  0  0  0
   -4.4472   26.4383  -25.3099 C   0  0  0  0  0  0  0  0  0  0  0  0
   -4.0030   27.7514  -25.3903 O   0  0  0  0  0  0  0  0  0  0  0  0
   -4.8408   25.8727  -24.1159 C   0  0  0  0  0  0  0  0  0  0  0  0
   -5.8688   23.6736  -28.0866 H   0  0  0  0  0  0  0  0  0  0  0  0
   -4.7460   28.4433  -25.5712 H   0  0  0  0  0  0  0  0  0  0  0  0
   -3.4524   23.7531  -21.6160 N   0  0  0  0  0  0  0  0  0  0  0  0
   -3.4319   24.8024  -21.5593 H   0  0  0  0  0  0  0  0  0  0  0  0
   -2.2254   23.1243  -21.7628 C   0  0  0  0  0  0  0  0  0  0  0  0
   -1.4327   23.0627  -20.4887 C   0  0  0  0  0  0  0  0  0  0  0  0
   -2.2211   21.8049  -22.4855 C   0  0  0  0  0  0  0  0  0  0  0  0
   -0.0873   22.2910  -26.2051 C   0  0  0  0  0  0  0  0  0  0  0  0
    0.5650   21.9538  -25.0377 C   0  0  0  0  0  0  0  0  0  0  0  0
   -0.1199   21.7947  -23.8442 C   0  0  0  0  0  0  0  0  0  0  0  0
   -1.4905   21.9674  -23.7708 C   0  0  0  0  0  0  0  0  0  0  0  0
   -2.1449   22.3049  -24.9389 C   0  0  0  0  0  0  0  0  0  0  0  0
   -1.4533   22.4621  -26.1275 C   0  0  0  0  0  0  0  0  0  0  0  0
   -0.0091   23.1188  -28.5149 C   0  0  0  0  0  0  0  0  0  0  0  0
    0.5790   22.4566  -27.4179 O   0  0  0  0  0  0  0  0  0  0  0  0
 26 27  1  0  0  0
 27 20  1  0  0  0
 20 21  2  0  0  0
 21 22  1  0  0  0
 22 23  2  0  0  0
 23 19  1  0  0  0
 19 17  1  0  0  0
 17 18  1  0  0  0
 17 15  1  0  0  0
 15  1  1  0  0  0
  1  2  1  0  0  0
  2  3  1  0  0  0
  2  5  1  0  0  0
  5  6  2  0  0  0
  6  7  1  0  0  0
  7  8  1  0  0  0
  7  9  2  0  0  0
  9 10  1  0  0  0
 10 11  1  0  0  0
 10 12  2  0  0  0
 23 24  1  0  0  0
 24 25  2  0  0  0
 25 20  1  0  0  0
 12  5  1  0  0  0
 15 16  1  0  0  0
  3  4  1  0  0  0
  8 13  1  0  0  0
 11 14  1  0  0  0
M  END
> <minimizedAffinity>
-6.90127

> <CNNscore>
0.3818924129

> <CNNaffinity>
5.3668575287

> <CNN_VS>
2.0495622158

> <CNNaffinity_variance>
0.2752624154

$$$$
[H]Oc1c([H])c(O[H])c([H])c([C@@]([H])(O[H])C([H])([H])N([H])[C@@]([H])(C([H])([H])[H])C([H])([H])c2c([H])c([H])c(OC([H])([H])[H])c([H])c2[H])c1[H]


 27 28  0  0  0  0  0  0  0  0999 V2000
   -6.6580   25.2786  -25.5453 C   0  0  0  0  0  0  0  0  0  0  0  0
   -5.3431   25.2278  -26.2406 C   0  0  0  0  0  0  0  0  0  0  0  0
   -4.7771   26.5563  -26.2463 O   0  0  0  0  0  0  0  0  0  0  0  0
   -3.9814   26.5024  -25.6928 H   0  0  0  0  0  0  0  0  0  0  0  0
   -5.4183   24.8902  -27.6975 C   0  0  0  0  0  0  0  0  0  0  0  0
   -5.2145   23.6386  -28.1984 C   0  0  0  0  0  0  0  0  0  0  0  0
   -5.2971   23.3653  -29.5682 C   0  0  0  0  0  0  0  0  0  0  0  0
   -5.0927   22.1005  -30.0924 O   0  0  0  0  0  0  0  0  0  0  0  0
   -5.5935   24.3988  -30.4202 C   0  0  0  0  0  0  0  0  0  0  0  0
   -5.8090   25.6784  -29.9750 C   0  0  0  0  0  0  0  0  0  0  0  0
   -6.1074   26.6986  -30.8685 O   0  0  0  0  0  0  0  0  0  0  0  0
   -5.7171   25.9007  -28.6176 C   0  0  0  0  0  0  0  0  0  0  0  0
   -5.9411   21.5165  -30.1626 H   0  0  0  0  0  0  0  0  0  0  0  0
   -7.1143   26.8240  -31.0528 H   0  0  0  0  0  0  0  0  0  0  0  0
   -7.1043   24.1899  -24.8045 N   0  0  0  0  0  0  0  0  0  0  0  0
   -8.1480   24.0856  -24.7376 H   0  0  0  0  0  0  0  0  0  0  0  0
   -6.3613   23.5460  -23.8269 C   0  0  0  0  0  0  0  0  0  0  0  0
   -7.0054   23.5814  -22.4707 C   0  0  0  0  0  0  0  0  0  0  0  0
   -5.8434   22.1739  -24.1617 C   0  0  0  0  0  0  0  0  0  0  0  0
   -1.5729   22.4296  -24.7288 C   0  0  0  0  0  0  0  0  0  0  0  0
   -2.1851   22.9553  -23.6105 C   0  0  0  0  0  0  0  0  0  0  0  0
   -3.5554   22.8708  -23.4265 C   0  0  0  0  0  0  0  0  0  0  0  0
   -4.3713   22.2543  -24.3582 C   0  0  0  0  0  0  0  0  0  0  0  0
   -3.7596   21.7274  -25.4784 C   0  0  0  0  0  0  0  0  0  0  0  0
   -2.3898   21.8160  -25.6549 C   0  0  0  0  0  0  0  0  0  0  0  0
    0.3778   22.3797  -26.2184 C   0  0  0  0  0  0  0  0  0  0  0  0
   -0.1967   22.5016  -24.9367 O   0  0  0  0  0  0  0  0  0  0  0  0
 26 27  1  0  0  0
 27 20  1  0  0  0
 20 21  2  0  0  0
 21 22  1  0  0  0
 22 23  2  0  0  0
 23 19  1  0  0  0
 19 17  1  0  0  0
 17 18  1  0  0  0
 17 15  1  0  0  0
 15  1  1  0  0  0
  1  2  1  0  0  0
  2  3  1  0  0  0
  2  5  1  0  0  0
  5  6  2  0  0  0
  6  7  1  0  0  0
  7  8  1  0  0  0
  7  9  2  0  0  0
  9 10  1  0  0  0
 10 11  1  0  0  0
 10 12  2  0  0  0
 23 24  1  0  0  0
 24 25  2  0  0  0
 25 20  1  0  0  0
 12  5  1  0  0  0
 15 16  1  0  0  0
  3  4  1  0  0  0
  8 13  1  0  0  0
 11 14  1  0  0  0
M  END
> <minimizedAffinity>
-7.00965

> <CNNscore>
0.3721233308

> <CNNaffinity>
5.7208704948

> <CNN_VS>
2.1288692951

> <CNNaffinity_variance>
0.3234899938

$$$$
[H]Oc1c([H])c(O[H])c([H])c([C@@]([H])(O[H])C([H])([H])N([H])[C@@]([H])(C([H])([H])[H])C([H])([H])c2c([H])c([H])c(OC([H])([H])[H])c([H])c2[H])c1[H]


 27 28  0  0  0  0  0  0  0  0999 V2000
   -3.2816   21.4489  -23.0851 C   0  0  0  0  0  0  0  0  0  0  0  0
   -1.8720   21.8269  -23.3769 C   0  0  0  0  0  0  0  0  0  0  0  0
   -1.5890   23.0806  -22.7185 O   0  0  0  0  0  0  0  0  0  0  0  0
   -0.9228   22.8750  -22.0429 H   0  0  0  0  0  0  0  0  0  0  0  0
   -1.5916   22.1341  -24.8154 C   0  0  0  0  0  0  0  0  0  0  0  0
   -0.3372   22.2209  -25.3426 C   0  0  0  0  0  0  0  0  0  0  0  0
   -0.1192   22.5077  -26.6947 C   0  0  0  0  0  0  0  0  0  0  0  0
    1.1477   22.5993  -27.2451 O   0  0  0  0  0  0  0  0  0  0  0  0
   -1.2110   22.7046  -27.5014 C   0  0  0  0  0  0  0  0  0  0  0  0
   -2.4965   22.6299  -27.0281 C   0  0  0  0  0  0  0  0  0  0  0  0
   -3.5767   22.8349  -27.8761 O   0  0  0  0  0  0  0  0  0  0  0  0
   -2.6631   22.3450  -25.6896 C   0  0  0  0  0  0  0  0  0  0  0  0
    1.5273   21.7126  -27.6131 H   0  0  0  0  0  0  0  0  0  0  0  0
   -3.9265   21.9810  -28.3366 H   0  0  0  0  0  0  0  0  0  0  0  0
   -4.1452   22.3610  -22.4887 N   0  0  0  0  0  0  0  0  0  0  0  0
   -3.7377   23.3104  -22.2960 H   0  0  0  0  0  0  0  0  0  0  0  0
   -5.2667   22.0153  -21.7503 C   0  0  0  0  0  0  0  0  0  0  0  0
   -5.4308   22.8321  -20.5008 C   0  0  0  0  0  0  0  0  0  0  0  0
   -6.5619   21.8847  -22.5042 C   0  0  0  0  0  0  0  0  0  0  0  0
   -6.6542   24.8371  -25.6507 C   0  0  0  0  0  0  0  0  0  0  0  0
   -7.0224   25.1478  -24.3585 C   0  0  0  0  0  0  0  0  0  0  0  0
   -6.9900   24.2013  -23.3476 C   0  0  0  0  0  0  0  0  0  0  0  0
   -6.5863   22.9006  -23.5903 C   0  0  0  0  0  0  0  0  0  0  0  0
   -6.2174   22.5881  -24.8837 C   0  0  0  0  0  0  0  0  0  0  0  0
   -6.2525   23.5395  -25.8882 C   0  0  0  0  0  0  0  0  0  0  0  0
   -5.9405   25.5962  -27.8735 C   0  0  0  0  0  0  0  0  0  0  0  0
   -6.6780   25.7711  -26.6847 O   0  0  0  0  0  0  0  0  0  0  0  0
 26 27  1  0  0  0
 27 20  1  0  0  0
 20 21  2  0  0  0
 21 22  1  0  0  0
 22 23  2  0  0  0
 23 19  1  0  0  0
 19 17  1  0  0  0
 17 18  1  0  0  0
 17 15  1  0  0  0
 15  1  1  0  0  0
  1  2  1  0  0  0
  2  3  1  0  0  0
  2  5  1  0  0  0
  5  6  2  0  0  0
  6  7  1  0  0  0
  7  8  1  0  0  0
  7  9  2  0  0  0
  9 10  1  0  0  0
 10 11  1  0  0  0
 10 12  2  0  0  0
 23 24  1  0  0  0
 24 25  2  0  0  0
 25 20  1  0  0  0
 12  5  1  0  0  0
 15 16  1  0  0  0
  3  4  1  0  0  0
  8 13  1  0  0  0
 11 14  1  0  0  0
M  END
> <minimizedAffinity>
-7.02868

> <CNNscore>
0.3150008917

> <CNNaffinity>
5.4157648087

> <CNN_VS>
1.7059707642

> <CNNaffinity_variance>
0.1358244568

$$$$
[H]Oc1c([H])c(O[H])c([H])c([C@@]([H])(O[H])C([H])([H])N([H])[C@@]([H])(C([H])([H])[H])C([H])([H])c2c([H])c([H])c(OC([H])([H])[H])c([H])c2[H])c1[H]


 27 28  0  0  0  0  0  0  0  0999 V2000
   -3.6343   21.5903  -25.1059 C   0  0  0  0  0  0  0  0  0  0  0  0
   -4.5803   22.2090  -24.1376 C   0  0  0  0  0  0  0  0  0  0  0  0
   -5.7228   21.3376  -23.9940 O   0  0  0  0  0  0  0  0  0  0  0  0
   -5.6941   21.0201  -23.0771 H   0  0  0  0  0  0  0  0  0  0  0  0
   -5.1958   23.4940  -24.5983 C   0  0  0  0  0  0  0  0  0  0  0  0
   -6.3719   23.5696  -25.2839 C   0  0  0  0  0  0  0  0  0  0  0  0
   -6.9142   24.7926  -25.6939 C   0  0  0  0  0  0  0  0  0  0  0  0
   -8.1067   24.8861  -26.3907 O   0  0  0  0  0  0  0  0  0  0  0  0
   -6.2299   25.9416  -25.3887 C   0  0  0  0  0  0  0  0  0  0  0  0
   -5.0428   25.9285  -24.7013 C   0  0  0  0  0  0  0  0  0  0  0  0
   -4.3794   27.1131  -24.4103 O   0  0  0  0  0  0  0  0  0  0  0  0
   -4.5465   24.7009  -24.3177 C   0  0  0  0  0  0  0  0  0  0  0  0
   -8.9491   24.9768  -25.8008 H   0  0  0  0  0  0  0  0  0  0  0  0
   -4.6463   27.5426  -23.5115 H   0  0  0  0  0  0  0  0  0  0  0  0
   -2.4281   22.2132  -25.4063 N   0  0  0  0  0  0  0  0  0  0  0  0
   -1.9273   22.6467  -24.5903 H   0  0  0  0  0  0  0  0  0  0  0  0
   -2.0801   22.6897  -26.6610 C   0  0  0  0  0  0  0  0  0  0  0  0
   -0.5982   22.6952  -26.9049 C   0  0  0  0  0  0  0  0  0  0  0  0
   -2.8353   22.1273  -27.8341 C   0  0  0  0  0  0  0  0  0  0  0  0
   -5.3632   25.2134  -29.4804 C   0  0  0  0  0  0  0  0  0  0  0  0
   -5.4315   23.9104  -29.9266 C   0  0  0  0  0  0  0  0  0  0  0  0
   -4.6225   22.9188  -29.3964 C   0  0  0  0  0  0  0  0  0  0  0  0
   -3.7089   23.1928  -28.3943 C   0  0  0  0  0  0  0  0  0  0  0  0
   -3.6394   24.4971  -27.9466 C   0  0  0  0  0  0  0  0  0  0  0  0
   -4.4513   25.4821  -28.4816 C   0  0  0  0  0  0  0  0  0  0  0  0
   -5.8612   26.8867  -31.2064 C   0  0  0  0  0  0  0  0  0  0  0  0
   -6.1661   26.2285  -29.9974 O   0  0  0  0  0  0  0  0  0  0  0  0
 26 27  1  0  0  0
 27 20  1  0  0  0
 20 21  2  0  0  0
 21 22  1  0  0  0
 22 23  2  0  0  0
 23 19  1  0  0  0
 19 17  1  0  0  0
 17 18  1  0  0  0
 17 15  1  0  0  0
 15  1  1  0  0  0
  1  2  1  0  0  0
  2  3  1  0  0  0
  2  5  1  0  0  0
  5  6  2  0  0  0
  6  7  1  0  0  0
  7  8  1  0  0  0
  7  9  2  0  0  0
  9 10  1  0  0  0
 10 11  1  0  0  0
 10 12  2  0  0  0
 23 24  1  0  0  0
 24 25  2  0  0  0
 25 20  1  0  0  0
 12  5  1  0  0  0
 15 16  1  0  0  0
  3  4  1  0  0  0
  8 13  1  0  0  0
 11 14  1  0  0  0
M  END
> <minimizedAffinity>
-7.36041

> <CNNscore>
0.2560408711

> <CNNaffinity>
5.8132009506

> <CNN_VS>
1.4884170294

> <CNNaffinity_variance>
0.1715307534

$$$$
[H]Oc1c([H])c(O[H])c([H])c([C@@]([H])(O[H])C([H])([H])N([H])[C@@]([H])(C([H])([H])[H])C([H])([H])c2c([H])c([H])c(OC([H])([H])[H])c([H])c2[H])c1[H]


 27 28  0  0  0  0  0  0  0  0999 V2000
   -5.0050   21.9316  -24.1502 C   0  0  0  0  0  0  0  0  0  0  0  0
   -3.6852   21.2577  -24.0124 C   0  0  0  0  0  0  0  0  0  0  0  0
   -3.1388   21.5830  -22.7159 O   0  0  0  0  0  0  0  0  0  0  0  0
   -3.1145   20.7451  -22.2262 H   0  0  0  0  0  0  0  0  0  0  0  0
   -2.6297   21.7506  -24.9533 C   0  0  0  0  0  0  0  0  0  0  0  0
   -2.8768   22.1334  -26.2383 C   0  0  0  0  0  0  0  0  0  0  0  0
   -1.8606   22.5912  -27.0843 C   0  0  0  0  0  0  0  0  0  0  0  0
   -2.0950   22.9832  -28.3910 O   0  0  0  0  0  0  0  0  0  0  0  0
   -0.5821   22.6512  -26.5907 C   0  0  0  0  0  0  0  0  0  0  0  0
   -0.2727   22.2800  -25.3068 C   0  0  0  0  0  0  0  0  0  0  0  0
    1.0339   22.3553  -24.8429 O   0  0  0  0  0  0  0  0  0  0  0  0
   -1.3057   21.8352  -24.5096 C   0  0  0  0  0  0  0  0  0  0  0  0
   -2.3243   23.9826  -28.5108 H   0  0  0  0  0  0  0  0  0  0  0  0
    1.2827   23.2585  -24.4116 H   0  0  0  0  0  0  0  0  0  0  0  0
   -5.1343   23.2880  -23.8731 N   0  0  0  0  0  0  0  0  0  0  0  0
   -4.2477   23.7796  -23.5959 H   0  0  0  0  0  0  0  0  0  0  0  0
   -6.3184   23.9050  -23.4993 C   0  0  0  0  0  0  0  0  0  0  0  0
   -6.1416   24.9165  -22.4034 C   0  0  0  0  0  0  0  0  0  0  0  0
   -7.1888   24.4313  -24.6076 C   0  0  0  0  0  0  0  0  0  0  0  0
   -4.7346   25.0489  -28.1034 C   0  0  0  0  0  0  0  0  0  0  0  0
   -5.6307   24.0036  -28.0264 C   0  0  0  0  0  0  0  0  0  0  0  0
   -6.4209   23.8067  -26.9058 C   0  0  0  0  0  0  0  0  0  0  0  0
   -6.3455   24.6515  -25.8129 C   0  0  0  0  0  0  0  0  0  0  0  0
   -5.4486   25.6986  -25.8886 C   0  0  0  0  0  0  0  0  0  0  0  0
   -4.6627   25.8885  -27.0119 C   0  0  0  0  0  0  0  0  0  0  0  0
   -4.4575   25.6831  -30.4588 C   0  0  0  0  0  0  0  0  0  0  0  0
   -3.9290   25.2682  -29.2193 O   0  0  0  0  0  0  0  0  0  0  0  0
 26 27  1  0  0  0
 27 20  1  0  0  0
 20 21  2  0  0  0
 21 22  1  0  0  0
 22 23  2  0  0  0
 23 19  1  0  0  0
 19 17  1  0  0  0
 17 18  1  0  0  0
 17 15  1  0  0  0
 15  1  1  0  0  0
  1  2  1  0  0  0
  2  3  1  0  0  0
  2  5  1  0  0  0
  5  6  2  0  0  0
  6  7  1  0  0  0
  7  8  1  0  0  0
  7  9  2  0  0  0
  9 10  1  0  0  0
 10 11  1  0  0  0
 10 12  2  0  0  0
 23 24  1  0  0  0
 24 25  2  0  0  0
 25 20  1  0  0  0
 12  5  1  0  0  0
 15 16  1  0  0  0
  3  4  1  0  0  0
  8 13  1  0  0  0
 11 14  1  0  0  0
M  END
> <minimizedAffinity>
-7.16623

> <CNNscore>
0.2430922985

> <CNNaffinity>
5.4139199257

> <CNN_VS>
1.3160822392

> <CNNaffinity_variance>
0.0640883073

$$$$
[H]Oc1c([H])c(O[H])c([H])c([C@@]([H])(O[H])C([H])([H])N([H])[C@@]([H])(C([H])([H])[H])C([H])([H])c2c([H])c([H])c(OC([H])([H])[H])c([H])c2[H])c1[H]


 27 28  0  0  0  0  0  0  0  0999 V2000
   -0.5725   22.2535  -23.1469 C   0  0  0  0  0  0  0  0  0  0  0  0
   -0.1137   21.5750  -24.3896 C   0  0  0  0  0  0  0  0  0  0  0  0
    1.2855   21.8744  -24.5842 O   0  0  0  0  0  0  0  0  0  0  0  0
    1.7490   21.0273  -24.4850 H   0  0  0  0  0  0  0  0  0  0  0  0
   -0.7429   22.0843  -25.6493 C   0  0  0  0  0  0  0  0  0  0  0  0
   -2.0895   22.1709  -25.8441 C   0  0  0  0  0  0  0  0  0  0  0  0
   -2.6367   22.6560  -27.0371 C   0  0  0  0  0  0  0  0  0  0  0  0
   -4.0012   22.7501  -27.2505 O   0  0  0  0  0  0  0  0  0  0  0  0
   -1.7788   23.0529  -28.0313 C   0  0  0  0  0  0  0  0  0  0  0  0
   -0.4154   22.9893  -27.8931 C   0  0  0  0  0  0  0  0  0  0  0  0
    0.4210   23.4009  -28.9222 O   0  0  0  0  0  0  0  0  0  0  0  0
    0.0785   22.5046  -26.7007 C   0  0  0  0  0  0  0  0  0  0  0  0
   -4.4253   23.6469  -26.9645 H   0  0  0  0  0  0  0  0  0  0  0  0
    0.6808   24.3984  -28.8884 H   0  0  0  0  0  0  0  0  0  0  0  0
   -1.4690   21.6229  -22.2914 N   0  0  0  0  0  0  0  0  0  0  0  0
   -1.4974   20.5744  -22.3588 H   0  0  0  0  0  0  0  0  0  0  0  0
   -2.5832   22.2304  -21.7329 C   0  0  0  0  0  0  0  0  0  0  0  0
   -2.4964   22.3746  -20.2406 C   0  0  0  0  0  0  0  0  0  0  0  0
   -3.0657   23.4961  -22.3874 C   0  0  0  0  0  0  0  0  0  0  0  0
   -7.3336   23.8064  -21.8274 C   0  0  0  0  0  0  0  0  0  0  0  0
   -6.7338   22.6081  -22.1531 C   0  0  0  0  0  0  0  0  0  0  0  0
   -5.3636   22.5074  -22.3300 C   0  0  0  0  0  0  0  0  0  0  0  0
   -4.5355   23.6063  -22.1874 C   0  0  0  0  0  0  0  0  0  0  0  0
   -5.1347   24.8067  -21.8613 C   0  0  0  0  0  0  0  0  0  0  0  0
   -6.5045   24.8992  -21.6863 C   0  0  0  0  0  0  0  0  0  0  0  0
   -9.4104   23.1912  -20.6719 C   0  0  0  0  0  0  0  0  0  0  0  0
   -8.7093   23.9335  -21.6441 O   0  0  0  0  0  0  0  0  0  0  0  0
 26 27  1  0  0  0
 27 20  1  0  0  0
 20 21  2  0  0  0
 21 22  1  0  0  0
 22 23  2  0  0  0
 23 19  1  0  0  0
 19 17  1  0  0  0
 17 18  1  0  0  0
 17 15  1  0  0  0
 15  1  1  0  0  0
  1  2  1  0  0  0
  2  3  1  0  0  0
  2  5  1  0  0  0
  5  6  2  0  0  0
  6  7  1  0  0  0
  7  8  1  0  0  0
  7  9  2  0  0  0
  9 10  1  0  0  0
 10 11  1  0  0  0
 10 12  2  0  0  0
 23 24  1  0  0  0
 24 25  2  0  0  0
 25 20  1  0  0  0
 12  5  1  0  0  0
 15 16  1  0  0  0
  3  4  1  0  0  0
  8 13  1  0  0  0
 11 14  1  0  0  0
M  END
> <minimizedAffinity>
-6.61234

> <CNNscore>
0.2424373627

> <CNNaffinity>
5.0907869339

> <CNN_VS>
1.2341969013

> <CNNaffinity_variance>
0.0103867026

$$$$
[H]Oc1c([H])c(O[H])c([H])c([C@@]([H])(O[H])C([H])([H])N([H])[C@@]([H])(C([H])([H])[H])C([H])([H])c2c([H])c([H])c(OC([H])([H])[H])c([H])c2[H])c1[H]


 27 28  0  0  0  0  0  0  0  0999 V2000
   -0.4006   22.4271  -23.1348 C   0  0  0  0  0  0  0  0  0  0  0  0
   -0.0403   21.6085  -24.3244 C   0  0  0  0  0  0  0  0  0  0  0  0
    1.3862   21.7015  -24.5285 O   0  0  0  0  0  0  0  0  0  0  0  0
    1.7307   20.8082  -24.3678 H   0  0  0  0  0  0  0  0  0  0  0  0
   -0.5968   22.1102  -25.6209 C   0  0  0  0  0  0  0  0  0  0  0  0
    0.1719   22.5492  -26.6578 C   0  0  0  0  0  0  0  0  0  0  0  0
   -0.3892   23.0078  -27.8549 C   0  0  0  0  0  0  0  0  0  0  0  0
    0.3773   23.4568  -28.9165 O   0  0  0  0  0  0  0  0  0  0  0  0
   -1.7558   23.0091  -27.9733 C   0  0  0  0  0  0  0  0  0  0  0  0
   -2.5805   22.5792  -26.9648 C   0  0  0  0  0  0  0  0  0  0  0  0
   -3.9599   22.5951  -27.1222 O   0  0  0  0  0  0  0  0  0  0  0  0
   -1.9834   22.1363  -25.8037 C   0  0  0  0  0  0  0  0  0  0  0  0
    0.6493   22.7282  -29.5955 H   0  0  0  0  0  0  0  0  0  0  0  0
   -4.3544   21.7295  -27.5208 H   0  0  0  0  0  0  0  0  0  0  0  0
   -1.0704   21.8507  -22.0613 N   0  0  0  0  0  0  0  0  0  0  0  0
   -0.7972   20.8611  -21.8363 H   0  0  0  0  0  0  0  0  0  0  0  0
   -2.3069   22.2660  -21.5911 C   0  0  0  0  0  0  0  0  0  0  0  0
   -2.5757   21.8467  -20.1743 C   0  0  0  0  0  0  0  0  0  0  0  0
   -2.6729   23.7063  -21.8245 C   0  0  0  0  0  0  0  0  0  0  0  0
   -5.6786   23.9080  -24.9148 C   0  0  0  0  0  0  0  0  0  0  0  0
   -4.7859   24.9386  -24.7080 C   0  0  0  0  0  0  0  0  0  0  0  0
   -3.8191   24.8731  -23.7183 C   0  0  0  0  0  0  0  0  0  0  0  0
   -3.7064   23.7690  -22.8924 C   0  0  0  0  0  0  0  0  0  0  0  0
   -4.5995   22.7363  -23.0983 C   0  0  0  0  0  0  0  0  0  0  0  0
   -5.5627   22.8094  -24.0895 C   0  0  0  0  0  0  0  0  0  0  0  0
   -7.8418   24.7048  -25.7589 C   0  0  0  0  0  0  0  0  0  0  0  0
   -6.6598   23.9499  -25.9036 O   0  0  0  0  0  0  0  0  0  0  0  0
 26 27  1  0  0  0
 27 20  1  0  0  0
 20 21  2  0  0  0
 21 22  1  0  0  0
 22 23  2  0  0  0
 23 19  1  0  0  0
 19 17  1  0  0  0
 17 18  1  0  0  0
 17 15  1  0  0  0
 15  1  1  0  0  0
  1  2  1  0  0  0
  2  3  1  0  0  0
  2  5  1  0  0  0
  5  6  2  0  0  0
  6  7  1  0  0  0
  7  8  1  0  0  0
  7  9  2  0  0  0
  9 10  1  0  0  0
 10 11  1  0  0  0
 10 12  2  0  0  0
 23 24  1  0  0  0
 24 25  2  0  0  0
 25 20  1  0  0  0
 12  5  1  0  0  0
 15 16  1  0  0  0
  3  4  1  0  0  0
  8 13  1  0  0  0
 11 14  1  0  0  0
M  END
> <minimizedAffinity>
-6.80867

> <CNNscore>
0.2397476286

> <CNNaffinity>
5.3641052246

> <CNN_VS>
1.2860314846

> <CNNaffinity_variance>
0.0359928496

$$$$
[H]c1nc(N2C([H])([H])C([H])([H])C(N3C([H])([H])C([H])([H])OC([H])([H])C3([H])[H])(C([H])(C([H])([H])[H])C([H])([H])[H])C([H])([H])C2([H])[H])c([H])c2c1C(=O)c1c(n([H])c3c([H])c(C#N)c([H])c([H])c13)C2(C([H])([H])[H])C([H])([H])[H]


 38 43  0  0  0  0  0  0  0  0999 V2000
    0.7592   21.3540  -21.6075 C   0  0  0  0  0  0  0  0  0  0  0  0
   -0.5220   21.7790  -21.8437 C   0  0  0  0  0  0  0  0  0  0  0  0
   -0.9760   22.0532  -23.1412 C   0  0  0  0  0  0  0  0  0  0  0  0
   -0.0884   21.8802  -24.1714 C   0  0  0  0  0  0  0  0  0  0  0  0
    1.2006   21.4499  -23.9064 C   0  0  0  0  0  0  0  0  0  0  0  0
    1.5946   21.1987  -22.6487 N   0  0  0  0  0  0  0  0  0  0  0  0
   -0.5077   22.1497  -25.5367 C   0  0  0  0  0  0  0  0  0  0  0  0
    0.3062   21.9927  -26.4960 O   0  0  0  0  0  0  0  0  0  0  0  0
   -1.8648   22.5985  -25.7822 C   0  0  0  0  0  0  0  0  0  0  0  0
   -2.7168   22.7567  -24.7170 C   0  0  0  0  0  0  0  0  0  0  0  0
   -3.9230   23.1815  -25.1883 N   0  0  0  0  0  0  0  0  0  0  0  0
   -3.8629   23.2995  -26.5348 C   0  0  0  0  0  0  0  0  0  0  0  0
   -4.7955   23.6873  -27.4805 C   0  0  0  0  0  0  0  0  0  0  0  0
   -4.4451   23.7125  -28.8068 C   0  0  0  0  0  0  0  0  0  0  0  0
   -3.1613   23.3462  -29.1539 C   0  0  0  0  0  0  0  0  0  0  0  0
   -2.2313   22.9600  -28.2151 C   0  0  0  0  0  0  0  0  0  0  0  0
   -2.5819   22.9359  -26.8975 C   0  0  0  0  0  0  0  0  0  0  0  0
   -2.3561   22.5019  -23.3217 C   0  0  0  0  0  0  0  0  0  0  0  0
   -3.3433   21.4528  -22.7915 C   0  0  0  0  0  0  0  0  0  0  0  0
   -2.6681   23.7758  -22.5381 C   0  0  0  0  0  0  0  0  0  0  0  0
   -4.7769   23.3926  -24.6408 H   0  0  0  0  0  0  0  0  0  0  0  0
    2.3197   20.1379  -17.6605 C   0  0  0  0  0  0  0  0  0  0  0  0
    1.1478   19.5155  -18.4496 C   0  0  0  0  0  0  0  0  0  0  0  0
    0.3737   20.5125  -19.2499 C   0  0  0  0  0  0  0  0  0  0  0  0
    1.2256   21.0712  -20.2816 N   0  0  0  0  0  0  0  0  0  0  0  0
    2.6003   21.3274  -19.8693 C   0  0  0  0  0  0  0  0  0  0  0  0
    2.5467   21.4602  -18.3619 C   0  0  0  0  0  0  0  0  0  0  0  0
    3.3779   19.2367  -17.7931 N   0  0  0  0  0  0  0  0  0  0  0  0
    4.6616   19.4471  -17.3619 C   0  0  0  0  0  0  0  0  0  0  0  0
    5.7016   19.0623  -18.3860 C   0  0  0  0  0  0  0  0  0  0  0  0
    5.4212   17.8978  -19.0494 O   0  0  0  0  0  0  0  0  0  0  0  0
    4.1416   17.9016  -19.6131 C   0  0  0  0  0  0  0  0  0  0  0  0
    3.1703   18.0116  -18.4559 C   0  0  0  0  0  0  0  0  0  0  0  0
    1.5223   21.8041  -15.9297 C   0  0  0  0  0  0  0  0  0  0  0  0
    1.9327   20.3625  -16.2370 C   0  0  0  0  0  0  0  0  0  0  0  0
    0.8411   19.5259  -15.6692 C   0  0  0  0  0  0  0  0  0  0  0  0
   -5.4031   24.1160  -29.8311 C   0  0  0  0  0  0  0  0  0  0  0  0
   -6.1708   24.4447  -30.6302 N   0  0  0  0  0  0  0  0  0  0  0  0
 34 35  1  0  0  0
 35 36  1  0  0  0
 35 22  1  0  0  0
 22 28  1  0  0  0
 28 29  1  0  0  0
 29 30  1  0  0  0
 30 31  1  0  0  0
 31 32  1  0  0  0
 32 33  1  0  0  0
 22 23  1  0  0  0
 23 24  1  0  0  0
 24 25  1  0  0  0
 25  1  1  0  0  0
  1  2  2  0  0  0
  2  3  1  0  0  0
  3  4  2  0  0  0
  4  5  1  0  0  0
  5  6  2  0  0  0
  4  7  1  0  0  0
  7  8  2  0  0  0
  7  9  1  0  0  0
  9 10  2  0  0  0
 10 11  1  0  0  0
 11 12  1  0  0  0
 12 13  2  0  0  0
 13 14  1  0  0  0
 14 37  1  0  0  0
 37 38  3  0  0  0
 14 15  2  0  0  0
 15 16  1  0  0  0
 16 17  2  0  0  0
 10 18  1  0  0  0
 18 19  1  0  0  0
 18 20  1  0  0  0
 25 26  1  0  0  0
 26 27  1  0  0  0
 27 22  1  0  0  0
 33 28  1  0  0  0
  6  1  1  0  0  0
 17  9  1  0  0  0
 18  3  1  0  0  0
 17 12  1  0  0  0
 11 21  1  0  0  0
M  END
> <minimizedAffinity>
-8.69198

> <CNNscore>
0.5895202160

> <CNNaffinity>
7.0442223549

> <CNN_VS>
4.1527113914

> <CNNaffinity_variance>
0.3435532451

$$$$
[H]c1nc(N2C([H])([H])C([H])([H])C(N3C([H])([H])C([H])([H])OC([H])([H])C3([H])[H])(C([H])(C([H])([H])[H])C([H])([H])[H])C([H])([H])C2([H])[H])c([H])c2c1C(=O)c1c(n([H])c3c([H])c(C#N)c([H])c([H])c13)C2(C([H])([H])[H])C([H])([H])[H]


 38 43  0  0  0  0  0  0  0  0999 V2000
    0.8696   21.2780  -21.5572 C   0  0  0  0  0  0  0  0  0  0  0  0
   -0.4123   21.7067  -21.7824 C   0  0  0  0  0  0  0  0  0  0  0  0
   -0.8724   21.9958  -23.0746 C   0  0  0  0  0  0  0  0  0  0  0  0
    0.0101   21.8338  -24.1109 C   0  0  0  0  0  0  0  0  0  0  0  0
    1.3000   21.3995  -23.8570 C   0  0  0  0  0  0  0  0  0  0  0  0
    1.6998   21.1338  -22.6041 N   0  0  0  0  0  0  0  0  0  0  0  0
   -0.4156   22.1190  -25.4711 C   0  0  0  0  0  0  0  0  0  0  0  0
    0.3936   21.9723  -26.4360 O   0  0  0  0  0  0  0  0  0  0  0  0
   -1.7735   22.5717  -25.7049 C   0  0  0  0  0  0  0  0  0  0  0  0
   -2.6201   22.7185  -24.6339 C   0  0  0  0  0  0  0  0  0  0  0  0
   -3.8283   23.1496  -25.0944 N   0  0  0  0  0  0  0  0  0  0  0  0
   -3.7746   23.2827  -26.4398 C   0  0  0  0  0  0  0  0  0  0  0  0
   -4.7114   23.6819  -27.3766 C   0  0  0  0  0  0  0  0  0  0  0  0
   -4.3674   23.7218  -28.7042 C   0  0  0  0  0  0  0  0  0  0  0  0
   -3.0857   23.3584  -29.0616 C   0  0  0  0  0  0  0  0  0  0  0  0
   -2.1514   22.9609  -28.1317 C   0  0  0  0  0  0  0  0  0  0  0  0
   -2.4956   22.9221  -26.8128 C   0  0  0  0  0  0  0  0  0  0  0  0
   -2.2530   22.4476  -23.2432 C   0  0  0  0  0  0  0  0  0  0  0  0
   -3.2385   21.3934  -22.7201 C   0  0  0  0  0  0  0  0  0  0  0  0
   -2.5601   23.7128  -22.4438 C   0  0  0  0  0  0  0  0  0  0  0  0
   -4.6794   23.3551  -24.5405 H   0  0  0  0  0  0  0  0  0  0  0  0
    2.4158   20.7388  -17.4571 C   0  0  0  0  0  0  0  0  0  0  0  0
    3.2058   21.1294  -18.7247 C   0  0  0  0  0  0  0  0  0  0  0  0
    2.6820   20.4932  -19.9715 C   0  0  0  0  0  0  0  0  0  0  0  0
    1.3422   20.9799  -20.2369 N   0  0  0  0  0  0  0  0  0  0  0  0
    0.5042   21.1437  -19.0553 C   0  0  0  0  0  0  0  0  0  0  0  0
    1.1034   20.2258  -18.0106 C   0  0  0  0  0  0  0  0  0  0  0  0
    2.2971   21.9157  -16.7152 N   0  0  0  0  0  0  0  0  0  0  0  0
    2.9529   23.0905  -16.9757 C   0  0  0  0  0  0  0  0  0  0  0  0
    3.5553   23.7193  -15.7428 C   0  0  0  0  0  0  0  0  0  0  0  0
    2.7485   23.6560  -14.6383 O   0  0  0  0  0  0  0  0  0  0  0  0
    2.3107   22.3549  -14.3732 C   0  0  0  0  0  0  0  0  0  0  0  0
    1.4796   21.9367  -15.5688 C   0  0  0  0  0  0  0  0  0  0  0  0
    2.6166   18.2516  -17.0313 C   0  0  0  0  0  0  0  0  0  0  0  0
    3.1241   19.6588  -16.7098 C   0  0  0  0  0  0  0  0  0  0  0  0
    4.6034   19.5706  -16.8438 C   0  0  0  0  0  0  0  0  0  0  0  0
   -5.3300   24.1376  -29.7192 C   0  0  0  0  0  0  0  0  0  0  0  0
   -6.0841   24.4570  -30.5349 N   0  0  0  0  0  0  0  0  0  0  0  0
 34 35  1  0  0  0
 35 36  1  0  0  0
 35 22  1  0  0  0
 22 28  1  0  0  0
 28 29  1  0  0  0
 29 30  1  0  0  0
 30 31  1  0  0  0
 31 32  1  0  0  0
 32 33  1  0  0  0
 22 23  1  0  0  0
 23 24  1  0  0  0
 24 25  1  0  0  0
 25  1  1  0  0  0
  1  2  2  0  0  0
  2  3  1  0  0  0
  3  4  2  0  0  0
  4  5  1  0  0  0
  5  6  2  0  0  0
  4  7  1  0  0  0
  7  8  2  0  0  0
  7  9  1  0  0  0
  9 10  2  0  0  0
 10 11  1  0  0  0
 11 12  1  0  0  0
 12 13  2  0  0  0
 13 14  1  0  0  0
 14 37  1  0  0  0
 37 38  3  0  0  0
 14 15  2  0  0  0
 15 16  1  0  0  0
 16 17  2  0  0  0
 10 18  1  0  0  0
 18 19  1  0  0  0
 18 20  1  0  0  0
 25 26  1  0  0  0
 26 27  1  0  0  0
 27 22  1  0  0  0
 33 28  1  0  0  0
  6  1  1  0  0  0
 17  9  1  0  0  0
 18  3  1  0  0  0
 17 12  1  0  0  0
 11 21  1  0  0  0
M  END
> <minimizedAffinity>
-9.35204

> <CNNscore>
0.5212866664

> <CNNaffinity>
6.9920682907

> <CNN_VS>
3.6448719501

> <CNNaffinity_variance>
0.3986606896

$$$$
[H]c1nc(N2C([H])([H])C([H])([H])C(N3C([H])([H])C([H])([H])OC([H])([H])C3([H])[H])(C([H])(C([H])([H])[H])C([H])([H])[H])C([H])([H])C2([H])[H])c([H])c2c1C(=O)c1c(n([H])c3c([H])c(C#N)c([H])c([H])c13)C2(C([H])([H])[H])C([H])([H])[H]


 38 43  0  0  0  0  0  0  0  0999 V2000
    0.7428   21.3224  -21.4933 C   0  0  0  0  0  0  0  0  0  0  0  0
   -0.5265   21.7800  -21.7330 C   0  0  0  0  0  0  0  0  0  0  0  0
   -0.9737   22.0543  -23.0329 C   0  0  0  0  0  0  0  0  0  0  0  0
   -0.0918   21.8476  -24.0617 C   0  0  0  0  0  0  0  0  0  0  0  0
    1.1852   21.3848  -23.7931 C   0  0  0  0  0  0  0  0  0  0  0  0
    1.5729   21.1346  -22.5333 N   0  0  0  0  0  0  0  0  0  0  0  0
   -0.5044   22.1156  -25.4293 C   0  0  0  0  0  0  0  0  0  0  0  0
    0.3044   21.9276  -26.3874 O   0  0  0  0  0  0  0  0  0  0  0  0
   -1.8489   22.5990  -25.6785 C   0  0  0  0  0  0  0  0  0  0  0  0
   -2.6956   22.7903  -24.6146 C   0  0  0  0  0  0  0  0  0  0  0  0
   -3.8901   23.2435  -25.0893 N   0  0  0  0  0  0  0  0  0  0  0  0
   -3.8276   23.3472  -26.4369 C   0  0  0  0  0  0  0  0  0  0  0  0
   -4.7498   23.7514  -27.3859 C   0  0  0  0  0  0  0  0  0  0  0  0
   -4.3997   23.7547  -28.7125 C   0  0  0  0  0  0  0  0  0  0  0  0
   -3.1266   23.3503  -29.0566 C   0  0  0  0  0  0  0  0  0  0  0  0
   -2.2069   22.9477  -28.1145 C   0  0  0  0  0  0  0  0  0  0  0  0
   -2.5572   22.9454  -26.7967 C   0  0  0  0  0  0  0  0  0  0  0  0
   -2.3412   22.5388  -23.2170 C   0  0  0  0  0  0  0  0  0  0  0  0
   -3.3563   21.5220  -22.6767 C   0  0  0  0  0  0  0  0  0  0  0  0
   -2.6178   23.8280  -22.4452 C   0  0  0  0  0  0  0  0  0  0  0  0
   -4.7376   23.4828  -24.5435 H   0  0  0  0  0  0  0  0  0  0  0  0
    1.8154   20.2705  -17.3417 C   0  0  0  0  0  0  0  0  0  0  0  0
    0.7064   21.2323  -17.8199 C   0  0  0  0  0  0  0  0  0  0  0  0
    1.0610   21.9758  -19.0670 C   0  0  0  0  0  0  0  0  0  0  0  0
    1.2021   21.0393  -20.1650 N   0  0  0  0  0  0  0  0  0  0  0  0
    1.8507   19.7808  -19.8179 C   0  0  0  0  0  0  0  0  0  0  0  0
    2.6675   20.0811  -18.5787 C   0  0  0  0  0  0  0  0  0  0  0  0
    1.1518   19.1139  -16.9277 N   0  0  0  0  0  0  0  0  0  0  0  0
    1.7542   17.9415  -16.5527 C   0  0  0  0  0  0  0  0  0  0  0  0
    1.1113   16.7217  -17.1669 C   0  0  0  0  0  0  0  0  0  0  0  0
   -0.2568   16.7705  -17.1927 O   0  0  0  0  0  0  0  0  0  0  0  0
   -0.7362   17.9416  -17.7875 C   0  0  0  0  0  0  0  0  0  0  0  0
   -0.2561   19.0848  -16.9172 C   0  0  0  0  0  0  0  0  0  0  0  0
    3.9839   21.4087  -16.7012 C   0  0  0  0  0  0  0  0  0  0  0  0
    2.6155   20.8952  -16.2481 C   0  0  0  0  0  0  0  0  0  0  0  0
    2.0107   22.0305  -15.5004 C   0  0  0  0  0  0  0  0  0  0  0  0
   -5.3470   24.1746  -29.7401 C   0  0  0  0  0  0  0  0  0  0  0  0
   -6.1038   24.4909  -30.5545 N   0  0  0  0  0  0  0  0  0  0  0  0
 34 35  1  0  0  0
 35 36  1  0  0  0
 35 22  1  0  0  0
 22 28  1  0  0  0
 28 29  1  0  0  0
 29 30  1  0  0  0
 30 31  1  0  0  0
 31 32  1  0  0  0
 32 33  1  0  0  0
 22 23  1  0  0  0
 23 24  1  0  0  0
 24 25  1  0  0  0
 25  1  1  0  0  0
  1  2  2  0  0  0
  2  3  1  0  0  0
  3  4  2  0  0  0
  4  5  1  0  0  0
  5  6  2  0  0  0
  4  7  1  0  0  0
  7  8  2  0  0  0
  7  9  1  0  0  0
  9 10  2  0  0  0
 10 11  1  0  0  0
 11 12  1  0  0  0
 12 13  2  0  0  0
 13 14  1  0  0  0
 14 37  1  0  0  0
 37 38  3  0  0  0
 14 15  2  0  0  0
 15 16  1  0  0  0
 16 17  2  0  0  0
 10 18  1  0  0  0
 18 19  1  0  0  0
 18 20  1  0  0  0
 25 26  1  0  0  0
 26 27  1  0  0  0
 27 22  1  0  0  0
 33 28  1  0  0  0
  6  1  1  0  0  0
 17  9  1  0  0  0
 18  3  1  0  0  0
 17 12  1  0  0  0
 11 21  1  0  0  0
M  END
> <minimizedAffinity>
-8.73288

> <CNNscore>
0.4973115325

> <CNNaffinity>
6.9070320129

> <CNN_VS>
3.4349467754

> <CNNaffinity_variance>
0.2792510688

$$$$
[H]c1nc(N2C([H])([H])C([H])([H])C(N3C([H])([H])C([H])([H])OC([H])([H])C3([H])[H])(C([H])(C([H])([H])[H])C([H])([H])[H])C([H])([H])C2([H])[H])c([H])c2c1C(=O)c1c(n([H])c3c([H])c(C#N)c([H])c([H])c13)C2(C([H])([H])[H])C([H])([H])[H]


 38 43  0  0  0  0  0  0  0  0999 V2000
   -0.7244   21.2148  -21.7644 C   0  0  0  0  0  0  0  0  0  0  0  0
   -1.9878   21.5176  -22.2004 C   0  0  0  0  0  0  0  0  0  0  0  0
   -2.2316   21.9151  -23.5223 C   0  0  0  0  0  0  0  0  0  0  0  0
   -1.1557   21.9906  -24.3684 C   0  0  0  0  0  0  0  0  0  0  0  0
    0.1107   21.6795  -23.9034 C   0  0  0  0  0  0  0  0  0  0  0  0
    0.3001   21.3032  -22.6296 N   0  0  0  0  0  0  0  0  0  0  0  0
   -1.3527   22.3969  -25.7500 C   0  0  0  0  0  0  0  0  0  0  0  0
   -0.3637   22.4698  -26.5399 O   0  0  0  0  0  0  0  0  0  0  0  0
   -2.6916   22.7156  -26.2074 C   0  0  0  0  0  0  0  0  0  0  0  0
   -3.7370   22.6248  -25.3218 C   0  0  0  0  0  0  0  0  0  0  0  0
   -4.8846   22.9687  -25.9717 N   0  0  0  0  0  0  0  0  0  0  0  0
   -4.5972   23.2788  -27.2570 C   0  0  0  0  0  0  0  0  0  0  0  0
   -5.3868   23.6838  -28.3186 C   0  0  0  0  0  0  0  0  0  0  0  0
   -4.8076   23.9333  -29.5371 C   0  0  0  0  0  0  0  0  0  0  0  0
   -3.4436   23.7695  -29.6617 C   0  0  0  0  0  0  0  0  0  0  0  0
   -2.6555   23.3668  -28.6071 C   0  0  0  0  0  0  0  0  0  0  0  0
   -3.2334   23.1195  -27.3970 C   0  0  0  0  0  0  0  0  0  0  0  0
   -3.6047   22.2220  -23.9210 C   0  0  0  0  0  0  0  0  0  0  0  0
   -4.5151   21.0024  -23.7208 C   0  0  0  0  0  0  0  0  0  0  0  0
   -4.2296   23.3300  -23.0749 C   0  0  0  0  0  0  0  0  0  0  0  0
   -5.8450   23.0015  -25.5844 H   0  0  0  0  0  0  0  0  0  0  0  0
   -0.1181   19.6159  -17.6939 C   0  0  0  0  0  0  0  0  0  0  0  0
   -1.4540   19.9457  -18.3939 C   0  0  0  0  0  0  0  0  0  0  0  0
   -1.3683   21.1182  -19.3167 C   0  0  0  0  0  0  0  0  0  0  0  0
   -0.4726   20.8064  -20.4134 N   0  0  0  0  0  0  0  0  0  0  0  0
    0.7119   20.0431  -20.0394 C   0  0  0  0  0  0  0  0  0  0  0  0
    0.9093   20.3107  -18.5622 C   0  0  0  0  0  0  0  0  0  0  0  0
   -0.0241   18.2229  -17.7088 N   0  0  0  0  0  0  0  0  0  0  0  0
    1.0601   17.4937  -17.2955 C   0  0  0  0  0  0  0  0  0  0  0  0
    1.4357   16.3927  -18.2574 C   0  0  0  0  0  0  0  0  0  0  0  0
    0.3616   15.7224  -18.7786 O   0  0  0  0  0  0  0  0  0  0  0  0
   -0.5786   16.5858  -19.3491 C   0  0  0  0  0  0  0  0  0  0  0  0
   -1.0900   17.4585  -18.2214 C   0  0  0  0  0  0  0  0  0  0  0  0
    0.6631   21.4996  -16.1942 C   0  0  0  0  0  0  0  0  0  0  0  0
   -0.0977   20.1773  -16.3116 C   0  0  0  0  0  0  0  0  0  0  0  0
   -1.4014   20.4265  -15.6392 C   0  0  0  0  0  0  0  0  0  0  0  0
   -5.6097   24.3617  -30.6784 C   0  0  0  0  0  0  0  0  0  0  0  0
   -6.2509   24.7148  -31.5730 N   0  0  0  0  0  0  0  0  0  0  0  0
 34 35  1  0  0  0
 35 36  1  0  0  0
 35 22  1  0  0  0
 22 28  1  0  0  0
 28 29  1  0  0  0
 29 30  1  0  0  0
 30 31  1  0  0  0
 31 32  1  0  0  0
 32 33  1  0  0  0
 22 23  1  0  0  0
 23 24  1  0  0  0
 24 25  1  0  0  0
 25  1  1  0  0  0
  1  2  2  0  0  0
  2  3  1  0  0  0
  3  4  2  0  0  0
  4  5  1  0  0  0
  5  6  2  0  0  0
  4  7  1  0  0  0
  7  8  2  0  0  0
  7  9  1  0  0  0
  9 10  2  0  0  0
 10 11  1  0  0  0
 11 12  1  0  0  0
 12 13  2  0  0  0
 13 14  1  0  0  0
 14 37  1  0  0  0
 37 38  3  0  0  0
 14 15  2  0  0  0
 15 16  1  0  0  0
 16 17  2  0  0  0
 10 18  1  0  0  0
 18 19  1  0  0  0
 18 20  1  0  0  0
 25 26  1  0  0  0
 26 27  1  0  0  0
 27 22  1  0  0  0
 33 28  1  0  0  0
  6  1  1  0  0  0
 17  9  1  0  0  0
 18  3  1  0  0  0
 17 12  1  0  0  0
 11 21  1  0  0  0
M  END
> <minimizedAffinity>
-8.55358

> <CNNscore>
0.3924073577

> <CNNaffinity>
6.9296388626

> <CNN_VS>
2.7192413807

> <CNNaffinity_variance>
0.3589304090

$$$$
[H]c1nc(N2C([H])([H])C([H])([H])C(N3C([H])([H])C([H])([H])OC([H])([H])C3([H])[H])(C([H])(C([H])([H])[H])C([H])([H])[H])C([H])([H])C2([H])[H])c([H])c2c1C(=O)c1c(n([H])c3c([H])c(C#N)c([H])c([H])c13)C2(C([H])([H])[H])C([H])([H])[H]


 38 43  0  0  0  0  0  0  0  0999 V2000
    0.1133   21.4173  -21.3267 C   0  0  0  0  0  0  0  0  0  0  0  0
   -1.1523   21.8243  -21.6591 C   0  0  0  0  0  0  0  0  0  0  0  0
   -1.5170   22.0722  -22.9897 C   0  0  0  0  0  0  0  0  0  0  0  0
   -0.5578   21.8920  -23.9522 C   0  0  0  0  0  0  0  0  0  0  0  0
    0.7136   21.4803  -23.5905 C   0  0  0  0  0  0  0  0  0  0  0  0
    1.0210   21.2541  -22.3042 N   0  0  0  0  0  0  0  0  0  0  0  0
   -0.8831   22.1345  -25.3479 C   0  0  0  0  0  0  0  0  0  0  0  0
   -0.0025   21.9707  -26.2452 O   0  0  0  0  0  0  0  0  0  0  0  0
   -2.2240   22.5643  -25.6952 C   0  0  0  0  0  0  0  0  0  0  0  0
   -3.1500   22.7306  -24.6950 C   0  0  0  0  0  0  0  0  0  0  0  0
   -4.3244   23.1344  -25.2566 N   0  0  0  0  0  0  0  0  0  0  0  0
   -4.1713   23.2309  -26.5974 C   0  0  0  0  0  0  0  0  0  0  0  0
   -5.0391   23.5928  -27.6125 C   0  0  0  0  0  0  0  0  0  0  0  0
   -4.5970   23.6001  -28.9113 C   0  0  0  0  0  0  0  0  0  0  0  0
   -3.2886   23.2423  -29.1616 C   0  0  0  0  0  0  0  0  0  0  0  0
   -2.4228   22.8818  -28.1536 C   0  0  0  0  0  0  0  0  0  0  0  0
   -2.8645   22.8754  -26.8635 C   0  0  0  0  0  0  0  0  0  0  0  0
   -2.8854   22.5027  -23.2737 C   0  0  0  0  0  0  0  0  0  0  0  0
   -3.8970   21.4516  -22.7959 C   0  0  0  0  0  0  0  0  0  0  0  0
   -3.2640   23.7857  -22.5358 C   0  0  0  0  0  0  0  0  0  0  0  0
   -5.2166   23.3450  -24.7738 H   0  0  0  0  0  0  0  0  0  0  0  0
    0.8910   20.6704  -17.0454 C   0  0  0  0  0  0  0  0  0  0  0  0
    0.4019   21.9770  -17.7064 C   0  0  0  0  0  0  0  0  0  0  0  0
    0.9647   22.1990  -19.0730 C   0  0  0  0  0  0  0  0  0  0  0  0
    0.4885   21.1614  -19.9669 N   0  0  0  0  0  0  0  0  0  0  0  0
    0.4197   19.8294  -19.3784 C   0  0  0  0  0  0  0  0  0  0  0  0
    1.3924   19.8549  -18.2182 C   0  0  0  0  0  0  0  0  0  0  0  0
   -0.2317   20.1286  -16.4166 N   0  0  0  0  0  0  0  0  0  0  0  0
   -0.2928   18.8965  -15.8197 C   0  0  0  0  0  0  0  0  0  0  0  0
   -1.5342   18.1205  -16.1872 C   0  0  0  0  0  0  0  0  0  0  0  0
   -2.6718   18.8814  -16.2256 O   0  0  0  0  0  0  0  0  0  0  0  0
   -2.5292   20.0107  -17.0376 C   0  0  0  0  0  0  0  0  0  0  0  0
   -1.4400   20.8518  -16.4044 C   0  0  0  0  0  0  0  0  0  0  0  0
    3.3959   20.7237  -16.6841 C   0  0  0  0  0  0  0  0  0  0  0  0
    2.0036   20.9501  -16.0912 C   0  0  0  0  0  0  0  0  0  0  0  0
    2.0687   22.3005  -15.4699 C   0  0  0  0  0  0  0  0  0  0  0  0
   -5.4848   23.9763  -30.0067 C   0  0  0  0  0  0  0  0  0  0  0  0
   -6.1743   24.2746  -30.8852 N   0  0  0  0  0  0  0  0  0  0  0  0
 34 35  1  0  0  0
 35 36  1  0  0  0
 35 22  1  0  0  0
 22 28  1  0  0  0
 28 29  1  0  0  0
 29 30  1  0  0  0
 30 31  1  0  0  0
 31 32  1  0  0  0
 32 33  1  0  0  0
 22 23  1  0  0  0
 23 24  1  0  0  0
 24 25  1  0  0  0
 25  1  1  0  0  0
  1  2  2  0  0  0
  2  3  1  0  0  0
  3  4  2  0  0  0
  4  5  1  0  0  0
  5  6  2  0  0  0
  4  7  1  0  0  0
  7  8  2  0  0  0
  7  9  1  0  0  0
  9 10  2  0  0  0
 10 11  1  0  0  0
 11 12  1  0  0  0
 12 13  2  0  0  0
 13 14  1  0  0  0
 14 37  1  0  0  0
 37 38  3  0  0  0
 14 15  2  0  0  0
 15 16  1  0  0  0
 16 17  2  0  0  0
 10 18  1  0  0  0
 18 19  1  0  0  0
 18 20  1  0  0  0
 25 26  1  0  0  0
 26 27  1  0  0  0
 27 22  1  0  0  0
 33 28  1  0  0  0
  6  1  1  0  0  0
 17  9  1  0  0  0
 18  3  1  0  0  0
 17 12  1  0  0  0
 11 21  1  0  0  0
M  END
> <minimizedAffinity>
-8.64149

> <CNNscore>
0.3450595438

> <CNNaffinity>
6.8206281662

> <CNN_VS>
2.3535227776

> <CNNaffinity_variance>
0.2856077850

$$$$
[H]c1nc(N2C([H])([H])C([H])([H])C(N3C([H])([H])C([H])([H])OC([H])([H])C3([H])[H])(C([H])(C([H])([H])[H])C([H])([H])[H])C([H])([H])C2([H])[H])c([H])c2c1C(=O)c1c(n([H])c3c([H])c(C#N)c([H])c([H])c13)C2(C([H])([H])[H])C([H])([H])[H]


 38 43  0  0  0  0  0  0  0  0999 V2000
   -1.1912   21.6098  -22.7168 C   0  0  0  0  0  0  0  0  0  0  0  0
   -2.2968   22.3891  -22.9366 C   0  0  0  0  0  0  0  0  0  0  0  0
   -2.5918   22.9016  -24.2075 C   0  0  0  0  0  0  0  0  0  0  0  0
   -1.7305   22.5941  -25.2286 C   0  0  0  0  0  0  0  0  0  0  0  0
   -0.6203   21.8049  -24.9806 C   0  0  0  0  0  0  0  0  0  0  0  0
   -0.3749   21.3346  -23.7482 N   0  0  0  0  0  0  0  0  0  0  0  0
   -1.9898   23.0992  -26.5666 C   0  0  0  0  0  0  0  0  0  0  0  0
   -1.1988   22.8202  -27.5174 O   0  0  0  0  0  0  0  0  0  0  0  0
   -3.1615   23.9228  -26.7949 C   0  0  0  0  0  0  0  0  0  0  0  0
   -3.9943   24.2030  -25.7396 C   0  0  0  0  0  0  0  0  0  0  0  0
   -5.0155   24.9844  -26.1912 N   0  0  0  0  0  0  0  0  0  0  0  0
   -4.8554   25.2120  -27.5153 C   0  0  0  0  0  0  0  0  0  0  0  0
   -5.5985   25.9295  -28.4358 C   0  0  0  0  0  0  0  0  0  0  0  0
   -5.1852   25.9870  -29.7429 C   0  0  0  0  0  0  0  0  0  0  0  0
   -4.0307   25.3200  -30.0964 C   0  0  0  0  0  0  0  0  0  0  0  0
   -3.2893   24.6054  -29.1826 C   0  0  0  0  0  0  0  0  0  0  0  0
   -3.7020   24.5498  -27.8842 C   0  0  0  0  0  0  0  0  0  0  0  0
   -3.7891   23.7250  -24.3716 C   0  0  0  0  0  0  0  0  0  0  0  0
   -5.0483   22.9385  -23.9816 C   0  0  0  0  0  0  0  0  0  0  0  0
   -3.7879   24.9532  -23.4629 C   0  0  0  0  0  0  0  0  0  0  0  0
   -5.8088   25.3661  -25.6449 H   0  0  0  0  0  0  0  0  0  0  0  0
    0.0106   20.2698  -18.6853 C   0  0  0  0  0  0  0  0  0  0  0  0
    0.8494   20.2475  -19.9812 C   0  0  0  0  0  0  0  0  0  0  0  0
    0.0390   19.9878  -21.2099 C   0  0  0  0  0  0  0  0  0  0  0  0
   -0.8882   21.0830  -21.4183 N   0  0  0  0  0  0  0  0  0  0  0  0
   -1.4951   21.6121  -20.2030 C   0  0  0  0  0  0  0  0  0  0  0  0
   -1.3998   20.4918  -19.1888 C   0  0  0  0  0  0  0  0  0  0  0  0
    0.5175   21.3306  -17.9322 N   0  0  0  0  0  0  0  0  0  0  0  0
    1.6096   22.0903  -18.2614 C   0  0  0  0  0  0  0  0  0  0  0  0
    2.5505   22.3098  -17.1017 C   0  0  0  0  0  0  0  0  0  0  0  0
    1.9167   22.5623  -15.9145 O   0  0  0  0  0  0  0  0  0  0  0  0
    0.9598   21.5909  -15.6053 C   0  0  0  0  0  0  0  0  0  0  0  0
   -0.0830   21.6607  -16.7019 C   0  0  0  0  0  0  0  0  0  0  0  0
   -0.8683   17.9041  -18.4876 C   0  0  0  0  0  0  0  0  0  0  0  0
    0.1103   18.9622  -17.9736 C   0  0  0  0  0  0  0  0  0  0  0  0
    1.4319   18.2790  -17.9486 C   0  0  0  0  0  0  0  0  0  0  0  0
   -5.9444   26.7342  -30.7404 C   0  0  0  0  0  0  0  0  0  0  0  0
   -6.5355   27.3400  -31.5276 N   0  0  0  0  0  0  0  0  0  0  0  0
 34 35  1  0  0  0
 35 36  1  0  0  0
 35 22  1  0  0  0
 22 28  1  0  0  0
 28 29  1  0  0  0
 29 30  1  0  0  0
 30 31  1  0  0  0
 31 32  1  0  0  0
 32 33  1  0  0  0
 22 23  1  0  0  0
 23 24  1  0  0  0
 24 25  1  0  0  0
 25  1  1  0  0  0
  1  2  2  0  0  0
  2  3  1  0  0  0
  3  4  2  0  0  0
  4  5  1  0  0  0
  5  6  2  0  0  0
  4  7  1  0  0  0
  7  8  2  0  0  0
  7  9  1  0  0  0
  9 10  2  0  0  0
 10 11  1  0  0  0
 11 12  1  0  0  0
 12 13  2  0  0  0
 13 14  1  0  0  0
 14 37  1  0  0  0
 37 38  3  0  0  0
 14 15  2  0  0  0
 15 16  1  0  0  0
 16 17  2  0  0  0
 10 18  1  0  0  0
 18 19  1  0  0  0
 18 20  1  0  0  0
 25 26  1  0  0  0
 26 27  1  0  0  0
 27 22  1  0  0  0
 33 28  1  0  0  0
  6  1  1  0  0  0
 17  9  1  0  0  0
 18  3  1  0  0  0
 17 12  1  0  0  0
 11 21  1  0  0  0
M  END
> <minimizedAffinity>
-8.92441

> <CNNscore>
0.3397017419

> <CNNaffinity>
7.0518646240

> <CNN_VS>
2.3955307007

> <CNNaffinity_variance>
0.5156655908

$$$$
[H]c1nc(N2C([H])([H])C([H])([H])C(N3C([H])([H])C([H])([H])OC([H])([H])C3([H])[H])(C([H])(C([H])([H])[H])C([H])([H])[H])C([H])([H])C2([H])[H])c([H])c2c1C(=O)c1c(n([H])c3c([H])c(C#N)c([H])c([H])c13)C2(C([H])([H])[H])C([H])([H])[H]


 38 43  0  0  0  0  0  0  0  0999 V2000
   -4.9696   22.4021  -17.7592 C   0  0  0  0  0  0  0  0  0  0  0  0
   -3.7005   22.2588  -18.2560 C   0  0  0  0  0  0  0  0  0  0  0  0
   -3.4384   22.3349  -19.6310 C   0  0  0  0  0  0  0  0  0  0  0  0
   -4.5022   22.5591  -20.4659 C   0  0  0  0  0  0  0  0  0  0  0  0
   -5.7748   22.7003  -19.9391 C   0  0  0  0  0  0  0  0  0  0  0  0
   -5.9818   22.6204  -18.6159 N   0  0  0  0  0  0  0  0  0  0  0  0
   -4.2861   22.6475  -21.9005 C   0  0  0  0  0  0  0  0  0  0  0  0
   -5.2638   22.8545  -22.6806 O   0  0  0  0  0  0  0  0  0  0  0  0
   -2.9412   22.4961  -22.4218 C   0  0  0  0  0  0  0  0  0  0  0  0
   -1.9083   22.2729  -21.5449 C   0  0  0  0  0  0  0  0  0  0  0  0
   -0.7520   22.1647  -22.2583 N   0  0  0  0  0  0  0  0  0  0  0  0
   -1.0215   22.3136  -23.5758 C   0  0  0  0  0  0  0  0  0  0  0  0
   -0.2174   22.2905  -24.7015 C   0  0  0  0  0  0  0  0  0  0  0  0
   -0.7795   22.4753  -25.9395 C   0  0  0  0  0  0  0  0  0  0  0  0
   -2.1414   22.6798  -26.0183 C   0  0  0  0  0  0  0  0  0  0  0  0
   -2.9439   22.7032  -24.8999 C   0  0  0  0  0  0  0  0  0  0  0  0
   -2.3829   22.5192  -23.6707 C   0  0  0  0  0  0  0  0  0  0  0  0
   -2.0601   22.1743  -20.0926 C   0  0  0  0  0  0  0  0  0  0  0  0
   -1.1512   23.2469  -19.4764 C   0  0  0  0  0  0  0  0  0  0  0  0
   -1.4486   20.8403  -19.6674 C   0  0  0  0  0  0  0  0  0  0  0  0
    0.2027   21.9959  -21.8930 H   0  0  0  0  0  0  0  0  0  0  0  0
   -6.0370   22.4792  -13.4759 C   0  0  0  0  0  0  0  0  0  0  0  0
   -5.2389   23.5330  -14.2733 C   0  0  0  0  0  0  0  0  0  0  0  0
   -4.3906   22.9442  -15.3539 C   0  0  0  0  0  0  0  0  0  0  0  0
   -5.2402   22.3265  -16.3534 N   0  0  0  0  0  0  0  0  0  0  0  0
   -6.3968   21.6167  -15.8209 C   0  0  0  0  0  0  0  0  0  0  0  0
   -6.0317   21.2738  -14.3918 C   0  0  0  0  0  0  0  0  0  0  0  0
   -7.3015   23.0385  -13.2819 N   0  0  0  0  0  0  0  0  0  0  0  0
   -7.6554   24.3287  -13.5790 C   0  0  0  0  0  0  0  0  0  0  0  0
   -8.4434   24.9959  -12.4779 C   0  0  0  0  0  0  0  0  0  0  0  0
   -9.3784   24.1829  -11.8953 O   0  0  0  0  0  0  0  0  0  0  0  0
   -8.8320   22.9729  -11.4568 C   0  0  0  0  0  0  0  0  0  0  0  0
   -8.3223   22.2657  -12.6957 C   0  0  0  0  0  0  0  0  0  0  0  0
   -4.4976   20.8897  -12.2463 C   0  0  0  0  0  0  0  0  0  0  0  0
   -5.3475   22.1609  -12.1914 C   0  0  0  0  0  0  0  0  0  0  0  0
   -4.4515   23.1936  -11.6045 C   0  0  0  0  0  0  0  0  0  0  0  0
    0.0383   22.4572  -27.1480 C   0  0  0  0  0  0  0  0  0  0  0  0
    0.6853   22.4254  -28.1053 N   0  0  0  0  0  0  0  0  0  0  0  0
 34 35  1  0  0  0
 35 36  1  0  0  0
 35 22  1  0  0  0
 22 28  1  0  0  0
 28 29  1  0  0  0
 29 30  1  0  0  0
 30 31  1  0  0  0
 31 32  1  0  0  0
 32 33  1  0  0  0
 22 23  1  0  0  0
 23 24  1  0  0  0
 24 25  1  0  0  0
 25  1  1  0  0  0
  1  2  2  0  0  0
  2  3  1  0  0  0
  3  4  2  0  0  0
  4  5  1  0  0  0
  5  6  2  0  0  0
  4  7  1  0  0  0
  7  8  2  0  0  0
  7  9  1  0  0  0
  9 10  2  0  0  0
 10 11  1  0  0  0
 11 12  1  0  0  0
 12 13  2  0  0  0
 13 14  1  0  0  0
 14 37  1  0  0  0
 37 38  3  0  0  0
 14 15  2  0  0  0
 15 16  1  0  0  0
 16 17  2  0  0  0
 10 18  1  0  0  0
 18 19  1  0  0  0
 18 20  1  0  0  0
 25 26  1  0  0  0
 26 27  1  0  0  0
 27 22  1  0  0  0
 33 28  1  0  0  0
  6  1  1  0  0  0
 17  9  1  0  0  0
 18  3  1  0  0  0
 17 12  1  0  0  0
 11 21  1  0  0  0
M  END
> <minimizedAffinity>
-7.14246

> <CNNscore>
0.2540951669

> <CNNaffinity>
6.0114412308

> <CNN_VS>
1.5274782181

> <CNNaffinity_variance>
0.0504111573

$$$$
[H]c1nc(N2C([H])([H])C([H])([H])C(N3C([H])([H])C([H])([H])OC([H])([H])C3([H])[H])(C([H])(C([H])([H])[H])C([H])([H])[H])C([H])([H])C2([H])[H])c([H])c2c1C(=O)c1c(n([H])c3c([H])c(C#N)c([H])c([H])c13)C2(C([H])([H])[H])C([H])([H])[H]


 38 43  0  0  0  0  0  0  0  0999 V2000
   -4.8327   22.8525  -17.5942 C   0  0  0  0  0  0  0  0  0  0  0  0
   -3.5969   22.5584  -18.1081 C   0  0  0  0  0  0  0  0  0  0  0  0
   -3.3465   22.6028  -19.4866 C   0  0  0  0  0  0  0  0  0  0  0  0
   -4.3873   22.9528  -20.3072 C   0  0  0  0  0  0  0  0  0  0  0  0
   -5.6264   23.2452  -19.7632 C   0  0  0  0  0  0  0  0  0  0  0  0
   -5.8232   23.1905  -18.4371 N   0  0  0  0  0  0  0  0  0  0  0  0
   -4.1819   23.0149  -21.7447 C   0  0  0  0  0  0  0  0  0  0  0  0
   -5.1385   23.3375  -22.5117 O   0  0  0  0  0  0  0  0  0  0  0  0
   -2.8722   22.7037  -22.2842 C   0  0  0  0  0  0  0  0  0  0  0  0
   -1.8614   22.3584  -21.4213 C   0  0  0  0  0  0  0  0  0  0  0  0
   -0.7364   22.1126  -22.1502 N   0  0  0  0  0  0  0  0  0  0  0  0
   -1.0042   22.2929  -23.4642 C   0  0  0  0  0  0  0  0  0  0  0  0
   -0.2242   22.1739  -24.6008 C   0  0  0  0  0  0  0  0  0  0  0  0
   -0.7772   22.4248  -25.8312 C   0  0  0  0  0  0  0  0  0  0  0  0
   -2.1058   22.7909  -25.8916 C   0  0  0  0  0  0  0  0  0  0  0  0
   -2.8842   22.9100  -24.7623 C   0  0  0  0  0  0  0  0  0  0  0  0
   -2.3324   22.6600  -23.5407 C   0  0  0  0  0  0  0  0  0  0  0  0
   -2.0039   22.2784  -19.9668 C   0  0  0  0  0  0  0  0  0  0  0  0
   -0.9647   23.2344  -19.3648 C   0  0  0  0  0  0  0  0  0  0  0  0
   -1.5506   20.8808  -19.5481 C   0  0  0  0  0  0  0  0  0  0  0  0
    0.1963   21.8307  -21.7979 H   0  0  0  0  0  0  0  0  0  0  0  0
   -5.8358   22.3954  -13.3189 C   0  0  0  0  0  0  0  0  0  0  0  0
   -6.7939   22.7014  -14.4902 C   0  0  0  0  0  0  0  0  0  0  0  0
   -6.1756   23.5419  -15.5603 C   0  0  0  0  0  0  0  0  0  0  0  0
   -5.0909   22.8096  -16.1846 N   0  0  0  0  0  0  0  0  0  0  0  0
   -4.2755   22.0221  -15.2680 C   0  0  0  0  0  0  0  0  0  0  0  0
   -4.4682   22.6641  -13.9101 C   0  0  0  0  0  0  0  0  0  0  0  0
   -6.0604   21.0561  -12.9947 N   0  0  0  0  0  0  0  0  0  0  0  0
   -7.0441   20.2628  -13.5248 C   0  0  0  0  0  0  0  0  0  0  0  0
   -7.7812   19.4565  -12.4831 C   0  0  0  0  0  0  0  0  0  0  0  0
   -6.9693   18.9269  -11.5161 O   0  0  0  0  0  0  0  0  0  0  0  0
   -6.1553   19.8931  -10.9171 C   0  0  0  0  0  0  0  0  0  0  0  0
   -5.2627   20.4336  -12.0152 C   0  0  0  0  0  0  0  0  0  0  0  0
   -5.1567   24.5198  -12.1214 C   0  0  0  0  0  0  0  0  0  0  0  0
   -6.0982   23.3146  -12.1732 C   0  0  0  0  0  0  0  0  0  0  0  0
   -7.4632   23.8911  -12.0379 C   0  0  0  0  0  0  0  0  0  0  0  0
    0.0158   22.3092  -27.0507 C   0  0  0  0  0  0  0  0  0  0  0  0
    0.6331   22.2290  -28.0247 N   0  0  0  0  0  0  0  0  0  0  0  0
 34 35  1  0  0  0
 35 36  1  0  0  0
 35 22  1  0  0  0
 22 28  1  0  0  0
 28 29  1  0  0  0
 29 30  1  0  0  0
 30 31  1  0  0  0
 31 32  1  0  0  0
 32 33  1  0  0  0
 22 23  1  0  0  0
 23 24  1  0  0  0
 24 25  1  0  0  0
 25  1  1  0  0  0
  1  2  2  0  0  0
  2  3  1  0  0  0
  3  4  2  0  0  0
  4  5  1  0  0  0
  5  6  2  0  0  0
  4  7  1  0  0  0
  7  8  2  0  0  0
  7  9  1  0  0  0
  9 10  2  0  0  0
 10 11  1  0  0  0
 11 12  1  0  0  0
 12 13  2  0  0  0
 13 14  1  0  0  0
 14 37  1  0  0  0
 37 38  3  0  0  0
 14 15  2  0  0  0
 15 16  1  0  0  0
 16 17  2  0  0  0
 10 18  1  0  0  0
 18 19  1  0  0  0
 18 20  1  0  0  0
 25 26  1  0  0  0
 26 27  1  0  0  0
 27 22  1  0  0  0
 33 28  1  0  0  0
  6  1  1  0  0  0
 17  9  1  0  0  0
 18  3  1  0  0  0
 17 12  1  0  0  0
 11 21  1  0  0  0
M  END
> <minimizedAffinity>
-6.87578

> <CNNscore>
0.2216620892

> <CNNaffinity>
5.9802989960

> <CNN_VS>
1.3256055117

> <CNNaffinity_variance>
0.0950487107

$$$$
[H]c1nc(N2C([H])([H])C([H])([H])C(N3C([H])([H])C([H])([H])OC([H])([H])C3([H])[H])(C([H])(C([H])([H])[H])C([H])([H])[H])C([H])([H])C2([H])[H])c([H])c2c1C(=O)c1c(n([H])c3c([H])c(C#N)c([H])c([H])c13)C2(C([H])([H])[H])C([H])([H])[H]


 38 43  0  0  0  0  0  0  0  0999 V2000
   -4.6630   22.1380  -17.6465 C   0  0  0  0  0  0  0  0  0  0  0  0
   -3.4021   22.0890  -18.1809 C   0  0  0  0  0  0  0  0  0  0  0  0
   -3.1891   22.1560  -19.5647 C   0  0  0  0  0  0  0  0  0  0  0  0
   -4.2927   22.2730  -20.3693 C   0  0  0  0  0  0  0  0  0  0  0  0
   -5.5560   22.3203  -19.8048 C   0  0  0  0  0  0  0  0  0  0  0  0
   -5.7154   22.2529  -18.4743 N   0  0  0  0  0  0  0  0  0  0  0  0
   -4.1284   22.3472  -21.8115 C   0  0  0  0  0  0  0  0  0  0  0  0
   -5.1432   22.4554  -22.5638 O   0  0  0  0  0  0  0  0  0  0  0  0
   -2.7920   22.2958  -22.3727 C   0  0  0  0  0  0  0  0  0  0  0  0
   -1.7180   22.1783  -21.5252 C   0  0  0  0  0  0  0  0  0  0  0  0
   -0.5789   22.1501  -22.2731 N   0  0  0  0  0  0  0  0  0  0  0  0
   -0.8997   22.2470  -23.5839 C   0  0  0  0  0  0  0  0  0  0  0  0
   -0.1311   22.2655  -24.7343 C   0  0  0  0  0  0  0  0  0  0  0  0
   -0.7440   22.3757  -25.9569 C   0  0  0  0  0  0  0  0  0  0  0  0
   -2.1199   22.4653  -25.9959 C   0  0  0  0  0  0  0  0  0  0  0  0
   -2.8872   22.4471  -24.8530 C   0  0  0  0  0  0  0  0  0  0  0  0
   -2.2758   22.3373  -23.6391 C   0  0  0  0  0  0  0  0  0  0  0  0
   -1.8169   22.0996  -20.0671 C   0  0  0  0  0  0  0  0  0  0  0  0
   -0.9821   23.2570  -19.5015 C   0  0  0  0  0  0  0  0  0  0  0  0
   -1.0839   20.8304  -19.6358 C   0  0  0  0  0  0  0  0  0  0  0  0
    0.3972   22.0689  -21.9355 H   0  0  0  0  0  0  0  0  0  0  0  0
   -4.9534   21.9423  -13.2453 C   0  0  0  0  0  0  0  0  0  0  0  0
   -4.3665   20.8848  -14.2048 C   0  0  0  0  0  0  0  0  0  0  0  0
   -5.0704   20.8209  -15.5218 C   0  0  0  0  0  0  0  0  0  0  0  0
   -4.8835   22.0714  -16.2314 N   0  0  0  0  0  0  0  0  0  0  0  0
   -4.9380   23.2647  -15.3956 C   0  0  0  0  0  0  0  0  0  0  0  0
   -5.7280   22.8575  -14.1696 C   0  0  0  0  0  0  0  0  0  0  0  0
   -3.8506   22.5485  -12.6404 N   0  0  0  0  0  0  0  0  0  0  0  0
   -2.5634   22.0798  -12.6798 C   0  0  0  0  0  0  0  0  0  0  0  0
   -1.8811   22.1070  -11.3336 C   0  0  0  0  0  0  0  0  0  0  0  0
   -2.1399   23.2365  -10.6043 O   0  0  0  0  0  0  0  0  0  0  0  0
   -3.5099   23.4846  -10.4757 C   0  0  0  0  0  0  0  0  0  0  0  0
   -4.0303   23.7194  -11.8789 C   0  0  0  0  0  0  0  0  0  0  0  0
   -7.3488   21.3927  -12.6390 C   0  0  0  0  0  0  0  0  0  0  0  0
   -5.8699   21.3024  -12.2569 C   0  0  0  0  0  0  0  0  0  0  0  0
   -5.6488   19.8691  -11.9247 C   0  0  0  0  0  0  0  0  0  0  0  0
    0.0355   22.3986  -27.1904 C   0  0  0  0  0  0  0  0  0  0  0  0
    0.6397   22.4252  -28.1754 N   0  0  0  0  0  0  0  0  0  0  0  0
 34 35  1  0  0  0
 35 36  1  0  0  0
 35 22  1  0  0  0
 22 28  1  0  0  0
 28 29  1  0  0  0
 29 30  1  0  0  0
 30 31  1  0  0  0
 31 32  1  0  0  0
 32 33  1  0  0  0
 22 23  1  0  0  0
 23 24  1  0  0  0
 24 25  1  0  0  0
 25  1  1  0  0  0
  1  2  2  0  0  0
  2  3  1  0  0  0
  3  4  2  0  0  0
  4  5  1  0  0  0
  5  6  2  0  0  0
  4  7  1  0  0  0
  7  8  2  0  0  0
  7  9  1  0  0  0
  9 10  2  0  0  0
 10 11  1  0  0  0
 11 12  1  0  0  0
 12 13  2  0  0  0
 13 14  1  0  0  0
 14 37  1  0  0  0
 37 38  3  0  0  0
 14 15  2  0  0  0
 15 16  1  0  0  0
 16 17  2  0  0  0
 10 18  1  0  0  0
 18 19  1  0  0  0
 18 20  1  0  0  0
 25 26  1  0  0  0
 26 27  1  0  0  0
 27 22  1  0  0  0
 33 28  1  0  0  0
  6  1  1  0  0  0
 17  9  1  0  0  0
 18  3  1  0  0  0
 17 12  1  0  0  0
 11 21  1  0  0  0
M  END
> <minimizedAffinity>
-7.00177

> <CNNscore>
0.2132208496

> <CNNaffinity>
6.0341887474

> <CNN_VS>
1.2866148949

> <CNNaffinity_variance>
0.0447524302

$$$$
[H]OC(=O)c1c([H])c([H])nc([H])c1N([H])C([H])([H])C1([H])c2c([H])c([H])c(Sc3sc([H])c([H])c3[H])c([H])c2OC([H])([H])C1([H])[H]


 29 32  0  0  0  0  0  0  0  0999 V2000
   -5.3156   23.1996  -29.2392 C   0  0  0  0  0  0  0  0  0  0  0  0
   -5.6239   24.1700  -30.3685 C   0  0  0  0  0  0  0  0  0  0  0  0
   -4.8607   25.4437  -30.1747 C   0  0  0  0  0  0  0  0  0  0  0  0
   -5.0320   25.9503  -28.8854 O   0  0  0  0  0  0  0  0  0  0  0  0
   -5.5937   25.2084  -27.8463 C   0  0  0  0  0  0  0  0  0  0  0  0
   -5.9972   25.8472  -26.6668 C   0  0  0  0  0  0  0  0  0  0  0  0
   -6.5563   25.1372  -25.6216 C   0  0  0  0  0  0  0  0  0  0  0  0
   -6.7015   23.7750  -25.7849 C   0  0  0  0  0  0  0  0  0  0  0  0
   -6.3005   23.1305  -26.9606 C   0  0  0  0  0  0  0  0  0  0  0  0
   -5.7520   23.8587  -27.9743 C   0  0  0  0  0  0  0  0  0  0  0  0
   -3.8309   22.9579  -29.2438 C   0  0  0  0  0  0  0  0  0  0  0  0
   -3.1491   23.5565  -28.0989 N   0  0  0  0  0  0  0  0  0  0  0  0
   -3.5586   24.4079  -27.6749 H   0  0  0  0  0  0  0  0  0  0  0  0
   -1.8292   22.5234  -26.2960 C   0  0  0  0  0  0  0  0  0  0  0  0
   -0.5494   22.0921  -25.8788 C   0  0  0  0  0  0  0  0  0  0  0  0
    0.5435   22.1673  -26.6901 C   0  0  0  0  0  0  0  0  0  0  0  0
    0.4047   22.6635  -27.9170 N   0  0  0  0  0  0  0  0  0  0  0  0
   -0.7828   23.0873  -28.3634 C   0  0  0  0  0  0  0  0  0  0  0  0
   -1.9369   23.0315  -27.5688 C   0  0  0  0  0  0  0  0  0  0  0  0
   -3.5334   21.3443  -25.1139 O   0  0  0  0  0  0  0  0  0  0  0  0
   -2.9422   22.3807  -25.4004 C   0  0  0  0  0  0  0  0  0  0  0  0
   -3.4332   23.5411  -24.7649 O   0  0  0  0  0  0  0  0  0  0  0  0
   -4.3388   23.9233  -24.9800 H   0  0  0  0  0  0  0  0  0  0  0  0
   -7.0405   26.0189  -24.1641 S   0  0  0  0  0  0  0  0  0  0  0  0
   -7.0498   24.9336  -22.7212 C   0  0  0  0  0  0  0  0  0  0  0  0
   -8.1328   24.2941  -22.1714 C   0  0  0  0  0  0  0  0  0  0  0  0
   -7.9024   23.5287  -21.0876 C   0  0  0  0  0  0  0  0  0  0  0  0
   -6.6109   23.4576  -20.6327 C   0  0  0  0  0  0  0  0  0  0  0  0
   -5.7636   24.4522  -21.7212 S   0  0  0  0  0  0  0  0  0  0  0  0
 20 21  2  0  0  0
 21 22  1  0  0  0
 21 14  1  0  0  0
 14 15  2  0  0  0
 15 16  1  0  0  0
 16 17  2  0  0  0
 17 18  1  0  0  0
 18 19  2  0  0  0
 19 12  1  0  0  0
 12 11  1  0  0  0
 11  1  1  0  0  0
  1  2  1  0  0  0
  2  3  1  0  0  0
  3  4  1  0  0  0
  4  5  1  0  0  0
  5  6  2  0  0  0
  6  7  1  0  0  0
  7 24  1  0  0  0
 24 25  1  0  0  0
 25 26  2  0  0  0
 26 27  1  0  0  0
 27 28  2  0  0  0
 28 29  1  0  0  0
  7  8  2  0  0  0
  8  9  1  0  0  0
  9 10  2  0  0  0
 19 14  1  0  0  0
 10  1  1  0  0  0
 10  5  1  0  0  0
 29 25  1  0  0  0
 22 23  1  0  0  0
 12 13  1  0  0  0
M  END
> <minimizedAffinity>
-8.23374

> <CNNscore>
0.3370934129

> <CNNaffinity>
6.4930067062

> <CNN_VS>
2.1887497902

> <CNNaffinity_variance>
0.1364001334

$$$$
[H]OC(=O)c1c([H])c([H])nc([H])c1N([H])C([H])([H])C1([H])c2c([H])c([H])c(Sc3sc([H])c([H])c3[H])c([H])c2OC([H])([H])C1([H])[H]


 29 32  0  0  0  0  0  0  0  0999 V2000
   -3.9959   23.1603  -21.3172 C   0  0  0  0  0  0  0  0  0  0  0  0
   -5.2469   22.8205  -20.5226 C   0  0  0  0  0  0  0  0  0  0  0  0
   -6.1509   21.9464  -21.3358 C   0  0  0  0  0  0  0  0  0  0  0  0
   -6.3740   22.4834  -22.6047 O   0  0  0  0  0  0  0  0  0  0  0  0
   -5.6172   23.5307  -23.1302 C   0  0  0  0  0  0  0  0  0  0  0  0
   -6.0580   24.2100  -24.2731 C   0  0  0  0  0  0  0  0  0  0  0  0
   -5.3285   25.2507  -24.8150 C   0  0  0  0  0  0  0  0  0  0  0  0
   -4.1495   25.5948  -24.1866 C   0  0  0  0  0  0  0  0  0  0  0  0
   -3.7034   24.9204  -23.0445 C   0  0  0  0  0  0  0  0  0  0  0  0
   -4.4457   23.8973  -22.5336 C   0  0  0  0  0  0  0  0  0  0  0  0
   -3.3261   21.8637  -21.6820 C   0  0  0  0  0  0  0  0  0  0  0  0
   -3.0944   21.7222  -23.1174 N   0  0  0  0  0  0  0  0  0  0  0  0
   -3.9057   21.5147  -23.7265 H   0  0  0  0  0  0  0  0  0  0  0  0
   -1.5894   22.2006  -25.0057 C   0  0  0  0  0  0  0  0  0  0  0  0
   -0.2538   22.2068  -25.4685 C   0  0  0  0  0  0  0  0  0  0  0  0
    0.7949   21.8645  -24.6676 C   0  0  0  0  0  0  0  0  0  0  0  0
    0.5569   21.5117  -23.4067 N   0  0  0  0  0  0  0  0  0  0  0  0
   -0.6874   21.4874  -22.9165 C   0  0  0  0  0  0  0  0  0  0  0  0
   -1.7996   21.8304  -23.6987 C   0  0  0  0  0  0  0  0  0  0  0  0
   -2.5880   23.4882  -26.7484 O   0  0  0  0  0  0  0  0  0  0  0  0
   -2.6402   22.6078  -25.8953 C   0  0  0  0  0  0  0  0  0  0  0  0
   -3.8809   21.9417  -25.8025 O   0  0  0  0  0  0  0  0  0  0  0  0
   -4.7096   22.4038  -25.4673 H   0  0  0  0  0  0  0  0  0  0  0  0
   -5.9542   26.0585  -26.2614 S   0  0  0  0  0  0  0  0  0  0  0  0
   -5.6391   25.0750  -27.7425 C   0  0  0  0  0  0  0  0  0  0  0  0
   -5.8986   23.7390  -27.9216 C   0  0  0  0  0  0  0  0  0  0  0  0
   -5.5784   23.2116  -29.1186 C   0  0  0  0  0  0  0  0  0  0  0  0
   -5.0239   24.0542  -30.0473 C   0  0  0  0  0  0  0  0  0  0  0  0
   -4.9661   25.5444  -29.2299 S   0  0  0  0  0  0  0  0  0  0  0  0
 20 21  2  0  0  0
 21 22  1  0  0  0
 21 14  1  0  0  0
 14 15  2  0  0  0
 15 16  1  0  0  0
 16 17  2  0  0  0
 17 18  1  0  0  0
 18 19  2  0  0  0
 19 12  1  0  0  0
 12 11  1  0  0  0
 11  1  1  0  0  0
  1  2  1  0  0  0
  2  3  1  0  0  0
  3  4  1  0  0  0
  4  5  1  0  0  0
  5  6  2  0  0  0
  6  7  1  0  0  0
  7 24  1  0  0  0
 24 25  1  0  0  0
 25 26  2  0  0  0
 26 27  1  0  0  0
 27 28  2  0  0  0
 28 29  1  0  0  0
  7  8  2  0  0  0
  8  9  1  0  0  0
  9 10  2  0  0  0
 19 14  1  0  0  0
 10  1  1  0  0  0
 10  5  1  0  0  0
 29 25  1  0  0  0
 22 23  1  0  0  0
 12 13  1  0  0  0
M  END
> <minimizedAffinity>
-7.43959

> <CNNscore>
0.2275190502

> <CNNaffinity>
6.2321205139

> <CNN_VS>
1.4179261923

> <CNNaffinity_variance>
0.0920919776

$$$$
[H]OC(=O)c1c([H])c([H])nc([H])c1N([H])C([H])([H])C1([H])c2c([H])c([H])c(Sc3sc([H])c([H])c3[H])c([H])c2OC([H])([H])C1([H])[H]


 29 32  0  0  0  0  0  0  0  0999 V2000
   -0.3601   21.9269  -22.2677 C   0  0  0  0  0  0  0  0  0  0  0  0
   -1.5065   22.5496  -21.4867 C   0  0  0  0  0  0  0  0  0  0  0  0
   -2.7945   21.8689  -21.8335 C   0  0  0  0  0  0  0  0  0  0  0  0
   -2.9787   21.7987  -23.2153 O   0  0  0  0  0  0  0  0  0  0  0  0
   -1.9601   22.0606  -24.1317 C   0  0  0  0  0  0  0  0  0  0  0  0
   -2.2663   22.2507  -25.4853 C   0  0  0  0  0  0  0  0  0  0  0  0
   -1.2776   22.5113  -26.4145 C   0  0  0  0  0  0  0  0  0  0  0  0
    0.0225   22.5770  -25.9574 C   0  0  0  0  0  0  0  0  0  0  0  0
    0.3352   22.3880  -24.6066 C   0  0  0  0  0  0  0  0  0  0  0  0
   -0.6628   22.1323  -23.7137 C   0  0  0  0  0  0  0  0  0  0  0  0
   -0.3199   20.4635  -21.9216 C   0  0  0  0  0  0  0  0  0  0  0  0
    0.7427   20.1268  -20.9774 N   0  0  0  0  0  0  0  0  0  0  0  0
    0.6574   20.4652  -20.0026 H   0  0  0  0  0  0  0  0  0  0  0  0
    2.0882   18.0656  -21.0047 C   0  0  0  0  0  0  0  0  0  0  0  0
    3.3073   17.4658  -21.3949 C   0  0  0  0  0  0  0  0  0  0  0  0
    4.2623   18.1459  -22.0905 C   0  0  0  0  0  0  0  0  0  0  0  0
    4.0431   19.4178  -22.4146 N   0  0  0  0  0  0  0  0  0  0  0  0
    2.9077   20.0354  -22.0701 C   0  0  0  0  0  0  0  0  0  0  0  0
    1.8947   19.3807  -21.3548 C   0  0  0  0  0  0  0  0  0  0  0  0
   -0.0746   17.1496  -20.5860 O   0  0  0  0  0  0  0  0  0  0  0  0
    1.1130   17.2776  -20.3051 C   0  0  0  0  0  0  0  0  0  0  0  0
    1.5359   16.5604  -19.1656 O   0  0  0  0  0  0  0  0  0  0  0  0
    1.2255   16.8014  -18.2393 H   0  0  0  0  0  0  0  0  0  0  0  0
   -1.7470   22.7398  -28.1068 S   0  0  0  0  0  0  0  0  0  0  0  0
   -3.4468   23.3349  -28.2349 C   0  0  0  0  0  0  0  0  0  0  0  0
   -4.4335   22.8553  -29.0599 C   0  0  0  0  0  0  0  0  0  0  0  0
   -5.6356   23.4577  -28.9855 C   0  0  0  0  0  0  0  0  0  0  0  0
   -5.7649   24.4924  -28.0952 C   0  0  0  0  0  0  0  0  0  0  0  0
   -4.2187   24.5934  -27.3944 S   0  0  0  0  0  0  0  0  0  0  0  0
 20 21  2  0  0  0
 21 22  1  0  0  0
 21 14  1  0  0  0
 14 15  2  0  0  0
 15 16  1  0  0  0
 16 17  2  0  0  0
 17 18  1  0  0  0
 18 19  2  0  0  0
 19 12  1  0  0  0
 12 11  1  0  0  0
 11  1  1  0  0  0
  1  2  1  0  0  0
  2  3  1  0  0  0
  3  4  1  0  0  0
  4  5  1  0  0  0
  5  6  2  0  0  0
  6  7  1  0  0  0
  7 24  1  0  0  0
 24 25  1  0  0  0
 25 26  2  0  0  0
 26 27  1  0  0  0
 27 28  2  0  0  0
 28 29  1  0  0  0
  7  8  2  0  0  0
  8  9  1  0  0  0
  9 10  2  0  0  0
 19 14  1  0  0  0
 10  1  1  0  0  0
 10  5  1  0  0  0
 29 25  1  0  0  0
 22 23  1  0  0  0
 12 13  1  0  0  0
M  END
> <minimizedAffinity>
-6.83306

> <CNNscore>
0.1936262399

> <CNNaffinity>
5.7729368210

> <CNN_VS>
1.1177920103

> <CNNaffinity_variance>
0.0887629017

$$$$
[H]OC(=O)c1c([H])c([H])nc([H])c1N([H])C([H])([H])C1([H])c2c([H])c([H])c(Sc3sc([H])c([H])c3[H])c([H])c2OC([H])([H])C1([H])[H]


 29 32  0  0  0  0  0  0  0  0999 V2000
   -2.6887   21.7750  -22.7508 C   0  0  0  0  0  0  0  0  0  0  0  0
   -1.4310   20.9823  -22.4319 C   0  0  0  0  0  0  0  0  0  0  0  0
   -0.2156   21.8047  -22.7298 C   0  0  0  0  0  0  0  0  0  0  0  0
   -0.2708   22.3509  -24.0131 O   0  0  0  0  0  0  0  0  0  0  0  0
   -1.4340   22.3658  -24.7828 C   0  0  0  0  0  0  0  0  0  0  0  0
   -1.3667   22.6641  -26.1498 C   0  0  0  0  0  0  0  0  0  0  0  0
   -2.5027   22.6861  -26.9359 C   0  0  0  0  0  0  0  0  0  0  0  0
   -3.7055   22.4030  -26.3223 C   0  0  0  0  0  0  0  0  0  0  0  0
   -3.7797   22.1042  -24.9572 C   0  0  0  0  0  0  0  0  0  0  0  0
   -2.6408   22.0904  -24.2078 C   0  0  0  0  0  0  0  0  0  0  0  0
   -2.6553   23.0289  -21.9203 C   0  0  0  0  0  0  0  0  0  0  0  0
   -3.9553   23.3733  -21.3497 N   0  0  0  0  0  0  0  0  0  0  0  0
   -4.1119   23.1914  -20.3424 H   0  0  0  0  0  0  0  0  0  0  0  0
   -6.2699   23.3629  -22.1876 C   0  0  0  0  0  0  0  0  0  0  0  0
   -7.2072   23.9739  -23.0514 C   0  0  0  0  0  0  0  0  0  0  0  0
   -6.8981   25.0691  -23.8020 C   0  0  0  0  0  0  0  0  0  0  0  0
   -5.6732   25.5829  -23.7217 N   0  0  0  0  0  0  0  0  0  0  0  0
   -4.7465   25.0445  -22.9214 C   0  0  0  0  0  0  0  0  0  0  0  0
   -5.0139   23.9185  -22.1294 C   0  0  0  0  0  0  0  0  0  0  0  0
   -6.3546   21.9841  -20.2424 O   0  0  0  0  0  0  0  0  0  0  0  0
   -6.6766   22.2336  -21.3999 C   0  0  0  0  0  0  0  0  0  0  0  0
   -7.5408   21.2893  -21.9940 O   0  0  0  0  0  0  0  0  0  0  0  0
   -7.2389   20.3546  -22.2124 H   0  0  0  0  0  0  0  0  0  0  0  0
   -2.3331   23.0722  -28.6559 S   0  0  0  0  0  0  0  0  0  0  0  0
   -3.6986   24.1060  -29.2275 C   0  0  0  0  0  0  0  0  0  0  0  0
   -3.6395   25.4252  -29.6023 C   0  0  0  0  0  0  0  0  0  0  0  0
   -4.7925   25.9982  -29.9970 C   0  0  0  0  0  0  0  0  0  0  0  0
   -5.9176   25.2146  -29.9889 C   0  0  0  0  0  0  0  0  0  0  0  0
   -5.3385   23.7145  -29.4354 S   0  0  0  0  0  0  0  0  0  0  0  0
 20 21  2  0  0  0
 21 22  1  0  0  0
 21 14  1  0  0  0
 14 15  2  0  0  0
 15 16  1  0  0  0
 16 17  2  0  0  0
 17 18  1  0  0  0
 18 19  2  0  0  0
 19 12  1  0  0  0
 12 11  1  0  0  0
 11  1  1  0  0  0
  1  2  1  0  0  0
  2  3  1  0  0  0
  3  4  1  0  0  0
  4  5  1  0  0  0
  5  6  2  0  0  0
  6  7  1  0  0  0
  7 24  1  0  0  0
 24 25  1  0  0  0
 25 26  2  0  0  0
 26 27  1  0  0  0
 27 28  2  0  0  0
 28 29  1  0  0  0
  7  8  2  0  0  0
  8  9  1  0  0  0
  9 10  2  0  0  0
 19 14  1  0  0  0
 10  1  1  0  0  0
 10  5  1  0  0  0
 29 25  1  0  0  0
 22 23  1  0  0  0
 12 13  1  0  0  0
M  END
> <minimizedAffinity>
-7.45716

> <CNNscore>
0.1444316357

> <CNNaffinity>
6.0306057930

> <CNN_VS>
0.8710102439

> <CNNaffinity_variance>
0.2196078002

$$$$
[H]OC(=O)c1c([H])c([H])nc([H])c1N([H])C([H])([H])C1([H])c2c([H])c([H])c(Sc3sc([H])c([H])c3[H])c([H])c2OC([H])([H])C1([H])[H]


 29 32  0  0  0  0  0  0  0  0999 V2000
   -4.5236   23.1200  -21.2299 C   0  0  0  0  0  0  0  0  0  0  0  0
   -5.8358   23.1034  -20.4618 C   0  0  0  0  0  0  0  0  0  0  0  0
   -6.9110   22.4765  -21.2944 C   0  0  0  0  0  0  0  0  0  0  0  0
   -6.9685   23.0465  -22.5672 O   0  0  0  0  0  0  0  0  0  0  0  0
   -5.9656   23.8720  -23.0759 C   0  0  0  0  0  0  0  0  0  0  0  0
   -6.2013   24.6342  -24.2272 C   0  0  0  0  0  0  0  0  0  0  0  0
   -5.2262   25.4599  -24.7528 C   0  0  0  0  0  0  0  0  0  0  0  0
   -4.0118   25.5045  -24.0996 C   0  0  0  0  0  0  0  0  0  0  0  0
   -3.7698   24.7457  -22.9491 C   0  0  0  0  0  0  0  0  0  0  0  0
   -4.7522   23.9400  -22.4546 C   0  0  0  0  0  0  0  0  0  0  0  0
   -4.1879   21.6965  -21.5817 C   0  0  0  0  0  0  0  0  0  0  0  0
   -2.7647   21.3941  -21.4512 N   0  0  0  0  0  0  0  0  0  0  0  0
   -2.4076   21.1088  -20.5221 H   0  0  0  0  0  0  0  0  0  0  0  0
   -0.4926   21.5890  -22.3781 C   0  0  0  0  0  0  0  0  0  0  0  0
    0.2877   21.7578  -23.5446 C   0  0  0  0  0  0  0  0  0  0  0  0
   -0.2687   21.8348  -24.7867 C   0  0  0  0  0  0  0  0  0  0  0  0
   -1.5910   21.7489  -24.9091 N   0  0  0  0  0  0  0  0  0  0  0  0
   -2.3775   21.5897  -23.8389 C   0  0  0  0  0  0  0  0  0  0  0  0
   -1.8550   21.5049  -22.5403 C   0  0  0  0  0  0  0  0  0  0  0  0
    1.1820   20.8433  -20.8512 O   0  0  0  0  0  0  0  0  0  0  0  0
    0.1646   21.4800  -21.1063 C   0  0  0  0  0  0  0  0  0  0  0  0
   -0.3972   22.1686  -20.0100 O   0  0  0  0  0  0  0  0  0  0  0  0
   -0.8185   21.6835  -19.2357 H   0  0  0  0  0  0  0  0  0  0  0  0
   -5.6031   26.3911  -26.2112 S   0  0  0  0  0  0  0  0  0  0  0  0
   -5.4064   25.3818  -27.6954 C   0  0  0  0  0  0  0  0  0  0  0  0
   -4.9317   25.7879  -28.9177 C   0  0  0  0  0  0  0  0  0  0  0  0
   -4.8720   24.8560  -29.8879 C   0  0  0  0  0  0  0  0  0  0  0  0
   -5.2895   23.5898  -29.5683 C   0  0  0  0  0  0  0  0  0  0  0  0
   -5.7491   23.7356  -27.9375 S   0  0  0  0  0  0  0  0  0  0  0  0
 20 21  2  0  0  0
 21 22  1  0  0  0
 21 14  1  0  0  0
 14 15  2  0  0  0
 15 16  1  0  0  0
 16 17  2  0  0  0
 17 18  1  0  0  0
 18 19  2  0  0  0
 19 12  1  0  0  0
 12 11  1  0  0  0
 11  1  1  0  0  0
  1  2  1  0  0  0
  2  3  1  0  0  0
  3  4  1  0  0  0
  4  5  1  0  0  0
  5  6  2  0  0  0
  6  7  1  0  0  0
  7 24  1  0  0  0
 24 25  1  0  0  0
 25 26  2  0  0  0
 26 27  1  0  0  0
 27 28  2  0  0  0
 28 29  1  0  0  0
  7  8  2  0  0  0
  8  9  1  0  0  0
  9 10  2  0  0  0
 19 14  1  0  0  0
 10  1  1  0  0  0
 10  5  1  0  0  0
 29 25  1  0  0  0
 22 23  1  0  0  0
 12 13  1  0  0  0
M  END
> <minimizedAffinity>
-6.84118

> <CNNscore>
0.1375031769

> <CNNaffinity>
6.1711483002

> <CNN_VS>
0.8485525250

> <CNNaffinity_variance>
0.2297027558

$$$$
[H]OC(=O)c1c([H])c([H])nc([H])c1N([H])C([H])([H])C1([H])c2c([H])c([H])c(Sc3sc([H])c([H])c3[H])c([H])c2OC([H])([H])C1([H])[H]


 29 32  0  0  0  0  0  0  0  0999 V2000
   -5.3560   22.4435  -22.0908 C   0  0  0  0  0  0  0  0  0  0  0  0
   -4.1488   21.5397  -22.2849 C   0  0  0  0  0  0  0  0  0  0  0  0
   -2.9004   22.3616  -22.3759 C   0  0  0  0  0  0  0  0  0  0  0  0
   -3.0343   23.3916  -23.3083 O   0  0  0  0  0  0  0  0  0  0  0  0
   -4.2624   23.7708  -23.8501 C   0  0  0  0  0  0  0  0  0  0  0  0
   -4.3055   24.6050  -24.9746 C   0  0  0  0  0  0  0  0  0  0  0  0
   -5.5077   24.9963  -25.5317 C   0  0  0  0  0  0  0  0  0  0  0  0
   -6.6637   24.5337  -24.9377 C   0  0  0  0  0  0  0  0  0  0  0  0
   -6.6278   23.7001  -23.8142 C   0  0  0  0  0  0  0  0  0  0  0  0
   -5.4257   23.3313  -23.2874 C   0  0  0  0  0  0  0  0  0  0  0  0
   -5.1277   23.2389  -20.8345 C   0  0  0  0  0  0  0  0  0  0  0  0
   -5.6272   22.5715  -19.6349 N   0  0  0  0  0  0  0  0  0  0  0  0
   -6.6062   22.2341  -19.6336 H   0  0  0  0  0  0  0  0  0  0  0  0
   -4.8667   23.2558  -17.3959 C   0  0  0  0  0  0  0  0  0  0  0  0
   -3.9767   22.9952  -16.3291 C   0  0  0  0  0  0  0  0  0  0  0  0
   -3.1132   21.9405  -16.3438 C   0  0  0  0  0  0  0  0  0  0  0  0
   -3.1047   21.1267  -17.3967 N   0  0  0  0  0  0  0  0  0  0  0  0
   -3.9246   21.3268  -18.4343 C   0  0  0  0  0  0  0  0  0  0  0  0
   -4.8311   22.3963  -18.4681 C   0  0  0  0  0  0  0  0  0  0  0  0
   -5.9339   25.2654  -18.1132 O   0  0  0  0  0  0  0  0  0  0  0  0
   -5.7736   24.3644  -17.2958 C   0  0  0  0  0  0  0  0  0  0  0  0
   -6.5822   24.4557  -16.1428 O   0  0  0  0  0  0  0  0  0  0  0  0
   -6.4556   25.1838  -15.4600 H   0  0  0  0  0  0  0  0  0  0  0  0
   -5.4767   26.0523  -26.9531 S   0  0  0  0  0  0  0  0  0  0  0  0
   -5.5291   25.0890  -28.4794 C   0  0  0  0  0  0  0  0  0  0  0  0
   -5.4506   23.7241  -28.6017 C   0  0  0  0  0  0  0  0  0  0  0  0
   -5.5115   23.2201  -29.8490 C   0  0  0  0  0  0  0  0  0  0  0  0
   -5.6460   24.1131  -30.8807 C   0  0  0  0  0  0  0  0  0  0  0  0
   -5.6831   25.6165  -30.0868 S   0  0  0  0  0  0  0  0  0  0  0  0
 20 21  2  0  0  0
 21 22  1  0  0  0
 21 14  1  0  0  0
 14 15  2  0  0  0
 15 16  1  0  0  0
 16 17  2  0  0  0
 17 18  1  0  0  0
 18 19  2  0  0  0
 19 12  1  0  0  0
 12 11  1  0  0  0
 11  1  1  0  0  0
  1  2  1  0  0  0
  2  3  1  0  0  0
  3  4  1  0  0  0
  4  5  1  0  0  0
  5  6  2  0  0  0
  6  7  1  0  0  0
  7 24  1  0  0  0
 24 25  1  0  0  0
 25 26  2  0  0  0
 26 27  1  0  0  0
 27 28  2  0  0  0
 28 29  1  0  0  0
  7  8  2  0  0  0
  8  9  1  0  0  0
  9 10  2  0  0  0
 19 14  1  0  0  0
 10  1  1  0  0  0
 10  5  1  0  0  0
 29 25  1  0  0  0
 22 23  1  0  0  0
 12 13  1  0  0  0
M  END
> <minimizedAffinity>
-6.91597

> <CNNscore>
0.1305458993

> <CNNaffinity>
5.8127751350

> <CNN_VS>
0.7588339448

> <CNNaffinity_variance>
0.2922964096

$$$$
[H]OC(=O)c1c([H])c([H])nc([H])c1N([H])C([H])([H])C1([H])c2c([H])c([H])c(Sc3sc([H])c([H])c3[H])c([H])c2OC([H])([H])C1([H])[H]


 29 32  0  0  0  0  0  0  0  0999 V2000
   -6.4093   24.2159  -24.6446 C   0  0  0  0  0  0  0  0  0  0  0  0
   -7.8430   24.7075  -24.5235 C   0  0  0  0  0  0  0  0  0  0  0  0
   -7.9819   25.5984  -23.3279 C   0  0  0  0  0  0  0  0  0  0  0  0
   -7.4541   25.0010  -22.1822 O   0  0  0  0  0  0  0  0  0  0  0  0
   -6.6476   23.8635  -22.2215 C   0  0  0  0  0  0  0  0  0  0  0  0
   -6.3828   23.1504  -21.0452 C   0  0  0  0  0  0  0  0  0  0  0  0
   -5.5875   22.0207  -21.0550 C   0  0  0  0  0  0  0  0  0  0  0  0
   -5.0644   21.6225  -22.2679 C   0  0  0  0  0  0  0  0  0  0  0  0
   -5.3249   22.3302  -23.4466 C   0  0  0  0  0  0  0  0  0  0  0  0
   -6.1137   23.4415  -23.4046 C   0  0  0  0  0  0  0  0  0  0  0  0
   -5.5241   25.4271  -24.7549 C   0  0  0  0  0  0  0  0  0  0  0  0
   -5.0783   25.6888  -26.1212 N   0  0  0  0  0  0  0  0  0  0  0  0
   -5.3745   26.5725  -26.5724 H   0  0  0  0  0  0  0  0  0  0  0  0
   -4.4257   24.5583  -28.2082 C   0  0  0  0  0  0  0  0  0  0  0  0
   -3.6096   23.5670  -28.7994 C   0  0  0  0  0  0  0  0  0  0  0  0
   -2.7114   22.8390  -28.0772 C   0  0  0  0  0  0  0  0  0  0  0  0
   -2.5965   23.0662  -26.7711 N   0  0  0  0  0  0  0  0  0  0  0  0
   -3.3442   23.9915  -26.1598 C   0  0  0  0  0  0  0  0  0  0  0  0
   -4.2820   24.7666  -26.8571 C   0  0  0  0  0  0  0  0  0  0  0  0
   -6.3860   25.8257  -28.7011 O   0  0  0  0  0  0  0  0  0  0  0  0
   -5.3240   25.3112  -29.0374 C   0  0  0  0  0  0  0  0  0  0  0  0
   -4.9753   25.4968  -30.3922 O   0  0  0  0  0  0  0  0  0  0  0  0
   -5.4937   25.0660  -31.1393 H   0  0  0  0  0  0  0  0  0  0  0  0
   -5.3009   21.1755  -19.5254 S   0  0  0  0  0  0  0  0  0  0  0  0
   -5.3065   22.3278  -18.1353 C   0  0  0  0  0  0  0  0  0  0  0  0
   -4.2239   22.9651  -17.5820 C   0  0  0  0  0  0  0  0  0  0  0  0
   -4.4666   23.7869  -16.5432 C   0  0  0  0  0  0  0  0  0  0  0  0
   -5.7690   23.9122  -16.1332 C   0  0  0  0  0  0  0  0  0  0  0  0
   -6.6091   22.8886  -17.2002 S   0  0  0  0  0  0  0  0  0  0  0  0
 20 21  2  0  0  0
 21 22  1  0  0  0
 21 14  1  0  0  0
 14 15  2  0  0  0
 15 16  1  0  0  0
 16 17  2  0  0  0
 17 18  1  0  0  0
 18 19  2  0  0  0
 19 12  1  0  0  0
 12 11  1  0  0  0
 11  1  1  0  0  0
  1  2  1  0  0  0
  2  3  1  0  0  0
  3  4  1  0  0  0
  4  5  1  0  0  0
  5  6  2  0  0  0
  6  7  1  0  0  0
  7 24  1  0  0  0
 24 25  1  0  0  0
 25 26  2  0  0  0
 26 27  1  0  0  0
 27 28  2  0  0  0
 28 29  1  0  0  0
  7  8  2  0  0  0
  8  9  1  0  0  0
  9 10  2  0  0  0
 19 14  1  0  0  0
 10  1  1  0  0  0
 10  5  1  0  0  0
 29 25  1  0  0  0
 22 23  1  0  0  0
 12 13  1  0  0  0
M  END
> <minimizedAffinity>
-6.70952

> <CNNscore>
0.1294531375

> <CNNaffinity>
6.0813026428

> <CNN_VS>
0.7872437239

> <CNNaffinity_variance>
0.2517332733

$$$$
[H]OC(=O)c1c([H])c([H])nc([H])c1N([H])C([H])([H])C1([H])c2c([H])c([H])c(Sc3sc([H])c([H])c3[H])c([H])c2OC([H])([H])C1([H])[H]


 29 32  0  0  0  0  0  0  0  0999 V2000
   -5.7371   22.5295  -22.6715 C   0  0  0  0  0  0  0  0  0  0  0  0
   -4.6891   21.8399  -21.8125 C   0  0  0  0  0  0  0  0  0  0  0  0
   -3.4810   22.7140  -21.6746 C   0  0  0  0  0  0  0  0  0  0  0  0
   -3.0344   23.1672  -22.9169 O   0  0  0  0  0  0  0  0  0  0  0  0
   -3.7923   23.0575  -24.0828 C   0  0  0  0  0  0  0  0  0  0  0  0
   -3.1927   23.2657  -25.3314 C   0  0  0  0  0  0  0  0  0  0  0  0
   -3.9193   23.1637  -26.5021 C   0  0  0  0  0  0  0  0  0  0  0  0
   -5.2581   22.8488  -26.3934 C   0  0  0  0  0  0  0  0  0  0  0  0
   -5.8634   22.6395  -25.1492 C   0  0  0  0  0  0  0  0  0  0  0  0
   -5.1196   22.7474  -24.0117 C   0  0  0  0  0  0  0  0  0  0  0  0
   -6.0762   23.8366  -22.0085 C   0  0  0  0  0  0  0  0  0  0  0  0
   -7.2096   23.7375  -21.0923 N   0  0  0  0  0  0  0  0  0  0  0  0
   -8.1627   23.8653  -21.4764 H   0  0  0  0  0  0  0  0  0  0  0  0
   -7.3553   22.3049  -19.0958 C   0  0  0  0  0  0  0  0  0  0  0  0
   -7.2054   22.2305  -17.6922 C   0  0  0  0  0  0  0  0  0  0  0  0
   -6.7753   23.2898  -16.9497 C   0  0  0  0  0  0  0  0  0  0  0  0
   -6.4863   24.4345  -17.5637 N   0  0  0  0  0  0  0  0  0  0  0  0
   -6.6109   24.5611  -18.8894 C   0  0  0  0  0  0  0  0  0  0  0  0
   -7.0490   23.5022  -19.6977 C   0  0  0  0  0  0  0  0  0  0  0  0
   -7.4619   19.9739  -19.5929 O   0  0  0  0  0  0  0  0  0  0  0  0
   -7.7785   21.1380  -19.8173 C   0  0  0  0  0  0  0  0  0  0  0  0
   -8.6543   21.3167  -20.9094 O   0  0  0  0  0  0  0  0  0  0  0  0
   -8.3646   21.1460  -21.8577 H   0  0  0  0  0  0  0  0  0  0  0  0
   -3.0873   23.4417  -28.0405 S   0  0  0  0  0  0  0  0  0  0  0  0
   -3.9987   24.6119  -29.0700 C   0  0  0  0  0  0  0  0  0  0  0  0
   -3.5137   25.3364  -30.1302 C   0  0  0  0  0  0  0  0  0  0  0  0
   -4.3813   26.1541  -30.7566 C   0  0  0  0  0  0  0  0  0  0  0  0
   -5.6665   26.1889  -30.2801 C   0  0  0  0  0  0  0  0  0  0  0  0
   -5.6267   25.0892  -28.9835 S   0  0  0  0  0  0  0  0  0  0  0  0
 20 21  2  0  0  0
 21 22  1  0  0  0
 21 14  1  0  0  0
 14 15  2  0  0  0
 15 16  1  0  0  0
 16 17  2  0  0  0
 17 18  1  0  0  0
 18 19  2  0  0  0
 19 12  1  0  0  0
 12 11  1  0  0  0
 11  1  1  0  0  0
  1  2  1  0  0  0
  2  3  1  0  0  0
  3  4  1  0  0  0
  4  5  1  0  0  0
  5  6  2  0  0  0
  6  7  1  0  0  0
  7 24  1  0  0  0
 24 25  1  0  0  0
 25 26  2  0  0  0
 26 27  1  0  0  0
 27 28  2  0  0  0
 28 29  1  0  0  0
  7  8  2  0  0  0
  8  9  1  0  0  0
  9 10  2  0  0  0
 19 14  1  0  0  0
 10  1  1  0  0  0
 10  5  1  0  0  0
 29 25  1  0  0  0
 22 23  1  0  0  0
 12 13  1  0  0  0
M  END
> <minimizedAffinity>
-6.98368

> <CNNscore>
0.1237176284

> <CNNaffinity>
5.6679487228

> <CNN_VS>
0.7012251616

> <CNNaffinity_variance>
0.0797341391

$$$$
[H]OC(=O)c1c([H])c([H])nc([H])c1N([H])C([H])([H])C1([H])c2c([H])c([H])c(Sc3sc([H])c([H])c3[H])c([H])c2OC([H])([H])C1([H])[H]


 29 32  0  0  0  0  0  0  0  0999 V2000
   -4.3334   22.0958  -22.2144 C   0  0  0  0  0  0  0  0  0  0  0  0
   -2.9881   21.4897  -22.5817 C   0  0  0  0  0  0  0  0  0  0  0  0
   -1.9584   22.5684  -22.7183 C   0  0  0  0  0  0  0  0  0  0  0  0
   -2.4019   23.5945  -23.5540 O   0  0  0  0  0  0  0  0  0  0  0  0
   -3.7312   23.7259  -23.9558 C   0  0  0  0  0  0  0  0  0  0  0  0
   -4.0645   24.5918  -25.0052 C   0  0  0  0  0  0  0  0  0  0  0  0
   -5.3727   24.7415  -25.4237 C   0  0  0  0  0  0  0  0  0  0  0  0
   -6.3376   24.0050  -24.7680 C   0  0  0  0  0  0  0  0  0  0  0  0
   -6.0116   23.1382  -23.7190 C   0  0  0  0  0  0  0  0  0  0  0  0
   -4.7113   23.0122  -23.3289 C   0  0  0  0  0  0  0  0  0  0  0  0
   -4.1524   22.8504  -20.9257 C   0  0  0  0  0  0  0  0  0  0  0  0
   -5.1558   22.5142  -19.9187 N   0  0  0  0  0  0  0  0  0  0  0  0
   -4.8295   22.1885  -18.9916 H   0  0  0  0  0  0  0  0  0  0  0  0
   -7.2751   23.7567  -20.0749 C   0  0  0  0  0  0  0  0  0  0  0  0
   -8.6686   23.6753  -20.2974 C   0  0  0  0  0  0  0  0  0  0  0  0
   -9.2891   22.5000  -20.6009 C   0  0  0  0  0  0  0  0  0  0  0  0
   -8.5615   21.3895  -20.6911 N   0  0  0  0  0  0  0  0  0  0  0  0
   -7.2393   21.4085  -20.4894 C   0  0  0  0  0  0  0  0  0  0  0  0
   -6.5538   22.5908  -20.1750 C   0  0  0  0  0  0  0  0  0  0  0  0
   -6.1537   25.3916  -18.7477 O   0  0  0  0  0  0  0  0  0  0  0  0
   -6.6846   25.0350  -19.7949 C   0  0  0  0  0  0  0  0  0  0  0  0
   -6.7013   26.0094  -20.8156 O   0  0  0  0  0  0  0  0  0  0  0  0
   -7.2566   26.8455  -20.7446 H   0  0  0  0  0  0  0  0  0  0  0  0
   -5.7113   25.8562  -26.7574 S   0  0  0  0  0  0  0  0  0  0  0  0
   -5.6405   25.0061  -28.3487 C   0  0  0  0  0  0  0  0  0  0  0  0
   -5.5244   23.6551  -28.5628 C   0  0  0  0  0  0  0  0  0  0  0  0
   -5.4907   23.2424  -29.8442 C   0  0  0  0  0  0  0  0  0  0  0  0
   -5.5751   24.2059  -30.8161 C   0  0  0  0  0  0  0  0  0  0  0  0
   -5.6979   25.6466  -29.9210 S   0  0  0  0  0  0  0  0  0  0  0  0
 20 21  2  0  0  0
 21 22  1  0  0  0
 21 14  1  0  0  0
 14 15  2  0  0  0
 15 16  1  0  0  0
 16 17  2  0  0  0
 17 18  1  0  0  0
 18 19  2  0  0  0
 19 12  1  0  0  0
 12 11  1  0  0  0
 11  1  1  0  0  0
  1  2  1  0  0  0
  2  3  1  0  0  0
  3  4  1  0  0  0
  4  5  1  0  0  0
  5  6  2  0  0  0
  6  7  1  0  0  0
  7 24  1  0  0  0
 24 25  1  0  0  0
 25 26  2  0  0  0
 26 27  1  0  0  0
 27 28  2  0  0  0
 28 29  1  0  0  0
  7  8  2  0  0  0
  8  9  1  0  0  0
  9 10  2  0  0  0
 19 14  1  0  0  0
 10  1  1  0  0  0
 10  5  1  0  0  0
 29 25  1  0  0  0
 22 23  1  0  0  0
 12 13  1  0  0  0
M  END
> <minimizedAffinity>
-7.37395

> <CNNscore>
0.1220110282

> <CNNaffinity>
5.9175405502

> <CNN_VS>
0.7220051885

> <CNNaffinity_variance>
0.1293313503

$$$$
[H]N=c1c(C(=O)N([H])C([H])([H])c2oc([H])c([H])c2[H])c([H])c2c(=O)n3c([H])c([H])c([H])c([H])c3nc2n1C([H])([H])c1c([H])c([H])c(C([H])([H])[H])c([H])c1[H]


 35 39  0  0  0  0  0  0  0  0999 V2000
   -2.3466   21.4475  -22.8926 N   0  0  0  0  0  0  0  0  0  0  0  0
   -1.2651   21.1227  -22.1342 C   0  0  0  0  0  0  0  0  0  0  0  0
   -1.4934   20.8399  -20.9360 N   0  0  0  0  0  0  0  0  0  0  0  0
    0.0274   21.1509  -22.5897 C   0  0  0  0  0  0  0  0  0  0  0  0
    0.2160   21.5468  -23.9181 C   0  0  0  0  0  0  0  0  0  0  0  0
   -0.8376   21.8802  -24.7038 C   0  0  0  0  0  0  0  0  0  0  0  0
   -0.6283   22.2809  -25.9994 C   0  0  0  0  0  0  0  0  0  0  0  0
    0.5249   22.3337  -26.4921 O   0  0  0  0  0  0  0  0  0  0  0  0
   -1.6689   22.6283  -26.7735 N   0  0  0  0  0  0  0  0  0  0  0  0
   -1.4789   23.0241  -28.0484 C   0  0  0  0  0  0  0  0  0  0  0  0
   -2.5002   23.3861  -28.8730 C   0  0  0  0  0  0  0  0  0  0  0  0
   -3.8036   23.3494  -28.3875 C   0  0  0  0  0  0  0  0  0  0  0  0
   -3.9615   22.9414  -27.0843 C   0  0  0  0  0  0  0  0  0  0  0  0
   -2.9155   22.5785  -26.2641 C   0  0  0  0  0  0  0  0  0  0  0  0
   -3.0994   22.1834  -24.9957 N   0  0  0  0  0  0  0  0  0  0  0  0
   -2.1082   21.8195  -24.1598 C   0  0  0  0  0  0  0  0  0  0  0  0
   -0.9289   20.5755  -20.1665 H   0  0  0  0  0  0  0  0  0  0  0  0
    1.2134   20.7292  -21.8906 C   0  0  0  0  0  0  0  0  0  0  0  0
    1.0509   19.6918  -21.1284 O   0  0  0  0  0  0  0  0  0  0  0  0
    2.4937   21.3088  -21.9371 N   0  0  0  0  0  0  0  0  0  0  0  0
    2.6581   22.1554  -22.4981 H   0  0  0  0  0  0  0  0  0  0  0  0
    3.6138   20.7657  -21.1773 C   0  0  0  0  0  0  0  0  0  0  0  0
    3.9952   21.6332  -20.0542 C   0  0  0  0  0  0  0  0  0  0  0  0
    3.1646   22.2057  -19.1295 C   0  0  0  0  0  0  0  0  0  0  0  0
    3.9618   22.9493  -18.2469 C   0  0  0  0  0  0  0  0  0  0  0  0
    5.2424   22.7721  -18.7066 C   0  0  0  0  0  0  0  0  0  0  0  0
    5.2160   22.0043  -19.7536 O   0  0  0  0  0  0  0  0  0  0  0  0
   -3.6753   21.4360  -22.3526 C   0  0  0  0  0  0  0  0  0  0  0  0
   -7.2120   25.9251  -23.3597 C   0  0  0  0  0  0  0  0  0  0  0  0
   -6.2554   24.8184  -23.0784 C   0  0  0  0  0  0  0  0  0  0  0  0
   -5.0771   24.9841  -22.4294 C   0  0  0  0  0  0  0  0  0  0  0  0
   -4.2186   23.8939  -22.1931 C   0  0  0  0  0  0  0  0  0  0  0  0
   -4.5154   22.6214  -22.5971 C   0  0  0  0  0  0  0  0  0  0  0  0
   -5.7405   22.4859  -23.2639 C   0  0  0  0  0  0  0  0  0  0  0  0
   -6.5912   23.5580  -23.5001 C   0  0  0  0  0  0  0  0  0  0  0  0
 29 30  1  0  0  0
 30 31  2  0  0  0
 31 32  1  0  0  0
 32 33  2  0  0  0
 33 28  1  0  0  0
 28  1  1  0  0  0
  1  2  1  0  0  0
  2  3  2  0  0  0
  2  4  1  0  0  0
  4 18  1  0  0  0
 18 19  2  0  0  0
 18 20  1  0  0  0
 20 22  1  0  0  0
 22 23  1  0  0  0
 23 24  2  0  0  0
 24 25  1  0  0  0
 25 26  2  0  0  0
 26 27  1  0  0  0
  4  5  2  0  0  0
  5  6  1  0  0  0
  6  7  1  0  0  0
  7  8  2  0  0  0
  7  9  1  0  0  0
  9 10  1  0  0  0
 10 11  2  0  0  0
 11 12  1  0  0  0
 12 13  2  0  0  0
 13 14  1  0  0  0
 14 15  2  0  0  0
 15 16  1  0  0  0
 33 34  1  0  0  0
 34 35  2  0  0  0
 35 30  1  0  0  0
 16  1  1  0  0  0
 27 23  1  0  0  0
 16  6  2  0  0  0
 14  9  1  0  0  0
  3 17  1  0  0  0
 20 21  1  0  0  0
M  END
> <minimizedAffinity>
-8.81475

> <CNNscore>
0.4320354462

> <CNNaffinity>
6.7802453041

> <CNN_VS>
2.9293062687

> <CNNaffinity_variance>
0.7330765128

$$$$
[H]N=c1c(C(=O)N([H])C([H])([H])c2oc([H])c([H])c2[H])c([H])c2c(=O)n3c([H])c([H])c([H])c([H])c3nc2n1C([H])([H])c1c([H])c([H])c(C([H])([H])[H])c([H])c1[H]


 35 39  0  0  0  0  0  0  0  0999 V2000
   -2.6752   21.5771  -23.4237 N   0  0  0  0  0  0  0  0  0  0  0  0
   -1.4483   21.3797  -22.8704 C   0  0  0  0  0  0  0  0  0  0  0  0
   -1.4332   21.0032  -21.6763 N   0  0  0  0  0  0  0  0  0  0  0  0
   -0.2660   21.6263  -23.5185 C   0  0  0  0  0  0  0  0  0  0  0  0
   -0.3573   22.1152  -24.8260 C   0  0  0  0  0  0  0  0  0  0  0  0
   -1.5627   22.3268  -25.4100 C   0  0  0  0  0  0  0  0  0  0  0  0
   -1.6290   22.8219  -26.6881 C   0  0  0  0  0  0  0  0  0  0  0  0
   -0.5923   23.0737  -27.3491 O   0  0  0  0  0  0  0  0  0  0  0  0
   -2.8218   23.0485  -27.2615 N   0  0  0  0  0  0  0  0  0  0  0  0
   -2.9029   23.5349  -28.5165 C   0  0  0  0  0  0  0  0  0  0  0  0
   -4.0872   23.7814  -29.1416 C   0  0  0  0  0  0  0  0  0  0  0  0
   -5.2739   23.5232  -28.4628 C   0  0  0  0  0  0  0  0  0  0  0  0
   -5.1551   23.0283  -27.1859 C   0  0  0  0  0  0  0  0  0  0  0  0
   -3.9474   22.7847  -26.5690 C   0  0  0  0  0  0  0  0  0  0  0  0
   -3.8614   22.3004  -25.3213 N   0  0  0  0  0  0  0  0  0  0  0  0
   -2.7044   22.0468  -24.6806 C   0  0  0  0  0  0  0  0  0  0  0  0
   -0.7176   20.7869  -21.0268 H   0  0  0  0  0  0  0  0  0  0  0  0
    1.0667   21.3522  -23.0473 C   0  0  0  0  0  0  0  0  0  0  0  0
    1.9632   21.2678  -23.9817 O   0  0  0  0  0  0  0  0  0  0  0  0
    1.4902   21.1635  -21.7199 N   0  0  0  0  0  0  0  0  0  0  0  0
    0.8066   21.1834  -20.9512 H   0  0  0  0  0  0  0  0  0  0  0  0
    2.8851   20.9000  -21.3858 C   0  0  0  0  0  0  0  0  0  0  0  0
    3.0852   20.7189  -19.9413 C   0  0  0  0  0  0  0  0  0  0  0  0
    4.2501   20.8733  -19.2399 C   0  0  0  0  0  0  0  0  0  0  0  0
    3.9728   20.5989  -17.8926 C   0  0  0  0  0  0  0  0  0  0  0  0
    2.6356   20.2921  -17.8715 C   0  0  0  0  0  0  0  0  0  0  0  0
    2.1615   20.3735  -19.0777 O   0  0  0  0  0  0  0  0  0  0  0  0
   -3.8812   21.3371  -22.6854 C   0  0  0  0  0  0  0  0  0  0  0  0
   -7.2969   25.9758  -21.9856 C   0  0  0  0  0  0  0  0  0  0  0  0
   -6.4769   24.7484  -22.1854 C   0  0  0  0  0  0  0  0  0  0  0  0
   -6.9438   23.6119  -22.7579 C   0  0  0  0  0  0  0  0  0  0  0  0
   -6.1141   22.4864  -22.9196 C   0  0  0  0  0  0  0  0  0  0  0  0
   -4.8075   22.4701  -22.5158 C   0  0  0  0  0  0  0  0  0  0  0  0
   -4.3576   23.6607  -21.9292 C   0  0  0  0  0  0  0  0  0  0  0  0
   -5.1718   24.7740  -21.7667 C   0  0  0  0  0  0  0  0  0  0  0  0
 29 30  1  0  0  0
 30 31  2  0  0  0
 31 32  1  0  0  0
 32 33  2  0  0  0
 33 28  1  0  0  0
 28  1  1  0  0  0
  1  2  1  0  0  0
  2  3  2  0  0  0
  2  4  1  0  0  0
  4 18  1  0  0  0
 18 19  2  0  0  0
 18 20  1  0  0  0
 20 22  1  0  0  0
 22 23  1  0  0  0
 23 24  2  0  0  0
 24 25  1  0  0  0
 25 26  2  0  0  0
 26 27  1  0  0  0
  4  5  2  0  0  0
  5  6  1  0  0  0
  6  7  1  0  0  0
  7  8  2  0  0  0
  7  9  1  0  0  0
  9 10  1  0  0  0
 10 11  2  0  0  0
 11 12  1  0  0  0
 12 13  2  0  0  0
 13 14  1  0  0  0
 14 15  2  0  0  0
 15 16  1  0  0  0
 33 34  1  0  0  0
 34 35  2  0  0  0
 35 30  1  0  0  0
 16  1  1  0  0  0
 27 23  1  0  0  0
 16  6  2  0  0  0
 14  9  1  0  0  0
  3 17  1  0  0  0
 20 21  1  0  0  0
M  END
> <minimizedAffinity>
-8.41325

> <CNNscore>
0.3897225261

> <CNNaffinity>
6.6474409103

> <CNN_VS>
2.5906574726

> <CNNaffinity_variance>
0.5903030634

$$$$
[H]N=c1c(C(=O)N([H])C([H])([H])c2oc([H])c([H])c2[H])c([H])c2c(=O)n3c([H])c([H])c([H])c([H])c3nc2n1C([H])([H])c1c([H])c([H])c(C([H])([H])[H])c([H])c1[H]


 35 39  0  0  0  0  0  0  0  0999 V2000
   -3.2643   21.7159  -23.6684 N   0  0  0  0  0  0  0  0  0  0  0  0
   -2.0662   21.4981  -23.0621 C   0  0  0  0  0  0  0  0  0  0  0  0
   -2.1094   21.1281  -21.8666 N   0  0  0  0  0  0  0  0  0  0  0  0
   -0.8527   21.7184  -23.6602 C   0  0  0  0  0  0  0  0  0  0  0  0
   -0.8786   22.2016  -24.9727 C   0  0  0  0  0  0  0  0  0  0  0  0
   -2.0536   22.4330  -25.6087 C   0  0  0  0  0  0  0  0  0  0  0  0
   -2.0557   22.9221  -26.8908 C   0  0  0  0  0  0  0  0  0  0  0  0
   -0.9870   23.1503  -27.5081 O   0  0  0  0  0  0  0  0  0  0  0  0
   -3.2183   23.1683  -27.5158 N   0  0  0  0  0  0  0  0  0  0  0  0
   -3.2362   23.6491  -28.7755 C   0  0  0  0  0  0  0  0  0  0  0  0
   -4.3877   23.9148  -29.4519 C   0  0  0  0  0  0  0  0  0  0  0  0
   -5.6072   23.6832  -28.8233 C   0  0  0  0  0  0  0  0  0  0  0  0
   -5.5527   23.1932  -27.5401 C   0  0  0  0  0  0  0  0  0  0  0  0
   -4.3773   22.9300  -26.8710 C   0  0  0  0  0  0  0  0  0  0  0  0
   -4.3541   22.4511  -25.6184 N   0  0  0  0  0  0  0  0  0  0  0  0
   -3.2307   22.1790  -24.9275 C   0  0  0  0  0  0  0  0  0  0  0  0
   -1.4266   20.9017  -21.1861 H   0  0  0  0  0  0  0  0  0  0  0  0
    0.4531   21.4214  -23.1311 C   0  0  0  0  0  0  0  0  0  0  0  0
    1.4170   21.5004  -23.9961 O   0  0  0  0  0  0  0  0  0  0  0  0
    0.7877   21.0572  -21.8149 N   0  0  0  0  0  0  0  0  0  0  0  0
    0.0505   20.9449  -21.1060 H   0  0  0  0  0  0  0  0  0  0  0  0
    2.1650   20.7925  -21.4147 C   0  0  0  0  0  0  0  0  0  0  0  0
    2.3576   19.4042  -20.9732 C   0  0  0  0  0  0  0  0  0  0  0  0
    2.1939   18.9059  -19.7092 C   0  0  0  0  0  0  0  0  0  0  0  0
    2.4855   17.5346  -19.7535 C   0  0  0  0  0  0  0  0  0  0  0  0
    2.8111   17.2936  -21.0645 C   0  0  0  0  0  0  0  0  0  0  0  0
    2.7243   18.4023  -21.7349 O   0  0  0  0  0  0  0  0  0  0  0  0
   -4.5051   21.5031  -22.9812 C   0  0  0  0  0  0  0  0  0  0  0  0
   -7.7308   26.0496  -21.3691 C   0  0  0  0  0  0  0  0  0  0  0  0
   -6.8454   24.9182  -21.7627 C   0  0  0  0  0  0  0  0  0  0  0  0
   -5.5196   24.8639  -21.4860 C   0  0  0  0  0  0  0  0  0  0  0  0
   -4.7391   23.7626  -21.8849 C   0  0  0  0  0  0  0  0  0  0  0  0
   -5.2613   22.6970  -22.5649 C   0  0  0  0  0  0  0  0  0  0  0  0
   -6.6339   22.7855  -22.8336 C   0  0  0  0  0  0  0  0  0  0  0  0
   -7.4088   23.8698  -22.4429 C   0  0  0  0  0  0  0  0  0  0  0  0
 29 30  1  0  0  0
 30 31  2  0  0  0
 31 32  1  0  0  0
 32 33  2  0  0  0
 33 28  1  0  0  0
 28  1  1  0  0  0
  1  2  1  0  0  0
  2  3  2  0  0  0
  2  4  1  0  0  0
  4 18  1  0  0  0
 18 19  2  0  0  0
 18 20  1  0  0  0
 20 22  1  0  0  0
 22 23  1  0  0  0
 23 24  2  0  0  0
 24 25  1  0  0  0
 25 26  2  0  0  0
 26 27  1  0  0  0
  4  5  2  0  0  0
  5  6  1  0  0  0
  6  7  1  0  0  0
  7  8  2  0  0  0
  7  9  1  0  0  0
  9 10  1  0  0  0
 10 11  2  0  0  0
 11 12  1  0  0  0
 12 13  2  0  0  0
 13 14  1  0  0  0
 14 15  2  0  0  0
 15 16  1  0  0  0
 33 34  1  0  0  0
 34 35  2  0  0  0
 35 30  1  0  0  0
 16  1  1  0  0  0
 27 23  1  0  0  0
 16  6  2  0  0  0
 14  9  1  0  0  0
  3 17  1  0  0  0
 20 21  1  0  0  0
M  END
> <minimizedAffinity>
-8.80148

> <CNNscore>
0.3795108795

> <CNNaffinity>
6.6918411255

> <CNN_VS>
2.5396265984

> <CNNaffinity_variance>
0.6943789124

$$$$
[H]N=c1c(C(=O)N([H])C([H])([H])c2oc([H])c([H])c2[H])c([H])c2c(=O)n3c([H])c([H])c([H])c([H])c3nc2n1C([H])([H])c1c([H])c([H])c(C([H])([H])[H])c([H])c1[H]


 35 39  0  0  0  0  0  0  0  0999 V2000
   -3.3000   21.7213  -23.6784 N   0  0  0  0  0  0  0  0  0  0  0  0
   -2.0994   21.4944  -23.0806 C   0  0  0  0  0  0  0  0  0  0  0  0
   -2.1370   21.1227  -21.8854 N   0  0  0  0  0  0  0  0  0  0  0  0
   -0.8885   21.7074  -23.6865 C   0  0  0  0  0  0  0  0  0  0  0  0
   -0.9200   22.1930  -24.9981 C   0  0  0  0  0  0  0  0  0  0  0  0
   -2.0977   22.4333  -25.6258 C   0  0  0  0  0  0  0  0  0  0  0  0
   -2.1051   22.9246  -26.9070 C   0  0  0  0  0  0  0  0  0  0  0  0
   -1.0390   23.1465  -27.5312 O   0  0  0  0  0  0  0  0  0  0  0  0
   -3.2701   23.1798  -27.5238 N   0  0  0  0  0  0  0  0  0  0  0  0
   -3.2933   23.6627  -28.7826 C   0  0  0  0  0  0  0  0  0  0  0  0
   -4.4475   23.9373  -29.4507 C   0  0  0  0  0  0  0  0  0  0  0  0
   -5.6643   23.7130  -28.8143 C   0  0  0  0  0  0  0  0  0  0  0  0
   -5.6044   23.2206  -27.5323 C   0  0  0  0  0  0  0  0  0  0  0  0
   -4.4264   22.9483  -26.8715 C   0  0  0  0  0  0  0  0  0  0  0  0
   -4.3980   22.4672  -25.6198 N   0  0  0  0  0  0  0  0  0  0  0  0
   -3.2718   22.1863  -24.9370 C   0  0  0  0  0  0  0  0  0  0  0  0
   -1.4512   20.8906  -21.2099 H   0  0  0  0  0  0  0  0  0  0  0  0
    0.4187   21.4007  -23.1667 C   0  0  0  0  0  0  0  0  0  0  0  0
    1.3860   21.5415  -24.0202 O   0  0  0  0  0  0  0  0  0  0  0  0
    0.7519   20.9691  -21.8706 N   0  0  0  0  0  0  0  0  0  0  0  0
    0.0127   20.8070  -21.1736 H   0  0  0  0  0  0  0  0  0  0  0  0
    2.1308   20.7028  -21.4774 C   0  0  0  0  0  0  0  0  0  0  0  0
    2.5197   21.4524  -20.2748 C   0  0  0  0  0  0  0  0  0  0  0  0
    1.7373   21.7443  -19.1907 C   0  0  0  0  0  0  0  0  0  0  0  0
    2.5221   22.4749  -18.2864 C   0  0  0  0  0  0  0  0  0  0  0  0
    3.7469   22.5763  -18.8967 C   0  0  0  0  0  0  0  0  0  0  0  0
    3.7014   21.9712  -20.0447 O   0  0  0  0  0  0  0  0  0  0  0  0
   -4.5377   21.5159  -22.9832 C   0  0  0  0  0  0  0  0  0  0  0  0
   -7.7411   26.0801  -21.3768 C   0  0  0  0  0  0  0  0  0  0  0  0
   -6.8612   24.9442  -21.7698 C   0  0  0  0  0  0  0  0  0  0  0  0
   -5.5331   24.8897  -21.5046 C   0  0  0  0  0  0  0  0  0  0  0  0
   -4.7580   23.7840  -21.9020 C   0  0  0  0  0  0  0  0  0  0  0  0
   -5.2881   22.7143  -22.5692 C   0  0  0  0  0  0  0  0  0  0  0  0
   -6.6629   22.8031  -22.8262 C   0  0  0  0  0  0  0  0  0  0  0  0
   -7.4324   23.8916  -22.4368 C   0  0  0  0  0  0  0  0  0  0  0  0
 29 30  1  0  0  0
 30 31  2  0  0  0
 31 32  1  0  0  0
 32 33  2  0  0  0
 33 28  1  0  0  0
 28  1  1  0  0  0
  1  2  1  0  0  0
  2  3  2  0  0  0
  2  4  1  0  0  0
  4 18  1  0  0  0
 18 19  2  0  0  0
 18 20  1  0  0  0
 20 22  1  0  0  0
 22 23  1  0  0  0
 23 24  2  0  0  0
 24 25  1  0  0  0
 25 26  2  0  0  0
 26 27  1  0  0  0
  4  5  2  0  0  0
  5  6  1  0  0  0
  6  7  1  0  0  0
  7  8  2  0  0  0
  7  9  1  0  0  0
  9 10  1  0  0  0
 10 11  2  0  0  0
 11 12  1  0  0  0
 12 13  2  0  0  0
 13 14  1  0  0  0
 14 15  2  0  0  0
 15 16  1  0  0  0
 33 34  1  0  0  0
 34 35  2  0  0  0
 35 30  1  0  0  0
 16  1  1  0  0  0
 27 23  1  0  0  0
 16  6  2  0  0  0
 14  9  1  0  0  0
  3 17  1  0  0  0
 20 21  1  0  0  0
M  END
> <minimizedAffinity>
-9.14619

> <CNNscore>
0.3583320081

> <CNNaffinity>
6.6622619629

> <CNN_VS>
2.3873016834

> <CNNaffinity_variance>
0.5297690630

$$$$
[H]N=c1c(C(=O)N([H])C([H])([H])c2oc([H])c([H])c2[H])c([H])c2c(=O)n3c([H])c([H])c([H])c([H])c3nc2n1C([H])([H])c1c([H])c([H])c(C([H])([H])[H])c([H])c1[H]


 35 39  0  0  0  0  0  0  0  0999 V2000
   -1.5570   21.2828  -21.3533 N   0  0  0  0  0  0  0  0  0  0  0  0
   -2.6529   21.4464  -20.5642 C   0  0  0  0  0  0  0  0  0  0  0  0
   -2.5770   20.9762  -19.4061 N   0  0  0  0  0  0  0  0  0  0  0  0
   -3.8210   22.0272  -20.9848 C   0  0  0  0  0  0  0  0  0  0  0  0
   -3.8616   22.4643  -22.3130 C   0  0  0  0  0  0  0  0  0  0  0  0
   -2.7897   22.3161  -23.1302 C   0  0  0  0  0  0  0  0  0  0  0  0
   -2.8569   22.7379  -24.4343 C   0  0  0  0  0  0  0  0  0  0  0  0
   -3.8905   23.2795  -24.8966 O   0  0  0  0  0  0  0  0  0  0  0  0
   -1.8026   22.5759  -25.2497 N   0  0  0  0  0  0  0  0  0  0  0  0
   -1.8537   22.9852  -26.5335 C   0  0  0  0  0  0  0  0  0  0  0  0
   -0.8125   22.8438  -27.3994 C   0  0  0  0  0  0  0  0  0  0  0  0
    0.3628   22.2508  -26.9489 C   0  0  0  0  0  0  0  0  0  0  0  0
    0.3810   21.8454  -25.6355 C   0  0  0  0  0  0  0  0  0  0  0  0
   -0.6830   21.9968  -24.7732 C   0  0  0  0  0  0  0  0  0  0  0  0
   -0.6367   21.5921  -23.4953 N   0  0  0  0  0  0  0  0  0  0  0  0
   -1.6506   21.7207  -22.6184 C   0  0  0  0  0  0  0  0  0  0  0  0
   -3.1921   20.9403  -18.6309 H   0  0  0  0  0  0  0  0  0  0  0  0
   -4.9854   22.3291  -20.1935 C   0  0  0  0  0  0  0  0  0  0  0  0
   -6.1107   21.9671  -20.7287 O   0  0  0  0  0  0  0  0  0  0  0  0
   -5.0351   22.9637  -18.9398 N   0  0  0  0  0  0  0  0  0  0  0  0
   -4.1704   23.3018  -18.4967 H   0  0  0  0  0  0  0  0  0  0  0  0
   -6.2951   23.1979  -18.2437 C   0  0  0  0  0  0  0  0  0  0  0  0
   -6.0926   23.5353  -16.8278 C   0  0  0  0  0  0  0  0  0  0  0  0
   -5.4791   22.7707  -15.8729 C   0  0  0  0  0  0  0  0  0  0  0  0
   -5.5143   23.4887  -14.6685 C   0  0  0  0  0  0  0  0  0  0  0  0
   -6.1581   24.6589  -14.9835 C   0  0  0  0  0  0  0  0  0  0  0  0
   -6.4754   24.6440  -16.2426 O   0  0  0  0  0  0  0  0  0  0  0  0
   -0.3724   20.6337  -20.8709 C   0  0  0  0  0  0  0  0  0  0  0  0
    3.2028   23.9900  -17.7681 C   0  0  0  0  0  0  0  0  0  0  0  0
    2.3415   23.0938  -18.5890 C   0  0  0  0  0  0  0  0  0  0  0  0
    2.7991   22.0025  -19.2499 C   0  0  0  0  0  0  0  0  0  0  0  0
    1.9300   21.1948  -20.0072 C   0  0  0  0  0  0  0  0  0  0  0  0
    0.5925   21.4568  -20.1211 C   0  0  0  0  0  0  0  0  0  0  0  0
    0.1533   22.5911  -19.4251 C   0  0  0  0  0  0  0  0  0  0  0  0
    1.0063   23.3918  -18.6768 C   0  0  0  0  0  0  0  0  0  0  0  0
 29 30  1  0  0  0
 30 31  2  0  0  0
 31 32  1  0  0  0
 32 33  2  0  0  0
 33 28  1  0  0  0
 28  1  1  0  0  0
  1  2  1  0  0  0
  2  3  2  0  0  0
  2  4  1  0  0  0
  4 18  1  0  0  0
 18 19  2  0  0  0
 18 20  1  0  0  0
 20 22  1  0  0  0
 22 23  1  0  0  0
 23 24  2  0  0  0
 24 25  1  0  0  0
 25 26  2  0  0  0
 26 27  1  0  0  0
  4  5  2  0  0  0
  5  6  1  0  0  0
  6  7  1  0  0  0
  7  8  2  0  0  0
  7  9  1  0  0  0
  9 10  1  0  0  0
 10 11  2  0  0  0
 11 12  1  0  0  0
 12 13  2  0  0  0
 13 14  1  0  0  0
 14 15  2  0  0  0
 15 16  1  0  0  0
 33 34  1  0  0  0
 34 35  2  0  0  0
 35 30  1  0  0  0
 16  1  1  0  0  0
 27 23  1  0  0  0
 16  6  2  0  0  0
 14  9  1  0  0  0
  3 17  1  0  0  0
 20 21  1  0  0  0
M  END
> <minimizedAffinity>
-7.88036

> <CNNscore>
0.1732698530

> <CNNaffinity>
5.8934602737

> <CNN_VS>
1.0211590528

> <CNNaffinity_variance>
0.0739397481

$$$$
[H]N=c1c(C(=O)N([H])C([H])([H])c2oc([H])c([H])c2[H])c([H])c2c(=O)n3c([H])c([H])c([H])c([H])c3nc2n1C([H])([H])c1c([H])c([H])c(C([H])([H])[H])c([H])c1[H]


 35 39  0  0  0  0  0  0  0  0999 V2000
   -4.8890   22.0176  -23.5791 N   0  0  0  0  0  0  0  0  0  0  0  0
   -3.9280   21.7623  -22.6507 C   0  0  0  0  0  0  0  0  0  0  0  0
   -4.3314   21.4528  -21.5065 N   0  0  0  0  0  0  0  0  0  0  0  0
   -2.5832   21.8856  -22.8852 C   0  0  0  0  0  0  0  0  0  0  0  0
   -2.2053   22.3064  -24.1646 C   0  0  0  0  0  0  0  0  0  0  0  0
   -3.1349   22.5725  -25.1153 C   0  0  0  0  0  0  0  0  0  0  0  0
   -2.7423   22.9992  -26.3590 C   0  0  0  0  0  0  0  0  0  0  0  0
   -1.5301   23.1376  -26.6533 O   0  0  0  0  0  0  0  0  0  0  0  0
   -3.6621   23.2800  -27.2961 N   0  0  0  0  0  0  0  0  0  0  0  0
   -3.2917   23.7003  -28.5226 C   0  0  0  0  0  0  0  0  0  0  0  0
   -4.1850   23.9974  -29.5063 C   0  0  0  0  0  0  0  0  0  0  0  0
   -5.5450   23.8646  -29.2440 C   0  0  0  0  0  0  0  0  0  0  0  0
   -5.8877   23.4342  -27.9843 C   0  0  0  0  0  0  0  0  0  0  0  0
   -4.9692   23.1379  -27.0008 C   0  0  0  0  0  0  0  0  0  0  0  0
   -5.3326   22.7187  -25.7797 N   0  0  0  0  0  0  0  0  0  0  0  0
   -4.4706   22.4175  -24.7899 C   0  0  0  0  0  0  0  0  0  0  0  0
   -3.8852   21.2214  -20.6533 H   0  0  0  0  0  0  0  0  0  0  0  0
   -1.5027   21.5417  -21.9978 C   0  0  0  0  0  0  0  0  0  0  0  0
   -1.1294   22.4989  -21.2051 O   0  0  0  0  0  0  0  0  0  0  0  0
   -0.8208   20.3156  -21.9041 N   0  0  0  0  0  0  0  0  0  0  0  0
   -1.0580   19.5421  -22.5396 H   0  0  0  0  0  0  0  0  0  0  0  0
    0.2566   20.1041  -20.9443 C   0  0  0  0  0  0  0  0  0  0  0  0
    1.5796   20.1131  -21.5840 C   0  0  0  0  0  0  0  0  0  0  0  0
    2.6108   19.2398  -21.3682 C   0  0  0  0  0  0  0  0  0  0  0  0
    3.6758   19.6297  -22.1936 C   0  0  0  0  0  0  0  0  0  0  0  0
    3.2070   20.7315  -22.8636 C   0  0  0  0  0  0  0  0  0  0  0  0
    1.9906   20.9765  -22.4807 O   0  0  0  0  0  0  0  0  0  0  0  0
   -6.2847   21.9076  -23.2674 C   0  0  0  0  0  0  0  0  0  0  0  0
   -8.6812   26.4612  -20.5849 C   0  0  0  0  0  0  0  0  0  0  0  0
   -8.0878   25.2516  -21.2201 C   0  0  0  0  0  0  0  0  0  0  0  0
   -8.2818   23.9883  -20.7689 C   0  0  0  0  0  0  0  0  0  0  0  0
   -7.6931   22.8868  -21.4182 C   0  0  0  0  0  0  0  0  0  0  0  0
   -6.9021   23.0210  -22.5259 C   0  0  0  0  0  0  0  0  0  0  0  0
   -6.7233   24.3396  -22.9655 C   0  0  0  0  0  0  0  0  0  0  0  0
   -7.3013   25.4300  -22.3286 C   0  0  0  0  0  0  0  0  0  0  0  0
 29 30  1  0  0  0
 30 31  2  0  0  0
 31 32  1  0  0  0
 32 33  2  0  0  0
 33 28  1  0  0  0
 28  1  1  0  0  0
  1  2  1  0  0  0
  2  3  2  0  0  0
  2  4  1  0  0  0
  4 18  1  0  0  0
 18 19  2  0  0  0
 18 20  1  0  0  0
 20 22  1  0  0  0
 22 23  1  0  0  0
 23 24  2  0  0  0
 24 25  1  0  0  0
 25 26  2  0  0  0
 26 27  1  0  0  0
  4  5  2  0  0  0
  5  6  1  0  0  0
  6  7  1  0  0  0
  7  8  2  0  0  0
  7  9  1  0  0  0
  9 10  1  0  0  0
 10 11  2  0  0  0
 11 12  1  0  0  0
 12 13  2  0  0  0
 13 14  1  0  0  0
 14 15  2  0  0  0
 15 16  1  0  0  0
 33 34  1  0  0  0
 34 35  2  0  0  0
 35 30  1  0  0  0
 16  1  1  0  0  0
 27 23  1  0  0  0
 16  6  2  0  0  0
 14  9  1  0  0  0
  3 17  1  0  0  0
 20 21  1  0  0  0
M  END
> <minimizedAffinity>
-8.81723

> <CNNscore>
0.1712122858

> <CNNaffinity>
6.4153189659

> <CNN_VS>
1.0983814001

> <CNNaffinity_variance>
0.2733810246

$$$$
[H]N=c1c(C(=O)N([H])C([H])([H])c2oc([H])c([H])c2[H])c([H])c2c(=O)n3c([H])c([H])c([H])c([H])c3nc2n1C([H])([H])c1c([H])c([H])c(C([H])([H])[H])c([H])c1[H]


 35 39  0  0  0  0  0  0  0  0999 V2000
   -2.7775   23.6050  -23.3315 N   0  0  0  0  0  0  0  0  0  0  0  0
   -1.6451   23.0636  -22.8070 C   0  0  0  0  0  0  0  0  0  0  0  0
   -1.4205   23.3106  -21.6002 N   0  0  0  0  0  0  0  0  0  0  0  0
   -0.7362   22.3365  -23.5309 C   0  0  0  0  0  0  0  0  0  0  0  0
   -1.0133   22.1611  -24.8907 C   0  0  0  0  0  0  0  0  0  0  0  0
   -2.1309   22.6879  -25.4495 C   0  0  0  0  0  0  0  0  0  0  0  0
   -2.3750   22.5169  -26.7889 C   0  0  0  0  0  0  0  0  0  0  0  0
   -1.5917   21.8641  -27.5208 O   0  0  0  0  0  0  0  0  0  0  0  0
   -3.4722   23.0527  -27.3474 N   0  0  0  0  0  0  0  0  0  0  0  0
   -3.7254   22.8932  -28.6622 C   0  0  0  0  0  0  0  0  0  0  0  0
   -4.8230   23.4163  -29.2752 C   0  0  0  0  0  0  0  0  0  0  0  0
   -5.7311   24.1508  -28.5191 C   0  0  0  0  0  0  0  0  0  0  0  0
   -5.4427   24.2940  -27.1828 C   0  0  0  0  0  0  0  0  0  0  0  0
   -4.3264   23.7572  -26.5792 C   0  0  0  0  0  0  0  0  0  0  0  0
   -4.0705   23.9124  -25.2718 N   0  0  0  0  0  0  0  0  0  0  0  0
   -2.9942   23.4054  -24.6408 C   0  0  0  0  0  0  0  0  0  0  0  0
   -0.7014   23.0660  -20.9649 H   0  0  0  0  0  0  0  0  0  0  0  0
    0.4281   21.6475  -23.0381 C   0  0  0  0  0  0  0  0  0  0  0  0
    1.4197   21.5972  -23.8736 O   0  0  0  0  0  0  0  0  0  0  0  0
    0.6005   21.0327  -21.7854 N   0  0  0  0  0  0  0  0  0  0  0  0
   -0.1729   21.0150  -21.1072 H   0  0  0  0  0  0  0  0  0  0  0  0
    1.8479   20.3741  -21.4150 C   0  0  0  0  0  0  0  0  0  0  0  0
    2.6426   21.1782  -20.4762 C   0  0  0  0  0  0  0  0  0  0  0  0
    4.0051   21.3000  -20.4361 C   0  0  0  0  0  0  0  0  0  0  0  0
    4.3220   22.1666  -19.3797 C   0  0  0  0  0  0  0  0  0  0  0  0
    3.1078   22.5156  -18.8442 C   0  0  0  0  0  0  0  0  0  0  0  0
    2.1634   21.9214  -19.5085 O   0  0  0  0  0  0  0  0  0  0  0  0
   -3.6758   24.3892  -22.5345 C   0  0  0  0  0  0  0  0  0  0  0  0
   -8.7081   22.0604  -20.8237 C   0  0  0  0  0  0  0  0  0  0  0  0
   -7.3852   22.5963  -21.2497 C   0  0  0  0  0  0  0  0  0  0  0  0
   -6.2753   21.8341  -21.4058 C   0  0  0  0  0  0  0  0  0  0  0  0
   -5.0547   22.4038  -21.8143 C   0  0  0  0  0  0  0  0  0  0  0  0
   -4.9154   23.7393  -22.0744 C   0  0  0  0  0  0  0  0  0  0  0  0
   -6.0817   24.4972  -21.9038 C   0  0  0  0  0  0  0  0  0  0  0  0
   -7.2885   23.9405  -21.5007 C   0  0  0  0  0  0  0  0  0  0  0  0
 29 30  1  0  0  0
 30 31  2  0  0  0
 31 32  1  0  0  0
 32 33  2  0  0  0
 33 28  1  0  0  0
 28  1  1  0  0  0
  1  2  1  0  0  0
  2  3  2  0  0  0
  2  4  1  0  0  0
  4 18  1  0  0  0
 18 19  2  0  0  0
 18 20  1  0  0  0
 20 22  1  0  0  0
 22 23  1  0  0  0
 23 24  2  0  0  0
 24 25  1  0  0  0
 25 26  2  0  0  0
 26 27  1  0  0  0
  4  5  2  0  0  0
  5  6  1  0  0  0
  6  7  1  0  0  0
  7  8  2  0  0  0
  7  9  1  0  0  0
  9 10  1  0  0  0
 10 11  2  0  0  0
 11 12  1  0  0  0
 12 13  2  0  0  0
 13 14  1  0  0  0
 14 15  2  0  0  0
 15 16  1  0  0  0
 33 34  1  0  0  0
 34 35  2  0  0  0
 35 30  1  0  0  0
 16  1  1  0  0  0
 27 23  1  0  0  0
 16  6  2  0  0  0
 14  9  1  0  0  0
  3 17  1  0  0  0
 20 21  1  0  0  0
M  END
> <minimizedAffinity>
-9.06251

> <CNNscore>
0.1591157317

> <CNNaffinity>
6.5505371094

> <CNN_VS>
1.0422935486

> <CNNaffinity_variance>
0.5659447908

$$$$
[H]N=c1c(C(=O)N([H])C([H])([H])c2oc([H])c([H])c2[H])c([H])c2c(=O)n3c([H])c([H])c([H])c([H])c3nc2n1C([H])([H])c1c([H])c([H])c(C([H])([H])[H])c([H])c1[H]


 35 39  0  0  0  0  0  0  0  0999 V2000
   -4.6255   22.0440  -23.4132 N   0  0  0  0  0  0  0  0  0  0  0  0
   -5.3862   22.6114  -24.3878 C   0  0  0  0  0  0  0  0  0  0  0  0
   -6.6257   22.5789  -24.2126 N   0  0  0  0  0  0  0  0  0  0  0  0
   -4.8788   23.1433  -25.5446 C   0  0  0  0  0  0  0  0  0  0  0  0
   -3.4909   23.0802  -25.7082 C   0  0  0  0  0  0  0  0  0  0  0  0
   -2.7005   22.5200  -24.7595 C   0  0  0  0  0  0  0  0  0  0  0  0
   -1.3428   22.4546  -24.9478 C   0  0  0  0  0  0  0  0  0  0  0  0
   -0.8001   22.9188  -25.9799 O   0  0  0  0  0  0  0  0  0  0  0  0
   -0.5605   21.8845  -24.0173 N   0  0  0  0  0  0  0  0  0  0  0  0
    0.7751   21.8128  -24.1884 C   0  0  0  0  0  0  0  0  0  0  0  0
    1.6107   21.2453  -23.2752 C   0  0  0  0  0  0  0  0  0  0  0  0
    1.0716   20.7119  -22.1087 C   0  0  0  0  0  0  0  0  0  0  0  0
   -0.2927   20.8018  -21.9663 C   0  0  0  0  0  0  0  0  0  0  0  0
   -1.1231   21.3800  -22.9015 C   0  0  0  0  0  0  0  0  0  0  0  0
   -2.4519   21.4545  -22.7357 N   0  0  0  0  0  0  0  0  0  0  0  0
   -3.3002   22.0106  -23.6215 C   0  0  0  0  0  0  0  0  0  0  0  0
   -7.4074   22.8974  -24.7303 H   0  0  0  0  0  0  0  0  0  0  0  0
   -5.5964   23.8480  -26.5750 C   0  0  0  0  0  0  0  0  0  0  0  0
   -6.5104   23.1470  -27.1724 O   0  0  0  0  0  0  0  0  0  0  0  0
   -5.4142   25.1763  -26.9983 N   0  0  0  0  0  0  0  0  0  0  0  0
   -4.6750   25.7560  -26.5789 H   0  0  0  0  0  0  0  0  0  0  0  0
   -6.2264   25.7666  -28.0561 C   0  0  0  0  0  0  0  0  0  0  0  0
   -5.4991   25.8561  -29.3299 C   0  0  0  0  0  0  0  0  0  0  0  0
   -4.2159   25.4531  -29.5819 C   0  0  0  0  0  0  0  0  0  0  0  0
   -3.9417   25.7306  -30.9292 C   0  0  0  0  0  0  0  0  0  0  0  0
   -5.0986   26.2922  -31.4078 C   0  0  0  0  0  0  0  0  0  0  0  0
   -5.9733   26.3460  -30.4495 O   0  0  0  0  0  0  0  0  0  0  0  0
   -5.2139   21.4689  -22.2383 C   0  0  0  0  0  0  0  0  0  0  0  0
   -9.4753   24.5921  -19.8384 C   0  0  0  0  0  0  0  0  0  0  0  0
   -8.4238   23.7340  -20.4521 C   0  0  0  0  0  0  0  0  0  0  0  0
   -8.6334   22.4604  -20.8658 C   0  0  0  0  0  0  0  0  0  0  0  0
   -7.5953   21.7036  -21.4411 C   0  0  0  0  0  0  0  0  0  0  0  0
   -6.3322   22.1982  -21.6153 C   0  0  0  0  0  0  0  0  0  0  0  0
   -6.1508   23.5171  -21.1776 C   0  0  0  0  0  0  0  0  0  0  0  0
   -7.1711   24.2682  -20.6090 C   0  0  0  0  0  0  0  0  0  0  0  0
 29 30  1  0  0  0
 30 31  2  0  0  0
 31 32  1  0  0  0
 32 33  2  0  0  0
 33 28  1  0  0  0
 28  1  1  0  0  0
  1  2  1  0  0  0
  2  3  2  0  0  0
  2  4  1  0  0  0
  4 18  1  0  0  0
 18 19  2  0  0  0
 18 20  1  0  0  0
 20 22  1  0  0  0
 22 23  1  0  0  0
 23 24  2  0  0  0
 24 25  1  0  0  0
 25 26  2  0  0  0
 26 27  1  0  0  0
  4  5  2  0  0  0
  5  6  1  0  0  0
  6  7  1  0  0  0
  7  8  2  0  0  0
  7  9  1  0  0  0
  9 10  1  0  0  0
 10 11  2  0  0  0
 11 12  1  0  0  0
 12 13  2  0  0  0
 13 14  1  0  0  0
 14 15  2  0  0  0
 15 16  1  0  0  0
 33 34  1  0  0  0
 34 35  2  0  0  0
 35 30  1  0  0  0
 16  1  1  0  0  0
 27 23  1  0  0  0
 16  6  2  0  0  0
 14  9  1  0  0  0
  3 17  1  0  0  0
 20 21  1  0  0  0
M  END
> <minimizedAffinity>
-8.47320

> <CNNscore>
0.1531882733

> <CNNaffinity>
6.7128019333

> <CNN_VS>
1.0283225775

> <CNNaffinity_variance>
0.2911997736

$$$$
[H]N=c1c(C(=O)N([H])C([H])([H])c2oc([H])c([H])c2[H])c([H])c2c(=O)n3c([H])c([H])c([H])c([H])c3nc2n1C([H])([H])c1c([H])c([H])c(C([H])([H])[H])c([H])c1[H]


 35 39  0  0  0  0  0  0  0  0999 V2000
   -1.1829   21.6248  -21.1684 N   0  0  0  0  0  0  0  0  0  0  0  0
   -2.2696   21.6036  -20.3503 C   0  0  0  0  0  0  0  0  0  0  0  0
   -2.0482   21.3653  -19.1412 N   0  0  0  0  0  0  0  0  0  0  0  0
   -3.5598   21.7633  -20.7847 C   0  0  0  0  0  0  0  0  0  0  0  0
   -3.7402   21.9527  -22.1589 C   0  0  0  0  0  0  0  0  0  0  0  0
   -2.6813   21.9773  -23.0056 C   0  0  0  0  0  0  0  0  0  0  0  0
   -2.8827   22.1486  -24.3521 C   0  0  0  0  0  0  0  0  0  0  0  0
   -4.0333   22.3016  -24.8296 O   0  0  0  0  0  0  0  0  0  0  0  0
   -1.8367   22.1556  -25.1940 N   0  0  0  0  0  0  0  0  0  0  0  0
   -2.0189   22.3229  -26.5195 C   0  0  0  0  0  0  0  0  0  0  0  0
   -0.9919   22.3376  -27.4136 C   0  0  0  0  0  0  0  0  0  0  0  0
    0.3090   22.1731  -26.9482 C   0  0  0  0  0  0  0  0  0  0  0  0
    0.4588   22.0052  -25.5921 C   0  0  0  0  0  0  0  0  0  0  0  0
   -0.5928   21.9931  -24.7019 C   0  0  0  0  0  0  0  0  0  0  0  0
   -0.4168   21.8279  -23.3826 N   0  0  0  0  0  0  0  0  0  0  0  0
   -1.4136   21.8104  -22.4773 C   0  0  0  0  0  0  0  0  0  0  0  0
   -2.6176   21.2859  -18.3349 H   0  0  0  0  0  0  0  0  0  0  0  0
   -4.7511   21.8546  -19.9813 C   0  0  0  0  0  0  0  0  0  0  0  0
   -5.1232   20.7363  -19.4383 O   0  0  0  0  0  0  0  0  0  0  0  0
   -5.5390   22.9925  -19.7335 N   0  0  0  0  0  0  0  0  0  0  0  0
   -5.3027   23.8912  -20.1750 H   0  0  0  0  0  0  0  0  0  0  0  0
   -6.7238   22.9400  -18.8848 C   0  0  0  0  0  0  0  0  0  0  0  0
   -6.4644   23.4633  -17.5363 C   0  0  0  0  0  0  0  0  0  0  0  0
   -5.4809   24.3379  -17.1616 C   0  0  0  0  0  0  0  0  0  0  0  0
   -5.6114   24.5563  -15.7822 C   0  0  0  0  0  0  0  0  0  0  0  0
   -6.6840   23.7852  -15.4111 C   0  0  0  0  0  0  0  0  0  0  0  0
   -7.1471   23.1697  -16.4566 O   0  0  0  0  0  0  0  0  0  0  0  0
    0.1431   21.4149  -20.6637 C   0  0  0  0  0  0  0  0  0  0  0  0
    2.7125   16.2534  -21.3206 C   0  0  0  0  0  0  0  0  0  0  0  0
    1.9915   17.5448  -21.1433 C   0  0  0  0  0  0  0  0  0  0  0  0
    0.6961   17.6406  -20.7562 C   0  0  0  0  0  0  0  0  0  0  0  0
    0.0743   18.8943  -20.6047 C   0  0  0  0  0  0  0  0  0  0  0  0
    0.7278   20.0735  -20.8349 C   0  0  0  0  0  0  0  0  0  0  0  0
    2.0647   19.9378  -21.2325 C   0  0  0  0  0  0  0  0  0  0  0  0
    2.6832   18.7036  -21.3840 C   0  0  0  0  0  0  0  0  0  0  0  0
 29 30  1  0  0  0
 30 31  2  0  0  0
 31 32  1  0  0  0
 32 33  2  0  0  0
 33 28  1  0  0  0
 28  1  1  0  0  0
  1  2  1  0  0  0
  2  3  2  0  0  0
  2  4  1  0  0  0
  4 18  1  0  0  0
 18 19  2  0  0  0
 18 20  1  0  0  0
 20 22  1  0  0  0
 22 23  1  0  0  0
 23 24  2  0  0  0
 24 25  1  0  0  0
 25 26  2  0  0  0
 26 27  1  0  0  0
  4  5  2  0  0  0
  5  6  1  0  0  0
  6  7  1  0  0  0
  7  8  2  0  0  0
  7  9  1  0  0  0
  9 10  1  0  0  0
 10 11  2  0  0  0
 11 12  1  0  0  0
 12 13  2  0  0  0
 13 14  1  0  0  0
 14 15  2  0  0  0
 15 16  1  0  0  0
 33 34  1  0  0  0
 34 35  2  0  0  0
 35 30  1  0  0  0
 16  1  1  0  0  0
 27 23  1  0  0  0
 16  6  2  0  0  0
 14  9  1  0  0  0
  3 17  1  0  0  0
 20 21  1  0  0  0
M  END
> <minimizedAffinity>
-7.69938

> <CNNscore>
0.1508453041

> <CNNaffinity>
5.6603527069

> <CNN_VS>
0.8538376093

> <CNNaffinity_variance>
0.1551734209

$$$$
[H]/C(=C(\[H])C([H])([H])C([H])([H])N([H])C(=O)/C([H])=C([H])/C([H])=C([H])/C([H])=C(\[H])c1sc([H])c([H])c1[H])C([H])([H])OC(=O)C([H])([H])C([H])(C([H])([H])[H])C([H])([H])[H]


 27 27  0  0  0  0  0  0  0  0999 V2000
    0.1228   21.2423  -22.0035 N   0  0  0  0  0  0  0  0  0  0  0  0
    0.7715   21.4716  -23.2309 C   0  0  0  0  0  0  0  0  0  0  0  0
    2.0112   21.2820  -23.3038 O   0  0  0  0  0  0  0  0  0  0  0  0
   -0.9115   21.3967  -21.9363 H   0  0  0  0  0  0  0  0  0  0  0  0
    0.0487   21.9160  -24.3971 C   0  0  0  0  0  0  0  0  0  0  0  0
    0.5135   21.8966  -25.6131 C   0  0  0  0  0  0  0  0  0  0  0  0
   -0.2718   22.3631  -26.7613 C   0  0  0  0  0  0  0  0  0  0  0  0
   -1.5682   22.4809  -26.7432 C   0  0  0  0  0  0  0  0  0  0  0  0
   -2.3339   22.9532  -27.9135 C   0  0  0  0  0  0  0  0  0  0  0  0
   -3.5137   23.5108  -27.7664 C   0  0  0  0  0  0  0  0  0  0  0  0
   -4.2736   23.9814  -28.9497 C   0  0  0  0  0  0  0  0  0  0  0  0
   -5.1971   23.2858  -29.6821 C   0  0  0  0  0  0  0  0  0  0  0  0
   -5.7639   23.9193  -30.7216 C   0  0  0  0  0  0  0  0  0  0  0  0
   -5.3684   25.2085  -30.9594 C   0  0  0  0  0  0  0  0  0  0  0  0
   -4.2246   25.4946  -29.7322 S   0  0  0  0  0  0  0  0  0  0  0  0
    0.8028   20.8002  -20.8107 C   0  0  0  0  0  0  0  0  0  0  0  0
    0.1722   19.5745  -20.1769 C   0  0  0  0  0  0  0  0  0  0  0  0
    0.1550   17.1369  -20.5901 C   0  0  0  0  0  0  0  0  0  0  0  0
    0.5653   18.3423  -20.8848 C   0  0  0  0  0  0  0  0  0  0  0  0
   -0.7704   16.8703  -19.4867 C   0  0  0  0  0  0  0  0  0  0  0  0
   -1.1213   15.5044  -19.4759 O   0  0  0  0  0  0  0  0  0  0  0  0
   -1.5020   14.8899  -18.3078 C   0  0  0  0  0  0  0  0  0  0  0  0
   -0.6387   14.5594  -17.4691 O   0  0  0  0  0  0  0  0  0  0  0  0
   -2.9320   14.5942  -17.9922 C   0  0  0  0  0  0  0  0  0  0  0  0
   -4.7300   13.7277  -19.5011 C   0  0  0  0  0  0  0  0  0  0  0  0
   -3.7876   14.8526  -19.2133 C   0  0  0  0  0  0  0  0  0  0  0  0
   -4.5557   16.1365  -19.1054 C   0  0  0  0  0  0  0  0  0  0  0  0
 25 26  1  0  0  0
 26 27  1  0  0  0
 26 24  1  0  0  0
 24 22  1  0  0  0
 22 23  2  0  0  0
 22 21  1  0  0  0
 21 20  1  0  0  0
 20 18  1  0  0  0
 18 19  2  0  0  0
 19 17  1  0  0  0
 17 16  1  0  0  0
 16  1  1  0  0  0
  1  2  1  0  0  0
  2  3  2  0  0  0
  2  5  1  0  0  0
  5  6  2  0  0  0
  6  7  1  0  0  0
  7  8  2  0  0  0
  8  9  1  0  0  0
  9 10  2  0  0  0
 10 11  1  0  0  0
 11 12  2  0  0  0
 12 13  1  0  0  0
 13 14  2  0  0  0
 14 15  1  0  0  0
 15 11  1  0  0  0
  1  4  1  0  0  0
M  END
> <minimizedAffinity>
-5.94760

> <CNNscore>
0.4881216586

> <CNNaffinity>
5.6276588440

> <CNN_VS>
2.7469820976

> <CNNaffinity_variance>
0.2177508175

$$$$
[H]/C(=C(\[H])C([H])([H])C([H])([H])N([H])C(=O)/C([H])=C([H])/C([H])=C([H])/C([H])=C(\[H])c1sc([H])c([H])c1[H])C([H])([H])OC(=O)C([H])([H])C([H])(C([H])([H])[H])C([H])([H])[H]


 27 27  0  0  0  0  0  0  0  0999 V2000
    0.2082   21.2483  -22.0747 N   0  0  0  0  0  0  0  0  0  0  0  0
    0.8464   21.4592  -23.3108 C   0  0  0  0  0  0  0  0  0  0  0  0
    2.0701   21.1938  -23.4121 O   0  0  0  0  0  0  0  0  0  0  0  0
   -0.8128   21.4658  -21.9838 H   0  0  0  0  0  0  0  0  0  0  0  0
    0.1307   21.9692  -24.4544 C   0  0  0  0  0  0  0  0  0  0  0  0
    0.5185   21.8456  -25.6910 C   0  0  0  0  0  0  0  0  0  0  0  0
   -0.2547   22.3871  -26.8141 C   0  0  0  0  0  0  0  0  0  0  0  0
   -1.5558   22.3787  -26.8594 C   0  0  0  0  0  0  0  0  0  0  0  0
   -2.3091   22.9308  -28.0024 C   0  0  0  0  0  0  0  0  0  0  0  0
   -3.5214   23.4093  -27.8424 C   0  0  0  0  0  0  0  0  0  0  0  0
   -4.2684   23.9616  -28.9984 C   0  0  0  0  0  0  0  0  0  0  0  0
   -5.2507   23.3499  -29.7294 C   0  0  0  0  0  0  0  0  0  0  0  0
   -5.7912   24.0476  -30.7415 C   0  0  0  0  0  0  0  0  0  0  0  0
   -5.3124   25.3126  -30.9549 C   0  0  0  0  0  0  0  0  0  0  0  0
   -4.1297   25.4878  -29.7439 S   0  0  0  0  0  0  0  0  0  0  0  0
    0.8819   20.7427  -20.9037 C   0  0  0  0  0  0  0  0  0  0  0  0
    0.1440   19.6010  -20.2299 C   0  0  0  0  0  0  0  0  0  0  0  0
    0.9805   17.2933  -20.5259 C   0  0  0  0  0  0  0  0  0  0  0  0
    0.3268   18.3362  -20.9654 C   0  0  0  0  0  0  0  0  0  0  0  0
    1.6251   17.2674  -19.2111 C   0  0  0  0  0  0  0  0  0  0  0  0
    0.7247   16.7697  -18.2465 O   0  0  0  0  0  0  0  0  0  0  0  0
    1.1387   15.8519  -17.3119 C   0  0  0  0  0  0  0  0  0  0  0  0
    1.2842   14.6557  -17.6372 O   0  0  0  0  0  0  0  0  0  0  0  0
    1.4276   16.2311  -15.8961 C   0  0  0  0  0  0  0  0  0  0  0  0
    3.6041   15.5246  -14.8841 C   0  0  0  0  0  0  0  0  0  0  0  0
    2.2034   15.1221  -15.2193 C   0  0  0  0  0  0  0  0  0  0  0  0
    1.5152   14.6216  -13.9840 C   0  0  0  0  0  0  0  0  0  0  0  0
 25 26  1  0  0  0
 26 27  1  0  0  0
 26 24  1  0  0  0
 24 22  1  0  0  0
 22 23  2  0  0  0
 22 21  1  0  0  0
 21 20  1  0  0  0
 20 18  1  0  0  0
 18 19  2  0  0  0
 19 17  1  0  0  0
 17 16  1  0  0  0
 16  1  1  0  0  0
  1  2  1  0  0  0
  2  3  2  0  0  0
  2  5  1  0  0  0
  5  6  2  0  0  0
  6  7  1  0  0  0
  7  8  2  0  0  0
  8  9  1  0  0  0
  9 10  2  0  0  0
 10 11  1  0  0  0
 11 12  2  0  0  0
 12 13  1  0  0  0
 13 14  2  0  0  0
 14 15  1  0  0  0
 15 11  1  0  0  0
  1  4  1  0  0  0
M  END
> <minimizedAffinity>
-5.32465

> <CNNscore>
0.4708744586

> <CNNaffinity>
5.3820428848

> <CNN_VS>
2.5342664719

> <CNNaffinity_variance>
0.3552760184

$$$$
[H]/C(=C(\[H])C([H])([H])C([H])([H])N([H])C(=O)/C([H])=C([H])/C([H])=C([H])/C([H])=C(\[H])c1sc([H])c([H])c1[H])C([H])([H])OC(=O)C([H])([H])C([H])(C([H])([H])[H])C([H])([H])[H]


 27 27  0  0  0  0  0  0  0  0999 V2000
    0.2996   21.4011  -22.2867 N   0  0  0  0  0  0  0  0  0  0  0  0
    0.8811   21.4855  -23.5652 C   0  0  0  0  0  0  0  0  0  0  0  0
    2.0884   21.1665  -23.7021 O   0  0  0  0  0  0  0  0  0  0  0  0
   -0.7076   21.6638  -22.1657 H   0  0  0  0  0  0  0  0  0  0  0  0
    0.1260   21.9267  -24.7120 C   0  0  0  0  0  0  0  0  0  0  0  0
    0.5377   21.8590  -25.9453 C   0  0  0  0  0  0  0  0  0  0  0  0
   -0.2781   22.3251  -27.0720 C   0  0  0  0  0  0  0  0  0  0  0  0
   -1.5563   22.5561  -26.9848 C   0  0  0  0  0  0  0  0  0  0  0  0
   -2.3537   23.0250  -28.1351 C   0  0  0  0  0  0  0  0  0  0  0  0
   -3.4619   23.7059  -27.9540 C   0  0  0  0  0  0  0  0  0  0  0  0
   -4.2545   24.1718  -29.1176 C   0  0  0  0  0  0  0  0  0  0  0  0
   -5.2728   23.5147  -29.7537 C   0  0  0  0  0  0  0  0  0  0  0  0
   -5.8517   24.1348  -30.7946 C   0  0  0  0  0  0  0  0  0  0  0  0
   -5.3726   25.3729  -31.1301 C   0  0  0  0  0  0  0  0  0  0  0  0
   -4.1365   25.6314  -29.9894 S   0  0  0  0  0  0  0  0  0  0  0  0
    1.0142   20.9681  -21.1109 C   0  0  0  0  0  0  0  0  0  0  0  0
    0.5107   21.6073  -19.8304 C   0  0  0  0  0  0  0  0  0  0  0  0
   -0.6769   20.7227  -17.8505 C   0  0  0  0  0  0  0  0  0  0  0  0
   -0.4545   20.7335  -19.1384 C   0  0  0  0  0  0  0  0  0  0  0  0
    0.0333   21.6065  -16.9236 C   0  0  0  0  0  0  0  0  0  0  0  0
    0.0533   21.0325  -15.6355 O   0  0  0  0  0  0  0  0  0  0  0  0
    1.2138   20.5054  -15.1233 C   0  0  0  0  0  0  0  0  0  0  0  0
    1.7171   19.4882  -15.6430 O   0  0  0  0  0  0  0  0  0  0  0  0
    1.9126   21.1084  -13.9486 C   0  0  0  0  0  0  0  0  0  0  0  0
    0.8399   22.4818  -12.1532 C   0  0  0  0  0  0  0  0  0  0  0  0
    1.2594   22.4248  -13.5874 C   0  0  0  0  0  0  0  0  0  0  0  0
    2.1396   23.5985  -13.9006 C   0  0  0  0  0  0  0  0  0  0  0  0
 25 26  1  0  0  0
 26 27  1  0  0  0
 26 24  1  0  0  0
 24 22  1  0  0  0
 22 23  2  0  0  0
 22 21  1  0  0  0
 21 20  1  0  0  0
 20 18  1  0  0  0
 18 19  2  0  0  0
 19 17  1  0  0  0
 17 16  1  0  0  0
 16  1  1  0  0  0
  1  2  1  0  0  0
  2  3  2  0  0  0
  2  5  1  0  0  0
  5  6  2  0  0  0
  6  7  1  0  0  0
  7  8  2  0  0  0
  8  9  1  0  0  0
  9 10  2  0  0  0
 10 11  1  0  0  0
 11 12  2  0  0  0
 12 13  1  0  0  0
 13 14  2  0  0  0
 14 15  1  0  0  0
 15 11  1  0  0  0
  1  4  1  0  0  0
M  END
> <minimizedAffinity>
-5.72030

> <CNNscore>
0.4095782340

> <CNNaffinity>
5.3574819565

> <CNN_VS>
2.1943080425

> <CNNaffinity_variance>
0.2269333303

$$$$
[H]/C(=C(\[H])C([H])([H])C([H])([H])N([H])C(=O)/C([H])=C([H])/C([H])=C([H])/C([H])=C(\[H])c1sc([H])c([H])c1[H])C([H])([H])OC(=O)C([H])([H])C([H])(C([H])([H])[H])C([H])([H])[H]


 27 27  0  0  0  0  0  0  0  0999 V2000
    0.2132   21.2070  -22.1501 N   0  0  0  0  0  0  0  0  0  0  0  0
    0.8513   21.5178  -23.3651 C   0  0  0  0  0  0  0  0  0  0  0  0
    2.1037   21.4412  -23.4267 O   0  0  0  0  0  0  0  0  0  0  0  0
   -0.8313   21.2669  -22.0922 H   0  0  0  0  0  0  0  0  0  0  0  0
    0.1035   21.9188  -24.5312 C   0  0  0  0  0  0  0  0  0  0  0  0
    0.5659   21.9189  -25.7483 C   0  0  0  0  0  0  0  0  0  0  0  0
   -0.2454   22.3388  -26.8963 C   0  0  0  0  0  0  0  0  0  0  0  0
   -1.4979   22.6812  -26.8025 C   0  0  0  0  0  0  0  0  0  0  0  0
   -2.2913   23.1000  -27.9747 C   0  0  0  0  0  0  0  0  0  0  0  0
   -3.5164   23.5511  -27.8328 C   0  0  0  0  0  0  0  0  0  0  0  0
   -4.3037   23.9690  -29.0179 C   0  0  0  0  0  0  0  0  0  0  0  0
   -5.2178   23.2296  -29.7187 C   0  0  0  0  0  0  0  0  0  0  0  0
   -5.8145   23.8193  -30.7672 C   0  0  0  0  0  0  0  0  0  0  0  0
   -5.4566   25.1114  -31.0450 C   0  0  0  0  0  0  0  0  0  0  0  0
   -4.3052   25.4610  -29.8417 S   0  0  0  0  0  0  0  0  0  0  0  0
    0.9180   20.8038  -20.9578 C   0  0  0  0  0  0  0  0  0  0  0  0
    0.0017   20.3070  -19.8553 C   0  0  0  0  0  0  0  0  0  0  0  0
   -1.1863   21.7093  -18.2015 C   0  0  0  0  0  0  0  0  0  0  0  0
   -0.9494   21.3529  -19.4364 C   0  0  0  0  0  0  0  0  0  0  0  0
   -0.5105   21.0866  -17.0612 C   0  0  0  0  0  0  0  0  0  0  0  0
   -1.1020   21.5232  -15.8577 O   0  0  0  0  0  0  0  0  0  0  0  0
   -2.4123   21.2233  -15.5740 C   0  0  0  0  0  0  0  0  0  0  0  0
   -3.2021   22.1334  -15.2487 O   0  0  0  0  0  0  0  0  0  0  0  0
   -2.9425   19.8281  -15.6389 C   0  0  0  0  0  0  0  0  0  0  0  0
   -4.1905   19.5668  -17.7918 C   0  0  0  0  0  0  0  0  0  0  0  0
   -4.2925   19.8271  -16.3228 C   0  0  0  0  0  0  0  0  0  0  0  0
   -5.2407   18.8439  -15.7028 C   0  0  0  0  0  0  0  0  0  0  0  0
 25 26  1  0  0  0
 26 27  1  0  0  0
 26 24  1  0  0  0
 24 22  1  0  0  0
 22 23  2  0  0  0
 22 21  1  0  0  0
 21 20  1  0  0  0
 20 18  1  0  0  0
 18 19  2  0  0  0
 19 17  1  0  0  0
 17 16  1  0  0  0
 16  1  1  0  0  0
  1  2  1  0  0  0
  2  3  2  0  0  0
  2  5  1  0  0  0
  5  6  2  0  0  0
  6  7  1  0  0  0
  7  8  2  0  0  0
  8  9  1  0  0  0
  9 10  2  0  0  0
 10 11  1  0  0  0
 11 12  2  0  0  0
 12 13  1  0  0  0
 13 14  2  0  0  0
 14 15  1  0  0  0
 15 11  1  0  0  0
  1  4  1  0  0  0
M  END
> <minimizedAffinity>
-5.37795

> <CNNscore>
0.3763911426

> <CNNaffinity>
5.5496568680

> <CNN_VS>
2.0888416767

> <CNNaffinity_variance>
0.2143461406

$$$$
[H]/C(=C(\[H])C([H])([H])C([H])([H])N([H])C(=O)/C([H])=C([H])/C([H])=C([H])/C([H])=C(\[H])c1sc([H])c([H])c1[H])C([H])([H])OC(=O)C([H])([H])C([H])(C([H])([H])[H])C([H])([H])[H]


 27 27  0  0  0  0  0  0  0  0999 V2000
    0.2483   21.1816  -22.0999 N   0  0  0  0  0  0  0  0  0  0  0  0
    0.8840   21.5036  -23.3132 C   0  0  0  0  0  0  0  0  0  0  0  0
    2.1368   21.4347  -23.3759 O   0  0  0  0  0  0  0  0  0  0  0  0
   -0.7966   21.2351  -22.0412 H   0  0  0  0  0  0  0  0  0  0  0  0
    0.1333   21.9074  -24.4766 C   0  0  0  0  0  0  0  0  0  0  0  0
    0.5967   21.9226  -25.6932 C   0  0  0  0  0  0  0  0  0  0  0  0
   -0.2176   22.3445  -26.8383 C   0  0  0  0  0  0  0  0  0  0  0  0
   -1.4836   22.6347  -26.7499 C   0  0  0  0  0  0  0  0  0  0  0  0
   -2.2798   23.0570  -27.9189 C   0  0  0  0  0  0  0  0  0  0  0  0
   -3.5205   23.4634  -27.7779 C   0  0  0  0  0  0  0  0  0  0  0  0
   -4.3104   23.8853  -28.9599 C   0  0  0  0  0  0  0  0  0  0  0  0
   -5.2075   23.1402  -29.6764 C   0  0  0  0  0  0  0  0  0  0  0  0
   -5.8107   23.7352  -30.7182 C   0  0  0  0  0  0  0  0  0  0  0  0
   -5.4758   25.0381  -30.9740 C   0  0  0  0  0  0  0  0  0  0  0  0
   -4.3362   25.3899  -29.7600 S   0  0  0  0  0  0  0  0  0  0  0  0
    0.9559   20.7753  -20.9104 C   0  0  0  0  0  0  0  0  0  0  0  0
    0.0426   20.2720  -19.8084 C   0  0  0  0  0  0  0  0  0  0  0  0
   -2.0902   21.0427  -18.8236 C   0  0  0  0  0  0  0  0  0  0  0  0
   -0.9648   21.2846  -19.4426 C   0  0  0  0  0  0  0  0  0  0  0  0
   -2.4866   19.6939  -18.4132 C   0  0  0  0  0  0  0  0  0  0  0  0
   -3.8240   19.7034  -17.9659 O   0  0  0  0  0  0  0  0  0  0  0  0
   -4.5799   18.5569  -17.9984 C   0  0  0  0  0  0  0  0  0  0  0  0
   -5.6864   18.5578  -18.5760 O   0  0  0  0  0  0  0  0  0  0  0  0
   -4.1262   17.2848  -17.3598 C   0  0  0  0  0  0  0  0  0  0  0  0
   -3.2854   15.7254  -19.1267 C   0  0  0  0  0  0  0  0  0  0  0  0
   -4.4450   16.1166  -18.2674 C   0  0  0  0  0  0  0  0  0  0  0  0
   -4.9296   14.9207  -17.5024 C   0  0  0  0  0  0  0  0  0  0  0  0
 25 26  1  0  0  0
 26 27  1  0  0  0
 26 24  1  0  0  0
 24 22  1  0  0  0
 22 23  2  0  0  0
 22 21  1  0  0  0
 21 20  1  0  0  0
 20 18  1  0  0  0
 18 19  2  0  0  0
 19 17  1  0  0  0
 17 16  1  0  0  0
 16  1  1  0  0  0
  1  2  1  0  0  0
  2  3  2  0  0  0
  2  5  1  0  0  0
  5  6  2  0  0  0
  6  7  1  0  0  0
  7  8  2  0  0  0
  8  9  1  0  0  0
  9 10  2  0  0  0
 10 11  1  0  0  0
 11 12  2  0  0  0
 12 13  1  0  0  0
 13 14  2  0  0  0
 14 15  1  0  0  0
 15 11  1  0  0  0
  1  4  1  0  0  0
M  END
> <minimizedAffinity>
-5.47233

> <CNNscore>
0.3750220537

> <CNNaffinity>
5.6949958801

> <CNN_VS>
2.1357491016

> <CNNaffinity_variance>
0.2211450636

$$$$
[H]/C(=C(\[H])C([H])([H])C([H])([H])N([H])C(=O)/C([H])=C([H])/C([H])=C([H])/C([H])=C(\[H])c1sc([H])c([H])c1[H])C([H])([H])OC(=O)C([H])([H])C([H])(C([H])([H])[H])C([H])([H])[H]


 27 27  0  0  0  0  0  0  0  0999 V2000
   -5.6572   22.4278  -23.5241 N   0  0  0  0  0  0  0  0  0  0  0  0
   -6.7499   22.7526  -22.6993 C   0  0  0  0  0  0  0  0  0  0  0  0
   -7.4739   23.7303  -23.0126 O   0  0  0  0  0  0  0  0  0  0  0  0
   -5.0504   21.6123  -23.2697 H   0  0  0  0  0  0  0  0  0  0  0  0
   -7.0536   21.9925  -21.5118 C   0  0  0  0  0  0  0  0  0  0  0  0
   -7.5623   22.4880  -20.4206 C   0  0  0  0  0  0  0  0  0  0  0  0
   -7.8497   21.6619  -19.2428 C   0  0  0  0  0  0  0  0  0  0  0  0
   -9.0523   21.3087  -18.8907 C   0  0  0  0  0  0  0  0  0  0  0  0
   -9.3133   20.4762  -17.7000 C   0  0  0  0  0  0  0  0  0  0  0  0
  -10.5290   20.3489  -17.2202 C   0  0  0  0  0  0  0  0  0  0  0  0
  -10.7790   19.5096  -16.0234 C   0  0  0  0  0  0  0  0  0  0  0  0
  -10.0389   19.4503  -14.8735 C   0  0  0  0  0  0  0  0  0  0  0  0
  -10.4580   18.6105  -13.9132 C   0  0  0  0  0  0  0  0  0  0  0  0
  -11.5912   17.8852  -14.1675 C   0  0  0  0  0  0  0  0  0  0  0  0
  -12.0339   18.3946  -15.7297 S   0  0  0  0  0  0  0  0  0  0  0  0
   -5.3130   23.1589  -24.7190 C   0  0  0  0  0  0  0  0  0  0  0  0
   -3.8178   23.3326  -24.9093 C   0  0  0  0  0  0  0  0  0  0  0  0
   -2.8363   22.3514  -26.9554 C   0  0  0  0  0  0  0  0  0  0  0  0
   -3.2499   22.2403  -25.7206 C   0  0  0  0  0  0  0  0  0  0  0  0
   -2.8949   23.6156  -27.6923 C   0  0  0  0  0  0  0  0  0  0  0  0
   -4.2284   23.8968  -28.0549 O   0  0  0  0  0  0  0  0  0  0  0  0
   -4.5702   25.1268  -28.5622 C   0  0  0  0  0  0  0  0  0  0  0  0
   -5.4429   25.8137  -27.9924 O   0  0  0  0  0  0  0  0  0  0  0  0
   -3.9304   25.6884  -29.7899 C   0  0  0  0  0  0  0  0  0  0  0  0
   -5.7415   24.3071  -30.8255 C   0  0  0  0  0  0  0  0  0  0  0  0
   -4.8500   25.4982  -30.9765 C   0  0  0  0  0  0  0  0  0  0  0  0
   -5.6813   26.7166  -31.2498 C   0  0  0  0  0  0  0  0  0  0  0  0
 25 26  1  0  0  0
 26 27  1  0  0  0
 26 24  1  0  0  0
 24 22  1  0  0  0
 22 23  2  0  0  0
 22 21  1  0  0  0
 21 20  1  0  0  0
 20 18  1  0  0  0
 18 19  2  0  0  0
 19 17  1  0  0  0
 17 16  1  0  0  0
 16  1  1  0  0  0
  1  2  1  0  0  0
  2  3  2  0  0  0
  2  5  1  0  0  0
  5  6  2  0  0  0
  6  7  1  0  0  0
  7  8  2  0  0  0
  8  9  1  0  0  0
  9 10  2  0  0  0
 10 11  1  0  0  0
 11 12  2  0  0  0
 12 13  1  0  0  0
 13 14  2  0  0  0
 14 15  1  0  0  0
 15 11  1  0  0  0
  1  4  1  0  0  0
M  END
> <minimizedAffinity>
-5.53966

> <CNNscore>
0.3593113720

> <CNNaffinity>
5.5082960129

> <CNN_VS>
1.9791934490

> <CNNaffinity_variance>
0.4791117311

$$$$
[H]/C(=C(\[H])C([H])([H])C([H])([H])N([H])C(=O)/C([H])=C([H])/C([H])=C([H])/C([H])=C(\[H])c1sc([H])c([H])c1[H])C([H])([H])OC(=O)C([H])([H])C([H])(C([H])([H])[H])C([H])([H])[H]


 27 27  0  0  0  0  0  0  0  0999 V2000
    0.2576   21.2558  -22.2031 N   0  0  0  0  0  0  0  0  0  0  0  0
    0.8959   21.5280  -23.4272 C   0  0  0  0  0  0  0  0  0  0  0  0
    2.1166   21.2560  -23.5457 O   0  0  0  0  0  0  0  0  0  0  0  0
   -0.7609   21.4785  -22.0980 H   0  0  0  0  0  0  0  0  0  0  0  0
    0.1837   22.1079  -24.5391 C   0  0  0  0  0  0  0  0  0  0  0  0
    0.4843   21.9248  -25.7926 C   0  0  0  0  0  0  0  0  0  0  0  0
   -0.2800   22.5430  -26.8817 C   0  0  0  0  0  0  0  0  0  0  0  0
   -1.5508   22.3356  -27.0738 C   0  0  0  0  0  0  0  0  0  0  0  0
   -2.2959   22.9711  -28.1783 C   0  0  0  0  0  0  0  0  0  0  0  0
   -3.5300   23.3859  -28.0075 C   0  0  0  0  0  0  0  0  0  0  0  0
   -4.2684   24.0231  -29.1246 C   0  0  0  0  0  0  0  0  0  0  0  0
   -5.3223   23.5103  -29.8315 C   0  0  0  0  0  0  0  0  0  0  0  0
   -5.8382   24.2723  -30.8094 C   0  0  0  0  0  0  0  0  0  0  0  0
   -5.2646   25.4985  -31.0151 C   0  0  0  0  0  0  0  0  0  0  0  0
   -4.0304   25.5494  -29.8445 S   0  0  0  0  0  0  0  0  0  0  0  0
    0.9279   20.6793  -21.0633 C   0  0  0  0  0  0  0  0  0  0  0  0
    0.1708   19.5208  -20.4416 C   0  0  0  0  0  0  0  0  0  0  0  0
    1.4934   17.4640  -20.0768 C   0  0  0  0  0  0  0  0  0  0  0  0
    0.7526   18.2253  -20.8382 C   0  0  0  0  0  0  0  0  0  0  0  0
    1.8383   17.8277  -18.7008 C   0  0  0  0  0  0  0  0  0  0  0  0
    1.0766   17.0583  -17.7971 O   0  0  0  0  0  0  0  0  0  0  0  0
   -0.1184   17.5308  -17.3114 C   0  0  0  0  0  0  0  0  0  0  0  0
   -0.1452   18.5861  -16.6455 O   0  0  0  0  0  0  0  0  0  0  0  0
   -1.4118   16.8223  -17.5503 C   0  0  0  0  0  0  0  0  0  0  0  0
   -1.3600   14.3213  -17.6060 C   0  0  0  0  0  0  0  0  0  0  0  0
   -1.1680   15.5835  -18.3846 C   0  0  0  0  0  0  0  0  0  0  0  0
   -2.0265   15.5509  -19.6143 C   0  0  0  0  0  0  0  0  0  0  0  0
 25 26  1  0  0  0
 26 27  1  0  0  0
 26 24  1  0  0  0
 24 22  1  0  0  0
 22 23  2  0  0  0
 22 21  1  0  0  0
 21 20  1  0  0  0
 20 18  1  0  0  0
 18 19  2  0  0  0
 19 17  1  0  0  0
 17 16  1  0  0  0
 16  1  1  0  0  0
  1  2  1  0  0  0
  2  3  2  0  0  0
  2  5  1  0  0  0
  5  6  2  0  0  0
  6  7  1  0  0  0
  7  8  2  0  0  0
  8  9  1  0  0  0
  9 10  2  0  0  0
 10 11  1  0  0  0
 11 12  2  0  0  0
 12 13  1  0  0  0
 13 14  2  0  0  0
 14 15  1  0  0  0
 15 11  1  0  0  0
  1  4  1  0  0  0
M  END
> <minimizedAffinity>
-5.60088

> <CNNscore>
0.3568172455

> <CNNaffinity>
5.5110940933

> <CNN_VS>
1.9664534330

> <CNNaffinity_variance>
0.1309311539

$$$$
[H]/C(=C(\[H])C([H])([H])C([H])([H])N([H])C(=O)/C([H])=C([H])/C([H])=C([H])/C([H])=C(\[H])c1sc([H])c([H])c1[H])C([H])([H])OC(=O)C([H])([H])C([H])(C([H])([H])[H])C([H])([H])[H]


 27 27  0  0  0  0  0  0  0  0999 V2000
    0.3005   21.3422  -22.3970 N   0  0  0  0  0  0  0  0  0  0  0  0
    0.9411   21.8083  -23.5599 C   0  0  0  0  0  0  0  0  0  0  0  0
    2.1968   21.8282  -23.5914 O   0  0  0  0  0  0  0  0  0  0  0  0
   -0.7467   21.3211  -22.3647 H   0  0  0  0  0  0  0  0  0  0  0  0
    0.1921   22.2596  -24.7068 C   0  0  0  0  0  0  0  0  0  0  0  0
    0.3574   21.8236  -25.9224 C   0  0  0  0  0  0  0  0  0  0  0  0
   -0.4372   22.3225  -27.0502 C   0  0  0  0  0  0  0  0  0  0  0  0
   -1.7387   22.3530  -27.0528 C   0  0  0  0  0  0  0  0  0  0  0  0
   -2.5138   22.8607  -28.2019 C   0  0  0  0  0  0  0  0  0  0  0  0
   -3.5210   23.6844  -28.0241 C   0  0  0  0  0  0  0  0  0  0  0  0
   -4.2922   24.1878  -29.1864 C   0  0  0  0  0  0  0  0  0  0  0  0
   -5.3020   23.5540  -29.8587 C   0  0  0  0  0  0  0  0  0  0  0  0
   -5.8610   24.2071  -30.8902 C   0  0  0  0  0  0  0  0  0  0  0  0
   -5.3720   25.4526  -31.1808 C   0  0  0  0  0  0  0  0  0  0  0  0
   -4.1544   25.6722  -30.0123 S   0  0  0  0  0  0  0  0  0  0  0  0
    1.0061   20.8833  -21.2255 C   0  0  0  0  0  0  0  0  0  0  0  0
    1.7222   19.5619  -21.4326 C   0  0  0  0  0  0  0  0  0  0  0  0
    3.8996   19.5398  -20.2617 C   0  0  0  0  0  0  0  0  0  0  0  0
    3.1847   19.7242  -21.3402 C   0  0  0  0  0  0  0  0  0  0  0  0
    3.3051   19.1394  -18.9845 C   0  0  0  0  0  0  0  0  0  0  0  0
    3.4656   17.7510  -18.7964 O   0  0  0  0  0  0  0  0  0  0  0  0
    2.4141   16.8915  -19.0032 C   0  0  0  0  0  0  0  0  0  0  0  0
    1.3954   16.9715  -18.2864 O   0  0  0  0  0  0  0  0  0  0  0  0
    2.4379   15.8453  -20.0694 C   0  0  0  0  0  0  0  0  0  0  0  0
    4.7535   15.1255  -20.6860 C   0  0  0  0  0  0  0  0  0  0  0  0
    3.6291   16.0678  -20.9757 C   0  0  0  0  0  0  0  0  0  0  0  0
    3.2608   15.9795  -22.4272 C   0  0  0  0  0  0  0  0  0  0  0  0
 25 26  1  0  0  0
 26 27  1  0  0  0
 26 24  1  0  0  0
 24 22  1  0  0  0
 22 23  2  0  0  0
 22 21  1  0  0  0
 21 20  1  0  0  0
 20 18  1  0  0  0
 18 19  2  0  0  0
 19 17  1  0  0  0
 17 16  1  0  0  0
 16  1  1  0  0  0
  1  2  1  0  0  0
  2  3  2  0  0  0
  2  5  1  0  0  0
  5  6  2  0  0  0
  6  7  1  0  0  0
  7  8  2  0  0  0
  8  9  1  0  0  0
  9 10  2  0  0  0
 10 11  1  0  0  0
 11 12  2  0  0  0
 12 13  1  0  0  0
 13 14  2  0  0  0
 14 15  1  0  0  0
 15 11  1  0  0  0
  1  4  1  0  0  0
M  END
> <minimizedAffinity>
-5.72022

> <CNNscore>
0.3433156610

> <CNNaffinity>
5.5732073784

> <CNN_VS>
1.9133694172

> <CNNaffinity_variance>
0.0675723404

$$$$
[H]/C(=C(\[H])C([H])([H])C([H])([H])N([H])C(=O)/C([H])=C([H])/C([H])=C([H])/C([H])=C(\[H])c1sc([H])c([H])c1[H])C([H])([H])OC(=O)C([H])([H])C([H])(C([H])([H])[H])C([H])([H])[H]


 27 27  0  0  0  0  0  0  0  0999 V2000
    0.0066   21.2011  -22.4980 N   0  0  0  0  0  0  0  0  0  0  0  0
    0.6852   21.6934  -23.6280 C   0  0  0  0  0  0  0  0  0  0  0  0
    1.9414   21.6841  -23.6301 O   0  0  0  0  0  0  0  0  0  0  0  0
   -1.0413   21.2042  -22.4904 H   0  0  0  0  0  0  0  0  0  0  0  0
   -0.0256   22.2040  -24.7743 C   0  0  0  0  0  0  0  0  0  0  0  0
    0.3000   21.9765  -26.0142 C   0  0  0  0  0  0  0  0  0  0  0  0
   -0.4643   22.5250  -27.1400 C   0  0  0  0  0  0  0  0  0  0  0  0
   -1.7647   22.5088  -27.1996 C   0  0  0  0  0  0  0  0  0  0  0  0
   -2.5090   23.0681  -28.3451 C   0  0  0  0  0  0  0  0  0  0  0  0
   -3.6534   23.6871  -28.1675 C   0  0  0  0  0  0  0  0  0  0  0  0
   -4.3920   24.2451  -29.3261 C   0  0  0  0  0  0  0  0  0  0  0  0
   -5.3600   23.6324  -30.0752 C   0  0  0  0  0  0  0  0  0  0  0  0
   -5.8952   24.3361  -31.0858 C   0  0  0  0  0  0  0  0  0  0  0  0
   -5.4258   25.6078  -31.2799 C   0  0  0  0  0  0  0  0  0  0  0  0
   -4.2590   25.7807  -30.0532 S   0  0  0  0  0  0  0  0  0  0  0  0
    0.6733   20.6831  -21.3284 C   0  0  0  0  0  0  0  0  0  0  0  0
   -0.1434   20.8237  -20.0575 C   0  0  0  0  0  0  0  0  0  0  0  0
   -0.9478   23.1301  -19.6748 C   0  0  0  0  0  0  0  0  0  0  0  0
   -0.0543   22.1903  -19.5113 C   0  0  0  0  0  0  0  0  0  0  0  0
   -2.1755   22.9208  -20.4453 C   0  0  0  0  0  0  0  0  0  0  0  0
   -2.0146   23.4314  -21.7500 O   0  0  0  0  0  0  0  0  0  0  0  0
   -3.0879   23.9446  -22.4369 C   0  0  0  0  0  0  0  0  0  0  0  0
   -3.9153   24.6690  -21.8464 O   0  0  0  0  0  0  0  0  0  0  0  0
   -3.3118   23.6676  -23.8878 C   0  0  0  0  0  0  0  0  0  0  0  0
   -5.3163   22.7976  -25.1065 C   0  0  0  0  0  0  0  0  0  0  0  0
   -4.2989   22.5312  -24.0435 C   0  0  0  0  0  0  0  0  0  0  0  0
   -3.6178   21.2228  -24.3163 C   0  0  0  0  0  0  0  0  0  0  0  0
 25 26  1  0  0  0
 26 27  1  0  0  0
 26 24  1  0  0  0
 24 22  1  0  0  0
 22 23  2  0  0  0
 22 21  1  0  0  0
 21 20  1  0  0  0
 20 18  1  0  0  0
 18 19  2  0  0  0
 19 17  1  0  0  0
 17 16  1  0  0  0
 16  1  1  0  0  0
  1  2  1  0  0  0
  2  3  2  0  0  0
  2  5  1  0  0  0
  5  6  2  0  0  0
  6  7  1  0  0  0
  7  8  2  0  0  0
  8  9  1  0  0  0
  9 10  2  0  0  0
 10 11  1  0  0  0
 11 12  2  0  0  0
 12 13  1  0  0  0
 13 14  2  0  0  0
 14 15  1  0  0  0
 15 11  1  0  0  0
  1  4  1  0  0  0
M  END
> <minimizedAffinity>
-6.92699

> <CNNscore>
0.3180116117

> <CNNaffinity>
5.9294552803

> <CNN_VS>
1.8856356144

> <CNNaffinity_variance>
0.7193595171

$$$$
[H]Oc1nc(N([H])c2c([H])c(OC([H])([H])[H])c([H])c([H])c2OC([H])([H])[H])c([H])c2c([H])c([H])c([H])c([H])c12


 24 26  0  0  0  0  0  0  0  0999 V2000
   -3.6689   22.4925  -26.9803 N   0  0  0  0  0  0  0  0  0  0  0  0
   -4.2191   21.5718  -27.1628 H   0  0  0  0  0  0  0  0  0  0  0  0
   -2.4564   22.3243  -26.3174 C   0  0  0  0  0  0  0  0  0  0  0  0
   -2.4583   21.8891  -24.9922 C   0  0  0  0  0  0  0  0  0  0  0  0
   -1.2790   21.7072  -24.2916 C   0  0  0  0  0  0  0  0  0  0  0  0
   -1.2709   21.2768  -22.9798 C   0  0  0  0  0  0  0  0  0  0  0  0
   -0.0719   21.1113  -22.3265 C   0  0  0  0  0  0  0  0  0  0  0  0
    1.1074   21.3657  -22.9553 C   0  0  0  0  0  0  0  0  0  0  0  0
    1.1042   21.7937  -24.2591 C   0  0  0  0  0  0  0  0  0  0  0  0
   -0.0846   21.9613  -24.9175 C   0  0  0  0  0  0  0  0  0  0  0  0
   -0.0993   22.3909  -26.2276 C   0  0  0  0  0  0  0  0  0  0  0  0
    1.1024   22.6493  -26.8656 O   0  0  0  0  0  0  0  0  0  0  0  0
   -1.2739   22.5460  -26.8456 N   0  0  0  0  0  0  0  0  0  0  0  0
    1.4827   21.9078  -27.4343 H   0  0  0  0  0  0  0  0  0  0  0  0
   -4.6960   25.3818  -29.1391 C   0  0  0  0  0  0  0  0  0  0  0  0
   -5.6335   25.9386  -28.3091 C   0  0  0  0  0  0  0  0  0  0  0  0
   -5.9291   25.3939  -27.0780 C   0  0  0  0  0  0  0  0  0  0  0  0
   -5.2705   24.2516  -26.6501 C   0  0  0  0  0  0  0  0  0  0  0  0
   -4.3067   23.6435  -27.4551 C   0  0  0  0  0  0  0  0  0  0  0  0
   -4.0471   24.2287  -28.6800 C   0  0  0  0  0  0  0  0  0  0  0  0
   -5.3099   26.0153  -31.4343 C   0  0  0  0  0  0  0  0  0  0  0  0
   -4.4052   25.9395  -30.3795 O   0  0  0  0  0  0  0  0  0  0  0  0
   -5.5442   23.6812  -25.4212 O   0  0  0  0  0  0  0  0  0  0  0  0
   -5.4418   24.4754  -24.2442 C   0  0  0  0  0  0  0  0  0  0  0  0
 21 22  1  0  0  0
 22 15  1  0  0  0
 15 16  2  0  0  0
 16 17  1  0  0  0
 17 18  2  0  0  0
 18 23  1  0  0  0
 23 24  1  0  0  0
 18 19  1  0  0  0
 19  1  1  0  0  0
  1  3  1  0  0  0
  3  4  2  0  0  0
  4  5  1  0  0  0
  5  6  2  0  0  0
  6  7  1  0  0  0
  7  8  2  0  0  0
  8  9  1  0  0  0
  9 10  2  0  0  0
 10 11  1  0  0  0
 11 12  1  0  0  0
 11 13  2  0  0  0
 19 20  2  0  0  0
 20 15  1  0  0  0
 13  3  1  0  0  0
 10  5  1  0  0  0
  1  2  1  0  0  0
 12 14  1  0  0  0
M  END
> <minimizedAffinity>
-8.15888

> <CNNscore>
0.6151635051

> <CNNaffinity>
6.2209286690

> <CNN_VS>
3.8268883228

> <CNNaffinity_variance>
0.3504583836

$$$$
[H]Oc1nc(N([H])c2c([H])c(OC([H])([H])[H])c([H])c([H])c2OC([H])([H])[H])c([H])c2c([H])c([H])c([H])c([H])c12


 24 26  0  0  0  0  0  0  0  0999 V2000
   -3.6905   22.6353  -27.2732 N   0  0  0  0  0  0  0  0  0  0  0  0
   -3.8694   21.9120  -28.0660 H   0  0  0  0  0  0  0  0  0  0  0  0
   -2.5124   22.4362  -26.5587 C   0  0  0  0  0  0  0  0  0  0  0  0
   -2.5830   22.0142  -25.2312 C   0  0  0  0  0  0  0  0  0  0  0  0
   -1.4401   21.8028  -24.4803 C   0  0  0  0  0  0  0  0  0  0  0  0
   -1.4999   21.3851  -23.1658 C   0  0  0  0  0  0  0  0  0  0  0  0
   -0.3349   21.1891  -22.4615 C   0  0  0  0  0  0  0  0  0  0  0  0
    0.8770   21.4010  -23.0425 C   0  0  0  0  0  0  0  0  0  0  0  0
    0.9412   21.8162  -24.3489 C   0  0  0  0  0  0  0  0  0  0  0  0
   -0.2134   22.0140  -25.0578 C   0  0  0  0  0  0  0  0  0  0  0  0
   -0.1602   22.4310  -26.3709 C   0  0  0  0  0  0  0  0  0  0  0  0
    1.0745   22.6461  -26.9602 O   0  0  0  0  0  0  0  0  0  0  0  0
   -1.3027   22.6162  -27.0389 N   0  0  0  0  0  0  0  0  0  0  0  0
    1.4547   21.8877  -27.5064 H   0  0  0  0  0  0  0  0  0  0  0  0
   -6.6581   24.5827  -26.0630 C   0  0  0  0  0  0  0  0  0  0  0  0
   -6.6365   25.5919  -26.9897 C   0  0  0  0  0  0  0  0  0  0  0  0
   -5.6846   25.6441  -27.9851 C   0  0  0  0  0  0  0  0  0  0  0  0
   -4.7139   24.6577  -28.0674 C   0  0  0  0  0  0  0  0  0  0  0  0
   -4.6892   23.6071  -27.1497 C   0  0  0  0  0  0  0  0  0  0  0  0
   -5.6654   23.6007  -26.1713 C   0  0  0  0  0  0  0  0  0  0  0  0
   -7.3368   24.4687  -23.7023 C   0  0  0  0  0  0  0  0  0  0  0  0
   -7.6231   24.5394  -25.0625 O   0  0  0  0  0  0  0  0  0  0  0  0
   -3.7458   24.6816  -29.0536 O   0  0  0  0  0  0  0  0  0  0  0  0
   -3.7976   25.6883  -30.0589 C   0  0  0  0  0  0  0  0  0  0  0  0
 21 22  1  0  0  0
 22 15  1  0  0  0
 15 16  2  0  0  0
 16 17  1  0  0  0
 17 18  2  0  0  0
 18 23  1  0  0  0
 23 24  1  0  0  0
 18 19  1  0  0  0
 19  1  1  0  0  0
  1  3  1  0  0  0
  3  4  2  0  0  0
  4  5  1  0  0  0
  5  6  2  0  0  0
  6  7  1  0  0  0
  7  8  2  0  0  0
  8  9  1  0  0  0
  9 10  2  0  0  0
 10 11  1  0  0  0
 11 12  1  0  0  0
 11 13  2  0  0  0
 19 20  2  0  0  0
 20 15  1  0  0  0
 13  3  1  0  0  0
 10  5  1  0  0  0
  1  2  1  0  0  0
 12 14  1  0  0  0
M  END
> <minimizedAffinity>
-8.18548

> <CNNscore>
0.4726963639

> <CNNaffinity>
5.8527693748

> <CNN_VS>
2.7665827274

> <CNNaffinity_variance>
0.2456558049

$$$$
[H]Oc1nc(N([H])c2c([H])c(OC([H])([H])[H])c([H])c([H])c2OC([H])([H])[H])c([H])c2c([H])c([H])c([H])c([H])c12


 24 26  0  0  0  0  0  0  0  0999 V2000
   -3.1198   21.8073  -25.4572 N   0  0  0  0  0  0  0  0  0  0  0  0
   -3.9749   21.1461  -25.3329 H   0  0  0  0  0  0  0  0  0  0  0  0
   -3.1684   22.6148  -26.5903 C   0  0  0  0  0  0  0  0  0  0  0  0
   -4.3155   23.3668  -26.8431 C   0  0  0  0  0  0  0  0  0  0  0  0
   -4.4112   24.1837  -27.9558 C   0  0  0  0  0  0  0  0  0  0  0  0
   -5.5424   24.9318  -28.2143 C   0  0  0  0  0  0  0  0  0  0  0  0
   -5.5885   25.7288  -29.3343 C   0  0  0  0  0  0  0  0  0  0  0  0
   -4.5341   25.7907  -30.1919 C   0  0  0  0  0  0  0  0  0  0  0  0
   -3.4076   25.0488  -29.9389 C   0  0  0  0  0  0  0  0  0  0  0  0
   -3.3528   24.2526  -28.8263 C   0  0  0  0  0  0  0  0  0  0  0  0
   -2.2258   23.5032  -28.5627 C   0  0  0  0  0  0  0  0  0  0  0  0
   -1.1537   23.5677  -29.4370 O   0  0  0  0  0  0  0  0  0  0  0  0
   -2.1997   22.7347  -27.4697 N   0  0  0  0  0  0  0  0  0  0  0  0
   -0.4110   24.2071  -29.1975 H   0  0  0  0  0  0  0  0  0  0  0  0
    0.1499   21.6960  -23.6242 C   0  0  0  0  0  0  0  0  0  0  0  0
   -0.3276   21.4606  -22.3615 C   0  0  0  0  0  0  0  0  0  0  0  0
   -1.6764   21.3401  -22.1054 C   0  0  0  0  0  0  0  0  0  0  0  0
   -2.5909   21.4573  -23.1407 C   0  0  0  0  0  0  0  0  0  0  0  0
   -2.1597   21.6969  -24.4458 C   0  0  0  0  0  0  0  0  0  0  0  0
   -0.7974   21.8095  -24.6496 C   0  0  0  0  0  0  0  0  0  0  0  0
    2.4873   21.0084  -23.2924 C   0  0  0  0  0  0  0  0  0  0  0  0
    1.5131   21.8159  -23.8719 O   0  0  0  0  0  0  0  0  0  0  0  0
   -3.9499   21.3414  -22.9167 O   0  0  0  0  0  0  0  0  0  0  0  0
   -4.6116   22.3163  -22.1176 C   0  0  0  0  0  0  0  0  0  0  0  0
 21 22  1  0  0  0
 22 15  1  0  0  0
 15 16  2  0  0  0
 16 17  1  0  0  0
 17 18  2  0  0  0
 18 23  1  0  0  0
 23 24  1  0  0  0
 18 19  1  0  0  0
 19  1  1  0  0  0
  1  3  1  0  0  0
  3  4  2  0  0  0
  4  5  1  0  0  0
  5  6  2  0  0  0
  6  7  1  0  0  0
  7  8  2  0  0  0
  8  9  1  0  0  0
  9 10  2  0  0  0
 10 11  1  0  0  0
 11 12  1  0  0  0
 11 13  2  0  0  0
 19 20  2  0  0  0
 20 15  1  0  0  0
 13  3  1  0  0  0
 10  5  1  0  0  0
  1  2  1  0  0  0
 12 14  1  0  0  0
M  END
> <minimizedAffinity>
-7.26182

> <CNNscore>
0.4329566061

> <CNNaffinity>
5.8619933128

> <CNN_VS>
2.5379886627

> <CNNaffinity_variance>
0.4595281482

$$$$
[H]Oc1nc(N([H])c2c([H])c(OC([H])([H])[H])c([H])c([H])c2OC([H])([H])[H])c([H])c2c([H])c([H])c([H])c([H])c12


 24 26  0  0  0  0  0  0  0  0999 V2000
   -3.8057   22.2660  -25.9924 N   0  0  0  0  0  0  0  0  0  0  0  0
   -4.1438   21.4681  -26.6502 H   0  0  0  0  0  0  0  0  0  0  0  0
   -2.5007   22.1242  -25.5287 C   0  0  0  0  0  0  0  0  0  0  0  0
   -2.2848   21.6703  -24.2277 C   0  0  0  0  0  0  0  0  0  0  0  0
   -1.0065   21.5133  -23.7218 C   0  0  0  0  0  0  0  0  0  0  0  0
   -0.7829   21.0646  -22.4355 C   0  0  0  0  0  0  0  0  0  0  0  0
    0.5071   20.9253  -21.9791 C   0  0  0  0  0  0  0  0  0  0  0  0
    1.5671   21.2235  -22.7782 C   0  0  0  0  0  0  0  0  0  0  0  0
    1.3496   21.6698  -24.0576 C   0  0  0  0  0  0  0  0  0  0  0  0
    0.0688   21.8116  -24.5204 C   0  0  0  0  0  0  0  0  0  0  0  0
   -0.1610   22.2592  -25.8041 C   0  0  0  0  0  0  0  0  0  0  0  0
    0.9195   22.5622  -26.6157 O   0  0  0  0  0  0  0  0  0  0  0  0
   -1.4212   22.3883  -26.2296 N   0  0  0  0  0  0  0  0  0  0  0  0
    1.2266   21.8404  -27.2504 H   0  0  0  0  0  0  0  0  0  0  0  0
   -5.6676   25.5210  -26.0346 C   0  0  0  0  0  0  0  0  0  0  0  0
   -6.7229   25.1672  -25.2351 C   0  0  0  0  0  0  0  0  0  0  0  0
   -6.8326   23.9047  -24.6930 C   0  0  0  0  0  0  0  0  0  0  0  0
   -5.8586   22.9529  -24.9522 C   0  0  0  0  0  0  0  0  0  0  0  0
   -4.7628   23.2594  -25.7595 C   0  0  0  0  0  0  0  0  0  0  0  0
   -4.6995   24.5387  -26.2786 C   0  0  0  0  0  0  0  0  0  0  0  0
   -4.8491   27.8393  -25.9959 C   0  0  0  0  0  0  0  0  0  0  0  0
   -5.5665   26.7977  -26.5766 O   0  0  0  0  0  0  0  0  0  0  0  0
   -5.9396   21.6784  -24.4236 O   0  0  0  0  0  0  0  0  0  0  0  0
   -5.9554   21.5081  -23.0103 C   0  0  0  0  0  0  0  0  0  0  0  0
 21 22  1  0  0  0
 22 15  1  0  0  0
 15 16  2  0  0  0
 16 17  1  0  0  0
 17 18  2  0  0  0
 18 23  1  0  0  0
 23 24  1  0  0  0
 18 19  1  0  0  0
 19  1  1  0  0  0
  1  3  1  0  0  0
  3  4  2  0  0  0
  4  5  1  0  0  0
  5  6  2  0  0  0
  6  7  1  0  0  0
  7  8  2  0  0  0
  8  9  1  0  0  0
  9 10  2  0  0  0
 10 11  1  0  0  0
 11 12  1  0  0  0
 11 13  2  0  0  0
 19 20  2  0  0  0
 20 15  1  0  0  0
 13  3  1  0  0  0
 10  5  1  0  0  0
  1  2  1  0  0  0
 12 14  1  0  0  0
M  END
> <minimizedAffinity>
-6.88661

> <CNNscore>
0.4101768136

> <CNNaffinity>
5.6912946701

> <CNN_VS>
2.3344371319

> <CNNaffinity_variance>
0.1966423094

$$$$
[H]Oc1nc(N([H])c2c([H])c(OC([H])([H])[H])c([H])c([H])c2OC([H])([H])[H])c([H])c2c([H])c([H])c([H])c([H])c12


 24 26  0  0  0  0  0  0  0  0999 V2000
   -3.4151   21.3825  -25.0403 N   0  0  0  0  0  0  0  0  0  0  0  0
   -3.6422   20.4348  -25.5242 H   0  0  0  0  0  0  0  0  0  0  0  0
   -4.5135   22.0258  -24.4766 C   0  0  0  0  0  0  0  0  0  0  0  0
   -4.7400   23.3707  -24.7686 C   0  0  0  0  0  0  0  0  0  0  0  0
   -5.8178   24.0532  -24.2326 C   0  0  0  0  0  0  0  0  0  0  0  0
   -6.0502   25.3842  -24.5158 C   0  0  0  0  0  0  0  0  0  0  0  0
   -7.1358   26.0181  -23.9578 C   0  0  0  0  0  0  0  0  0  0  0  0
   -7.9849   25.3514  -23.1299 C   0  0  0  0  0  0  0  0  0  0  0  0
   -7.7578   24.0282  -22.8455 C   0  0  0  0  0  0  0  0  0  0  0  0
   -6.6796   23.3890  -23.3965 C   0  0  0  0  0  0  0  0  0  0  0  0
   -6.4422   22.0597  -23.1174 C   0  0  0  0  0  0  0  0  0  0  0  0
   -7.3078   21.3830  -22.2743 O   0  0  0  0  0  0  0  0  0  0  0  0
   -5.3823   21.4610  -23.6688 N   0  0  0  0  0  0  0  0  0  0  0  0
   -8.0389   20.8436  -22.7129 H   0  0  0  0  0  0  0  0  0  0  0  0
   -0.0741   22.5690  -26.2621 C   0  0  0  0  0  0  0  0  0  0  0  0
    0.6334   22.4343  -25.0963 C   0  0  0  0  0  0  0  0  0  0  0  0
    0.0458   21.9702  -23.9392 C   0  0  0  0  0  0  0  0  0  0  0  0
   -1.2969   21.6253  -23.9347 C   0  0  0  0  0  0  0  0  0  0  0  0
   -2.0645   21.7428  -25.0939 C   0  0  0  0  0  0  0  0  0  0  0  0
   -1.4281   22.2128  -26.2271 C   0  0  0  0  0  0  0  0  0  0  0  0
   -0.1405   23.2307  -28.6294 C   0  0  0  0  0  0  0  0  0  0  0  0
    0.5286   23.0383  -27.4243 O   0  0  0  0  0  0  0  0  0  0  0  0
   -1.9155   21.1569  -22.7908 O   0  0  0  0  0  0  0  0  0  0  0  0
   -2.0509   22.0199  -21.6667 C   0  0  0  0  0  0  0  0  0  0  0  0
 21 22  1  0  0  0
 22 15  1  0  0  0
 15 16  2  0  0  0
 16 17  1  0  0  0
 17 18  2  0  0  0
 18 23  1  0  0  0
 23 24  1  0  0  0
 18 19  1  0  0  0
 19  1  1  0  0  0
  1  3  1  0  0  0
  3  4  2  0  0  0
  4  5  1  0  0  0
  5  6  2  0  0  0
  6  7  1  0  0  0
  7  8  2  0  0  0
  8  9  1  0  0  0
  9 10  2  0  0  0
 10 11  1  0  0  0
 11 12  1  0  0  0
 11 13  2  0  0  0
 19 20  2  0  0  0
 20 15  1  0  0  0
 13  3  1  0  0  0
 10  5  1  0  0  0
  1  2  1  0  0  0
 12 14  1  0  0  0
M  END
> <minimizedAffinity>
-7.05648

> <CNNscore>
0.3785787523

> <CNNaffinity>
5.5292534828

> <CNN_VS>
2.0932579041

> <CNNaffinity_variance>
0.1696866155

$$$$
[H]Oc1nc(N([H])c2c([H])c(OC([H])([H])[H])c([H])c([H])c2OC([H])([H])[H])c([H])c2c([H])c([H])c([H])c([H])c12


 24 26  0  0  0  0  0  0  0  0999 V2000
   -3.0951   21.9460  -25.6817 N   0  0  0  0  0  0  0  0  0  0  0  0
   -3.6949   21.0398  -25.6284 H   0  0  0  0  0  0  0  0  0  0  0  0
   -3.6571   22.9723  -26.4361 C   0  0  0  0  0  0  0  0  0  0  0  0
   -4.1275   22.6962  -27.7197 C   0  0  0  0  0  0  0  0  0  0  0  0
   -4.6939   23.6827  -28.5076 C   0  0  0  0  0  0  0  0  0  0  0  0
   -5.1623   23.4191  -29.7792 C   0  0  0  0  0  0  0  0  0  0  0  0
   -5.7171   24.4343  -30.5230 C   0  0  0  0  0  0  0  0  0  0  0  0
   -5.8111   25.6960  -30.0228 C   0  0  0  0  0  0  0  0  0  0  0  0
   -5.3468   25.9628  -28.7592 C   0  0  0  0  0  0  0  0  0  0  0  0
   -4.7930   24.9583  -28.0115 C   0  0  0  0  0  0  0  0  0  0  0  0
   -4.3234   25.2154  -26.7409 C   0  0  0  0  0  0  0  0  0  0  0  0
   -4.4202   26.5005  -26.2338 O   0  0  0  0  0  0  0  0  0  0  0  0
   -3.7876   24.2162  -26.0336 N   0  0  0  0  0  0  0  0  0  0  0  0
   -5.2174   26.6980  -25.6478 H   0  0  0  0  0  0  0  0  0  0  0  0
   -0.5775   21.6781  -22.9153 C   0  0  0  0  0  0  0  0  0  0  0  0
    0.5659   21.7440  -23.6677 C   0  0  0  0  0  0  0  0  0  0  0  0
    0.5268   21.8723  -25.0394 C   0  0  0  0  0  0  0  0  0  0  0  0
   -0.6935   21.9380  -25.6941 C   0  0  0  0  0  0  0  0  0  0  0  0
   -1.8887   21.8756  -24.9771 C   0  0  0  0  0  0  0  0  0  0  0  0
   -1.7950   21.7471  -23.6042 C   0  0  0  0  0  0  0  0  0  0  0  0
   -1.6427   21.5905  -20.7008 C   0  0  0  0  0  0  0  0  0  0  0  0
   -0.5269   21.5486  -21.5315 O   0  0  0  0  0  0  0  0  0  0  0  0
   -0.7664   22.0666  -27.0684 O   0  0  0  0  0  0  0  0  0  0  0  0
    0.0989   22.9825  -27.7310 C   0  0  0  0  0  0  0  0  0  0  0  0
 21 22  1  0  0  0
 22 15  1  0  0  0
 15 16  2  0  0  0
 16 17  1  0  0  0
 17 18  2  0  0  0
 18 23  1  0  0  0
 23 24  1  0  0  0
 18 19  1  0  0  0
 19  1  1  0  0  0
  1  3  1  0  0  0
  3  4  2  0  0  0
  4  5  1  0  0  0
  5  6  2  0  0  0
  6  7  1  0  0  0
  7  8  2  0  0  0
  8  9  1  0  0  0
  9 10  2  0  0  0
 10 11  1  0  0  0
 11 12  1  0  0  0
 11 13  2  0  0  0
 19 20  2  0  0  0
 20 15  1  0  0  0
 13  3  1  0  0  0
 10  5  1  0  0  0
  1  2  1  0  0  0
 12 14  1  0  0  0
M  END
> <minimizedAffinity>
-7.71294

> <CNNscore>
0.3564626575

> <CNNaffinity>
5.8150482178

> <CNN_VS>
2.0728476048

> <CNNaffinity_variance>
0.2893740833

$$$$
[H]Oc1nc(N([H])c2c([H])c(OC([H])([H])[H])c([H])c([H])c2OC([H])([H])[H])c([H])c2c([H])c([H])c([H])c([H])c12


 24 26  0  0  0  0  0  0  0  0999 V2000
   -3.8096   21.6836  -25.3862 N   0  0  0  0  0  0  0  0  0  0  0  0
   -4.2922   20.7133  -25.4830 H   0  0  0  0  0  0  0  0  0  0  0  0
   -4.3298   22.6772  -26.2110 C   0  0  0  0  0  0  0  0  0  0  0  0
   -3.5852   23.1130  -27.3068 C   0  0  0  0  0  0  0  0  0  0  0  0
   -4.0598   24.0978  -28.1551 C   0  0  0  0  0  0  0  0  0  0  0  0
   -3.3300   24.5356  -29.2422 C   0  0  0  0  0  0  0  0  0  0  0  0
   -3.8457   25.5173  -30.0558 C   0  0  0  0  0  0  0  0  0  0  0  0
   -5.0661   26.0637  -29.8044 C   0  0  0  0  0  0  0  0  0  0  0  0
   -5.7950   25.6316  -28.7249 C   0  0  0  0  0  0  0  0  0  0  0  0
   -5.2896   24.6547  -27.9095 C   0  0  0  0  0  0  0  0  0  0  0  0
   -6.0136   24.2132  -26.8223 C   0  0  0  0  0  0  0  0  0  0  0  0
   -7.2556   24.7709  -26.5683 O   0  0  0  0  0  0  0  0  0  0  0  0
   -5.4961   23.2587  -26.0433 N   0  0  0  0  0  0  0  0  0  0  0  0
   -8.0581   24.2698  -26.9189 H   0  0  0  0  0  0  0  0  0  0  0  0
   -0.4036   21.8519  -23.8259 C   0  0  0  0  0  0  0  0  0  0  0  0
   -0.7737   21.7674  -22.5092 C   0  0  0  0  0  0  0  0  0  0  0  0
   -2.0947   21.6583  -22.1313 C   0  0  0  0  0  0  0  0  0  0  0  0
   -3.0907   21.6317  -23.0952 C   0  0  0  0  0  0  0  0  0  0  0  0
   -2.7701   21.7145  -24.4505 C   0  0  0  0  0  0  0  0  0  0  0  0
   -1.4315   21.8225  -24.7769 C   0  0  0  0  0  0  0  0  0  0  0  0
    1.9754   21.2843  -23.5721 C   0  0  0  0  0  0  0  0  0  0  0  0
    0.9323   21.9617  -24.1966 O   0  0  0  0  0  0  0  0  0  0  0  0
   -4.4243   21.5231  -22.7487 O   0  0  0  0  0  0  0  0  0  0  0  0
   -4.9624   22.3951  -21.7603 C   0  0  0  0  0  0  0  0  0  0  0  0
 21 22  1  0  0  0
 22 15  1  0  0  0
 15 16  2  0  0  0
 16 17  1  0  0  0
 17 18  2  0  0  0
 18 23  1  0  0  0
 23 24  1  0  0  0
 18 19  1  0  0  0
 19  1  1  0  0  0
  1  3  1  0  0  0
  3  4  2  0  0  0
  4  5  1  0  0  0
  5  6  2  0  0  0
  6  7  1  0  0  0
  7  8  2  0  0  0
  8  9  1  0  0  0
  9 10  2  0  0  0
 10 11  1  0  0  0
 11 12  1  0  0  0
 11 13  2  0  0  0
 19 20  2  0  0  0
 20 15  1  0  0  0
 13  3  1  0  0  0
 10  5  1  0  0  0
  1  2  1  0  0  0
 12 14  1  0  0  0
M  END
> <minimizedAffinity>
-7.39217

> <CNNscore>
0.2286853939

> <CNNaffinity>
5.6852984428

> <CNN_VS>
1.3001446724

> <CNNaffinity_variance>
0.2022391558

$$$$
[H]Oc1nc(N([H])c2c([H])c(OC([H])([H])[H])c([H])c([H])c2OC([H])([H])[H])c([H])c2c([H])c([H])c([H])c([H])c12


 24 26  0  0  0  0  0  0  0  0999 V2000
   -4.6416   22.0909  -24.8189 N   0  0  0  0  0  0  0  0  0  0  0  0
   -3.9479   21.2970  -25.0875 H   0  0  0  0  0  0  0  0  0  0  0  0
   -4.9201   22.9916  -25.8432 C   0  0  0  0  0  0  0  0  0  0  0  0
   -3.9810   23.1838  -26.8564 C   0  0  0  0  0  0  0  0  0  0  0  0
   -4.2122   24.0680  -27.8953 C   0  0  0  0  0  0  0  0  0  0  0  0
   -3.2888   24.2649  -28.9026 C   0  0  0  0  0  0  0  0  0  0  0  0
   -3.5656   25.1553  -29.9136 C   0  0  0  0  0  0  0  0  0  0  0  0
   -4.7379   25.8455  -29.9354 C   0  0  0  0  0  0  0  0  0  0  0  0
   -5.6587   25.6530  -28.9363 C   0  0  0  0  0  0  0  0  0  0  0  0
   -5.3917   24.7686  -27.9257 C   0  0  0  0  0  0  0  0  0  0  0  0
   -6.3099   24.5677  -26.9169 C   0  0  0  0  0  0  0  0  0  0  0  0
   -7.5025   25.2713  -26.9411 O   0  0  0  0  0  0  0  0  0  0  0  0
   -6.0230   23.6986  -25.9431 N   0  0  0  0  0  0  0  0  0  0  0  0
   -8.2991   24.8001  -27.3428 H   0  0  0  0  0  0  0  0  0  0  0  0
   -6.8330   21.6364  -21.8098 C   0  0  0  0  0  0  0  0  0  0  0  0
   -5.9135   21.9297  -20.8369 C   0  0  0  0  0  0  0  0  0  0  0  0
   -4.6130   22.2672  -21.1441 C   0  0  0  0  0  0  0  0  0  0  0  0
   -4.2049   22.3167  -22.4681 C   0  0  0  0  0  0  0  0  0  0  0  0
   -5.0998   22.0276  -23.4986 C   0  0  0  0  0  0  0  0  0  0  0  0
   -6.3917   21.6949  -23.1377 C   0  0  0  0  0  0  0  0  0  0  0  0
   -8.8036   21.7266  -20.3419 C   0  0  0  0  0  0  0  0  0  0  0  0
   -8.1429   21.2970  -21.4890 O   0  0  0  0  0  0  0  0  0  0  0  0
   -2.9080   22.6518  -22.8089 O   0  0  0  0  0  0  0  0  0  0  0  0
   -2.2520   23.7046  -22.1103 C   0  0  0  0  0  0  0  0  0  0  0  0
 21 22  1  0  0  0
 22 15  1  0  0  0
 15 16  2  0  0  0
 16 17  1  0  0  0
 17 18  2  0  0  0
 18 23  1  0  0  0
 23 24  1  0  0  0
 18 19  1  0  0  0
 19  1  1  0  0  0
  1  3  1  0  0  0
  3  4  2  0  0  0
  4  5  1  0  0  0
  5  6  2  0  0  0
  6  7  1  0  0  0
  7  8  2  0  0  0
  8  9  1  0  0  0
  9 10  2  0  0  0
 10 11  1  0  0  0
 11 12  1  0  0  0
 11 13  2  0  0  0
 19 20  2  0  0  0
 20 15  1  0  0  0
 13  3  1  0  0  0
 10  5  1  0  0  0
  1  2  1  0  0  0
 12 14  1  0  0  0
M  END
> <minimizedAffinity>
-7.10092

> <CNNscore>
0.2220193893

> <CNNaffinity>
5.4439973831

> <CNN_VS>
1.2086730003

> <CNNaffinity_variance>
0.1699078977

$$$$
[H]Oc1nc(N([H])c2c([H])c(OC([H])([H])[H])c([H])c([H])c2OC([H])([H])[H])c([H])c2c([H])c([H])c([H])c([H])c12


 24 26  0  0  0  0  0  0  0  0999 V2000
   -0.6881   21.0833  -22.7576 N   0  0  0  0  0  0  0  0  0  0  0  0
   -0.2307   20.0974  -22.7071 H   0  0  0  0  0  0  0  0  0  0  0  0
   -0.8754   21.5725  -24.0475 C   0  0  0  0  0  0  0  0  0  0  0  0
   -2.1712   21.8118  -24.5047 C   0  0  0  0  0  0  0  0  0  0  0  0
   -2.4079   22.2976  -25.7785 C   0  0  0  0  0  0  0  0  0  0  0  0
   -3.6868   22.5376  -26.2399 C   0  0  0  0  0  0  0  0  0  0  0  0
   -3.8698   23.0208  -27.5145 C   0  0  0  0  0  0  0  0  0  0  0  0
   -2.8072   23.2661  -28.3280 C   0  0  0  0  0  0  0  0  0  0  0  0
   -1.5342   23.0290  -27.8737 C   0  0  0  0  0  0  0  0  0  0  0  0
   -1.3425   22.5480  -26.6062 C   0  0  0  0  0  0  0  0  0  0  0  0
   -0.0676   22.3063  -26.1397 C   0  0  0  0  0  0  0  0  0  0  0  0
    1.0124   22.5567  -26.9696 O   0  0  0  0  0  0  0  0  0  0  0  0
    0.0901   21.8368  -24.8986 N   0  0  0  0  0  0  0  0  0  0  0  0
    1.4716   23.4484  -26.8600 H   0  0  0  0  0  0  0  0  0  0  0  0
   -2.5210   22.6383  -19.8791 C   0  0  0  0  0  0  0  0  0  0  0  0
   -1.4775   22.7350  -18.9961 C   0  0  0  0  0  0  0  0  0  0  0  0
   -0.2082   22.3076  -19.3216 C   0  0  0  0  0  0  0  0  0  0  0  0
    0.0394   21.7621  -20.5718 C   0  0  0  0  0  0  0  0  0  0  0  0
   -0.9865   21.6400  -21.5094 C   0  0  0  0  0  0  0  0  0  0  0  0
   -2.2406   22.0833  -21.1341 C   0  0  0  0  0  0  0  0  0  0  0  0
   -4.9003   22.9950  -20.3868 C   0  0  0  0  0  0  0  0  0  0  0  0
   -3.7981   23.0726  -19.5407 O   0  0  0  0  0  0  0  0  0  0  0  0
    1.3009   21.3244  -20.9285 O   0  0  0  0  0  0  0  0  0  0  0  0
    2.2165   20.9293  -19.9124 C   0  0  0  0  0  0  0  0  0  0  0  0
 21 22  1  0  0  0
 22 15  1  0  0  0
 15 16  2  0  0  0
 16 17  1  0  0  0
 17 18  2  0  0  0
 18 23  1  0  0  0
 23 24  1  0  0  0
 18 19  1  0  0  0
 19  1  1  0  0  0
  1  3  1  0  0  0
  3  4  2  0  0  0
  4  5  1  0  0  0
  5  6  2  0  0  0
  6  7  1  0  0  0
  7  8  2  0  0  0
  8  9  1  0  0  0
  9 10  2  0  0  0
 10 11  1  0  0  0
 11 12  1  0  0  0
 11 13  2  0  0  0
 19 20  2  0  0  0
 20 15  1  0  0  0
 13  3  1  0  0  0
 10  5  1  0  0  0
  1  2  1  0  0  0
 12 14  1  0  0  0
M  END
> <minimizedAffinity>
-7.30146

> <CNNscore>
0.1974412203

> <CNNaffinity>
5.2487173080

> <CNN_VS>
1.0363131762

> <CNNaffinity_variance>
0.1686377823

$$$$
[H]Oc1c([H])c2c(c([H])c1O[H])[C@]1([H])c3c(sc(Cl)c3[H])C([H])([H])N([H])[C@@]1([H])C([H])([H])C2([H])[H]


 23 26  0  0  0  0  0  0  0  0999 V2000
   -3.4057   22.9702  -19.1160 O   0  0  0  0  0  0  0  0  0  0  0  0
   -2.2572   22.6028  -18.4402 C   0  0  0  0  0  0  0  0  0  0  0  0
   -2.3961   21.8119  -17.3120 C   0  0  0  0  0  0  0  0  0  0  0  0
   -1.2767   21.4436  -16.6378 C   0  0  0  0  0  0  0  0  0  0  0  0
   -0.0081   21.8584  -17.0776 C   0  0  0  0  0  0  0  0  0  0  0  0
    0.1149   22.6362  -18.1910 C   0  0  0  0  0  0  0  0  0  0  0  0
   -1.0318   23.0234  -18.8963 C   0  0  0  0  0  0  0  0  0  0  0  0
   -0.9671   23.8127  -20.0322 O   0  0  0  0  0  0  0  0  0  0  0  0
    1.0779   21.3585  -16.2108 C   0  0  0  0  0  0  0  0  0  0  0  0
    2.4350   21.8743  -16.5026 C   0  0  0  0  0  0  0  0  0  0  0  0
    2.7716   23.1839  -16.7046 C   0  0  0  0  0  0  0  0  0  0  0  0
    4.0784   23.4546  -16.9545 C   0  0  0  0  0  0  0  0  0  0  0  0
    4.8189   25.0221  -17.2544 Cl  0  0  0  0  0  0  0  0  0  0  0  0
    4.8178   21.9214  -16.9080 S   0  0  0  0  0  0  0  0  0  0  0  0
    3.4539   20.9718  -16.5723 C   0  0  0  0  0  0  0  0  0  0  0  0
    3.2880   19.5009  -16.3541 C   0  0  0  0  0  0  0  0  0  0  0  0
    2.1081   19.3133  -15.5164 N   0  0  0  0  0  0  0  0  0  0  0  0
    0.9905   19.8793  -16.2323 C   0  0  0  0  0  0  0  0  0  0  0  0
   -0.3350   19.4176  -15.6542 C   0  0  0  0  0  0  0  0  0  0  0  0
   -1.3002   20.5712  -15.4254 C   0  0  0  0  0  0  0  0  0  0  0  0
   -4.3225   22.6786  -18.8084 H   0  0  0  0  0  0  0  0  0  0  0  0
   -0.1208   24.1596  -20.4289 H   0  0  0  0  0  0  0  0  0  0  0  0
    2.0163   18.3040  -15.3179 H   0  0  0  0  0  0  0  0  0  0  0  0
  1  2  1  0  0  0
  2  3  2  0  0  0
  3  4  1  0  0  0
  4  5  2  0  0  0
  5  6  1  0  0  0
  6  7  2  0  0  0
  7  8  1  0  0  0
  5  9  1  0  0  0
  9 10  1  0  0  0
 10 11  1  0  0  0
 11 12  2  0  0  0
 12 13  1  0  0  0
 12 14  1  0  0  0
 14 15  1  0  0  0
 15 16  1  0  0  0
 16 17  1  0  0  0
 17 18  1  0  0  0
 18 19  1  0  0  0
 19 20  1  0  0  0
  7  2  1  0  0  0
 18  9  1  0  0  0
 20  4  1  0  0  0
 15 10  2  0  0  0
  1 21  1  0  0  0
  8 22  1  0  0  0
 17 23  1  0  0  0
M  END
> <minimizedAffinity>
-4.74175

> <CNNscore>
0.5845727921

> <CNNaffinity>
4.6503405571

> <CNN_VS>
2.7184624672

> <CNNaffinity_variance>
0.1603949815

$$$$
[H]Oc1c([H])c2c(c([H])c1O[H])[C@]1([H])c3c(sc(Cl)c3[H])C([H])([H])N([H])[C@@]1([H])C([H])([H])C2([H])[H]


 23 26  0  0  0  0  0  0  0  0999 V2000
    1.5428   21.4711  -25.0646 O   0  0  0  0  0  0  0  0  0  0  0  0
    0.2462   21.9464  -25.1243 C   0  0  0  0  0  0  0  0  0  0  0  0
   -0.5213   21.8772  -23.9737 C   0  0  0  0  0  0  0  0  0  0  0  0
   -1.7969   22.3399  -24.0175 C   0  0  0  0  0  0  0  0  0  0  0  0
   -2.3228   22.8754  -25.2056 C   0  0  0  0  0  0  0  0  0  0  0  0
   -1.5560   22.9389  -26.3315 C   0  0  0  0  0  0  0  0  0  0  0  0
   -0.2380   22.4651  -26.3003 C   0  0  0  0  0  0  0  0  0  0  0  0
    0.5857   22.5037  -27.4127 O   0  0  0  0  0  0  0  0  0  0  0  0
   -3.7225   23.3192  -25.0501 C   0  0  0  0  0  0  0  0  0  0  0  0
   -4.4115   23.7502  -26.2881 C   0  0  0  0  0  0  0  0  0  0  0  0
   -4.4258   23.0756  -27.4771 C   0  0  0  0  0  0  0  0  0  0  0  0
   -5.1236   23.6370  -28.4977 C   0  0  0  0  0  0  0  0  0  0  0  0
   -5.3294   23.0214  -30.1330 Cl  0  0  0  0  0  0  0  0  0  0  0  0
   -5.7439   25.0683  -27.8151 S   0  0  0  0  0  0  0  0  0  0  0  0
   -5.1052   24.9228  -26.2512 C   0  0  0  0  0  0  0  0  0  0  0  0
   -5.2278   25.7870  -25.0360 C   0  0  0  0  0  0  0  0  0  0  0  0
   -5.0401   24.9307  -23.8695 N   0  0  0  0  0  0  0  0  0  0  0  0
   -3.7250   24.3481  -23.9835 C   0  0  0  0  0  0  0  0  0  0  0  0
   -3.2632   23.7491  -22.6673 C   0  0  0  0  0  0  0  0  0  0  0  0
   -2.7088   22.3422  -22.8343 C   0  0  0  0  0  0  0  0  0  0  0  0
    1.9307   21.0834  -24.2164 H   0  0  0  0  0  0  0  0  0  0  0  0
    0.3137   22.8627  -28.3021 H   0  0  0  0  0  0  0  0  0  0  0  0
   -5.1748   25.5097  -23.0251 H   0  0  0  0  0  0  0  0  0  0  0  0
  1  2  1  0  0  0
  2  3  2  0  0  0
  3  4  1  0  0  0
  4  5  2  0  0  0
  5  6  1  0  0  0
  6  7  2  0  0  0
  7  8  1  0  0  0
  5  9  1  0  0  0
  9 10  1  0  0  0
 10 11  1  0  0  0
 11 12  2  0  0  0
 12 13  1  0  0  0
 12 14  1  0  0  0
 14 15  1  0  0  0
 15 16  1  0  0  0
 16 17  1  0  0  0
 17 18  1  0  0  0
 18 19  1  0  0  0
 19 20  1  0  0  0
  7  2  1  0  0  0
 18  9  1  0  0  0
 20  4  1  0  0  0
 15 10  2  0  0  0
  1 21  1  0  0  0
  8 22  1  0  0  0
 17 23  1  0  0  0
M  END
> <minimizedAffinity>
-8.69681

> <CNNscore>
0.5348579288

> <CNNaffinity>
6.1473937035

> <CNN_VS>
3.2879822254

> <CNNaffinity_variance>
0.2394032925

$$$$
[H]Oc1c([H])c2c(c([H])c1O[H])[C@]1([H])c3c(sc(Cl)c3[H])C([H])([H])N([H])[C@@]1([H])C([H])([H])C2([H])[H]


 23 26  0  0  0  0  0  0  0  0999 V2000
   -0.6680   23.5804  -29.6577 O   0  0  0  0  0  0  0  0  0  0  0  0
   -0.9598   23.1707  -28.3702 C   0  0  0  0  0  0  0  0  0  0  0  0
    0.0561   22.5876  -27.6315 C   0  0  0  0  0  0  0  0  0  0  0  0
   -0.2160   22.1800  -26.3654 C   0  0  0  0  0  0  0  0  0  0  0  0
   -1.5008   22.3470  -25.8211 C   0  0  0  0  0  0  0  0  0  0  0  0
   -2.4921   22.9238  -26.5588 C   0  0  0  0  0  0  0  0  0  0  0  0
   -2.2251   23.3492  -27.8665 C   0  0  0  0  0  0  0  0  0  0  0  0
   -3.1927   23.9402  -28.6615 O   0  0  0  0  0  0  0  0  0  0  0  0
   -1.5952   21.8382  -24.4381 C   0  0  0  0  0  0  0  0  0  0  0  0
   -2.9493   21.8260  -23.8386 C   0  0  0  0  0  0  0  0  0  0  0  0
   -4.0857   21.3464  -24.4282 C   0  0  0  0  0  0  0  0  0  0  0  0
   -5.2341   21.4204  -23.7077 C   0  0  0  0  0  0  0  0  0  0  0  0
   -6.8442   20.8947  -24.1840 Cl  0  0  0  0  0  0  0  0  0  0  0  0
   -4.7403   22.1397  -22.2455 S   0  0  0  0  0  0  0  0  0  0  0  0
   -3.0891   22.3301  -22.5800 C   0  0  0  0  0  0  0  0  0  0  0  0
   -1.9593   22.8750  -21.7644 C   0  0  0  0  0  0  0  0  0  0  0  0
   -0.7316   22.2493  -22.2445 N   0  0  0  0  0  0  0  0  0  0  0  0
   -0.6020   22.5946  -23.6395 C   0  0  0  0  0  0  0  0  0  0  0  0
    0.8023   22.3314  -24.1521 C   0  0  0  0  0  0  0  0  0  0  0  0
    0.8050   21.5639  -25.4657 C   0  0  0  0  0  0  0  0  0  0  0  0
    0.2516   23.4645  -30.0593 H   0  0  0  0  0  0  0  0  0  0  0  0
   -4.1327   24.1062  -28.3741 H   0  0  0  0  0  0  0  0  0  0  0  0
    0.0468   22.5808  -21.6523 H   0  0  0  0  0  0  0  0  0  0  0  0
  1  2  1  0  0  0
  2  3  2  0  0  0
  3  4  1  0  0  0
  4  5  2  0  0  0
  5  6  1  0  0  0
  6  7  2  0  0  0
  7  8  1  0  0  0
  5  9  1  0  0  0
  9 10  1  0  0  0
 10 11  1  0  0  0
 11 12  2  0  0  0
 12 13  1  0  0  0
 12 14  1  0  0  0
 14 15  1  0  0  0
 15 16  1  0  0  0
 16 17  1  0  0  0
 17 18  1  0  0  0
 18 19  1  0  0  0
 19 20  1  0  0  0
  7  2  1  0  0  0
 18  9  1  0  0  0
 20  4  1  0  0  0
 15 10  2  0  0  0
  1 21  1  0  0  0
  8 22  1  0  0  0
 17 23  1  0  0  0
M  END
> <minimizedAffinity>
-8.08551

> <CNNscore>
0.5034973025

> <CNNaffinity>
5.9884438515

> <CNN_VS>
3.0151653290

> <CNNaffinity_variance>
0.2788682580

$$$$
[H]Oc1c([H])c2c(c([H])c1O[H])[C@]1([H])c3c(sc(Cl)c3[H])C([H])([H])N([H])[C@@]1([H])C([H])([H])C2([H])[H]


 23 26  0  0  0  0  0  0  0  0999 V2000
   -7.6023   21.9535  -14.5974 O   0  0  0  0  0  0  0  0  0  0  0  0
   -7.5070   22.2273  -15.9489 C   0  0  0  0  0  0  0  0  0  0  0  0
   -8.5796   21.8846  -16.7550 C   0  0  0  0  0  0  0  0  0  0  0  0
   -8.5001   22.1472  -18.0847 C   0  0  0  0  0  0  0  0  0  0  0  0
   -7.3533   22.7521  -18.6267 C   0  0  0  0  0  0  0  0  0  0  0  0
   -6.3043   23.0857  -17.8216 C   0  0  0  0  0  0  0  0  0  0  0  0
   -6.3731   22.8206  -16.4477 C   0  0  0  0  0  0  0  0  0  0  0  0
   -5.3386   23.1366  -15.5833 O   0  0  0  0  0  0  0  0  0  0  0  0
   -7.4593   22.9499  -20.0861 C   0  0  0  0  0  0  0  0  0  0  0  0
   -6.2378   23.4344  -20.7691 C   0  0  0  0  0  0  0  0  0  0  0  0
   -4.9755   22.9340  -20.6105 C   0  0  0  0  0  0  0  0  0  0  0  0
   -3.9850   23.5150  -21.3349 C   0  0  0  0  0  0  0  0  0  0  0  0
   -2.2744   23.1037  -21.3509 Cl  0  0  0  0  0  0  0  0  0  0  0  0
   -4.7947   24.7273  -22.2147 S   0  0  0  0  0  0  0  0  0  0  0  0
   -6.3708   24.4701  -21.6449 C   0  0  0  0  0  0  0  0  0  0  0  0
   -7.6727   25.1315  -21.9706 C   0  0  0  0  0  0  0  0  0  0  0  0
   -8.7326   24.1634  -21.7087 N   0  0  0  0  0  0  0  0  0  0  0  0
   -8.6439   23.8111  -20.3122 C   0  0  0  0  0  0  0  0  0  0  0  0
   -9.9046   23.1167  -19.8300 C   0  0  0  0  0  0  0  0  0  0  0  0
   -9.6032   21.8479  -19.0464 C   0  0  0  0  0  0  0  0  0  0  0  0
   -8.4213   21.5182  -14.1973 H   0  0  0  0  0  0  0  0  0  0  0  0
   -4.4839   23.5673  -15.8622 H   0  0  0  0  0  0  0  0  0  0  0  0
   -9.6310   24.5943  -21.9803 H   0  0  0  0  0  0  0  0  0  0  0  0
  1  2  1  0  0  0
  2  3  2  0  0  0
  3  4  1  0  0  0
  4  5  2  0  0  0
  5  6  1  0  0  0
  6  7  2  0  0  0
  7  8  1  0  0  0
  5  9  1  0  0  0
  9 10  1  0  0  0
 10 11  1  0  0  0
 11 12  2  0  0  0
 12 13  1  0  0  0
 12 14  1  0  0  0
 14 15  1  0  0  0
 15 16  1  0  0  0
 16 17  1  0  0  0
 17 18  1  0  0  0
 18 19  1  0  0  0
 19 20  1  0  0  0
  7  2  1  0  0  0
 18  9  1  0  0  0
 20  4  1  0  0  0
 15 10  2  0  0  0
  1 21  1  0  0  0
  8 22  1  0  0  0
 17 23  1  0  0  0
M  END
> <minimizedAffinity>
-4.27454

> <CNNscore>
0.4489486814

> <CNNaffinity>
4.9363927841

> <CNN_VS>
2.2161870003

> <CNNaffinity_variance>
0.6665000319

$$$$
[H]Oc1c([H])c2c(c([H])c1O[H])[C@]1([H])c3c(sc(Cl)c3[H])C([H])([H])N([H])[C@@]1([H])C([H])([H])C2([H])[H]


 23 26  0  0  0  0  0  0  0  0999 V2000
   -5.9279   22.3744  -23.7273 O   0  0  0  0  0  0  0  0  0  0  0  0
   -5.5498   22.4474  -22.3998 C   0  0  0  0  0  0  0  0  0  0  0  0
   -6.3529   23.1756  -21.5381 C   0  0  0  0  0  0  0  0  0  0  0  0
   -5.9939   23.2564  -20.2313 C   0  0  0  0  0  0  0  0  0  0  0  0
   -4.8325   22.6149  -19.7679 C   0  0  0  0  0  0  0  0  0  0  0  0
   -4.0509   21.8999  -20.6268 C   0  0  0  0  0  0  0  0  0  0  0  0
   -4.4097   21.8082  -21.9778 C   0  0  0  0  0  0  0  0  0  0  0  0
   -3.6540   21.0970  -22.8945 O   0  0  0  0  0  0  0  0  0  0  0  0
   -4.6139   22.8244  -18.3227 C   0  0  0  0  0  0  0  0  0  0  0  0
   -3.3329   22.3203  -17.7769 C   0  0  0  0  0  0  0  0  0  0  0  0
   -2.0930   22.5252  -18.3153 C   0  0  0  0  0  0  0  0  0  0  0  0
   -1.0365   21.9821  -17.6579 C   0  0  0  0  0  0  0  0  0  0  0  0
    0.6662   22.0664  -18.0932 Cl  0  0  0  0  0  0  0  0  0  0  0  0
   -1.7549   21.2065  -16.3231 S   0  0  0  0  0  0  0  0  0  0  0  0
   -3.3784   21.5885  -16.6280 C   0  0  0  0  0  0  0  0  0  0  0  0
   -4.6363   21.2814  -15.8784 C   0  0  0  0  0  0  0  0  0  0  0  0
   -5.6043   22.3241  -16.2024 N   0  0  0  0  0  0  0  0  0  0  0  0
   -5.8061   22.2806  -17.6305 C   0  0  0  0  0  0  0  0  0  0  0  0
   -7.0525   23.0431  -18.0421 C   0  0  0  0  0  0  0  0  0  0  0  0
   -6.7948   23.9893  -19.2052 C   0  0  0  0  0  0  0  0  0  0  0  0
   -6.7599   22.8322  -24.0714 H   0  0  0  0  0  0  0  0  0  0  0  0
   -2.8155   20.6058  -22.6722 H   0  0  0  0  0  0  0  0  0  0  0  0
   -6.4581   22.1484  -15.6487 H   0  0  0  0  0  0  0  0  0  0  0  0
  1  2  1  0  0  0
  2  3  2  0  0  0
  3  4  1  0  0  0
  4  5  2  0  0  0
  5  6  1  0  0  0
  6  7  2  0  0  0
  7  8  1  0  0  0
  5  9  1  0  0  0
  9 10  1  0  0  0
 10 11  1  0  0  0
 11 12  2  0  0  0
 12 13  1  0  0  0
 12 14  1  0  0  0
 14 15  1  0  0  0
 15 16  1  0  0  0
 16 17  1  0  0  0
 17 18  1  0  0  0
 18 19  1  0  0  0
 19 20  1  0  0  0
  7  2  1  0  0  0
 18  9  1  0  0  0
 20  4  1  0  0  0
 15 10  2  0  0  0
  1 21  1  0  0  0
  8 22  1  0  0  0
 17 23  1  0  0  0
M  END
> <minimizedAffinity>
-4.44887

> <CNNscore>
0.4265356064

> <CNNaffinity>
4.9615731239

> <CNN_VS>
2.1162877083

> <CNNaffinity_variance>
0.8878753781

$$$$
[H]Oc1c([H])c2c(c([H])c1O[H])[C@]1([H])c3c(sc(Cl)c3[H])C([H])([H])N([H])[C@@]1([H])C([H])([H])C2([H])[H]


 23 26  0  0  0  0  0  0  0  0999 V2000
   -5.2053   26.3550  -29.5768 O   0  0  0  0  0  0  0  0  0  0  0  0
   -4.7449   25.4153  -28.6737 C   0  0  0  0  0  0  0  0  0  0  0  0
   -3.7574   24.5415  -29.0970 C   0  0  0  0  0  0  0  0  0  0  0  0
   -3.2957   23.6128  -28.2209 C   0  0  0  0  0  0  0  0  0  0  0  0
   -3.8115   23.5426  -26.9155 C   0  0  0  0  0  0  0  0  0  0  0  0
   -4.7830   24.4098  -26.5109 C   0  0  0  0  0  0  0  0  0  0  0  0
   -5.2684   25.3732  -27.4046 C   0  0  0  0  0  0  0  0  0  0  0  0
   -6.2541   26.2784  -27.0490 O   0  0  0  0  0  0  0  0  0  0  0  0
   -3.1844   22.4674  -26.1211 C   0  0  0  0  0  0  0  0  0  0  0  0
   -3.7742   22.2137  -24.7866 C   0  0  0  0  0  0  0  0  0  0  0  0
   -5.1055   22.0743  -24.5089 C   0  0  0  0  0  0  0  0  0  0  0  0
   -5.4456   21.8389  -23.2156 C   0  0  0  0  0  0  0  0  0  0  0  0
   -7.0572   21.6169  -22.5455 Cl  0  0  0  0  0  0  0  0  0  0  0  0
   -3.9463   21.8123  -22.4089 S   0  0  0  0  0  0  0  0  0  0  0  0
   -2.9220   22.0995  -23.7291 C   0  0  0  0  0  0  0  0  0  0  0  0
   -1.4329   22.1957  -23.8377 C   0  0  0  0  0  0  0  0  0  0  0  0
   -1.0692   21.8287  -25.2023 N   0  0  0  0  0  0  0  0  0  0  0  0
   -1.7328   22.7626  -26.0794 C   0  0  0  0  0  0  0  0  0  0  0  0
   -1.1443   22.7303  -27.4783 C   0  0  0  0  0  0  0  0  0  0  0  0
   -2.2152   22.6370  -28.5550 C   0  0  0  0  0  0  0  0  0  0  0  0
   -4.8424   26.4139  -30.5176 H   0  0  0  0  0  0  0  0  0  0  0  0
   -6.6861   26.3161  -26.1513 H   0  0  0  0  0  0  0  0  0  0  0  0
   -0.0388   21.8421  -25.2713 H   0  0  0  0  0  0  0  0  0  0  0  0
  1  2  1  0  0  0
  2  3  2  0  0  0
  3  4  1  0  0  0
  4  5  2  0  0  0
  5  6  1  0  0  0
  6  7  2  0  0  0
  7  8  1  0  0  0
  5  9  1  0  0  0
  9 10  1  0  0  0
 10 11  1  0  0  0
 11 12  2  0  0  0
 12 13  1  0  0  0
 12 14  1  0  0  0
 14 15  1  0  0  0
 15 16  1  0  0  0
 16 17  1  0  0  0
 17 18  1  0  0  0
 18 19  1  0  0  0
 19 20  1  0  0  0
  7  2  1  0  0  0
 18  9  1  0  0  0
 20  4  1  0  0  0
 15 10  2  0  0  0
  1 21  1  0  0  0
  8 22  1  0  0  0
 17 23  1  0  0  0
M  END
> <minimizedAffinity>
-8.43621

> <CNNscore>
0.4241050184

> <CNNaffinity>
6.2638788223

> <CNN_VS>
2.6565425396

> <CNNaffinity_variance>
0.2255372554

$$$$
[H]Oc1c([H])c2c(c([H])c1O[H])[C@]1([H])c3c(sc(Cl)c3[H])C([H])([H])N([H])[C@@]1([H])C([H])([H])C2([H])[H]


 23 26  0  0  0  0  0  0  0  0999 V2000
   -7.1068   23.1328  -16.2475 O   0  0  0  0  0  0  0  0  0  0  0  0
   -6.9905   23.3174  -17.6124 C   0  0  0  0  0  0  0  0  0  0  0  0
   -8.0788   22.9907  -18.4040 C   0  0  0  0  0  0  0  0  0  0  0  0
   -7.9789   23.1664  -19.7465 C   0  0  0  0  0  0  0  0  0  0  0  0
   -6.7959   23.6679  -20.3159 C   0  0  0  0  0  0  0  0  0  0  0  0
   -5.7318   23.9869  -19.5250 C   0  0  0  0  0  0  0  0  0  0  0  0
   -5.8213   23.8106  -18.1381 C   0  0  0  0  0  0  0  0  0  0  0  0
   -4.7728   24.1167  -17.2870 O   0  0  0  0  0  0  0  0  0  0  0  0
   -6.8847   23.7822  -21.7854 C   0  0  0  0  0  0  0  0  0  0  0  0
   -5.6340   24.1504  -22.4877 C   0  0  0  0  0  0  0  0  0  0  0  0
   -4.4045   23.5864  -22.2899 C   0  0  0  0  0  0  0  0  0  0  0  0
   -3.3783   24.0621  -23.0411 C   0  0  0  0  0  0  0  0  0  0  0  0
   -1.6954   23.5495  -23.0197 Cl  0  0  0  0  0  0  0  0  0  0  0  0
   -4.1109   25.2645  -23.9987 S   0  0  0  0  0  0  0  0  0  0  0  0
   -5.7015   25.1369  -23.4257 C   0  0  0  0  0  0  0  0  0  0  0  0
   -6.9604   25.8535  -23.8003 C   0  0  0  0  0  0  0  0  0  0  0  0
   -8.0773   24.9680  -23.4878 N   0  0  0  0  0  0  0  0  0  0  0  0
   -8.0149   24.6970  -22.0719 C   0  0  0  0  0  0  0  0  0  0  0  0
   -9.3166   24.1096  -21.5575 C   0  0  0  0  0  0  0  0  0  0  0  0
   -9.0945   22.8753  -20.6962 C   0  0  0  0  0  0  0  0  0  0  0  0
   -7.9518   22.7723  -15.8276 H   0  0  0  0  0  0  0  0  0  0  0  0
   -3.8928   24.4778  -17.5854 H   0  0  0  0  0  0  0  0  0  0  0  0
   -8.9473   25.4343  -23.7915 H   0  0  0  0  0  0  0  0  0  0  0  0
  1  2  1  0  0  0
  2  3  2  0  0  0
  3  4  1  0  0  0
  4  5  2  0  0  0
  5  6  1  0  0  0
  6  7  2  0  0  0
  7  8  1  0  0  0
  5  9  1  0  0  0
  9 10  1  0  0  0
 10 11  1  0  0  0
 11 12  2  0  0  0
 12 13  1  0  0  0
 12 14  1  0  0  0
 14 15  1  0  0  0
 15 16  1  0  0  0
 16 17  1  0  0  0
 17 18  1  0  0  0
 18 19  1  0  0  0
 19 20  1  0  0  0
  7  2  1  0  0  0
 18  9  1  0  0  0
 20  4  1  0  0  0
 15 10  2  0  0  0
  1 21  1  0  0  0
  8 22  1  0  0  0
 17 23  1  0  0  0
M  END
> <minimizedAffinity>
-5.49445

> <CNNscore>
0.3747978806

> <CNNaffinity>
5.1957850456

> <CNN_VS>
1.9473692179

> <CNNaffinity_variance>
0.6178568602

$$$$
[H]Oc1c([H])c2c(c([H])c1O[H])[C@]1([H])c3c(sc(Cl)c3[H])C([H])([H])N([H])[C@@]1([H])C([H])([H])C2([H])[H]


 23 26  0  0  0  0  0  0  0  0999 V2000
   -1.4089   14.9915  -19.8910 O   0  0  0  0  0  0  0  0  0  0  0  0
   -0.4236   15.9609  -19.8752 C   0  0  0  0  0  0  0  0  0  0  0  0
    0.8177   15.6292  -20.3918 C   0  0  0  0  0  0  0  0  0  0  0  0
    1.7954   16.5712  -20.3827 C   0  0  0  0  0  0  0  0  0  0  0  0
    1.5495   17.8519  -19.8591 C   0  0  0  0  0  0  0  0  0  0  0  0
    0.3221   18.1660  -19.3544 C   0  0  0  0  0  0  0  0  0  0  0  0
   -0.6959   17.2037  -19.3577 C   0  0  0  0  0  0  0  0  0  0  0  0
   -1.9602   17.4664  -18.8580 O   0  0  0  0  0  0  0  0  0  0  0  0
    2.7359   18.7276  -19.9366 C   0  0  0  0  0  0  0  0  0  0  0  0
    2.6208   20.0428  -19.2658 C   0  0  0  0  0  0  0  0  0  0  0  0
    2.1501   20.2623  -18.0012 C   0  0  0  0  0  0  0  0  0  0  0  0
    2.1295   21.5476  -17.5639 C   0  0  0  0  0  0  0  0  0  0  0  0
    1.5859   22.1490  -16.0024 Cl  0  0  0  0  0  0  0  0  0  0  0  0
    2.7516   22.4262  -18.8831 S   0  0  0  0  0  0  0  0  0  0  0  0
    3.0242   21.1446  -19.9592 C   0  0  0  0  0  0  0  0  0  0  0  0
    3.5913   21.1037  -21.3432 C   0  0  0  0  0  0  0  0  0  0  0  0
    4.1680   19.7779  -21.5405 N   0  0  0  0  0  0  0  0  0  0  0  0
    3.0980   18.8249  -21.3703 C   0  0  0  0  0  0  0  0  0  0  0  0
    3.4737   17.4594  -21.9166 C   0  0  0  0  0  0  0  0  0  0  0  0
    3.1630   16.3381  -20.9365 C   0  0  0  0  0  0  0  0  0  0  0  0
   -1.2429   14.0676  -20.2639 H   0  0  0  0  0  0  0  0  0  0  0  0
   -2.2402   18.3391  -18.4658 H   0  0  0  0  0  0  0  0  0  0  0  0
    4.6076   19.7583  -22.4748 H   0  0  0  0  0  0  0  0  0  0  0  0
  1  2  1  0  0  0
  2  3  2  0  0  0
  3  4  1  0  0  0
  4  5  2  0  0  0
  5  6  1  0  0  0
  6  7  2  0  0  0
  7  8  1  0  0  0
  5  9  1  0  0  0
  9 10  1  0  0  0
 10 11  1  0  0  0
 11 12  2  0  0  0
 12 13  1  0  0  0
 12 14  1  0  0  0
 14 15  1  0  0  0
 15 16  1  0  0  0
 16 17  1  0  0  0
 17 18  1  0  0  0
 18 19  1  0  0  0
 19 20  1  0  0  0
  7  2  1  0  0  0
 18  9  1  0  0  0
 20  4  1  0  0  0
 15 10  2  0  0  0
  1 21  1  0  0  0
  8 22  1  0  0  0
 17 23  1  0  0  0
M  END
> <minimizedAffinity>
-4.29287

> <CNNscore>
0.3185063004

> <CNNaffinity>
4.3608412743

> <CNN_VS>
1.3889554739

> <CNNaffinity_variance>
0.0824619830

$$$$
[H]Oc1c([H])c2c(c([H])c1O[H])[C@]1([H])c3c(sc(Cl)c3[H])C([H])([H])N([H])[C@@]1([H])C([H])([H])C2([H])[H]


 23 26  0  0  0  0  0  0  0  0999 V2000
   -5.5806   21.1953  -16.9173 O   0  0  0  0  0  0  0  0  0  0  0  0
   -6.1924   21.7086  -18.0456 C   0  0  0  0  0  0  0  0  0  0  0  0
   -7.5765   21.7079  -18.0873 C   0  0  0  0  0  0  0  0  0  0  0  0
   -8.1913   22.2086  -19.1894 C   0  0  0  0  0  0  0  0  0  0  0  0
   -7.4363   22.7142  -20.2616 C   0  0  0  0  0  0  0  0  0  0  0  0
   -6.0737   22.7101  -20.2073 C   0  0  0  0  0  0  0  0  0  0  0  0
   -5.4265   22.1966  -19.0761 C   0  0  0  0  0  0  0  0  0  0  0  0
   -4.0465   22.1663  -18.9666 O   0  0  0  0  0  0  0  0  0  0  0  0
   -8.2865   23.2075  -21.3635 C   0  0  0  0  0  0  0  0  0  0  0  0
   -7.5807   23.6120  -22.6010 C   0  0  0  0  0  0  0  0  0  0  0  0
   -6.6141   22.8929  -23.2473 C   0  0  0  0  0  0  0  0  0  0  0  0
   -6.0908   23.4362  -24.3763 C   0  0  0  0  0  0  0  0  0  0  0  0
   -4.8445   22.7648  -25.4211 Cl  0  0  0  0  0  0  0  0  0  0  0  0
   -6.9266   24.9115  -24.5317 S   0  0  0  0  0  0  0  0  0  0  0  0
   -7.9210   24.8064  -23.1624 C   0  0  0  0  0  0  0  0  0  0  0  0
   -8.9727   25.7202  -22.6172 C   0  0  0  0  0  0  0  0  0  0  0  0
   -9.9040   24.9040  -21.8454 N   0  0  0  0  0  0  0  0  0  0  0  0
   -9.1407   24.2763  -20.7941 C   0  0  0  0  0  0  0  0  0  0  0  0
  -10.0411   23.7142  -19.7089 C   0  0  0  0  0  0  0  0  0  0  0  0
   -9.6759   22.2852  -19.3360 C   0  0  0  0  0  0  0  0  0  0  0  0
   -6.1132   20.8286  -16.1414 H   0  0  0  0  0  0  0  0  0  0  0  0
   -3.4190   22.4992  -19.6661 H   0  0  0  0  0  0  0  0  0  0  0  0
  -10.6622   25.5191  -21.5086 H   0  0  0  0  0  0  0  0  0  0  0  0
  1  2  1  0  0  0
  2  3  2  0  0  0
  3  4  1  0  0  0
  4  5  2  0  0  0
  5  6  1  0  0  0
  6  7  2  0  0  0
  7  8  1  0  0  0
  5  9  1  0  0  0
  9 10  1  0  0  0
 10 11  1  0  0  0
 11 12  2  0  0  0
 12 13  1  0  0  0
 12 14  1  0  0  0
 14 15  1  0  0  0
 15 16  1  0  0  0
 16 17  1  0  0  0
 17 18  1  0  0  0
 18 19  1  0  0  0
 19 20  1  0  0  0
  7  2  1  0  0  0
 18  9  1  0  0  0
 20  4  1  0  0  0
 15 10  2  0  0  0
  1 21  1  0  0  0
  8 22  1  0  0  0
 17 23  1  0  0  0
M  END
> <minimizedAffinity>
-5.17560

> <CNNscore>
0.3168457448

> <CNNaffinity>
5.0929021835

> <CNN_VS>
1.6136643887

> <CNNaffinity_variance>
0.4633014798

$$$$
[H]c1c(-c2c([H])c([H])c([H])c(C([H])([H])n3nc(-c4c([H])c(F)c([H])c(F)c4[H])c([H])c([H])c3=O)c2[H])nnc(C([H])([H])[H])c1[H]


 29 32  0  0  0  0  0  0  0  0999 V2000
   -1.6716   22.8632  -27.5967 N   0  0  0  0  0  0  0  0  0  0  0  0
   -2.4095   22.6191  -26.5175 N   0  0  0  0  0  0  0  0  0  0  0  0
   -1.9078   22.2582  -25.3201 C   0  0  0  0  0  0  0  0  0  0  0  0
   -0.5385   22.1316  -25.1994 C   0  0  0  0  0  0  0  0  0  0  0  0
    0.2635   22.3766  -26.2991 C   0  0  0  0  0  0  0  0  0  0  0  0
   -0.3383   22.7453  -27.4998 C   0  0  0  0  0  0  0  0  0  0  0  0
    0.3268   22.9784  -28.5240 O   0  0  0  0  0  0  0  0  0  0  0  0
   -2.8168   22.0127  -24.1925 C   0  0  0  0  0  0  0  0  0  0  0  0
   -2.4507   22.0652  -22.8774 C   0  0  0  0  0  0  0  0  0  0  0  0
   -3.3642   21.8214  -21.8526 C   0  0  0  0  0  0  0  0  0  0  0  0
   -2.9807   21.8788  -20.5640 F   0  0  0  0  0  0  0  0  0  0  0  0
   -4.6758   21.5170  -22.1319 C   0  0  0  0  0  0  0  0  0  0  0  0
   -5.0544   21.4617  -23.4552 C   0  0  0  0  0  0  0  0  0  0  0  0
   -6.3439   21.1625  -23.7338 F   0  0  0  0  0  0  0  0  0  0  0  0
   -4.1400   21.7052  -24.4581 C   0  0  0  0  0  0  0  0  0  0  0  0
   -2.3599   23.2427  -28.7908 C   0  0  0  0  0  0  0  0  0  0  0  0
   -5.2636   25.0728  -27.2766 C   0  0  0  0  0  0  0  0  0  0  0  0
   -5.5839   25.8726  -28.3611 C   0  0  0  0  0  0  0  0  0  0  0  0
   -4.9000   25.8357  -29.5480 C   0  0  0  0  0  0  0  0  0  0  0  0
   -3.8437   24.9721  -29.6902 C   0  0  0  0  0  0  0  0  0  0  0  0
   -3.4823   24.1590  -28.6529 C   0  0  0  0  0  0  0  0  0  0  0  0
   -4.1925   24.2246  -27.4780 C   0  0  0  0  0  0  0  0  0  0  0  0
   -8.1456   25.8013  -22.4139 C   0  0  0  0  0  0  0  0  0  0  0  0
   -7.4034   25.5542  -23.7013 C   0  0  0  0  0  0  0  0  0  0  0  0
   -7.4616   24.3318  -24.3321 C   0  0  0  0  0  0  0  0  0  0  0  0
   -6.7650   24.1248  -25.5256 C   0  0  0  0  0  0  0  0  0  0  0  0
   -6.0293   25.1613  -26.0464 C   0  0  0  0  0  0  0  0  0  0  0  0
   -6.0196   26.3209  -25.3781 N   0  0  0  0  0  0  0  0  0  0  0  0
   -6.6744   26.5215  -24.2525 N   0  0  0  0  0  0  0  0  0  0  0  0
 23 24  1  0  0  0
 24 25  2  0  0  0
 25 26  1  0  0  0
 26 27  2  0  0  0
 27 17  1  0  0  0
 17 18  2  0  0  0
 18 19  1  0  0  0
 19 20  2  0  0  0
 20 21  1  0  0  0
 21 16  1  0  0  0
 16  1  1  0  0  0
  1  2  1  0  0  0
  2  3  2  0  0  0
  3  8  1  0  0  0
  8  9  2  0  0  0
  9 10  1  0  0  0
 10 11  1  0  0  0
 10 12  2  0  0  0
 12 13  1  0  0  0
 13 14  1  0  0  0
 13 15  2  0  0  0
  3  4  1  0  0  0
  4  5  2  0  0  0
  5  6  1  0  0  0
  6  7  2  0  0  0
 21 22  2  0  0  0
 27 28  1  0  0  0
 28 29  2  0  0  0
 29 24  1  0  0  0
 22 17  1  0  0  0
  6  1  1  0  0  0
 15  8  1  0  0  0
M  END
> <minimizedAffinity>
-10.04544

> <CNNscore>
0.8154801726

> <CNNaffinity>
7.3280205727

> <CNN_VS>
5.9758553505

> <CNNaffinity_variance>
0.1578587145

$$$$
[H]c1c(-c2c([H])c([H])c([H])c(C([H])([H])n3nc(-c4c([H])c(F)c([H])c(F)c4[H])c([H])c([H])c3=O)c2[H])nnc(C([H])([H])[H])c1[H]


 29 32  0  0  0  0  0  0  0  0999 V2000
   -1.3428   22.5787  -27.0074 N   0  0  0  0  0  0  0  0  0  0  0  0
   -2.0962   22.4395  -25.9203 N   0  0  0  0  0  0  0  0  0  0  0  0
   -1.6280   22.0598  -24.7151 C   0  0  0  0  0  0  0  0  0  0  0  0
   -0.2783   21.7964  -24.5947 C   0  0  0  0  0  0  0  0  0  0  0  0
    0.5389   21.9295  -25.7024 C   0  0  0  0  0  0  0  0  0  0  0  0
   -0.0281   22.3271  -26.9108 C   0  0  0  0  0  0  0  0  0  0  0  0
    0.6521   22.4643  -27.9424 O   0  0  0  0  0  0  0  0  0  0  0  0
   -2.5514   21.9380  -23.5792 C   0  0  0  0  0  0  0  0  0  0  0  0
   -3.9135   21.9408  -23.6850 C   0  0  0  0  0  0  0  0  0  0  0  0
   -4.7353   21.8213  -22.5650 C   0  0  0  0  0  0  0  0  0  0  0  0
   -6.0748   21.8265  -22.6936 F   0  0  0  0  0  0  0  0  0  0  0  0
   -4.1994   21.6954  -21.3048 C   0  0  0  0  0  0  0  0  0  0  0  0
   -2.8269   21.6916  -21.1881 C   0  0  0  0  0  0  0  0  0  0  0  0
   -2.2963   21.5679  -19.9499 F   0  0  0  0  0  0  0  0  0  0  0  0
   -2.0267   21.8106  -22.3047 C   0  0  0  0  0  0  0  0  0  0  0  0
   -1.9948   22.9961  -28.2092 C   0  0  0  0  0  0  0  0  0  0  0  0
   -5.3666   23.9294  -26.8552 C   0  0  0  0  0  0  0  0  0  0  0  0
   -6.1144   23.6876  -27.9958 C   0  0  0  0  0  0  0  0  0  0  0  0
   -5.5682   23.2374  -29.1691 C   0  0  0  0  0  0  0  0  0  0  0  0
   -4.2174   23.0087  -29.2393 C   0  0  0  0  0  0  0  0  0  0  0  0
   -3.4298   23.2303  -28.1446 C   0  0  0  0  0  0  0  0  0  0  0  0
   -4.0141   23.6818  -26.9854 C   0  0  0  0  0  0  0  0  0  0  0  0
   -7.5200   25.9097  -21.9640 C   0  0  0  0  0  0  0  0  0  0  0  0
   -7.0045   25.3717  -23.2733 C   0  0  0  0  0  0  0  0  0  0  0  0
   -7.8606   24.8305  -24.2060 C   0  0  0  0  0  0  0  0  0  0  0  0
   -7.3603   24.3374  -25.4139 C   0  0  0  0  0  0  0  0  0  0  0  0
   -6.0078   24.4061  -25.6432 C   0  0  0  0  0  0  0  0  0  0  0  0
   -5.2373   24.9454  -24.6909 N   0  0  0  0  0  0  0  0  0  0  0  0
   -5.7034   25.4118  -23.5503 N   0  0  0  0  0  0  0  0  0  0  0  0
 23 24  1  0  0  0
 24 25  2  0  0  0
 25 26  1  0  0  0
 26 27  2  0  0  0
 27 17  1  0  0  0
 17 18  2  0  0  0
 18 19  1  0  0  0
 19 20  2  0  0  0
 20 21  1  0  0  0
 21 16  1  0  0  0
 16  1  1  0  0  0
  1  2  1  0  0  0
  2  3  2  0  0  0
  3  8  1  0  0  0
  8  9  2  0  0  0
  9 10  1  0  0  0
 10 11  1  0  0  0
 10 12  2  0  0  0
 12 13  1  0  0  0
 13 14  1  0  0  0
 13 15  2  0  0  0
  3  4  1  0  0  0
  4  5  2  0  0  0
  5  6  1  0  0  0
  6  7  2  0  0  0
 21 22  2  0  0  0
 27 28  1  0  0  0
 28 29  2  0  0  0
 29 24  1  0  0  0
 22 17  1  0  0  0
  6  1  1  0  0  0
 15  8  1  0  0  0
M  END
> <minimizedAffinity>
-9.76833

> <CNNscore>
0.6801376343

> <CNNaffinity>
7.1352448463

> <CNN_VS>
4.8529486656

> <CNNaffinity_variance>
0.2270924300

$$$$
[H]c1c(-c2c([H])c([H])c([H])c(C([H])([H])n3nc(-c4c([H])c(F)c([H])c(F)c4[H])c([H])c([H])c3=O)c2[H])nnc(C([H])([H])[H])c1[H]


 29 32  0  0  0  0  0  0  0  0999 V2000
   -0.6466   22.4380  -26.2155 N   0  0  0  0  0  0  0  0  0  0  0  0
   -1.9174   22.6667  -25.8971 N   0  0  0  0  0  0  0  0  0  0  0  0
   -2.8564   23.0812  -26.7702 C   0  0  0  0  0  0  0  0  0  0  0  0
   -2.4806   23.2837  -28.0829 C   0  0  0  0  0  0  0  0  0  0  0  0
   -1.1677   23.0569  -28.4539 C   0  0  0  0  0  0  0  0  0  0  0  0
   -0.2613   22.6293  -27.4867 C   0  0  0  0  0  0  0  0  0  0  0  0
    0.9322   22.4088  -27.7562 O   0  0  0  0  0  0  0  0  0  0  0  0
   -4.2335   23.3033  -26.3094 C   0  0  0  0  0  0  0  0  0  0  0  0
   -5.0419   24.3149  -26.7448 C   0  0  0  0  0  0  0  0  0  0  0  0
   -6.3423   24.4706  -26.2664 C   0  0  0  0  0  0  0  0  0  0  0  0
   -7.1206   25.4748  -26.7101 F   0  0  0  0  0  0  0  0  0  0  0  0
   -6.8606   23.6048  -25.3322 C   0  0  0  0  0  0  0  0  0  0  0  0
   -6.0528   22.5817  -24.8870 C   0  0  0  0  0  0  0  0  0  0  0  0
   -6.5594   21.7280  -23.9680 F   0  0  0  0  0  0  0  0  0  0  0  0
   -4.7688   22.4400  -25.3692 C   0  0  0  0  0  0  0  0  0  0  0  0
    0.2227   21.9950  -25.1706 C   0  0  0  0  0  0  0  0  0  0  0  0
   -2.0045   22.7636  -22.2513 C   0  0  0  0  0  0  0  0  0  0  0  0
   -1.3096   22.0631  -21.2792 C   0  0  0  0  0  0  0  0  0  0  0  0
   -0.1602   21.3630  -21.5370 C   0  0  0  0  0  0  0  0  0  0  0  0
    0.3439   21.3417  -22.8126 C   0  0  0  0  0  0  0  0  0  0  0  0
   -0.3002   22.0151  -23.8125 C   0  0  0  0  0  0  0  0  0  0  0  0
   -1.4504   22.7061  -23.5151 C   0  0  0  0  0  0  0  0  0  0  0  0
   -6.7789   25.3863  -20.5751 C   0  0  0  0  0  0  0  0  0  0  0  0
   -5.5177   24.7251  -21.0666 C   0  0  0  0  0  0  0  0  0  0  0  0
   -4.9563   25.0738  -22.2744 C   0  0  0  0  0  0  0  0  0  0  0  0
   -3.7859   24.4472  -22.7105 C   0  0  0  0  0  0  0  0  0  0  0  0
   -3.2173   23.4856  -21.9115 C   0  0  0  0  0  0  0  0  0  0  0  0
   -3.8190   23.1989  -20.7508 N   0  0  0  0  0  0  0  0  0  0  0  0
   -4.9224   23.7864  -20.3347 N   0  0  0  0  0  0  0  0  0  0  0  0
 23 24  1  0  0  0
 24 25  2  0  0  0
 25 26  1  0  0  0
 26 27  2  0  0  0
 27 17  1  0  0  0
 17 18  2  0  0  0
 18 19  1  0  0  0
 19 20  2  0  0  0
 20 21  1  0  0  0
 21 16  1  0  0  0
 16  1  1  0  0  0
  1  2  1  0  0  0
  2  3  2  0  0  0
  3  8  1  0  0  0
  8  9  2  0  0  0
  9 10  1  0  0  0
 10 11  1  0  0  0
 10 12  2  0  0  0
 12 13  1  0  0  0
 13 14  1  0  0  0
 13 15  2  0  0  0
  3  4  1  0  0  0
  4  5  2  0  0  0
  5  6  1  0  0  0
  6  7  2  0  0  0
 21 22  2  0  0  0
 27 28  1  0  0  0
 28 29  2  0  0  0
 29 24  1  0  0  0
 22 17  1  0  0  0
  6  1  1  0  0  0
 15  8  1  0  0  0
M  END
> <minimizedAffinity>
-9.48840

> <CNNscore>
0.6594985723

> <CNNaffinity>
7.0760488510

> <CNN_VS>
4.6666440964

> <CNNaffinity_variance>
0.1896416694

$$$$
[H]c1c(-c2c([H])c([H])c([H])c(C([H])([H])n3nc(-c4c([H])c(F)c([H])c(F)c4[H])c([H])c([H])c3=O)c2[H])nnc(C([H])([H])[H])c1[H]


 29 32  0  0  0  0  0  0  0  0999 V2000
   -1.4080   22.6278  -27.0429 N   0  0  0  0  0  0  0  0  0  0  0  0
   -1.8532   22.5664  -25.7912 N   0  0  0  0  0  0  0  0  0  0  0  0
   -1.0589   22.4943  -24.7051 C   0  0  0  0  0  0  0  0  0  0  0  0
    0.3079   22.4829  -24.8979 C   0  0  0  0  0  0  0  0  0  0  0  0
    0.8106   22.5451  -26.1847 C   0  0  0  0  0  0  0  0  0  0  0  0
   -0.0822   22.6177  -27.2513 C   0  0  0  0  0  0  0  0  0  0  0  0
    0.3061   22.6752  -28.4309 O   0  0  0  0  0  0  0  0  0  0  0  0
   -1.6588   22.4307  -23.3657 C   0  0  0  0  0  0  0  0  0  0  0  0
   -1.2351   21.6014  -22.3662 C   0  0  0  0  0  0  0  0  0  0  0  0
   -1.8492   21.5898  -21.1145 C   0  0  0  0  0  0  0  0  0  0  0  0
   -1.4145   20.7641  -20.1449 F   0  0  0  0  0  0  0  0  0  0  0  0
   -2.9112   22.4193  -20.8400 C   0  0  0  0  0  0  0  0  0  0  0  0
   -3.3456   23.2591  -21.8417 C   0  0  0  0  0  0  0  0  0  0  0  0
   -4.3901   24.0765  -21.5752 F   0  0  0  0  0  0  0  0  0  0  0  0
   -2.7285   23.2597  -23.0747 C   0  0  0  0  0  0  0  0  0  0  0  0
   -2.3843   22.7068  -28.0841 C   0  0  0  0  0  0  0  0  0  0  0  0
   -5.4939   23.3381  -26.0829 C   0  0  0  0  0  0  0  0  0  0  0  0
   -6.1823   24.0958  -27.0159 C   0  0  0  0  0  0  0  0  0  0  0  0
   -5.6782   24.4012  -28.2530 C   0  0  0  0  0  0  0  0  0  0  0  0
   -4.4334   23.9444  -28.6047 C   0  0  0  0  0  0  0  0  0  0  0  0
   -3.7082   23.1922  -27.7237 C   0  0  0  0  0  0  0  0  0  0  0  0
   -4.2475   22.9065  -26.4922 C   0  0  0  0  0  0  0  0  0  0  0  0
   -7.9620   22.5840  -21.0012 C   0  0  0  0  0  0  0  0  0  0  0  0
   -7.2901   22.7288  -22.3418 C   0  0  0  0  0  0  0  0  0  0  0  0
   -6.5862   21.6857  -22.9006 C   0  0  0  0  0  0  0  0  0  0  0  0
   -5.9709   21.8424  -24.1453 C   0  0  0  0  0  0  0  0  0  0  0  0
   -6.0856   23.0504  -24.7888 C   0  0  0  0  0  0  0  0  0  0  0  0
   -6.7852   24.0184  -24.1846 N   0  0  0  0  0  0  0  0  0  0  0  0
   -7.3674   23.8763  -23.0113 N   0  0  0  0  0  0  0  0  0  0  0  0
 23 24  1  0  0  0
 24 25  2  0  0  0
 25 26  1  0  0  0
 26 27  2  0  0  0
 27 17  1  0  0  0
 17 18  2  0  0  0
 18 19  1  0  0  0
 19 20  2  0  0  0
 20 21  1  0  0  0
 21 16  1  0  0  0
 16  1  1  0  0  0
  1  2  1  0  0  0
  2  3  2  0  0  0
  3  8  1  0  0  0
  8  9  2  0  0  0
  9 10  1  0  0  0
 10 11  1  0  0  0
 10 12  2  0  0  0
 12 13  1  0  0  0
 13 14  1  0  0  0
 13 15  2  0  0  0
  3  4  1  0  0  0
  4  5  2  0  0  0
  5  6  1  0  0  0
  6  7  2  0  0  0
 21 22  2  0  0  0
 27 28  1  0  0  0
 28 29  2  0  0  0
 29 24  1  0  0  0
 22 17  1  0  0  0
  6  1  1  0  0  0
 15  8  1  0  0  0
M  END
> <minimizedAffinity>
-9.27311

> <CNNscore>
0.5782215595

> <CNNaffinity>
7.0653429031

> <CNN_VS>
4.0853338242

> <CNNaffinity_variance>
0.1544600278

$$$$
[H]c1c(-c2c([H])c([H])c([H])c(C([H])([H])n3nc(-c4c([H])c(F)c([H])c(F)c4[H])c([H])c([H])c3=O)c2[H])nnc(C([H])([H])[H])c1[H]


 29 32  0  0  0  0  0  0  0  0999 V2000
   -1.1553   22.6601  -25.8412 N   0  0  0  0  0  0  0  0  0  0  0  0
   -2.2500   23.3101  -25.4564 N   0  0  0  0  0  0  0  0  0  0  0  0
   -3.2048   23.7540  -26.2973 C   0  0  0  0  0  0  0  0  0  0  0  0
   -3.0416   23.5220  -27.6482 C   0  0  0  0  0  0  0  0  0  0  0  0
   -1.9163   22.8493  -28.0885 C   0  0  0  0  0  0  0  0  0  0  0  0
   -0.9782   22.4249  -27.1505 C   0  0  0  0  0  0  0  0  0  0  0  0
    0.0539   21.8163  -27.4821 O   0  0  0  0  0  0  0  0  0  0  0  0
   -4.3757   24.4620  -25.7627 C   0  0  0  0  0  0  0  0  0  0  0  0
   -5.4079   23.8608  -25.0998 C   0  0  0  0  0  0  0  0  0  0  0  0
   -6.4924   24.5917  -24.6165 C   0  0  0  0  0  0  0  0  0  0  0  0
   -7.4980   23.9778  -23.9662 F   0  0  0  0  0  0  0  0  0  0  0  0
   -6.5616   25.9539  -24.7914 C   0  0  0  0  0  0  0  0  0  0  0  0
   -5.5254   26.5690  -25.4588 C   0  0  0  0  0  0  0  0  0  0  0  0
   -5.5901   27.9090  -25.6327 F   0  0  0  0  0  0  0  0  0  0  0  0
   -4.4592   25.8333  -25.9312 C   0  0  0  0  0  0  0  0  0  0  0  0
   -0.2418   22.2505  -24.8206 C   0  0  0  0  0  0  0  0  0  0  0  0
   -2.5128   22.4715  -21.8428 C   0  0  0  0  0  0  0  0  0  0  0  0
   -1.8333   21.6002  -21.0075 C   0  0  0  0  0  0  0  0  0  0  0  0
   -0.6805   20.9562  -21.3737 C   0  0  0  0  0  0  0  0  0  0  0  0
   -0.1570   21.1704  -22.6235 C   0  0  0  0  0  0  0  0  0  0  0  0
   -0.7854   22.0199  -23.4903 C   0  0  0  0  0  0  0  0  0  0  0  0
   -1.9396   22.6477  -23.0869 C   0  0  0  0  0  0  0  0  0  0  0  0
   -7.1724   25.3546  -20.2747 C   0  0  0  0  0  0  0  0  0  0  0  0
   -5.9606   24.5467  -20.6597 C   0  0  0  0  0  0  0  0  0  0  0  0
   -5.8102   23.2450  -20.2367 C   0  0  0  0  0  0  0  0  0  0  0  0
   -4.6778   22.5143  -20.6060 C   0  0  0  0  0  0  0  0  0  0  0  0
   -3.7301   23.1220  -21.3928 C   0  0  0  0  0  0  0  0  0  0  0  0
   -3.9441   24.3896  -21.7657 N   0  0  0  0  0  0  0  0  0  0  0  0
   -5.0097   25.0832  -21.4205 N   0  0  0  0  0  0  0  0  0  0  0  0
 23 24  1  0  0  0
 24 25  2  0  0  0
 25 26  1  0  0  0
 26 27  2  0  0  0
 27 17  1  0  0  0
 17 18  2  0  0  0
 18 19  1  0  0  0
 19 20  2  0  0  0
 20 21  1  0  0  0
 21 16  1  0  0  0
 16  1  1  0  0  0
  1  2  1  0  0  0
  2  3  2  0  0  0
  3  8  1  0  0  0
  8  9  2  0  0  0
  9 10  1  0  0  0
 10 11  1  0  0  0
 10 12  2  0  0  0
 12 13  1  0  0  0
 13 14  1  0  0  0
 13 15  2  0  0  0
  3  4  1  0  0  0
  4  5  2  0  0  0
  5  6  1  0  0  0
  6  7  2  0  0  0
 21 22  2  0  0  0
 27 28  1  0  0  0
 28 29  2  0  0  0
 29 24  1  0  0  0
 22 17  1  0  0  0
  6  1  1  0  0  0
 15  8  1  0  0  0
M  END
> <minimizedAffinity>
-9.00999

> <CNNscore>
0.4972808361

> <CNNaffinity>
6.6816787720

> <CNN_VS>
3.3226706982

> <CNNaffinity_variance>
0.2184539586

$$$$
[H]c1c(-c2c([H])c([H])c([H])c(C([H])([H])n3nc(-c4c([H])c(F)c([H])c(F)c4[H])c([H])c([H])c3=O)c2[H])nnc(C([H])([H])[H])c1[H]


 29 32  0  0  0  0  0  0  0  0999 V2000
   -3.9221   23.6218  -25.8381 N   0  0  0  0  0  0  0  0  0  0  0  0
   -4.2847   23.7831  -27.1075 N   0  0  0  0  0  0  0  0  0  0  0  0
   -4.8152   24.9162  -27.6079 C   0  0  0  0  0  0  0  0  0  0  0  0
   -4.9969   25.9833  -26.7514 C   0  0  0  0  0  0  0  0  0  0  0  0
   -4.6326   25.8553  -25.4235 C   0  0  0  0  0  0  0  0  0  0  0  0
   -4.0910   24.6477  -24.9895 C   0  0  0  0  0  0  0  0  0  0  0  0
   -3.7444   24.4693  -23.8090 O   0  0  0  0  0  0  0  0  0  0  0  0
   -5.1805   24.9849  -29.0291 C   0  0  0  0  0  0  0  0  0  0  0  0
   -5.4239   23.8974  -29.8193 C   0  0  0  0  0  0  0  0  0  0  0  0
   -5.7671   24.0314  -31.1641 C   0  0  0  0  0  0  0  0  0  0  0  0
   -6.0025   22.9455  -31.9232 F   0  0  0  0  0  0  0  0  0  0  0  0
   -5.8732   25.2725  -31.7466 C   0  0  0  0  0  0  0  0  0  0  0  0
   -5.6294   26.3751  -30.9577 C   0  0  0  0  0  0  0  0  0  0  0  0
   -5.7329   27.5977  -31.5275 F   0  0  0  0  0  0  0  0  0  0  0  0
   -5.2911   26.2273  -29.6292 C   0  0  0  0  0  0  0  0  0  0  0  0
   -3.3681   22.3567  -25.4689 C   0  0  0  0  0  0  0  0  0  0  0  0
    0.1973   21.7432  -24.4763 C   0  0  0  0  0  0  0  0  0  0  0  0
    0.7826   21.9055  -25.7211 C   0  0  0  0  0  0  0  0  0  0  0  0
    0.0689   22.2043  -26.8521 C   0  0  0  0  0  0  0  0  0  0  0  0
   -1.2922   22.3542  -26.7698 C   0  0  0  0  0  0  0  0  0  0  0  0
   -1.9239   22.2052  -25.5670 C   0  0  0  0  0  0  0  0  0  0  0  0
   -1.1741   21.9056  -24.4548 C   0  0  0  0  0  0  0  0  0  0  0  0
    3.7189   20.5581  -20.1547 C   0  0  0  0  0  0  0  0  0  0  0  0
    2.7432   20.8625  -21.2613 C   0  0  0  0  0  0  0  0  0  0  0  0
    1.3845   20.8222  -21.0422 C   0  0  0  0  0  0  0  0  0  0  0  0
    0.4976   21.1082  -22.0835 C   0  0  0  0  0  0  0  0  0  0  0  0
    1.0115   21.4269  -23.3168 C   0  0  0  0  0  0  0  0  0  0  0  0
    2.3427   21.4463  -23.4552 N   0  0  0  0  0  0  0  0  0  0  0  0
    3.1834   21.1775  -22.4771 N   0  0  0  0  0  0  0  0  0  0  0  0
 23 24  1  0  0  0
 24 25  2  0  0  0
 25 26  1  0  0  0
 26 27  2  0  0  0
 27 17  1  0  0  0
 17 18  2  0  0  0
 18 19  1  0  0  0
 19 20  2  0  0  0
 20 21  1  0  0  0
 21 16  1  0  0  0
 16  1  1  0  0  0
  1  2  1  0  0  0
  2  3  2  0  0  0
  3  8  1  0  0  0
  8  9  2  0  0  0
  9 10  1  0  0  0
 10 11  1  0  0  0
 10 12  2  0  0  0
 12 13  1  0  0  0
 13 14  1  0  0  0
 13 15  2  0  0  0
  3  4  1  0  0  0
  4  5  2  0  0  0
  5  6  1  0  0  0
  6  7  2  0  0  0
 21 22  2  0  0  0
 27 28  1  0  0  0
 28 29  2  0  0  0
 29 24  1  0  0  0
 22 17  1  0  0  0
  6  1  1  0  0  0
 15  8  1  0  0  0
M  END
> <minimizedAffinity>
-10.59820

> <CNNscore>
0.4958220720

> <CNNaffinity>
6.7881751060

> <CNN_VS>
3.3657269478

> <CNNaffinity_variance>
0.1464278698

$$$$
[H]c1c(-c2c([H])c([H])c([H])c(C([H])([H])n3nc(-c4c([H])c(F)c([H])c(F)c4[H])c([H])c([H])c3=O)c2[H])nnc(C([H])([H])[H])c1[H]


 29 32  0  0  0  0  0  0  0  0999 V2000
   -1.1664   22.0574  -25.1797 N   0  0  0  0  0  0  0  0  0  0  0  0
   -2.1475   22.5468  -25.9325 N   0  0  0  0  0  0  0  0  0  0  0  0
   -1.9929   22.9645  -27.2043 C   0  0  0  0  0  0  0  0  0  0  0  0
   -0.7358   22.8817  -27.7683 C   0  0  0  0  0  0  0  0  0  0  0  0
    0.3112   22.3785  -27.0179 C   0  0  0  0  0  0  0  0  0  0  0  0
    0.0633   21.9690  -25.7100 C   0  0  0  0  0  0  0  0  0  0  0  0
    0.9615   21.5088  -24.9839 O   0  0  0  0  0  0  0  0  0  0  0  0
   -3.1480   23.4888  -27.9452 C   0  0  0  0  0  0  0  0  0  0  0  0
   -3.0618   24.3120  -29.0320 C   0  0  0  0  0  0  0  0  0  0  0  0
   -4.1994   24.7755  -29.6917 C   0  0  0  0  0  0  0  0  0  0  0  0
   -4.0899   25.5858  -30.7606 F   0  0  0  0  0  0  0  0  0  0  0  0
   -5.4577   24.4176  -29.2681 C   0  0  0  0  0  0  0  0  0  0  0  0
   -5.5547   23.5878  -28.1729 C   0  0  0  0  0  0  0  0  0  0  0  0
   -6.7911   23.2336  -27.7534 F   0  0  0  0  0  0  0  0  0  0  0  0
   -4.4209   23.1372  -27.5305 C   0  0  0  0  0  0  0  0  0  0  0  0
   -1.4988   21.6520  -23.8497 C   0  0  0  0  0  0  0  0  0  0  0  0
   -4.5957   22.2349  -21.8143 C   0  0  0  0  0  0  0  0  0  0  0  0
   -5.5280   21.7855  -22.7348 C   0  0  0  0  0  0  0  0  0  0  0  0
   -5.1885   21.3061  -23.9728 C   0  0  0  0  0  0  0  0  0  0  0  0
   -3.8671   21.2603  -24.3384 C   0  0  0  0  0  0  0  0  0  0  0  0
   -2.9034   21.6910  -23.4704 C   0  0  0  0  0  0  0  0  0  0  0  0
   -3.2829   22.1651  -22.2374 C   0  0  0  0  0  0  0  0  0  0  0  0
   -5.8838   24.1840  -16.6157 C   0  0  0  0  0  0  0  0  0  0  0  0
   -5.5998   23.6697  -18.0029 C   0  0  0  0  0  0  0  0  0  0  0  0
   -6.6186   23.4543  -18.9037 C   0  0  0  0  0  0  0  0  0  0  0  0
   -6.3320   22.9768  -20.1853 C   0  0  0  0  0  0  0  0  0  0  0  0
   -5.0224   22.7311  -20.5184 C   0  0  0  0  0  0  0  0  0  0  0  0
   -4.0855   22.9639  -19.5913 N   0  0  0  0  0  0  0  0  0  0  0  0
   -4.3499   23.4140  -18.3816 N   0  0  0  0  0  0  0  0  0  0  0  0
 23 24  1  0  0  0
 24 25  2  0  0  0
 25 26  1  0  0  0
 26 27  2  0  0  0
 27 17  1  0  0  0
 17 18  2  0  0  0
 18 19  1  0  0  0
 19 20  2  0  0  0
 20 21  1  0  0  0
 21 16  1  0  0  0
 16  1  1  0  0  0
  1  2  1  0  0  0
  2  3  2  0  0  0
  3  8  1  0  0  0
  8  9  2  0  0  0
  9 10  1  0  0  0
 10 11  1  0  0  0
 10 12  2  0  0  0
 12 13  1  0  0  0
 13 14  1  0  0  0
 13 15  2  0  0  0
  3  4  1  0  0  0
  4  5  2  0  0  0
  5  6  1  0  0  0
  6  7  2  0  0  0
 21 22  2  0  0  0
 27 28  1  0  0  0
 28 29  2  0  0  0
 29 24  1  0  0  0
 22 17  1  0  0  0
  6  1  1  0  0  0
 15  8  1  0  0  0
M  END
> <minimizedAffinity>
-9.45468

> <CNNscore>
0.3069141209

> <CNNaffinity>
6.3472833633

> <CNN_VS>
1.9480708838

> <CNNaffinity_variance>
0.2085613459

$$$$
[H]c1c(-c2c([H])c([H])c([H])c(C([H])([H])n3nc(-c4c([H])c(F)c([H])c(F)c4[H])c([H])c([H])c3=O)c2[H])nnc(C([H])([H])[H])c1[H]


 29 32  0  0  0  0  0  0  0  0999 V2000
   -6.8179   23.1188  -23.3410 N   0  0  0  0  0  0  0  0  0  0  0  0
   -6.2903   23.2269  -24.5571 N   0  0  0  0  0  0  0  0  0  0  0  0
   -6.6279   24.1781  -25.4498 C   0  0  0  0  0  0  0  0  0  0  0  0
   -7.5839   25.1042  -25.0840 C   0  0  0  0  0  0  0  0  0  0  0  0
   -8.1568   25.0257  -23.8277 C   0  0  0  0  0  0  0  0  0  0  0  0
   -7.7492   24.0097  -22.9666 C   0  0  0  0  0  0  0  0  0  0  0  0
   -8.2260   23.8847  -21.8252 O   0  0  0  0  0  0  0  0  0  0  0  0
   -5.9801   24.2041  -26.7680 C   0  0  0  0  0  0  0  0  0  0  0  0
   -5.1732   23.2145  -27.2537 C   0  0  0  0  0  0  0  0  0  0  0  0
   -4.5876   23.3006  -28.5162 C   0  0  0  0  0  0  0  0  0  0  0  0
   -3.7961   22.3131  -28.9738 F   0  0  0  0  0  0  0  0  0  0  0  0
   -4.8033   24.3932  -29.3228 C   0  0  0  0  0  0  0  0  0  0  0  0
   -5.6156   25.3963  -28.8416 C   0  0  0  0  0  0  0  0  0  0  0  0
   -5.8300   26.4727  -29.6324 F   0  0  0  0  0  0  0  0  0  0  0  0
   -6.1880   25.2974  -27.5911 C   0  0  0  0  0  0  0  0  0  0  0  0
   -6.3448   22.0546  -22.5120 C   0  0  0  0  0  0  0  0  0  0  0  0
   -2.6804   21.9600  -23.3099 C   0  0  0  0  0  0  0  0  0  0  0  0
   -2.2029   21.7256  -22.0310 C   0  0  0  0  0  0  0  0  0  0  0  0
   -3.0189   21.5979  -20.9376 C   0  0  0  0  0  0  0  0  0  0  0  0
   -4.3775   21.7039  -21.0949 C   0  0  0  0  0  0  0  0  0  0  0  0
   -4.9052   21.9351  -22.3343 C   0  0  0  0  0  0  0  0  0  0  0  0
   -4.0546   22.0573  -23.4069 C   0  0  0  0  0  0  0  0  0  0  0  0
    0.6124   22.4191  -27.9391 C   0  0  0  0  0  0  0  0  0  0  0  0
   -0.2104   22.3027  -26.6826 C   0  0  0  0  0  0  0  0  0  0  0  0
    0.3794   22.3512  -25.4395 C   0  0  0  0  0  0  0  0  0  0  0  0
   -0.4034   22.2412  -24.2873 C   0  0  0  0  0  0  0  0  0  0  0  0
   -1.7610   22.0853  -24.4264 C   0  0  0  0  0  0  0  0  0  0  0  0
   -2.2637   22.0469  -25.6663 N   0  0  0  0  0  0  0  0  0  0  0  0
   -1.5304   22.1501  -26.7560 N   0  0  0  0  0  0  0  0  0  0  0  0
 23 24  1  0  0  0
 24 25  2  0  0  0
 25 26  1  0  0  0
 26 27  2  0  0  0
 27 17  1  0  0  0
 17 18  2  0  0  0
 18 19  1  0  0  0
 19 20  2  0  0  0
 20 21  1  0  0  0
 21 16  1  0  0  0
 16  1  1  0  0  0
  1  2  1  0  0  0
  2  3  2  0  0  0
  3  8  1  0  0  0
  8  9  2  0  0  0
  9 10  1  0  0  0
 10 11  1  0  0  0
 10 12  2  0  0  0
 12 13  1  0  0  0
 13 14  1  0  0  0
 13 15  2  0  0  0
  3  4  1  0  0  0
  4  5  2  0  0  0
  5  6  1  0  0  0
  6  7  2  0  0  0
 21 22  2  0  0  0
 27 28  1  0  0  0
 28 29  2  0  0  0
 29 24  1  0  0  0
 22 17  1  0  0  0
  6  1  1  0  0  0
 15  8  1  0  0  0
M  END
> <minimizedAffinity>
-8.68511

> <CNNscore>
0.2933415473

> <CNNaffinity>
6.6819558144

> <CNN_VS>
1.9600952864

> <CNNaffinity_variance>
0.2828103006

$$$$
[H]c1c(-c2c([H])c([H])c([H])c(C([H])([H])n3nc(-c4c([H])c(F)c([H])c(F)c4[H])c([H])c([H])c3=O)c2[H])nnc(C([H])([H])[H])c1[H]


 29 32  0  0  0  0  0  0  0  0999 V2000
   -2.2752   22.9333  -25.3252 N   0  0  0  0  0  0  0  0  0  0  0  0
   -3.0721   23.3526  -26.3040 N   0  0  0  0  0  0  0  0  0  0  0  0
   -2.7703   23.2753  -27.6150 C   0  0  0  0  0  0  0  0  0  0  0  0
   -1.5553   22.7258  -27.9719 C   0  0  0  0  0  0  0  0  0  0  0  0
   -0.6982   22.2780  -26.9832 C   0  0  0  0  0  0  0  0  0  0  0  0
   -1.0895   22.3961  -25.6518 C   0  0  0  0  0  0  0  0  0  0  0  0
   -0.3644   22.0134  -24.7172 O   0  0  0  0  0  0  0  0  0  0  0  0
   -3.7269   23.7701  -28.6140 C   0  0  0  0  0  0  0  0  0  0  0  0
   -4.0859   25.0801  -28.7598 C   0  0  0  0  0  0  0  0  0  0  0  0
   -5.0017   25.4848  -29.7302 C   0  0  0  0  0  0  0  0  0  0  0  0
   -5.3402   26.7812  -29.8554 F   0  0  0  0  0  0  0  0  0  0  0  0
   -5.5801   24.5724  -30.5811 C   0  0  0  0  0  0  0  0  0  0  0  0
   -5.2243   23.2490  -30.4416 C   0  0  0  0  0  0  0  0  0  0  0  0
   -5.7914   22.3486  -31.2769 F   0  0  0  0  0  0  0  0  0  0  0  0
   -4.3173   22.8634  -29.4774 C   0  0  0  0  0  0  0  0  0  0  0  0
   -2.7480   23.0818  -23.9843 C   0  0  0  0  0  0  0  0  0  0  0  0
   -6.2979   23.4292  -22.8222 C   0  0  0  0  0  0  0  0  0  0  0  0
   -6.7686   22.1969  -23.2447 C   0  0  0  0  0  0  0  0  0  0  0  0
   -5.9830   21.2726  -23.8821 C   0  0  0  0  0  0  0  0  0  0  0  0
   -4.6638   21.5614  -24.1234 C   0  0  0  0  0  0  0  0  0  0  0  0
   -4.1448   22.7626  -23.7287 C   0  0  0  0  0  0  0  0  0  0  0  0
   -4.9640   23.6640  -23.0920 C   0  0  0  0  0  0  0  0  0  0  0  0
   -9.7026   27.3593  -20.4885 C   0  0  0  0  0  0  0  0  0  0  0  0
   -8.8151   26.2851  -21.0611 C   0  0  0  0  0  0  0  0  0  0  0  0
   -8.6618   25.0746  -20.4232 C   0  0  0  0  0  0  0  0  0  0  0  0
   -7.8333   24.0925  -20.9725 C   0  0  0  0  0  0  0  0  0  0  0  0
   -7.1837   24.3639  -22.1518 C   0  0  0  0  0  0  0  0  0  0  0  0
   -7.3807   25.5622  -22.7147 N   0  0  0  0  0  0  0  0  0  0  0  0
   -8.1606   26.4917  -22.2013 N   0  0  0  0  0  0  0  0  0  0  0  0
 23 24  1  0  0  0
 24 25  2  0  0  0
 25 26  1  0  0  0
 26 27  2  0  0  0
 27 17  1  0  0  0
 17 18  2  0  0  0
 18 19  1  0  0  0
 19 20  2  0  0  0
 20 21  1  0  0  0
 21 16  1  0  0  0
 16  1  1  0  0  0
  1  2  1  0  0  0
  2  3  2  0  0  0
  3  8  1  0  0  0
  8  9  2  0  0  0
  9 10  1  0  0  0
 10 11  1  0  0  0
 10 12  2  0  0  0
 12 13  1  0  0  0
 13 14  1  0  0  0
 13 15  2  0  0  0
  3  4  1  0  0  0
  4  5  2  0  0  0
  5  6  1  0  0  0
  6  7  2  0  0  0
 21 22  2  0  0  0
 27 28  1  0  0  0
 28 29  2  0  0  0
 29 24  1  0  0  0
 22 17  1  0  0  0
  6  1  1  0  0  0
 15  8  1  0  0  0
M  END
> <minimizedAffinity>
-9.14263

> <CNNscore>
0.2818114460

> <CNNaffinity>
6.5594215393

> <CNN_VS>
1.8485200405

> <CNNaffinity_variance>
0.1150062457

$$$$
[H]c1c([H])c([H])c(-c2c([H])c([H])c(C([H])([H])Sc3nnc(-c4c([H])c([H])c5c(c4[H])O[C@@]([H])(C([H])([H])OC([H])([H])[H])C([H])([H])O5)o3)c([H])c2[H])c(C#N)c1[H]


 34 38  0  0  0  0  0  0  0  0999 V2000
   -0.7809   22.3434  -25.9770 C   0  0  0  0  0  0  0  0  0  0  0  0
    0.1278   22.5735  -26.9235 N   0  0  0  0  0  0  0  0  0  0  0  0
   -0.5026   22.9418  -28.0175 N   0  0  0  0  0  0  0  0  0  0  0  0
   -1.8146   22.9465  -27.7675 C   0  0  0  0  0  0  0  0  0  0  0  0
   -1.9364   22.5693  -26.4919 O   0  0  0  0  0  0  0  0  0  0  0  0
    2.6432   20.3907  -21.2956 C   0  0  0  0  0  0  0  0  0  0  0  0
    1.6982   20.9914  -20.2651 C   0  0  0  0  0  0  0  0  0  0  0  0
    0.3641   20.6948  -20.7215 O   0  0  0  0  0  0  0  0  0  0  0  0
    0.0556   21.0974  -22.0087 C   0  0  0  0  0  0  0  0  0  0  0  0
   -1.2729   21.2147  -22.4287 C   0  0  0  0  0  0  0  0  0  0  0  0
   -1.5031   21.6219  -23.7267 C   0  0  0  0  0  0  0  0  0  0  0  0
   -0.4810   21.9097  -24.6010 C   0  0  0  0  0  0  0  0  0  0  0  0
    0.8021   21.7882  -24.1699 C   0  0  0  0  0  0  0  0  0  0  0  0
    1.0936   21.3813  -22.8703 C   0  0  0  0  0  0  0  0  0  0  0  0
    2.4118   21.2654  -22.4545 O   0  0  0  0  0  0  0  0  0  0  0  0
    4.0816   20.4967  -20.9255 C   0  0  0  0  0  0  0  0  0  0  0  0
    5.1917   21.7851  -19.2767 C   0  0  0  0  0  0  0  0  0  0  0  0
    4.5982   21.6293  -20.4662 O   0  0  0  0  0  0  0  0  0  0  0  0
   -3.1351   23.3604  -28.8747 S   0  0  0  0  0  0  0  0  0  0  0  0
   -4.3152   24.5360  -28.2036 C   0  0  0  0  0  0  0  0  0  0  0  0
   -4.5215   24.3813  -26.7495 C   0  0  0  0  0  0  0  0  0  0  0  0
   -5.2532   23.2809  -26.3032 C   0  0  0  0  0  0  0  0  0  0  0  0
   -5.4939   23.0999  -24.9597 C   0  0  0  0  0  0  0  0  0  0  0  0
   -5.0374   23.9722  -24.0048 C   0  0  0  0  0  0  0  0  0  0  0  0
   -4.3142   25.0598  -24.4528 C   0  0  0  0  0  0  0  0  0  0  0  0
   -4.0699   25.2467  -25.8026 C   0  0  0  0  0  0  0  0  0  0  0  0
   -5.2551   23.8208  -22.5745 C   0  0  0  0  0  0  0  0  0  0  0  0
   -4.4776   22.9234  -21.8305 C   0  0  0  0  0  0  0  0  0  0  0  0
   -4.6604   22.7776  -20.4768 C   0  0  0  0  0  0  0  0  0  0  0  0
   -5.6092   23.5000  -19.7871 C   0  0  0  0  0  0  0  0  0  0  0  0
   -6.3806   24.3850  -20.5037 C   0  0  0  0  0  0  0  0  0  0  0  0
   -6.1979   24.5364  -21.8823 C   0  0  0  0  0  0  0  0  0  0  0  0
   -7.0393   25.4640  -22.5908 C   0  0  0  0  0  0  0  0  0  0  0  0
   -7.7279   26.1959  -23.1788 N   0  0  0  0  0  0  0  0  0  0  0  0
 17 18  1  0  0  0
 18 16  1  0  0  0
 16  6  1  0  0  0
  6  7  1  0  0  0
  7  8  1  0  0  0
  8  9  1  0  0  0
  9 10  2  0  0  0
 10 11  1  0  0  0
 11 12  2  0  0  0
 12  1  1  0  0  0
  1  2  2  0  0  0
  2  3  1  0  0  0
  3  4  2  0  0  0
  4 19  1  0  0  0
 19 20  1  0  0  0
 20 21  1  0  0  0
 21 22  2  0  0  0
 22 23  1  0  0  0
 23 24  2  0  0  0
 24 27  1  0  0  0
 27 28  2  0  0  0
 28 29  1  0  0  0
 29 30  2  0  0  0
 30 31  1  0  0  0
 31 32  2  0  0  0
 32 33  1  0  0  0
 33 34  3  0  0  0
 24 25  1  0  0  0
 25 26  2  0  0  0
  4  5  1  0  0  0
 12 13  1  0  0  0
 13 14  2  0  0  0
 14 15  1  0  0  0
 15  6  1  0  0  0
 14  9  1  0  0  0
  5  1  1  0  0  0
 26 21  1  0  0  0
 32 27  1  0  0  0
M  END
> <minimizedAffinity>
-8.10938

> <CNNscore>
0.5377426147

> <CNNaffinity>
7.0234847069

> <CNN_VS>
3.7768270969

> <CNNaffinity_variance>
0.1271583140

$$$$
[H]c1c([H])c([H])c(-c2c([H])c([H])c(C([H])([H])Sc3nnc(-c4c([H])c([H])c5c(c4[H])O[C@@]([H])(C([H])([H])OC([H])([H])[H])C([H])([H])O5)o3)c([H])c2[H])c(C#N)c1[H]


 34 38  0  0  0  0  0  0  0  0999 V2000
   -1.0757   22.6002  -26.4444 C   0  0  0  0  0  0  0  0  0  0  0  0
   -0.3361   22.5763  -27.5522 N   0  0  0  0  0  0  0  0  0  0  0  0
   -1.0659   23.0396  -28.5435 N   0  0  0  0  0  0  0  0  0  0  0  0
   -2.2718   23.3592  -28.0666 C   0  0  0  0  0  0  0  0  0  0  0  0
   -2.2288   23.0693  -26.7634 O   0  0  0  0  0  0  0  0  0  0  0  0
   -1.4247   21.5645  -20.4229 C   0  0  0  0  0  0  0  0  0  0  0  0
   -0.3921   20.4485  -20.4861 C   0  0  0  0  0  0  0  0  0  0  0  0
    0.6519   20.9155  -21.3624 O   0  0  0  0  0  0  0  0  0  0  0  0
    0.2531   21.3283  -22.6213 C   0  0  0  0  0  0  0  0  0  0  0  0
    1.1723   21.4380  -23.6692 C   0  0  0  0  0  0  0  0  0  0  0  0
    0.7008   21.8556  -24.8967 C   0  0  0  0  0  0  0  0  0  0  0  0
   -0.6228   22.1609  -25.1128 C   0  0  0  0  0  0  0  0  0  0  0  0
   -1.4975   22.0468  -24.0789 C   0  0  0  0  0  0  0  0  0  0  0  0
   -1.0777   21.6298  -22.8182 C   0  0  0  0  0  0  0  0  0  0  0  0
   -1.9903   21.5212  -21.7794 O   0  0  0  0  0  0  0  0  0  0  0  0
   -2.5308   21.3056  -19.4602 C   0  0  0  0  0  0  0  0  0  0  0  0
   -4.5179   22.2219  -18.5532 C   0  0  0  0  0  0  0  0  0  0  0  0
   -3.7038   21.9161  -19.5706 O   0  0  0  0  0  0  0  0  0  0  0  0
   -3.6539   24.0272  -28.9525 S   0  0  0  0  0  0  0  0  0  0  0  0
   -4.5898   25.2555  -28.0359 C   0  0  0  0  0  0  0  0  0  0  0  0
   -5.1002   24.7487  -26.7462 C   0  0  0  0  0  0  0  0  0  0  0  0
   -6.2017   23.8933  -26.7660 C   0  0  0  0  0  0  0  0  0  0  0  0
   -6.7317   23.4088  -25.5913 C   0  0  0  0  0  0  0  0  0  0  0  0
   -6.2176   23.7324  -24.3616 C   0  0  0  0  0  0  0  0  0  0  0  0
   -5.1275   24.5800  -24.3484 C   0  0  0  0  0  0  0  0  0  0  0  0
   -4.5912   25.0703  -25.5267 C   0  0  0  0  0  0  0  0  0  0  0  0
   -6.7331   23.2398  -23.0938 C   0  0  0  0  0  0  0  0  0  0  0  0
   -6.3431   21.9839  -22.6102 C   0  0  0  0  0  0  0  0  0  0  0  0
   -6.8095   21.5087  -21.4086 C   0  0  0  0  0  0  0  0  0  0  0  0
   -7.6772   22.2363  -20.6240 C   0  0  0  0  0  0  0  0  0  0  0  0
   -8.0696   23.4712  -21.0854 C   0  0  0  0  0  0  0  0  0  0  0  0
   -7.5972   23.9588  -22.3085 C   0  0  0  0  0  0  0  0  0  0  0  0
   -8.0479   25.2499  -22.7556 C   0  0  0  0  0  0  0  0  0  0  0  0
   -8.3901   26.2988  -23.1277 N   0  0  0  0  0  0  0  0  0  0  0  0
 17 18  1  0  0  0
 18 16  1  0  0  0
 16  6  1  0  0  0
  6  7  1  0  0  0
  7  8  1  0  0  0
  8  9  1  0  0  0
  9 10  2  0  0  0
 10 11  1  0  0  0
 11 12  2  0  0  0
 12  1  1  0  0  0
  1  2  2  0  0  0
  2  3  1  0  0  0
  3  4  2  0  0  0
  4 19  1  0  0  0
 19 20  1  0  0  0
 20 21  1  0  0  0
 21 22  2  0  0  0
 22 23  1  0  0  0
 23 24  2  0  0  0
 24 27  1  0  0  0
 27 28  2  0  0  0
 28 29  1  0  0  0
 29 30  2  0  0  0
 30 31  1  0  0  0
 31 32  2  0  0  0
 32 33  1  0  0  0
 33 34  3  0  0  0
 24 25  1  0  0  0
 25 26  2  0  0  0
  4  5  1  0  0  0
 12 13  1  0  0  0
 13 14  2  0  0  0
 14 15  1  0  0  0
 15  6  1  0  0  0
 14  9  1  0  0  0
  5  1  1  0  0  0
 26 21  1  0  0  0
 32 27  1  0  0  0
M  END
> <minimizedAffinity>
-8.04948

> <CNNscore>
0.5116499662

> <CNNaffinity>
7.0118346214

> <CNN_VS>
3.5876049995

> <CNNaffinity_variance>
0.1021305770

$$$$
[H]c1c([H])c([H])c(-c2c([H])c([H])c(C([H])([H])Sc3nnc(-c4c([H])c([H])c5c(c4[H])O[C@@]([H])(C([H])([H])OC([H])([H])[H])C([H])([H])O5)o3)c([H])c2[H])c(C#N)c1[H]


 34 38  0  0  0  0  0  0  0  0999 V2000
   -1.8694   22.5525  -26.3574 C   0  0  0  0  0  0  0  0  0  0  0  0
   -1.0531   22.6424  -27.4064 N   0  0  0  0  0  0  0  0  0  0  0  0
   -1.7494   23.0809  -28.4324 N   0  0  0  0  0  0  0  0  0  0  0  0
   -3.0107   23.2707  -28.0365 C   0  0  0  0  0  0  0  0  0  0  0  0
   -3.0349   22.9300  -26.7452 O   0  0  0  0  0  0  0  0  0  0  0  0
    1.8710   20.5314  -21.9554 C   0  0  0  0  0  0  0  0  0  0  0  0
    1.0007   21.1167  -20.8528 C   0  0  0  0  0  0  0  0  0  0  0  0
   -0.3622   20.8265  -21.2194 O   0  0  0  0  0  0  0  0  0  0  0  0
   -0.7594   21.2481  -22.4758 C   0  0  0  0  0  0  0  0  0  0  0  0
   -2.1138   21.3713  -22.8005 C   0  0  0  0  0  0  0  0  0  0  0  0
   -2.4336   21.7975  -24.0732 C   0  0  0  0  0  0  0  0  0  0  0  0
   -1.4747   22.0985  -25.0123 C   0  0  0  0  0  0  0  0  0  0  0  0
   -0.1648   21.9709  -24.6734 C   0  0  0  0  0  0  0  0  0  0  0  0
    0.2163   21.5449  -23.4034 C   0  0  0  0  0  0  0  0  0  0  0  0
    1.5601   21.4232  -23.0823 O   0  0  0  0  0  0  0  0  0  0  0  0
    3.3318   20.6323  -21.6849 C   0  0  0  0  0  0  0  0  0  0  0  0
    4.5622   21.5306  -19.8710 C   0  0  0  0  0  0  0  0  0  0  0  0
    3.8411   21.6435  -20.9930 O   0  0  0  0  0  0  0  0  0  0  0  0
   -4.3814   23.8501  -28.9992 S   0  0  0  0  0  0  0  0  0  0  0  0
   -5.0725   25.4070  -28.4307 C   0  0  0  0  0  0  0  0  0  0  0  0
   -5.7120   25.3049  -27.1035 C   0  0  0  0  0  0  0  0  0  0  0  0
   -5.5864   26.3840  -26.2289 C   0  0  0  0  0  0  0  0  0  0  0  0
   -6.1444   26.3331  -24.9712 C   0  0  0  0  0  0  0  0  0  0  0  0
   -6.8407   25.2422  -24.5171 C   0  0  0  0  0  0  0  0  0  0  0  0
   -6.9613   24.1769  -25.3873 C   0  0  0  0  0  0  0  0  0  0  0  0
   -6.4016   24.2228  -26.6527 C   0  0  0  0  0  0  0  0  0  0  0  0
   -7.4575   25.1428  -23.2036 C   0  0  0  0  0  0  0  0  0  0  0  0
   -8.8475   25.2507  -23.0634 C   0  0  0  0  0  0  0  0  0  0  0  0
   -9.4481   25.1458  -21.8324 C   0  0  0  0  0  0  0  0  0  0  0  0
   -8.7209   24.9309  -20.6822 C   0  0  0  0  0  0  0  0  0  0  0  0
   -7.3551   24.8231  -20.8034 C   0  0  0  0  0  0  0  0  0  0  0  0
   -6.7395   24.9295  -22.0550 C   0  0  0  0  0  0  0  0  0  0  0  0
   -5.3064   24.8245  -22.1289 C   0  0  0  0  0  0  0  0  0  0  0  0
   -4.1460   24.7354  -22.1641 N   0  0  0  0  0  0  0  0  0  0  0  0
 17 18  1  0  0  0
 18 16  1  0  0  0
 16  6  1  0  0  0
  6  7  1  0  0  0
  7  8  1  0  0  0
  8  9  1  0  0  0
  9 10  2  0  0  0
 10 11  1  0  0  0
 11 12  2  0  0  0
 12  1  1  0  0  0
  1  2  2  0  0  0
  2  3  1  0  0  0
  3  4  2  0  0  0
  4 19  1  0  0  0
 19 20  1  0  0  0
 20 21  1  0  0  0
 21 22  2  0  0  0
 22 23  1  0  0  0
 23 24  2  0  0  0
 24 27  1  0  0  0
 27 28  2  0  0  0
 28 29  1  0  0  0
 29 30  2  0  0  0
 30 31  1  0  0  0
 31 32  2  0  0  0
 32 33  1  0  0  0
 33 34  3  0  0  0
 24 25  1  0  0  0
 25 26  2  0  0  0
  4  5  1  0  0  0
 12 13  1  0  0  0
 13 14  2  0  0  0
 14 15  1  0  0  0
 15  6  1  0  0  0
 14  9  1  0  0  0
  5  1  1  0  0  0
 26 21  1  0  0  0
 32 27  1  0  0  0
M  END
> <minimizedAffinity>
-8.83872

> <CNNscore>
0.4120354950

> <CNNaffinity>
6.8126549721

> <CNN_VS>
2.8070557117

> <CNNaffinity_variance>
0.1627511233

$$$$
[H]c1c([H])c([H])c(-c2c([H])c([H])c(C([H])([H])Sc3nnc(-c4c([H])c([H])c5c(c4[H])O[C@@]([H])(C([H])([H])OC([H])([H])[H])C([H])([H])O5)o3)c([H])c2[H])c(C#N)c1[H]


 34 38  0  0  0  0  0  0  0  0999 V2000
   -0.4271   22.2203  -25.3644 C   0  0  0  0  0  0  0  0  0  0  0  0
    0.1959   22.2514  -26.5415 N   0  0  0  0  0  0  0  0  0  0  0  0
   -0.6430   22.7229  -27.4381 N   0  0  0  0  0  0  0  0  0  0  0  0
   -1.8018   22.9925  -26.8314 C   0  0  0  0  0  0  0  0  0  0  0  0
   -1.6185   22.6649  -25.5495 O   0  0  0  0  0  0  0  0  0  0  0  0
    3.7200   19.5818  -21.7185 C   0  0  0  0  0  0  0  0  0  0  0  0
    3.2976   20.4177  -20.5192 C   0  0  0  0  0  0  0  0  0  0  0  0
    1.8572   20.4492  -20.5380 O   0  0  0  0  0  0  0  0  0  0  0  0
    1.2715   20.8887  -21.7118 C   0  0  0  0  0  0  0  0  0  0  0  0
   -0.0582   21.3207  -21.7366 C   0  0  0  0  0  0  0  0  0  0  0  0
   -0.5737   21.7452  -22.9439 C   0  0  0  0  0  0  0  0  0  0  0  0
    0.1705   21.7545  -24.1007 C   0  0  0  0  0  0  0  0  0  0  0  0
    1.4606   21.3298  -24.0516 C   0  0  0  0  0  0  0  0  0  0  0  0
    2.0334   20.8906  -22.8607 C   0  0  0  0  0  0  0  0  0  0  0  0
    3.3525   20.4625  -22.8370 O   0  0  0  0  0  0  0  0  0  0  0  0
    5.1870   19.3381  -21.7942 C   0  0  0  0  0  0  0  0  0  0  0  0
    6.1452   17.3841  -20.8592 C   0  0  0  0  0  0  0  0  0  0  0  0
    5.6827   18.1106  -21.8837 O   0  0  0  0  0  0  0  0  0  0  0  0
   -3.2840   23.6461  -27.5504 S   0  0  0  0  0  0  0  0  0  0  0  0
   -4.7965   22.9650  -26.8625 C   0  0  0  0  0  0  0  0  0  0  0  0
   -4.7217   22.7494  -25.4035 C   0  0  0  0  0  0  0  0  0  0  0  0
   -4.8752   23.8550  -24.5673 C   0  0  0  0  0  0  0  0  0  0  0  0
   -4.7928   23.7142  -23.2001 C   0  0  0  0  0  0  0  0  0  0  0  0
   -4.5606   22.5050  -22.5961 C   0  0  0  0  0  0  0  0  0  0  0  0
   -4.4092   21.4142  -23.4292 C   0  0  0  0  0  0  0  0  0  0  0  0
   -4.4906   21.5505  -24.8044 C   0  0  0  0  0  0  0  0  0  0  0  0
   -4.4754   22.3013  -21.1584 C   0  0  0  0  0  0  0  0  0  0  0  0
   -3.2672   22.5173  -20.4825 C   0  0  0  0  0  0  0  0  0  0  0  0
   -3.1721   22.3429  -19.1232 C   0  0  0  0  0  0  0  0  0  0  0  0
   -4.2505   21.9501  -18.3612 C   0  0  0  0  0  0  0  0  0  0  0  0
   -5.4437   21.7339  -19.0104 C   0  0  0  0  0  0  0  0  0  0  0  0
   -5.5448   21.9102  -20.3944 C   0  0  0  0  0  0  0  0  0  0  0  0
   -6.8105   21.6575  -21.0302 C   0  0  0  0  0  0  0  0  0  0  0  0
   -7.8268   21.4302  -21.5511 N   0  0  0  0  0  0  0  0  0  0  0  0
 17 18  1  0  0  0
 18 16  1  0  0  0
 16  6  1  0  0  0
  6  7  1  0  0  0
  7  8  1  0  0  0
  8  9  1  0  0  0
  9 10  2  0  0  0
 10 11  1  0  0  0
 11 12  2  0  0  0
 12  1  1  0  0  0
  1  2  2  0  0  0
  2  3  1  0  0  0
  3  4  2  0  0  0
  4 19  1  0  0  0
 19 20  1  0  0  0
 20 21  1  0  0  0
 21 22  2  0  0  0
 22 23  1  0  0  0
 23 24  2  0  0  0
 24 27  1  0  0  0
 27 28  2  0  0  0
 28 29  1  0  0  0
 29 30  2  0  0  0
 30 31  1  0  0  0
 31 32  2  0  0  0
 32 33  1  0  0  0
 33 34  3  0  0  0
 24 25  1  0  0  0
 25 26  2  0  0  0
  4  5  1  0  0  0
 12 13  1  0  0  0
 13 14  2  0  0  0
 14 15  1  0  0  0
 15  6  1  0  0  0
 14  9  1  0  0  0
  5  1  1  0  0  0
 26 21  1  0  0  0
 32 27  1  0  0  0
M  END
> <minimizedAffinity>
-7.19847

> <CNNscore>
0.3864750564

> <CNNaffinity>
6.5129637718

> <CNN_VS>
2.5170979500

> <CNNaffinity_variance>
0.1248848885

$$$$
[H]c1c([H])c([H])c(-c2c([H])c([H])c(C([H])([H])Sc3nnc(-c4c([H])c([H])c5c(c4[H])O[C@@]([H])(C([H])([H])OC([H])([H])[H])C([H])([H])O5)o3)c([H])c2[H])c(C#N)c1[H]


 34 38  0  0  0  0  0  0  0  0999 V2000
   -2.1658   22.7543  -26.6647 C   0  0  0  0  0  0  0  0  0  0  0  0
   -1.4275   22.8785  -27.7666 N   0  0  0  0  0  0  0  0  0  0  0  0
   -2.1957   23.3489  -28.7250 N   0  0  0  0  0  0  0  0  0  0  0  0
   -3.4248   23.5246  -28.2330 C   0  0  0  0  0  0  0  0  0  0  0  0
   -3.3559   23.1428  -26.9549 O   0  0  0  0  0  0  0  0  0  0  0  0
    1.8844   20.6129  -22.6073 C   0  0  0  0  0  0  0  0  0  0  0  0
    1.0909   21.1543  -21.4270 C   0  0  0  0  0  0  0  0  0  0  0  0
   -0.2930   20.8668  -21.7069 O   0  0  0  0  0  0  0  0  0  0  0  0
   -0.7795   21.3277  -22.9173 C   0  0  0  0  0  0  0  0  0  0  0  0
   -2.1540   21.4520  -23.1419 C   0  0  0  0  0  0  0  0  0  0  0  0
   -2.5644   21.9187  -24.3737 C   0  0  0  0  0  0  0  0  0  0  0  0
   -1.6754   22.2580  -25.3668 C   0  0  0  0  0  0  0  0  0  0  0  0
   -0.3443   22.1285  -25.1252 C   0  0  0  0  0  0  0  0  0  0  0  0
    0.1271   21.6627  -23.9003 C   0  0  0  0  0  0  0  0  0  0  0  0
    1.4908   21.5399  -23.6785 O   0  0  0  0  0  0  0  0  0  0  0  0
    3.3601   20.7150  -22.4365 C   0  0  0  0  0  0  0  0  0  0  0  0
    4.8995   19.0432  -21.7687 C   0  0  0  0  0  0  0  0  0  0  0  0
    4.1598   19.6849  -22.6811 O   0  0  0  0  0  0  0  0  0  0  0  0
   -4.8608   24.1329  -29.0751 S   0  0  0  0  0  0  0  0  0  0  0  0
   -5.7904   25.3595  -28.1498 C   0  0  0  0  0  0  0  0  0  0  0  0
   -5.8514   25.0680  -26.7034 C   0  0  0  0  0  0  0  0  0  0  0  0
   -5.1332   25.8913  -25.8364 C   0  0  0  0  0  0  0  0  0  0  0  0
   -5.1376   25.6516  -24.4806 C   0  0  0  0  0  0  0  0  0  0  0  0
   -5.8336   24.6124  -23.9178 C   0  0  0  0  0  0  0  0  0  0  0  0
   -6.5423   23.8005  -24.7812 C   0  0  0  0  0  0  0  0  0  0  0  0
   -6.5407   24.0370  -26.1452 C   0  0  0  0  0  0  0  0  0  0  0  0
   -5.8793   24.3229  -22.4930 C   0  0  0  0  0  0  0  0  0  0  0  0
   -4.9070   23.5031  -21.9049 C   0  0  0  0  0  0  0  0  0  0  0  0
   -4.9270   23.2303  -20.5587 C   0  0  0  0  0  0  0  0  0  0  0  0
   -5.8958   23.7440  -19.7248 C   0  0  0  0  0  0  0  0  0  0  0  0
   -6.8576   24.5504  -20.2875 C   0  0  0  0  0  0  0  0  0  0  0  0
   -6.8410   24.8307  -21.6578 C   0  0  0  0  0  0  0  0  0  0  0  0
   -7.8770   25.6677  -22.2023 C   0  0  0  0  0  0  0  0  0  0  0  0
   -8.7228   26.3505  -22.6196 N   0  0  0  0  0  0  0  0  0  0  0  0
 17 18  1  0  0  0
 18 16  1  0  0  0
 16  6  1  0  0  0
  6  7  1  0  0  0
  7  8  1  0  0  0
  8  9  1  0  0  0
  9 10  2  0  0  0
 10 11  1  0  0  0
 11 12  2  0  0  0
 12  1  1  0  0  0
  1  2  2  0  0  0
  2  3  1  0  0  0
  3  4  2  0  0  0
  4 19  1  0  0  0
 19 20  1  0  0  0
 20 21  1  0  0  0
 21 22  2  0  0  0
 22 23  1  0  0  0
 23 24  2  0  0  0
 24 27  1  0  0  0
 27 28  2  0  0  0
 28 29  1  0  0  0
 29 30  2  0  0  0
 30 31  1  0  0  0
 31 32  2  0  0  0
 32 33  1  0  0  0
 33 34  3  0  0  0
 24 25  1  0  0  0
 25 26  2  0  0  0
  4  5  1  0  0  0
 12 13  1  0  0  0
 13 14  2  0  0  0
 14 15  1  0  0  0
 15  6  1  0  0  0
 14  9  1  0  0  0
  5  1  1  0  0  0
 26 21  1  0  0  0
 32 27  1  0  0  0
M  END
> <minimizedAffinity>
-8.23115

> <CNNscore>
0.3617835045

> <CNNaffinity>
6.8273401260

> <CNN_VS>
2.4700191021

> <CNNaffinity_variance>
0.1883160919

$$$$
[H]c1c([H])c([H])c(-c2c([H])c([H])c(C([H])([H])Sc3nnc(-c4c([H])c([H])c5c(c4[H])O[C@@]([H])(C([H])([H])OC([H])([H])[H])C([H])([H])O5)o3)c([H])c2[H])c(C#N)c1[H]


 34 38  0  0  0  0  0  0  0  0999 V2000
   -1.5106   22.6889  -26.5482 C   0  0  0  0  0  0  0  0  0  0  0  0
   -0.8222   22.7518  -27.6870 N   0  0  0  0  0  0  0  0  0  0  0  0
   -1.6433   23.1278  -28.6432 N   0  0  0  0  0  0  0  0  0  0  0  0
   -2.8562   23.3046  -28.1128 C   0  0  0  0  0  0  0  0  0  0  0  0
   -2.7231   23.0209  -26.8144 O   0  0  0  0  0  0  0  0  0  0  0  0
   -1.3050   22.0636  -20.4638 C   0  0  0  0  0  0  0  0  0  0  0  0
   -0.3564   20.8767  -20.5496 C   0  0  0  0  0  0  0  0  0  0  0  0
    0.6196   21.2137  -21.5546 O   0  0  0  0  0  0  0  0  0  0  0  0
    0.1205   21.5725  -22.7941 C   0  0  0  0  0  0  0  0  0  0  0  0
    0.9326   21.5514  -23.9322 C   0  0  0  0  0  0  0  0  0  0  0  0
    0.3650   21.9222  -25.1338 C   0  0  0  0  0  0  0  0  0  0  0  0
   -0.9521   22.3044  -25.2399 C   0  0  0  0  0  0  0  0  0  0  0  0
   -1.7215   22.3171  -24.1198 C   0  0  0  0  0  0  0  0  0  0  0  0
   -1.2018   21.9527  -22.8803 C   0  0  0  0  0  0  0  0  0  0  0  0
   -2.0082   21.9738  -21.7519 O   0  0  0  0  0  0  0  0  0  0  0  0
   -2.3207   21.9437  -19.3816 C   0  0  0  0  0  0  0  0  0  0  0  0
   -4.5843   22.5875  -19.1123 C   0  0  0  0  0  0  0  0  0  0  0  0
   -3.2766   22.8503  -19.2237 O   0  0  0  0  0  0  0  0  0  0  0  0
   -4.3439   23.8078  -28.9343 S   0  0  0  0  0  0  0  0  0  0  0  0
   -5.0072   25.3741  -28.3586 C   0  0  0  0  0  0  0  0  0  0  0  0
   -5.6624   25.2739  -27.0390 C   0  0  0  0  0  0  0  0  0  0  0  0
   -5.6254   26.3881  -26.2008 C   0  0  0  0  0  0  0  0  0  0  0  0
   -6.2015   26.3422  -24.9511 C   0  0  0  0  0  0  0  0  0  0  0  0
   -6.8311   25.2227  -24.4701 C   0  0  0  0  0  0  0  0  0  0  0  0
   -6.8641   24.1227  -25.3043 C   0  0  0  0  0  0  0  0  0  0  0  0
   -6.2858   24.1635  -26.5614 C   0  0  0  0  0  0  0  0  0  0  0  0
   -7.4636   25.1263  -23.1638 C   0  0  0  0  0  0  0  0  0  0  0  0
   -8.8545   25.2418  -23.0397 C   0  0  0  0  0  0  0  0  0  0  0  0
   -9.4698   25.1398  -21.8157 C   0  0  0  0  0  0  0  0  0  0  0  0
   -8.7572   24.9207  -20.6573 C   0  0  0  0  0  0  0  0  0  0  0  0
   -7.3906   24.8053  -20.7628 C   0  0  0  0  0  0  0  0  0  0  0  0
   -6.7600   24.9087  -22.0071 C   0  0  0  0  0  0  0  0  0  0  0  0
   -5.3268   24.7958  -22.0645 C   0  0  0  0  0  0  0  0  0  0  0  0
   -4.1657   24.7113  -22.0869 N   0  0  0  0  0  0  0  0  0  0  0  0
 17 18  1  0  0  0
 18 16  1  0  0  0
 16  6  1  0  0  0
  6  7  1  0  0  0
  7  8  1  0  0  0
  8  9  1  0  0  0
  9 10  2  0  0  0
 10 11  1  0  0  0
 11 12  2  0  0  0
 12  1  1  0  0  0
  1  2  2  0  0  0
  2  3  1  0  0  0
  3  4  2  0  0  0
  4 19  1  0  0  0
 19 20  1  0  0  0
 20 21  1  0  0  0
 21 22  2  0  0  0
 22 23  1  0  0  0
 23 24  2  0  0  0
 24 27  1  0  0  0
 27 28  2  0  0  0
 28 29  1  0  0  0
 29 30  2  0  0  0
 30 31  1  0  0  0
 31 32  2  0  0  0
 32 33  1  0  0  0
 33 34  3  0  0  0
 24 25  1  0  0  0
 25 26  2  0  0  0
  4  5  1  0  0  0
 12 13  1  0  0  0
 13 14  2  0  0  0
 14 15  1  0  0  0
 15  6  1  0  0  0
 14  9  1  0  0  0
  5  1  1  0  0  0
 26 21  1  0  0  0
 32 27  1  0  0  0
M  END
> <minimizedAffinity>
-8.61033

> <CNNscore>
0.2980638742

> <CNNaffinity>
6.6218361855

> <CNN_VS>
1.9737302065

> <CNNaffinity_variance>
0.2093947828

$$$$
[H]c1c([H])c([H])c(-c2c([H])c([H])c(C([H])([H])Sc3nnc(-c4c([H])c([H])c5c(c4[H])O[C@@]([H])(C([H])([H])OC([H])([H])[H])C([H])([H])O5)o3)c([H])c2[H])c(C#N)c1[H]


 34 38  0  0  0  0  0  0  0  0999 V2000
   -2.2553   22.9217  -26.9178 C   0  0  0  0  0  0  0  0  0  0  0  0
   -1.8810   23.0129  -28.1931 N   0  0  0  0  0  0  0  0  0  0  0  0
   -2.9068   23.4477  -28.8921 N   0  0  0  0  0  0  0  0  0  0  0  0
   -3.9357   23.6336  -28.0612 C   0  0  0  0  0  0  0  0  0  0  0  0
   -3.4832   23.2947  -26.8510 O   0  0  0  0  0  0  0  0  0  0  0  0
   -0.7286   21.5477  -21.1528 C   0  0  0  0  0  0  0  0  0  0  0  0
    0.3432   20.5640  -21.5991 C   0  0  0  0  0  0  0  0  0  0  0  0
    1.0355   21.1932  -22.6950 O   0  0  0  0  0  0  0  0  0  0  0  0
    0.2485   21.6202  -23.7497 C   0  0  0  0  0  0  0  0  0  0  0  0
    0.8065   21.8891  -25.0033 C   0  0  0  0  0  0  0  0  0  0  0  0
   -0.0410   22.3109  -26.0069 C   0  0  0  0  0  0  0  0  0  0  0  0
   -1.3930   22.4709  -25.8112 C   0  0  0  0  0  0  0  0  0  0  0  0
   -1.9122   22.2035  -24.5840 C   0  0  0  0  0  0  0  0  0  0  0  0
   -1.1043   21.7746  -23.5339 C   0  0  0  0  0  0  0  0  0  0  0  0
   -1.6588   21.5080  -22.2908 O   0  0  0  0  0  0  0  0  0  0  0  0
   -1.4749   21.1135  -19.9397 C   0  0  0  0  0  0  0  0  0  0  0  0
   -0.9865   19.5555  -18.2236 C   0  0  0  0  0  0  0  0  0  0  0  0
   -0.8441   20.7379  -18.8345 O   0  0  0  0  0  0  0  0  0  0  0  0
   -5.5660   24.2070  -28.4541 S   0  0  0  0  0  0  0  0  0  0  0  0
   -6.2923   25.2704  -27.2025 C   0  0  0  0  0  0  0  0  0  0  0  0
   -6.4225   24.6100  -25.8881 C   0  0  0  0  0  0  0  0  0  0  0  0
   -6.5996   25.4152  -24.7630 C   0  0  0  0  0  0  0  0  0  0  0  0
   -6.7049   24.8529  -23.5106 C   0  0  0  0  0  0  0  0  0  0  0  0
   -6.6432   23.4986  -23.3029 C   0  0  0  0  0  0  0  0  0  0  0  0
   -6.4673   22.7068  -24.4204 C   0  0  0  0  0  0  0  0  0  0  0  0
   -6.3604   23.2672  -25.6818 C   0  0  0  0  0  0  0  0  0  0  0  0
   -6.7595   22.8549  -22.0036 C   0  0  0  0  0  0  0  0  0  0  0  0
   -7.9340   22.1770  -21.6511 C   0  0  0  0  0  0  0  0  0  0  0  0
   -8.0560   21.5521  -20.4339 C   0  0  0  0  0  0  0  0  0  0  0  0
   -7.0386   21.5597  -19.5051 C   0  0  0  0  0  0  0  0  0  0  0  0
   -5.8792   22.2214  -19.8364 C   0  0  0  0  0  0  0  0  0  0  0  0
   -5.7508   22.8592  -21.0747 C   0  0  0  0  0  0  0  0  0  0  0  0
   -4.5240   23.5508  -21.3694 C   0  0  0  0  0  0  0  0  0  0  0  0
   -3.5210   24.1006  -21.5873 N   0  0  0  0  0  0  0  0  0  0  0  0
 17 18  1  0  0  0
 18 16  1  0  0  0
 16  6  1  0  0  0
  6  7  1  0  0  0
  7  8  1  0  0  0
  8  9  1  0  0  0
  9 10  2  0  0  0
 10 11  1  0  0  0
 11 12  2  0  0  0
 12  1  1  0  0  0
  1  2  2  0  0  0
  2  3  1  0  0  0
  3  4  2  0  0  0
  4 19  1  0  0  0
 19 20  1  0  0  0
 20 21  1  0  0  0
 21 22  2  0  0  0
 22 23  1  0  0  0
 23 24  2  0  0  0
 24 27  1  0  0  0
 27 28  2  0  0  0
 28 29  1  0  0  0
 29 30  2  0  0  0
 30 31  1  0  0  0
 31 32  2  0  0  0
 32 33  1  0  0  0
 33 34  3  0  0  0
 24 25  1  0  0  0
 25 26  2  0  0  0
  4  5  1  0  0  0
 12 13  1  0  0  0
 13 14  2  0  0  0
 14 15  1  0  0  0
 15  6  1  0  0  0
 14  9  1  0  0  0
  5  1  1  0  0  0
 26 21  1  0  0  0
 32 27  1  0  0  0
M  END
> <minimizedAffinity>
-8.19475

> <CNNscore>
0.2515543103

> <CNNaffinity>
6.5688848495

> <CNN_VS>
1.6524312496

> <CNNaffinity_variance>
0.1557799727

$$$$
[H]c1c([H])c([H])c(-c2c([H])c([H])c(C([H])([H])Sc3nnc(-c4c([H])c([H])c5c(c4[H])O[C@@]([H])(C([H])([H])OC([H])([H])[H])C([H])([H])O5)o3)c([H])c2[H])c(C#N)c1[H]


 34 38  0  0  0  0  0  0  0  0999 V2000
   -8.4762   21.7364  -19.9206 C   0  0  0  0  0  0  0  0  0  0  0  0
   -7.5660   21.1209  -20.6739 N   0  0  0  0  0  0  0  0  0  0  0  0
   -7.1408   21.9719  -21.5821 N   0  0  0  0  0  0  0  0  0  0  0  0
   -7.7809   23.1310  -21.4070 C   0  0  0  0  0  0  0  0  0  0  0  0
   -8.5961   22.9353  -20.3672 O   0  0  0  0  0  0  0  0  0  0  0  0
   -9.6662   17.6131  -15.5576 C   0  0  0  0  0  0  0  0  0  0  0  0
  -10.3978   18.6334  -14.6977 C   0  0  0  0  0  0  0  0  0  0  0  0
  -11.2183   19.4035  -15.5976 O   0  0  0  0  0  0  0  0  0  0  0  0
  -10.5655   19.9940  -16.6650 C   0  0  0  0  0  0  0  0  0  0  0  0
  -11.1498   21.0479  -17.3742 C   0  0  0  0  0  0  0  0  0  0  0  0
  -10.4387   21.5867  -18.4266 C   0  0  0  0  0  0  0  0  0  0  0  0
   -9.1953   21.1240  -18.7896 C   0  0  0  0  0  0  0  0  0  0  0  0
   -8.6480   20.0986  -18.0854 C   0  0  0  0  0  0  0  0  0  0  0  0
   -9.3202   19.5164  -17.0136 C   0  0  0  0  0  0  0  0  0  0  0  0
   -8.7396   18.4711  -16.3107 O   0  0  0  0  0  0  0  0  0  0  0  0
   -8.8530   16.6413  -14.7757 C   0  0  0  0  0  0  0  0  0  0  0  0
   -9.9764   14.7442  -15.6417 C   0  0  0  0  0  0  0  0  0  0  0  0
   -9.0610   15.3337  -14.8632 O   0  0  0  0  0  0  0  0  0  0  0  0
   -7.6053   24.6267  -22.3416 S   0  0  0  0  0  0  0  0  0  0  0  0
   -7.4566   24.3728  -24.1131 C   0  0  0  0  0  0  0  0  0  0  0  0
   -6.0897   24.0011  -24.5307 C   0  0  0  0  0  0  0  0  0  0  0  0
   -5.8560   22.6805  -24.9135 C   0  0  0  0  0  0  0  0  0  0  0  0
   -4.5956   22.2748  -25.2911 C   0  0  0  0  0  0  0  0  0  0  0  0
   -3.5218   23.1278  -25.3121 C   0  0  0  0  0  0  0  0  0  0  0  0
   -3.7594   24.4338  -24.9317 C   0  0  0  0  0  0  0  0  0  0  0  0
   -5.0246   24.8466  -24.5506 C   0  0  0  0  0  0  0  0  0  0  0  0
   -2.1748   22.7523  -25.7124 C   0  0  0  0  0  0  0  0  0  0  0  0
   -1.2225   22.3958  -24.7484 C   0  0  0  0  0  0  0  0  0  0  0  0
    0.0501   22.0254  -25.1094 C   0  0  0  0  0  0  0  0  0  0  0  0
    0.4522   21.9858  -26.4265 C   0  0  0  0  0  0  0  0  0  0  0  0
   -0.4714   22.3334  -27.3846 C   0  0  0  0  0  0  0  0  0  0  0  0
   -1.7683   22.7113  -27.0214 C   0  0  0  0  0  0  0  0  0  0  0  0
   -2.6943   23.0803  -28.0590 C   0  0  0  0  0  0  0  0  0  0  0  0
   -3.4317   23.4007  -28.9012 N   0  0  0  0  0  0  0  0  0  0  0  0
 17 18  1  0  0  0
 18 16  1  0  0  0
 16  6  1  0  0  0
  6  7  1  0  0  0
  7  8  1  0  0  0
  8  9  1  0  0  0
  9 10  2  0  0  0
 10 11  1  0  0  0
 11 12  2  0  0  0
 12  1  1  0  0  0
  1  2  2  0  0  0
  2  3  1  0  0  0
  3  4  2  0  0  0
  4 19  1  0  0  0
 19 20  1  0  0  0
 20 21  1  0  0  0
 21 22  2  0  0  0
 22 23  1  0  0  0
 23 24  2  0  0  0
 24 27  1  0  0  0
 27 28  2  0  0  0
 28 29  1  0  0  0
 29 30  2  0  0  0
 30 31  1  0  0  0
 31 32  2  0  0  0
 32 33  1  0  0  0
 33 34  3  0  0  0
 24 25  1  0  0  0
 25 26  2  0  0  0
  4  5  1  0  0  0
 12 13  1  0  0  0
 13 14  2  0  0  0
 14 15  1  0  0  0
 15  6  1  0  0  0
 14  9  1  0  0  0
  5  1  1  0  0  0
 26 21  1  0  0  0
 32 27  1  0  0  0
M  END
> <minimizedAffinity>
-7.71410

> <CNNscore>
0.1904773116

> <CNNaffinity>
5.5681009293

> <CNN_VS>
1.0605969429

> <CNNaffinity_variance>
0.1399098933

$$$$
[H]c1c([H])c([H])c(-c2c([H])c([H])c(C([H])([H])Sc3nnc(-c4c([H])c([H])c5c(c4[H])O[C@@]([H])(C([H])([H])OC([H])([H])[H])C([H])([H])O5)o3)c([H])c2[H])c(C#N)c1[H]


 34 38  0  0  0  0  0  0  0  0999 V2000
   -2.3234   22.8126  -26.7657 C   0  0  0  0  0  0  0  0  0  0  0  0
   -1.9681   22.7089  -28.0454 N   0  0  0  0  0  0  0  0  0  0  0  0
   -2.9454   23.1886  -28.7833 N   0  0  0  0  0  0  0  0  0  0  0  0
   -3.9245   23.5984  -27.9727 C   0  0  0  0  0  0  0  0  0  0  0  0
   -3.4926   23.3449  -26.7344 O   0  0  0  0  0  0  0  0  0  0  0  0
   -1.0048   21.5553  -20.9233 C   0  0  0  0  0  0  0  0  0  0  0  0
    0.0824   20.5636  -21.3110 C   0  0  0  0  0  0  0  0  0  0  0  0
    0.8136   21.1712  -22.3937 O   0  0  0  0  0  0  0  0  0  0  0  0
    0.0650   21.5765  -23.4843 C   0  0  0  0  0  0  0  0  0  0  0  0
    0.6676   21.8207  -24.7222 C   0  0  0  0  0  0  0  0  0  0  0  0
   -0.1432   22.2218  -25.7639 C   0  0  0  0  0  0  0  0  0  0  0  0
   -1.5014   22.3847  -25.6200 C   0  0  0  0  0  0  0  0  0  0  0  0
   -2.0644   22.1415  -24.4072 C   0  0  0  0  0  0  0  0  0  0  0  0
   -1.2947   21.7342  -23.3204 C   0  0  0  0  0  0  0  0  0  0  0  0
   -1.8935   21.4921  -22.0929 O   0  0  0  0  0  0  0  0  0  0  0  0
   -1.7942   21.1449  -19.7293 C   0  0  0  0  0  0  0  0  0  0  0  0
   -0.6840   22.6369  -18.2623 C   0  0  0  0  0  0  0  0  0  0  0  0
   -1.5435   21.6454  -18.5263 O   0  0  0  0  0  0  0  0  0  0  0  0
   -5.4774   24.3270  -28.4186 S   0  0  0  0  0  0  0  0  0  0  0  0
   -5.9972   25.6659  -27.3406 C   0  0  0  0  0  0  0  0  0  0  0  0
   -5.9215   25.3165  -25.9078 C   0  0  0  0  0  0  0  0  0  0  0  0
   -6.8367   24.3901  -25.4083 C   0  0  0  0  0  0  0  0  0  0  0  0
   -6.8247   24.0445  -24.0755 C   0  0  0  0  0  0  0  0  0  0  0  0
   -5.9315   24.5798  -23.1830 C   0  0  0  0  0  0  0  0  0  0  0  0
   -5.0283   25.4967  -23.6833 C   0  0  0  0  0  0  0  0  0  0  0  0
   -5.0365   25.8480  -25.0224 C   0  0  0  0  0  0  0  0  0  0  0  0
   -5.8704   24.2408  -21.7698 C   0  0  0  0  0  0  0  0  0  0  0  0
   -5.0267   23.2153  -21.3228 C   0  0  0  0  0  0  0  0  0  0  0  0
   -4.9464   22.8909  -19.9904 C   0  0  0  0  0  0  0  0  0  0  0  0
   -5.6849   23.5515  -19.0332 C   0  0  0  0  0  0  0  0  0  0  0  0
   -6.5181   24.5606  -19.4565 C   0  0  0  0  0  0  0  0  0  0  0  0
   -6.6031   24.8941  -20.8123 C   0  0  0  0  0  0  0  0  0  0  0  0
   -7.5000   25.9473  -21.2077 C   0  0  0  0  0  0  0  0  0  0  0  0
   -8.2449   26.7834  -21.5271 N   0  0  0  0  0  0  0  0  0  0  0  0
 17 18  1  0  0  0
 18 16  1  0  0  0
 16  6  1  0  0  0
  6  7  1  0  0  0
  7  8  1  0  0  0
  8  9  1  0  0  0
  9 10  2  0  0  0
 10 11  1  0  0  0
 11 12  2  0  0  0
 12  1  1  0  0  0
  1  2  2  0  0  0
  2  3  1  0  0  0
  3  4  2  0  0  0
  4 19  1  0  0  0
 19 20  1  0  0  0
 20 21  1  0  0  0
 21 22  2  0  0  0
 22 23  1  0  0  0
 23 24  2  0  0  0
 24 27  1  0  0  0
 27 28  2  0  0  0
 28 29  1  0  0  0
 29 30  2  0  0  0
 30 31  1  0  0  0
 31 32  2  0  0  0
 32 33  1  0  0  0
 33 34  3  0  0  0
 24 25  1  0  0  0
 25 26  2  0  0  0
  4  5  1  0  0  0
 12 13  1  0  0  0
 13 14  2  0  0  0
 14 15  1  0  0  0
 15  6  1  0  0  0
 14  9  1  0  0  0
  5  1  1  0  0  0
 26 21  1  0  0  0
 32 27  1  0  0  0
M  END
> <minimizedAffinity>
-8.20116

> <CNNscore>
0.1900310069

> <CNNaffinity>
6.4986467361

> <CNN_VS>
1.2349443436

> <CNNaffinity_variance>
0.2120073289

$$$$
[H]c1c([H])c([H])c(C2([H])C([H])([H])[C@]2([H])N([H])C([H])([H])c2c([H])c([H])c(OC([H])([H])[H])c3c([H])c([H])c([H])c([H])c23)c([H])c1[H]


 24 27  0  0  0  0  0  0  0  0999 V2000
   -1.0081   22.2615  -26.2096 C   0  0  0  0  0  0  0  0  0  0  0  0
   -2.1424   22.3817  -26.9730 C   0  0  0  0  0  0  0  0  0  0  0  0
   -3.4128   22.2159  -26.4393 C   0  0  0  0  0  0  0  0  0  0  0  0
   -3.5800   21.9202  -25.1051 C   0  0  0  0  0  0  0  0  0  0  0  0
   -2.4312   21.7962  -24.3213 C   0  0  0  0  0  0  0  0  0  0  0  0
   -2.6093   21.5001  -22.9856 C   0  0  0  0  0  0  0  0  0  0  0  0
   -1.4596   21.3805  -22.2216 C   0  0  0  0  0  0  0  0  0  0  0  0
   -0.2025   21.5442  -22.7475 C   0  0  0  0  0  0  0  0  0  0  0  0
   -0.0398   21.8398  -24.0834 C   0  0  0  0  0  0  0  0  0  0  0  0
   -1.1857   21.9651  -24.8730 C   0  0  0  0  0  0  0  0  0  0  0  0
    0.4220   23.0102  -28.0393 C   0  0  0  0  0  0  0  0  0  0  0  0
    0.2694   22.4302  -26.7549 O   0  0  0  0  0  0  0  0  0  0  0  0
   -4.9259   21.7443  -24.4967 C   0  0  0  0  0  0  0  0  0  0  0  0
   -5.6381   22.9818  -24.5715 N   0  0  0  0  0  0  0  0  0  0  0  0
   -5.1265   23.7799  -24.1192 H   0  0  0  0  0  0  0  0  0  0  0  0
   -6.0934   23.3182  -25.8927 C   0  0  0  0  0  0  0  0  0  0  0  0
   -7.1591   24.4204  -25.8963 C   0  0  0  0  0  0  0  0  0  0  0  0
   -5.8362   24.6166  -26.5367 C   0  0  0  0  0  0  0  0  0  0  0  0
   -5.7449   24.6278  -28.0158 C   0  0  0  0  0  0  0  0  0  0  0  0
   -5.7308   25.7759  -28.7734 C   0  0  0  0  0  0  0  0  0  0  0  0
   -5.6458   25.7599  -30.1380 C   0  0  0  0  0  0  0  0  0  0  0  0
   -5.5703   24.5709  -30.8070 C   0  0  0  0  0  0  0  0  0  0  0  0
   -5.5821   23.4023  -30.0762 C   0  0  0  0  0  0  0  0  0  0  0  0
   -5.6686   23.4356  -28.6960 C   0  0  0  0  0  0  0  0  0  0  0  0
 11 12  1  0  0  0
 12  1  1  0  0  0
  1  2  2  0  0  0
  2  3  1  0  0  0
  3  4  2  0  0  0
  4 13  1  0  0  0
 13 14  1  0  0  0
 14 16  1  0  0  0
 16 17  1  0  0  0
 17 18  1  0  0  0
 18 19  1  0  0  0
 19 20  2  0  0  0
 20 21  1  0  0  0
 21 22  2  0  0  0
 22 23  1  0  0  0
 23 24  2  0  0  0
  4  5  1  0  0  0
  5  6  2  0  0  0
  6  7  1  0  0  0
  7  8  2  0  0  0
  8  9  1  0  0  0
  9 10  2  0  0  0
 10  1  1  0  0  0
 18 16  1  0  0  0
 24 19  1  0  0  0
 10  5  1  0  0  0
 14 15  1  0  0  0
M  END
> <minimizedAffinity>
-8.56016

> <CNNscore>
0.4810893834

> <CNNaffinity>
6.1804804802

> <CNN_VS>
2.9733636379

> <CNNaffinity_variance>
0.1228338256

$$$$
[H]c1c([H])c([H])c(C2([H])C([H])([H])[C@]2([H])N([H])C([H])([H])c2c([H])c([H])c(OC([H])([H])[H])c3c([H])c([H])c([H])c([H])c23)c([H])c1[H]


 24 27  0  0  0  0  0  0  0  0999 V2000
   -0.7850   22.3074  -26.0084 C   0  0  0  0  0  0  0  0  0  0  0  0
   -2.1233   22.3379  -26.3117 C   0  0  0  0  0  0  0  0  0  0  0  0
   -3.0975   21.9771  -25.3914 C   0  0  0  0  0  0  0  0  0  0  0  0
   -2.7482   21.5695  -24.1235 C   0  0  0  0  0  0  0  0  0  0  0  0
   -1.3888   21.5356  -23.8068 C   0  0  0  0  0  0  0  0  0  0  0  0
   -1.0490   21.1262  -22.5338 C   0  0  0  0  0  0  0  0  0  0  0  0
    0.3037   21.0981  -22.2354 C   0  0  0  0  0  0  0  0  0  0  0  0
    1.2686   21.4548  -23.1439 C   0  0  0  0  0  0  0  0  0  0  0  0
    0.9144   21.8617  -24.4118 C   0  0  0  0  0  0  0  0  0  0  0  0
   -0.4445   21.8977  -24.7348 C   0  0  0  0  0  0  0  0  0  0  0  0
   -0.1882   23.0591  -28.2517 C   0  0  0  0  0  0  0  0  0  0  0  0
    0.1913   22.6729  -26.9417 O   0  0  0  0  0  0  0  0  0  0  0  0
   -3.7649   21.1839  -23.1086 C   0  0  0  0  0  0  0  0  0  0  0  0
   -4.0125   22.2985  -22.2481 N   0  0  0  0  0  0  0  0  0  0  0  0
   -3.1638   22.5977  -21.7064 H   0  0  0  0  0  0  0  0  0  0  0  0
   -4.6528   23.4100  -22.8967 C   0  0  0  0  0  0  0  0  0  0  0  0
   -4.8575   24.6103  -21.9650 C   0  0  0  0  0  0  0  0  0  0  0  0
   -3.9840   24.6946  -23.1603 C   0  0  0  0  0  0  0  0  0  0  0  0
   -4.4462   25.4645  -24.3392 C   0  0  0  0  0  0  0  0  0  0  0  0
   -5.2828   24.9561  -25.3057 C   0  0  0  0  0  0  0  0  0  0  0  0
   -5.6955   25.6872  -26.3849 C   0  0  0  0  0  0  0  0  0  0  0  0
   -5.2777   26.9791  -26.5390 C   0  0  0  0  0  0  0  0  0  0  0  0
   -4.4387   27.5176  -25.5873 C   0  0  0  0  0  0  0  0  0  0  0  0
   -4.0304   26.7647  -24.5011 C   0  0  0  0  0  0  0  0  0  0  0  0
 11 12  1  0  0  0
 12  1  1  0  0  0
  1  2  2  0  0  0
  2  3  1  0  0  0
  3  4  2  0  0  0
  4 13  1  0  0  0
 13 14  1  0  0  0
 14 16  1  0  0  0
 16 17  1  0  0  0
 17 18  1  0  0  0
 18 19  1  0  0  0
 19 20  2  0  0  0
 20 21  1  0  0  0
 21 22  2  0  0  0
 22 23  1  0  0  0
 23 24  2  0  0  0
  4  5  1  0  0  0
  5  6  2  0  0  0
  6  7  1  0  0  0
  7  8  2  0  0  0
  8  9  1  0  0  0
  9 10  2  0  0  0
 10  1  1  0  0  0
 18 16  1  0  0  0
 24 19  1  0  0  0
 10  5  1  0  0  0
 14 15  1  0  0  0
M  END
> <minimizedAffinity>
-7.42050

> <CNNscore>
0.4585171938

> <CNNaffinity>
5.5586481094

> <CNN_VS>
2.5487356186

> <CNNaffinity_variance>
0.2531443238

$$$$
[H]c1c([H])c([H])c(C2([H])C([H])([H])[C@]2([H])N([H])C([H])([H])c2c([H])c([H])c(OC([H])([H])[H])c3c([H])c([H])c([H])c([H])c23)c([H])c1[H]


 24 27  0  0  0  0  0  0  0  0999 V2000
   -0.5116   21.5664  -23.3725 C   0  0  0  0  0  0  0  0  0  0  0  0
   -1.6612   21.4307  -22.6349 C   0  0  0  0  0  0  0  0  0  0  0  0
   -2.9214   21.5753  -23.1981 C   0  0  0  0  0  0  0  0  0  0  0  0
   -3.0625   21.8647  -24.5367 C   0  0  0  0  0  0  0  0  0  0  0  0
   -1.8981   22.0044  -25.2943 C   0  0  0  0  0  0  0  0  0  0  0  0
   -2.0501   22.2941  -26.6347 C   0  0  0  0  0  0  0  0  0  0  0  0
   -0.8851   22.4295  -27.3725 C   0  0  0  0  0  0  0  0  0  0  0  0
    0.3619   22.2866  -26.8175 C   0  0  0  0  0  0  0  0  0  0  0  0
    0.4985   21.9973  -25.4773 C   0  0  0  0  0  0  0  0  0  0  0  0
   -0.6631   21.8564  -24.7138 C   0  0  0  0  0  0  0  0  0  0  0  0
    0.9195   20.6244  -21.6353 C   0  0  0  0  0  0  0  0  0  0  0  0
    0.7554   21.4191  -22.7976 O   0  0  0  0  0  0  0  0  0  0  0  0
   -4.3967   22.0181  -25.1762 C   0  0  0  0  0  0  0  0  0  0  0  0
   -4.8790   23.3431  -24.9396 N   0  0  0  0  0  0  0  0  0  0  0  0
   -4.2208   23.9247  -24.3636 H   0  0  0  0  0  0  0  0  0  0  0  0
   -5.3046   24.0336  -26.1263 C   0  0  0  0  0  0  0  0  0  0  0  0
   -5.0718   25.5473  -26.0545 C   0  0  0  0  0  0  0  0  0  0  0  0
   -4.3791   24.7013  -27.0561 C   0  0  0  0  0  0  0  0  0  0  0  0
   -4.7929   24.7798  -28.4770 C   0  0  0  0  0  0  0  0  0  0  0  0
   -4.7052   25.9224  -29.2380 C   0  0  0  0  0  0  0  0  0  0  0  0
   -5.0938   25.9694  -30.5481 C   0  0  0  0  0  0  0  0  0  0  0  0
   -5.5940   24.8526  -31.1560 C   0  0  0  0  0  0  0  0  0  0  0  0
   -5.6946   23.6915  -30.4201 C   0  0  0  0  0  0  0  0  0  0  0  0
   -5.2970   23.6605  -29.0956 C   0  0  0  0  0  0  0  0  0  0  0  0
 11 12  1  0  0  0
 12  1  1  0  0  0
  1  2  2  0  0  0
  2  3  1  0  0  0
  3  4  2  0  0  0
  4 13  1  0  0  0
 13 14  1  0  0  0
 14 16  1  0  0  0
 16 17  1  0  0  0
 17 18  1  0  0  0
 18 19  1  0  0  0
 19 20  2  0  0  0
 20 21  1  0  0  0
 21 22  2  0  0  0
 22 23  1  0  0  0
 23 24  2  0  0  0
  4  5  1  0  0  0
  5  6  2  0  0  0
  6  7  1  0  0  0
  7  8  2  0  0  0
  8  9  1  0  0  0
  9 10  2  0  0  0
 10  1  1  0  0  0
 18 16  1  0  0  0
 24 19  1  0  0  0
 10  5  1  0  0  0
 14 15  1  0  0  0
M  END
> <minimizedAffinity>
-9.06681

> <CNNscore>
0.3892369866

> <CNNaffinity>
5.9820446968

> <CNN_VS>
2.3284330368

> <CNNaffinity_variance>
0.1108444482

$$$$
[H]c1c([H])c([H])c(C2([H])C([H])([H])[C@]2([H])N([H])C([H])([H])c2c([H])c([H])c(OC([H])([H])[H])c3c([H])c([H])c([H])c([H])c23)c([H])c1[H]


 24 27  0  0  0  0  0  0  0  0999 V2000
   -0.7518   22.4544  -26.3855 C   0  0  0  0  0  0  0  0  0  0  0  0
   -2.0446   22.5443  -26.8377 C   0  0  0  0  0  0  0  0  0  0  0  0
   -3.1321   22.2398  -26.0308 C   0  0  0  0  0  0  0  0  0  0  0  0
   -2.9471   21.8306  -24.7293 C   0  0  0  0  0  0  0  0  0  0  0  0
   -1.6350   21.7366  -24.2613 C   0  0  0  0  0  0  0  0  0  0  0  0
   -1.4602   21.3259  -22.9558 C   0  0  0  0  0  0  0  0  0  0  0  0
   -0.1523   21.2378  -22.5068 C   0  0  0  0  0  0  0  0  0  0  0  0
    0.9243   21.5386  -23.3030 C   0  0  0  0  0  0  0  0  0  0  0  0
    0.7345   21.9475  -24.6050 C   0  0  0  0  0  0  0  0  0  0  0  0
   -0.5763   22.0435  -25.0792 C   0  0  0  0  0  0  0  0  0  0  0  0
    0.1267   23.1824  -28.5423 C   0  0  0  0  0  0  0  0  0  0  0  0
    0.3394   22.7632  -27.2050 O   0  0  0  0  0  0  0  0  0  0  0  0
   -4.0886   21.5045  -23.8331 C   0  0  0  0  0  0  0  0  0  0  0  0
   -5.1331   22.4584  -24.0405 N   0  0  0  0  0  0  0  0  0  0  0  0
   -5.8240   22.1605  -24.7735 H   0  0  0  0  0  0  0  0  0  0  0  0
   -5.7851   22.8869  -22.8332 C   0  0  0  0  0  0  0  0  0  0  0  0
   -6.7740   24.0359  -23.0621 C   0  0  0  0  0  0  0  0  0  0  0  0
   -7.2237   22.7087  -22.5773 C   0  0  0  0  0  0  0  0  0  0  0  0
   -7.6423   22.5607  -21.1634 C   0  0  0  0  0  0  0  0  0  0  0  0
   -8.6399   21.7108  -20.7452 C   0  0  0  0  0  0  0  0  0  0  0  0
   -9.0081   21.5920  -19.4338 C   0  0  0  0  0  0  0  0  0  0  0  0
   -8.3788   22.3341  -18.4744 C   0  0  0  0  0  0  0  0  0  0  0  0
   -7.3746   23.1952  -18.8614 C   0  0  0  0  0  0  0  0  0  0  0  0
   -7.0139   23.3037  -20.1924 C   0  0  0  0  0  0  0  0  0  0  0  0
 11 12  1  0  0  0
 12  1  1  0  0  0
  1  2  2  0  0  0
  2  3  1  0  0  0
  3  4  2  0  0  0
  4 13  1  0  0  0
 13 14  1  0  0  0
 14 16  1  0  0  0
 16 17  1  0  0  0
 17 18  1  0  0  0
 18 19  1  0  0  0
 19 20  2  0  0  0
 20 21  1  0  0  0
 21 22  2  0  0  0
 22 23  1  0  0  0
 23 24  2  0  0  0
  4  5  1  0  0  0
  5  6  2  0  0  0
  6  7  1  0  0  0
  7  8  2  0  0  0
  8  9  1  0  0  0
  9 10  2  0  0  0
 10  1  1  0  0  0
 18 16  1  0  0  0
 24 19  1  0  0  0
 10  5  1  0  0  0
 14 15  1  0  0  0
M  END
> <minimizedAffinity>
-7.05892

> <CNNscore>
0.3790865242

> <CNNaffinity>
5.4885001183

> <CNN_VS>
2.0806164742

> <CNNaffinity_variance>
0.0968532190

$$$$
[H]c1c([H])c([H])c(C2([H])C([H])([H])[C@]2([H])N([H])C([H])([H])c2c([H])c([H])c(OC([H])([H])[H])c3c([H])c([H])c([H])c([H])c23)c([H])c1[H]


 24 27  0  0  0  0  0  0  0  0999 V2000
   -5.8830   23.7997  -26.4333 C   0  0  0  0  0  0  0  0  0  0  0  0
   -5.9455   22.6674  -25.6600 C   0  0  0  0  0  0  0  0  0  0  0  0
   -5.4376   22.6258  -24.3690 C   0  0  0  0  0  0  0  0  0  0  0  0
   -4.8444   23.7366  -23.8125 C   0  0  0  0  0  0  0  0  0  0  0  0
   -4.7767   24.8927  -24.5924 C   0  0  0  0  0  0  0  0  0  0  0  0
   -4.1807   26.0004  -24.0256 C   0  0  0  0  0  0  0  0  0  0  0  0
   -4.1215   27.1394  -24.8124 C   0  0  0  0  0  0  0  0  0  0  0  0
   -4.6233   27.1826  -26.0891 C   0  0  0  0  0  0  0  0  0  0  0  0
   -5.2159   26.0685  -26.6422 C   0  0  0  0  0  0  0  0  0  0  0  0
   -5.2866   24.9084  -25.8667 C   0  0  0  0  0  0  0  0  0  0  0  0
   -5.6499   23.2880  -28.8076 C   0  0  0  0  0  0  0  0  0  0  0  0
   -6.3974   23.8339  -27.7340 O   0  0  0  0  0  0  0  0  0  0  0  0
   -4.2971   23.7314  -22.4294 C   0  0  0  0  0  0  0  0  0  0  0  0
   -3.2351   22.7775  -22.3504 N   0  0  0  0  0  0  0  0  0  0  0  0
   -3.5755   21.7878  -22.2620 H   0  0  0  0  0  0  0  0  0  0  0  0
   -2.2463   22.9129  -23.3850 C   0  0  0  0  0  0  0  0  0  0  0  0
   -0.9980   22.0584  -23.1358 C   0  0  0  0  0  0  0  0  0  0  0  0
   -1.8778   21.8258  -24.3065 C   0  0  0  0  0  0  0  0  0  0  0  0
   -1.4040   22.2181  -25.6547 C   0  0  0  0  0  0  0  0  0  0  0  0
   -2.2366   22.6320  -26.6685 C   0  0  0  0  0  0  0  0  0  0  0  0
   -1.7747   22.9891  -27.9049 C   0  0  0  0  0  0  0  0  0  0  0  0
   -0.4364   22.9440  -28.1769 C   0  0  0  0  0  0  0  0  0  0  0  0
    0.4243   22.5334  -27.1817 C   0  0  0  0  0  0  0  0  0  0  0  0
   -0.0591   22.1755  -25.9360 C   0  0  0  0  0  0  0  0  0  0  0  0
 11 12  1  0  0  0
 12  1  1  0  0  0
  1  2  2  0  0  0
  2  3  1  0  0  0
  3  4  2  0  0  0
  4 13  1  0  0  0
 13 14  1  0  0  0
 14 16  1  0  0  0
 16 17  1  0  0  0
 17 18  1  0  0  0
 18 19  1  0  0  0
 19 20  2  0  0  0
 20 21  1  0  0  0
 21 22  2  0  0  0
 22 23  1  0  0  0
 23 24  2  0  0  0
  4  5  1  0  0  0
  5  6  2  0  0  0
  6  7  1  0  0  0
  7  8  2  0  0  0
  8  9  1  0  0  0
  9 10  2  0  0  0
 10  1  1  0  0  0
 18 16  1  0  0  0
 24 19  1  0  0  0
 10  5  1  0  0  0
 14 15  1  0  0  0
M  END
> <minimizedAffinity>
-8.31745

> <CNNscore>
0.3648338914

> <CNNaffinity>
5.9097619057

> <CNN_VS>
2.1560814381

> <CNNaffinity_variance>
0.1191800684

$$$$
[H]c1c([H])c([H])c(C2([H])C([H])([H])[C@]2([H])N([H])C([H])([H])c2c([H])c([H])c(OC([H])([H])[H])c3c([H])c([H])c([H])c([H])c23)c([H])c1[H]


 24 27  0  0  0  0  0  0  0  0999 V2000
   -3.6920   23.5460  -28.1945 C   0  0  0  0  0  0  0  0  0  0  0  0
   -4.6992   23.3302  -27.2874 C   0  0  0  0  0  0  0  0  0  0  0  0
   -4.4672   22.7405  -26.0526 C   0  0  0  0  0  0  0  0  0  0  0  0
   -3.1987   22.3457  -25.6910 C   0  0  0  0  0  0  0  0  0  0  0  0
   -2.1683   22.5617  -26.6081 C   0  0  0  0  0  0  0  0  0  0  0  0
   -0.9009   22.1630  -26.2363 C   0  0  0  0  0  0  0  0  0  0  0  0
    0.1104   22.3843  -27.1572 C   0  0  0  0  0  0  0  0  0  0  0  0
   -0.1169   22.9674  -28.3786 C   0  0  0  0  0  0  0  0  0  0  0  0
   -1.3881   23.3607  -28.7365 C   0  0  0  0  0  0  0  0  0  0  0  0
   -2.4236   23.1471  -27.8230 C   0  0  0  0  0  0  0  0  0  0  0  0
   -4.1307   25.5421  -29.5274 C   0  0  0  0  0  0  0  0  0  0  0  0
   -3.9338   24.1413  -29.4374 O   0  0  0  0  0  0  0  0  0  0  0  0
   -2.9112   21.7187  -24.3732 C   0  0  0  0  0  0  0  0  0  0  0  0
   -2.5994   22.7434  -23.4261 N   0  0  0  0  0  0  0  0  0  0  0  0
   -3.3465   22.8745  -22.6995 H   0  0  0  0  0  0  0  0  0  0  0  0
   -1.2946   22.6198  -22.8358 C   0  0  0  0  0  0  0  0  0  0  0  0
   -1.3343   22.5488  -21.3048 C   0  0  0  0  0  0  0  0  0  0  0  0
   -0.8341   21.4174  -22.1224 C   0  0  0  0  0  0  0  0  0  0  0  0
    0.6203   21.1344  -22.1499 C   0  0  0  0  0  0  0  0  0  0  0  0
    1.3404   20.7191  -21.0538 C   0  0  0  0  0  0  0  0  0  0  0  0
    2.6828   20.4642  -21.1047 C   0  0  0  0  0  0  0  0  0  0  0  0
    3.3666   20.6185  -22.2775 C   0  0  0  0  0  0  0  0  0  0  0  0
    2.6733   21.0335  -23.3942 C   0  0  0  0  0  0  0  0  0  0  0  0
    1.3152   21.2873  -23.3261 C   0  0  0  0  0  0  0  0  0  0  0  0
 11 12  1  0  0  0
 12  1  1  0  0  0
  1  2  2  0  0  0
  2  3  1  0  0  0
  3  4  2  0  0  0
  4 13  1  0  0  0
 13 14  1  0  0  0
 14 16  1  0  0  0
 16 17  1  0  0  0
 17 18  1  0  0  0
 18 19  1  0  0  0
 19 20  2  0  0  0
 20 21  1  0  0  0
 21 22  2  0  0  0
 22 23  1  0  0  0
 23 24  2  0  0  0
  4  5  1  0  0  0
  5  6  2  0  0  0
  6  7  1  0  0  0
  7  8  2  0  0  0
  8  9  1  0  0  0
  9 10  2  0  0  0
 10  1  1  0  0  0
 18 16  1  0  0  0
 24 19  1  0  0  0
 10  5  1  0  0  0
 14 15  1  0  0  0
M  END
> <minimizedAffinity>
-7.70770

> <CNNscore>
0.3333584070

> <CNNaffinity>
5.4957146645

> <CNN_VS>
1.8320426941

> <CNNaffinity_variance>
0.1142840758

$$$$
[H]c1c([H])c([H])c(C2([H])C([H])([H])[C@]2([H])N([H])C([H])([H])c2c([H])c([H])c(OC([H])([H])[H])c3c([H])c([H])c([H])c([H])c23)c([H])c1[H]


 24 27  0  0  0  0  0  0  0  0999 V2000
   -4.9584   25.4660  -28.7391 C   0  0  0  0  0  0  0  0  0  0  0  0
   -6.0385   25.6116  -27.9048 C   0  0  0  0  0  0  0  0  0  0  0  0
   -6.2093   24.8255  -26.7737 C   0  0  0  0  0  0  0  0  0  0  0  0
   -5.2863   23.8579  -26.4462 C   0  0  0  0  0  0  0  0  0  0  0  0
   -4.1845   23.7032  -27.2897 C   0  0  0  0  0  0  0  0  0  0  0  0
   -3.2652   22.7311  -26.9527 C   0  0  0  0  0  0  0  0  0  0  0  0
   -2.1777   22.5904  -27.7997 C   0  0  0  0  0  0  0  0  0  0  0  0
   -2.0070   23.3668  -28.9184 C   0  0  0  0  0  0  0  0  0  0  0  0
   -2.9333   24.3339  -29.2427 C   0  0  0  0  0  0  0  0  0  0  0  0
   -4.0383   24.4934  -28.4025 C   0  0  0  0  0  0  0  0  0  0  0  0
   -5.5769   26.0199  -31.0335 C   0  0  0  0  0  0  0  0  0  0  0  0
   -4.7932   26.2625  -29.8776 O   0  0  0  0  0  0  0  0  0  0  0  0
   -5.4319   23.0030  -25.2376 C   0  0  0  0  0  0  0  0  0  0  0  0
   -5.1219   23.7780  -24.0768 N   0  0  0  0  0  0  0  0  0  0  0  0
   -5.8388   23.6842  -23.3149 H   0  0  0  0  0  0  0  0  0  0  0  0
   -3.7863   23.5850  -23.5816 C   0  0  0  0  0  0  0  0  0  0  0  0
   -3.7345   23.3797  -22.0631 C   0  0  0  0  0  0  0  0  0  0  0  0
   -3.3064   22.3181  -23.0058 C   0  0  0  0  0  0  0  0  0  0  0  0
   -1.8620   22.0188  -23.1480 C   0  0  0  0  0  0  0  0  0  0  0  0
   -1.1038   21.4209  -22.1682 C   0  0  0  0  0  0  0  0  0  0  0  0
    0.2283   21.1549  -22.3236 C   0  0  0  0  0  0  0  0  0  0  0  0
    0.8625   21.4840  -23.4884 C   0  0  0  0  0  0  0  0  0  0  0  0
    0.1302   22.0844  -24.4898 C   0  0  0  0  0  0  0  0  0  0  0  0
   -1.2170   22.3468  -24.3168 C   0  0  0  0  0  0  0  0  0  0  0  0
 11 12  1  0  0  0
 12  1  1  0  0  0
  1  2  2  0  0  0
  2  3  1  0  0  0
  3  4  2  0  0  0
  4 13  1  0  0  0
 13 14  1  0  0  0
 14 16  1  0  0  0
 16 17  1  0  0  0
 17 18  1  0  0  0
 18 19  1  0  0  0
 19 20  2  0  0  0
 20 21  1  0  0  0
 21 22  2  0  0  0
 22 23  1  0  0  0
 23 24  2  0  0  0
  4  5  1  0  0  0
  5  6  2  0  0  0
  6  7  1  0  0  0
  7  8  2  0  0  0
  8  9  1  0  0  0
  9 10  2  0  0  0
 10  1  1  0  0  0
 18 16  1  0  0  0
 24 19  1  0  0  0
 10  5  1  0  0  0
 14 15  1  0  0  0
M  END
> <minimizedAffinity>
-7.39889

> <CNNscore>
0.3318296373

> <CNNaffinity>
5.9049715996

> <CNN_VS>
1.9594446421

> <CNNaffinity_variance>
0.0913566351

$$$$
[H]c1c([H])c([H])c(C2([H])C([H])([H])[C@]2([H])N([H])C([H])([H])c2c([H])c([H])c(OC([H])([H])[H])c3c([H])c([H])c([H])c([H])c23)c([H])c1[H]


 24 27  0  0  0  0  0  0  0  0999 V2000
   -3.0867   23.1028  -27.3232 C   0  0  0  0  0  0  0  0  0  0  0  0
   -4.2804   22.8444  -26.6969 C   0  0  0  0  0  0  0  0  0  0  0  0
   -4.3451   22.2200  -25.4591 C   0  0  0  0  0  0  0  0  0  0  0  0
   -3.1955   21.8326  -24.8080 C   0  0  0  0  0  0  0  0  0  0  0  0
   -1.9768   22.0918  -25.4382 C   0  0  0  0  0  0  0  0  0  0  0  0
   -0.8306   21.7000  -24.7775 C   0  0  0  0  0  0  0  0  0  0  0  0
    0.3703   21.9645  -25.4161 C   0  0  0  0  0  0  0  0  0  0  0  0
    0.4363   22.5820  -26.6400 C   0  0  0  0  0  0  0  0  0  0  0  0
   -0.7168   22.9678  -27.2881 C   0  0  0  0  0  0  0  0  0  0  0  0
   -1.9395   22.7110  -26.6626 C   0  0  0  0  0  0  0  0  0  0  0  0
   -4.0846   24.5842  -28.9854 C   0  0  0  0  0  0  0  0  0  0  0  0
   -3.0297   23.7329  -28.5712 O   0  0  0  0  0  0  0  0  0  0  0  0
   -3.2258   21.1691  -23.4771 C   0  0  0  0  0  0  0  0  0  0  0  0
   -3.3974   22.1626  -22.4633 N   0  0  0  0  0  0  0  0  0  0  0  0
   -2.4890   22.4973  -22.0559 H   0  0  0  0  0  0  0  0  0  0  0  0
   -4.2452   23.2567  -22.8512 C   0  0  0  0  0  0  0  0  0  0  0  0
   -4.6138   24.1735  -21.6790 C   0  0  0  0  0  0  0  0  0  0  0  0
   -3.8182   24.6652  -22.8296 C   0  0  0  0  0  0  0  0  0  0  0  0
   -4.4543   25.5763  -23.8101 C   0  0  0  0  0  0  0  0  0  0  0  0
   -3.7785   26.5652  -24.4868 C   0  0  0  0  0  0  0  0  0  0  0  0
   -4.3884   27.3938  -25.3874 C   0  0  0  0  0  0  0  0  0  0  0  0
   -5.7229   27.2600  -25.6487 C   0  0  0  0  0  0  0  0  0  0  0  0
   -6.4283   26.2783  -24.9866 C   0  0  0  0  0  0  0  0  0  0  0  0
   -5.7964   25.4480  -24.0784 C   0  0  0  0  0  0  0  0  0  0  0  0
 11 12  1  0  0  0
 12  1  1  0  0  0
  1  2  2  0  0  0
  2  3  1  0  0  0
  3  4  2  0  0  0
  4 13  1  0  0  0
 13 14  1  0  0  0
 14 16  1  0  0  0
 16 17  1  0  0  0
 17 18  1  0  0  0
 18 19  1  0  0  0
 19 20  2  0  0  0
 20 21  1  0  0  0
 21 22  2  0  0  0
 22 23  1  0  0  0
 23 24  2  0  0  0
  4  5  1  0  0  0
  5  6  2  0  0  0
  6  7  1  0  0  0
  7  8  2  0  0  0
  8  9  1  0  0  0
  9 10  2  0  0  0
 10  1  1  0  0  0
 18 16  1  0  0  0
 24 19  1  0  0  0
 10  5  1  0  0  0
 14 15  1  0  0  0
M  END
> <minimizedAffinity>
-8.02733

> <CNNscore>
0.2158580273

> <CNNaffinity>
5.4315710068

> <CNN_VS>
1.1724481583

> <CNNaffinity_variance>
0.1069577932

$$$$
[H]c1c([H])c([H])c(C2([H])C([H])([H])[C@]2([H])N([H])C([H])([H])c2c([H])c([H])c(OC([H])([H])[H])c3c([H])c([H])c([H])c([H])c23)c([H])c1[H]


 24 27  0  0  0  0  0  0  0  0999 V2000
   -5.0417   24.0174  -28.7542 C   0  0  0  0  0  0  0  0  0  0  0  0
   -3.7858   23.7009  -29.2087 C   0  0  0  0  0  0  0  0  0  0  0  0
   -2.8561   23.0455  -28.4135 C   0  0  0  0  0  0  0  0  0  0  0  0
   -3.1676   22.6857  -27.1216 C   0  0  0  0  0  0  0  0  0  0  0  0
   -4.4431   23.0039  -26.6514 C   0  0  0  0  0  0  0  0  0  0  0  0
   -4.7456   22.6389  -25.3557 C   0  0  0  0  0  0  0  0  0  0  0  0
   -6.0152   22.9618  -24.9043 C   0  0  0  0  0  0  0  0  0  0  0  0
   -6.9361   23.6096  -25.6891 C   0  0  0  0  0  0  0  0  0  0  0  0
   -6.6200   23.9681  -26.9814 C   0  0  0  0  0  0  0  0  0  0  0  0
   -5.3449   23.6525  -27.4577 C   0  0  0  0  0  0  0  0  0  0  0  0
   -5.5314   25.5358  -30.6003 C   0  0  0  0  0  0  0  0  0  0  0  0
   -5.9736   24.6781  -29.5620 O   0  0  0  0  0  0  0  0  0  0  0  0
   -2.1999   21.9749  -26.2435 C   0  0  0  0  0  0  0  0  0  0  0  0
   -0.8701   22.2727  -26.6761 N   0  0  0  0  0  0  0  0  0  0  0  0
   -0.7723   23.2407  -27.0718 H   0  0  0  0  0  0  0  0  0  0  0  0
    0.1430   21.9901  -25.6963 C   0  0  0  0  0  0  0  0  0  0  0  0
    0.8492   23.2510  -25.1843 C   0  0  0  0  0  0  0  0  0  0  0  0
    0.0440   22.3913  -24.2835 C   0  0  0  0  0  0  0  0  0  0  0  0
    0.7376   21.5368  -23.2911 C   0  0  0  0  0  0  0  0  0  0  0  0
    0.1207   20.9837  -22.1929 C   0  0  0  0  0  0  0  0  0  0  0  0
    0.7829   20.1980  -21.2909 C   0  0  0  0  0  0  0  0  0  0  0  0
    2.1127   19.9318  -21.4586 C   0  0  0  0  0  0  0  0  0  0  0  0
    2.7596   20.4714  -22.5495 C   0  0  0  0  0  0  0  0  0  0  0  0
    2.0752   21.2645  -23.4530 C   0  0  0  0  0  0  0  0  0  0  0  0
 11 12  1  0  0  0
 12  1  1  0  0  0
  1  2  2  0  0  0
  2  3  1  0  0  0
  3  4  2  0  0  0
  4 13  1  0  0  0
 13 14  1  0  0  0
 14 16  1  0  0  0
 16 17  1  0  0  0
 17 18  1  0  0  0
 18 19  1  0  0  0
 19 20  2  0  0  0
 20 21  1  0  0  0
 21 22  2  0  0  0
 22 23  1  0  0  0
 23 24  2  0  0  0
  4  5  1  0  0  0
  5  6  2  0  0  0
  6  7  1  0  0  0
  7  8  2  0  0  0
  8  9  1  0  0  0
  9 10  2  0  0  0
 10  1  1  0  0  0
 18 16  1  0  0  0
 24 19  1  0  0  0
 10  5  1  0  0  0
 14 15  1  0  0  0
M  END
> <minimizedAffinity>
-7.63142

> <CNNscore>
0.2037469298

> <CNNaffinity>
5.7446236610

> <CNN_VS>
1.1704493761

> <CNNaffinity_variance>
0.1655729115

$$$$
[H]c1nc([H])c([C@@]2([H])N(C([H])([H])[H])C([H])([H])C([H])([H])C2([H])[H])c([H])c1[H]


 12 13  0  0  0  0  0  0  0  0999 V2000
   -3.5470   24.2183  -23.9563 C   0  0  0  0  0  0  0  0  0  0  0  0
   -3.8076   22.9652  -23.3975 N   0  0  0  0  0  0  0  0  0  0  0  0
   -5.0870   22.6951  -22.8767 C   0  0  0  0  0  0  0  0  0  0  0  0
   -5.5440   21.4896  -23.6727 C   0  0  0  0  0  0  0  0  0  0  0  0
   -4.4447   21.2214  -24.7076 C   0  0  0  0  0  0  0  0  0  0  0  0
   -3.2403   21.8149  -23.9733 C   0  0  0  0  0  0  0  0  0  0  0  0
   -2.0867   21.9780  -24.8386 C   0  0  0  0  0  0  0  0  0  0  0  0
   -2.2505   22.0907  -26.2023 C   0  0  0  0  0  0  0  0  0  0  0  0
   -1.1397   22.2457  -27.0449 C   0  0  0  0  0  0  0  0  0  0  0  0
    0.1163   22.2829  -26.4816 C   0  0  0  0  0  0  0  0  0  0  0  0
    0.2456   22.1725  -25.1696 N   0  0  0  0  0  0  0  0  0  0  0  0
   -0.8054   22.0231  -24.3426 C   0  0  0  0  0  0  0  0  0  0  0  0
  1  2  1  0  0  0
  2  3  1  0  0  0
  3  4  1  0  0  0
  4  5  1  0  0  0
  5  6  1  0  0  0
  6  7  1  0  0  0
  7  8  2  0  0  0
  8  9  1  0  0  0
  9 10  2  0  0  0
 10 11  1  0  0  0
 11 12  2  0  0  0
  6  2  1  0  0  0
 12  7  1  0  0  0
M  END
> <minimizedAffinity>
-4.80468

> <CNNscore>
0.4491057098

> <CNNaffinity>
4.2962846756

> <CNN_VS>
1.9294860363

> <CNNaffinity_variance>
0.0487756953

$$$$
[H]c1nc([H])c([C@@]2([H])N(C([H])([H])[H])C([H])([H])C([H])([H])C2([H])[H])c([H])c1[H]


 12 13  0  0  0  0  0  0  0  0999 V2000
   -4.1973   21.1451  -24.6643 C   0  0  0  0  0  0  0  0  0  0  0  0
   -4.4458   22.5188  -24.7029 N   0  0  0  0  0  0  0  0  0  0  0  0
   -5.4757   23.0558  -23.9081 C   0  0  0  0  0  0  0  0  0  0  0  0
   -4.7591   24.0723  -23.0427 C   0  0  0  0  0  0  0  0  0  0  0  0
   -3.2695   23.9472  -23.3842 C   0  0  0  0  0  0  0  0  0  0  0  0
   -3.3706   23.4175  -24.8165 C   0  0  0  0  0  0  0  0  0  0  0  0
   -2.1039   22.9130  -25.3134 C   0  0  0  0  0  0  0  0  0  0  0  0
   -1.1113   22.5381  -24.4338 C   0  0  0  0  0  0  0  0  0  0  0  0
    0.1166   22.0523  -24.9073 C   0  0  0  0  0  0  0  0  0  0  0  0
    0.3093   21.9580  -26.2675 C   0  0  0  0  0  0  0  0  0  0  0  0
   -0.6599   22.3246  -27.0899 N   0  0  0  0  0  0  0  0  0  0  0  0
   -1.8452   22.7932  -26.6582 C   0  0  0  0  0  0  0  0  0  0  0  0
  1  2  1  0  0  0
  2  3  1  0  0  0
  3  4  1  0  0  0
  4  5  1  0  0  0
  5  6  1  0  0  0
  6  7  1  0  0  0
  7  8  2  0  0  0
  8  9  1  0  0  0
  9 10  2  0  0  0
 10 11  1  0  0  0
 11 12  2  0  0  0
  6  2  1  0  0  0
 12  7  1  0  0  0
M  END
> <minimizedAffinity>
-4.41431

> <CNNscore>
0.3742516637

> <CNNaffinity>
4.4690766335

> <CNN_VS>
1.6725593805

> <CNNaffinity_variance>
0.1817629486

$$$$
[H]c1nc([H])c([C@@]2([H])N(C([H])([H])[H])C([H])([H])C([H])([H])C2([H])[H])c([H])c1[H]


 12 13  0  0  0  0  0  0  0  0999 V2000
   -5.5770   23.6630  -25.9646 C   0  0  0  0  0  0  0  0  0  0  0  0
   -4.2032   23.9142  -25.9633 N   0  0  0  0  0  0  0  0  0  0  0  0
   -3.4073   23.3891  -24.9280 C   0  0  0  0  0  0  0  0  0  0  0  0
   -2.3890   22.5408  -25.6623 C   0  0  0  0  0  0  0  0  0  0  0  0
   -2.7817   22.5917  -27.1436 C   0  0  0  0  0  0  0  0  0  0  0  0
   -3.4998   23.9426  -27.1802 C   0  0  0  0  0  0  0  0  0  0  0  0
   -4.2539   24.1384  -28.4045 C   0  0  0  0  0  0  0  0  0  0  0  0
   -4.7190   23.0536  -29.1160 C   0  0  0  0  0  0  0  0  0  0  0  0
   -5.4463   23.2354  -30.3018 C   0  0  0  0  0  0  0  0  0  0  0  0
   -5.6853   24.5190  -30.7395 C   0  0  0  0  0  0  0  0  0  0  0  0
   -5.2277   25.5427  -30.0376 N   0  0  0  0  0  0  0  0  0  0  0  0
   -4.5281   25.3919  -28.8980 C   0  0  0  0  0  0  0  0  0  0  0  0
  1  2  1  0  0  0
  2  3  1  0  0  0
  3  4  1  0  0  0
  4  5  1  0  0  0
  5  6  1  0  0  0
  6  7  1  0  0  0
  7  8  2  0  0  0
  8  9  1  0  0  0
  9 10  2  0  0  0
 10 11  1  0  0  0
 11 12  2  0  0  0
  6  2  1  0  0  0
 12  7  1  0  0  0
M  END
> <minimizedAffinity>
-5.44404

> <CNNscore>
0.3294674754

> <CNNaffinity>
4.5317730904

> <CNN_VS>
1.4930717945

> <CNNaffinity_variance>
0.1508910358

$$$$
[H]c1nc([H])c([C@@]2([H])N(C([H])([H])[H])C([H])([H])C([H])([H])C2([H])[H])c([H])c1[H]


 12 13  0  0  0  0  0  0  0  0999 V2000
   -6.4130   23.5100  -25.5235 C   0  0  0  0  0  0  0  0  0  0  0  0
   -5.2183   24.1910  -25.2805 N   0  0  0  0  0  0  0  0  0  0  0  0
   -4.5216   23.9546  -24.0806 C   0  0  0  0  0  0  0  0  0  0  0  0
   -3.1624   23.4777  -24.5507 C   0  0  0  0  0  0  0  0  0  0  0  0
   -3.2462   23.3939  -26.0794 C   0  0  0  0  0  0  0  0  0  0  0  0
   -4.3311   24.4407  -26.3422 C   0  0  0  0  0  0  0  0  0  0  0  0
   -4.8474   24.3783  -27.6971 C   0  0  0  0  0  0  0  0  0  0  0  0
   -4.7000   23.2305  -28.4454 C   0  0  0  0  0  0  0  0  0  0  0  0
   -5.1940   23.1642  -29.7567 C   0  0  0  0  0  0  0  0  0  0  0  0
   -5.8285   24.2687  -30.2799 C   0  0  0  0  0  0  0  0  0  0  0  0
   -5.9567   25.3579  -29.5402 N   0  0  0  0  0  0  0  0  0  0  0  0
   -5.4908   25.4439  -28.2806 C   0  0  0  0  0  0  0  0  0  0  0  0
  1  2  1  0  0  0
  2  3  1  0  0  0
  3  4  1  0  0  0
  4  5  1  0  0  0
  5  6  1  0  0  0
  6  7  1  0  0  0
  7  8  2  0  0  0
  8  9  1  0  0  0
  9 10  2  0  0  0
 10 11  1  0  0  0
 11 12  2  0  0  0
  6  2  1  0  0  0
 12  7  1  0  0  0
M  END
> <minimizedAffinity>
-5.20202

> <CNNscore>
0.3289427161

> <CNNaffinity>
4.3899335861

> <CNN_VS>
1.4440367222

> <CNNaffinity_variance>
0.1654753685

$$$$
[H]c1nc([H])c([C@@]2([H])N(C([H])([H])[H])C([H])([H])C([H])([H])C2([H])[H])c([H])c1[H]


 12 13  0  0  0  0  0  0  0  0999 V2000
   -2.0620   23.0223  -28.3367 C   0  0  0  0  0  0  0  0  0  0  0  0
   -3.0397   22.7265  -27.3844 N   0  0  0  0  0  0  0  0  0  0  0  0
   -2.6510   22.4482  -26.0606 C   0  0  0  0  0  0  0  0  0  0  0  0
   -3.3893   23.4936  -25.2495 C   0  0  0  0  0  0  0  0  0  0  0  0
   -4.1085   24.3899  -26.2647 C   0  0  0  0  0  0  0  0  0  0  0  0
   -4.2730   23.4005  -27.4206 C   0  0  0  0  0  0  0  0  0  0  0  0
   -4.6637   24.0508  -28.6577 C   0  0  0  0  0  0  0  0  0  0  0  0
   -5.2964   23.3342  -29.6505 C   0  0  0  0  0  0  0  0  0  0  0  0
   -5.6744   23.9557  -30.8500 C   0  0  0  0  0  0  0  0  0  0  0  0
   -5.4002   25.2951  -31.0146 C   0  0  0  0  0  0  0  0  0  0  0  0
   -4.7919   25.9596  -30.0459 N   0  0  0  0  0  0  0  0  0  0  0  0
   -4.4205   25.3841  -28.8875 C   0  0  0  0  0  0  0  0  0  0  0  0
  1  2  1  0  0  0
  2  3  1  0  0  0
  3  4  1  0  0  0
  4  5  1  0  0  0
  5  6  1  0  0  0
  6  7  1  0  0  0
  7  8  2  0  0  0
  8  9  1  0  0  0
  9 10  2  0  0  0
 10 11  1  0  0  0
 11 12  2  0  0  0
  6  2  1  0  0  0
 12  7  1  0  0  0
M  END
> <minimizedAffinity>
-5.55890

> <CNNscore>
0.3279196620

> <CNNaffinity>
4.6549749374

> <CNN_VS>
1.5264577866

> <CNNaffinity_variance>
0.1378857791

$$$$
[H]c1nc([H])c([C@@]2([H])N(C([H])([H])[H])C([H])([H])C([H])([H])C2([H])[H])c([H])c1[H]


 12 13  0  0  0  0  0  0  0  0999 V2000
   -3.3620   23.6416  -26.7958 C   0  0  0  0  0  0  0  0  0  0  0  0
   -4.5262   22.9191  -26.5258 N   0  0  0  0  0  0  0  0  0  0  0  0
   -4.7531   22.4392  -25.2222 C   0  0  0  0  0  0  0  0  0  0  0  0
   -6.0751   23.0726  -24.8389 C   0  0  0  0  0  0  0  0  0  0  0  0
   -6.4610   23.9906  -26.0049 C   0  0  0  0  0  0  0  0  0  0  0  0
   -5.7320   23.2838  -27.1499 C   0  0  0  0  0  0  0  0  0  0  0  0
   -5.6651   24.0952  -28.3513 C   0  0  0  0  0  0  0  0  0  0  0  0
   -5.5859   23.4976  -29.5906 C   0  0  0  0  0  0  0  0  0  0  0  0
   -5.5181   24.2758  -30.7559 C   0  0  0  0  0  0  0  0  0  0  0  0
   -5.5321   25.6475  -30.6356 C   0  0  0  0  0  0  0  0  0  0  0  0
   -5.6088   26.1956  -29.4340 N   0  0  0  0  0  0  0  0  0  0  0  0
   -5.6747   25.4690  -28.3032 C   0  0  0  0  0  0  0  0  0  0  0  0
  1  2  1  0  0  0
  2  3  1  0  0  0
  3  4  1  0  0  0
  4  5  1  0  0  0
  5  6  1  0  0  0
  6  7  1  0  0  0
  7  8  2  0  0  0
  8  9  1  0  0  0
  9 10  2  0  0  0
 10 11  1  0  0  0
 11 12  2  0  0  0
  6  2  1  0  0  0
 12  7  1  0  0  0
M  END
> <minimizedAffinity>
-5.48083

> <CNNscore>
0.2898188233

> <CNNaffinity>
4.4699048996

> <CNN_VS>
1.2954626083

> <CNNaffinity_variance>
0.1348549873

$$$$
[H]c1nc([H])c([C@@]2([H])N(C([H])([H])[H])C([H])([H])C([H])([H])C2([H])[H])c([H])c1[H]


 12 13  0  0  0  0  0  0  0  0999 V2000
   -4.5223   26.4440  -25.6738 C   0  0  0  0  0  0  0  0  0  0  0  0
   -5.2487   25.4810  -24.9701 N   0  0  0  0  0  0  0  0  0  0  0  0
   -6.5557   25.7800  -24.5418 C   0  0  0  0  0  0  0  0  0  0  0  0
   -7.3964   24.7039  -25.1984 C   0  0  0  0  0  0  0  0  0  0  0  0
   -6.4366   23.8893  -26.0738 C   0  0  0  0  0  0  0  0  0  0  0  0
   -5.1264   24.1246  -25.3189 C   0  0  0  0  0  0  0  0  0  0  0  0
   -3.9629   23.7147  -26.0833 C   0  0  0  0  0  0  0  0  0  0  0  0
   -4.0585   23.5187  -27.4441 C   0  0  0  0  0  0  0  0  0  0  0  0
   -2.9385   23.1198  -28.1889 C   0  0  0  0  0  0  0  0  0  0  0  0
   -1.7432   22.9283  -27.5326 C   0  0  0  0  0  0  0  0  0  0  0  0
   -1.6788   23.1234  -26.2257 N   0  0  0  0  0  0  0  0  0  0  0  0
   -2.7397   23.5059  -25.4916 C   0  0  0  0  0  0  0  0  0  0  0  0
  1  2  1  0  0  0
  2  3  1  0  0  0
  3  4  1  0  0  0
  4  5  1  0  0  0
  5  6  1  0  0  0
  6  7  1  0  0  0
  7  8  2  0  0  0
  8  9  1  0  0  0
  9 10  2  0  0  0
 10 11  1  0  0  0
 11 12  2  0  0  0
  6  2  1  0  0  0
 12  7  1  0  0  0
M  END
> <minimizedAffinity>
-4.74083

> <CNNscore>
0.2772979140

> <CNNaffinity>
4.2729239464

> <CNN_VS>
1.1848728657

> <CNNaffinity_variance>
0.1269571185

$$$$
[H]c1nc([H])c([C@@]2([H])N(C([H])([H])[H])C([H])([H])C([H])([H])C2([H])[H])c([H])c1[H]


 12 13  0  0  0  0  0  0  0  0999 V2000
    0.2586   23.1490  -27.0376 C   0  0  0  0  0  0  0  0  0  0  0  0
   -0.2119   22.1284  -26.2086 N   0  0  0  0  0  0  0  0  0  0  0  0
    0.6131   21.6425  -25.1770 C   0  0  0  0  0  0  0  0  0  0  0  0
   -0.2109   21.8765  -23.9272 C   0  0  0  0  0  0  0  0  0  0  0  0
   -1.4788   22.6078  -24.3843 C   0  0  0  0  0  0  0  0  0  0  0  0
   -1.5653   22.1088  -25.8285 C   0  0  0  0  0  0  0  0  0  0  0  0
   -2.5125   22.8684  -26.6234 C   0  0  0  0  0  0  0  0  0  0  0  0
   -2.6654   22.6009  -27.9667 C   0  0  0  0  0  0  0  0  0  0  0  0
   -3.5771   23.3331  -28.7417 C   0  0  0  0  0  0  0  0  0  0  0  0
   -4.3151   24.3236  -28.1329 C   0  0  0  0  0  0  0  0  0  0  0  0
   -4.1490   24.5600  -26.8420 N   0  0  0  0  0  0  0  0  0  0  0  0
   -3.2806   23.8704  -26.0795 C   0  0  0  0  0  0  0  0  0  0  0  0
  1  2  1  0  0  0
  2  3  1  0  0  0
  3  4  1  0  0  0
  4  5  1  0  0  0
  5  6  1  0  0  0
  6  7  1  0  0  0
  7  8  2  0  0  0
  8  9  1  0  0  0
  9 10  2  0  0  0
 10 11  1  0  0  0
 11 12  2  0  0  0
  6  2  1  0  0  0
 12  7  1  0  0  0
M  END
> <minimizedAffinity>
-5.24903

> <CNNscore>
0.2550050616

> <CNNaffinity>
4.3296031952

> <CNN_VS>
1.1040707827

> <CNNaffinity_variance>
0.1010409370

$$$$
[H]c1nc([H])c([C@@]2([H])N(C([H])([H])[H])C([H])([H])C([H])([H])C2([H])[H])c([H])c1[H]


 12 13  0  0  0  0  0  0  0  0999 V2000
   -3.4496   23.7356  -23.3736 C   0  0  0  0  0  0  0  0  0  0  0  0
   -4.0759   22.4890  -23.3101 N   0  0  0  0  0  0  0  0  0  0  0  0
   -5.0071   22.2367  -22.2852 C   0  0  0  0  0  0  0  0  0  0  0  0
   -6.2733   21.8839  -23.0389 C   0  0  0  0  0  0  0  0  0  0  0  0
   -5.9489   22.0693  -24.5261 C   0  0  0  0  0  0  0  0  0  0  0  0
   -4.4375   21.8305  -24.4984 C   0  0  0  0  0  0  0  0  0  0  0  0
   -3.7882   22.2343  -25.7318 C   0  0  0  0  0  0  0  0  0  0  0  0
   -2.4863   21.8610  -25.9871 C   0  0  0  0  0  0  0  0  0  0  0  0
   -1.8516   22.2502  -27.1760 C   0  0  0  0  0  0  0  0  0  0  0  0
   -2.5555   23.0122  -28.0815 C   0  0  0  0  0  0  0  0  0  0  0  0
   -3.8040   23.3569  -27.8119 N   0  0  0  0  0  0  0  0  0  0  0  0
   -4.4325   22.9950  -26.6784 C   0  0  0  0  0  0  0  0  0  0  0  0
  1  2  1  0  0  0
  2  3  1  0  0  0
  3  4  1  0  0  0
  4  5  1  0  0  0
  5  6  1  0  0  0
  6  7  1  0  0  0
  7  8  2  0  0  0
  8  9  1  0  0  0
  9 10  2  0  0  0
 10 11  1  0  0  0
 11 12  2  0  0  0
  6  2  1  0  0  0
 12  7  1  0  0  0
M  END
> <minimizedAffinity>
-4.82348

> <CNNscore>
0.2411452830

> <CNNaffinity>
4.0419416428

> <CNN_VS>
0.9746951461

> <CNNaffinity_variance>
0.0712604150

$$$$
[H]c1nc([H])c(N([H])C(=O)c2nc(-c3c(F)c([H])c([H])c([H])c3F)c([H])c([H])c2F)c([C@@]2([H])C([H])([H])[C@@]([H])(N([H])[H])C([H])([H])[C@@]([H])(C([H])([H])[H])C2([H])[H])c1[H]


 35 38  0  0  0  0  0  0  0  0999 V2000
   -1.8892   21.7220  -24.9488 N   0  0  0  0  0  0  0  0  0  0  0  0
   -1.6029   22.3322  -23.7235 C   0  0  0  0  0  0  0  0  0  0  0  0
   -0.7202   23.2836  -23.6880 O   0  0  0  0  0  0  0  0  0  0  0  0
   -2.6101   20.9650  -24.9631 H   0  0  0  0  0  0  0  0  0  0  0  0
   -2.1839   22.0543  -22.4202 C   0  0  0  0  0  0  0  0  0  0  0  0
   -1.3706   21.8075  -21.3773 N   0  0  0  0  0  0  0  0  0  0  0  0
   -1.7319   21.5376  -20.1212 C   0  0  0  0  0  0  0  0  0  0  0  0
   -3.1120   21.5035  -19.8723 C   0  0  0  0  0  0  0  0  0  0  0  0
   -4.0092   21.7439  -20.8923 C   0  0  0  0  0  0  0  0  0  0  0  0
   -3.5182   22.0185  -22.1651 C   0  0  0  0  0  0  0  0  0  0  0  0
   -4.4547   22.2506  -23.1611 F   0  0  0  0  0  0  0  0  0  0  0  0
   -0.8145   21.3322  -19.0211 C   0  0  0  0  0  0  0  0  0  0  0  0
   -0.2119   22.3945  -18.3631 C   0  0  0  0  0  0  0  0  0  0  0  0
   -0.4419   23.6791  -18.7684 F   0  0  0  0  0  0  0  0  0  0  0  0
    0.6407   22.2311  -17.2967 C   0  0  0  0  0  0  0  0  0  0  0  0
    0.9329   20.9822  -16.8319 C   0  0  0  0  0  0  0  0  0  0  0  0
    0.3455   19.8898  -17.4725 C   0  0  0  0  0  0  0  0  0  0  0  0
   -0.5046   20.0858  -18.5393 C   0  0  0  0  0  0  0  0  0  0  0  0
   -1.0874   19.0136  -19.1746 F   0  0  0  0  0  0  0  0  0  0  0  0
   -2.0178   22.8045  -27.0514 C   0  0  0  0  0  0  0  0  0  0  0  0
   -1.3226   23.2854  -28.1665 C   0  0  0  0  0  0  0  0  0  0  0  0
    0.0380   23.0888  -28.3327 C   0  0  0  0  0  0  0  0  0  0  0  0
    0.7410   22.4260  -27.4238 N   0  0  0  0  0  0  0  0  0  0  0  0
    0.0942   21.9526  -26.3343 C   0  0  0  0  0  0  0  0  0  0  0  0
   -1.2297   22.1243  -26.1258 C   0  0  0  0  0  0  0  0  0  0  0  0
   -5.5049   23.7272  -30.1058 C   0  0  0  0  0  0  0  0  0  0  0  0
   -5.3620   23.1758  -28.6454 C   0  0  0  0  0  0  0  0  0  0  0  0
   -5.9768   24.2368  -27.7276 C   0  0  0  0  0  0  0  0  0  0  0  0
   -5.5859   23.9131  -26.3369 C   0  0  0  0  0  0  0  0  0  0  0  0
   -6.2216   24.7416  -25.3775 N   0  0  0  0  0  0  0  0  0  0  0  0
   -4.0456   24.0018  -26.1616 C   0  0  0  0  0  0  0  0  0  0  0  0
   -3.4559   22.8213  -26.9270 C   0  0  0  0  0  0  0  0  0  0  0  0
   -3.9132   23.1185  -28.4121 C   0  0  0  0  0  0  0  0  0  0  0  0
   -5.9751   24.5029  -24.3804 H   0  0  0  0  0  0  0  0  0  0  0  0
   -7.2227   24.9353  -25.5025 H   0  0  0  0  0  0  0  0  0  0  0  0
 26 27  1  0  0  0
 27 28  1  0  0  0
 28 29  1  0  0  0
 29 30  1  0  0  0
 29 31  1  0  0  0
 31 32  1  0  0  0
 32 20  1  0  0  0
 20 21  2  0  0  0
 21 22  1  0  0  0
 22 23  2  0  0  0
 23 24  1  0  0  0
 24 25  2  0  0  0
 25  1  1  0  0  0
  1  2  1  0  0  0
  2  3  2  0  0  0
  2  5  1  0  0  0
  5  6  2  0  0  0
  6  7  1  0  0  0
  7 12  1  0  0  0
 12 13  2  0  0  0
 13 14  1  0  0  0
 13 15  1  0  0  0
 15 16  2  0  0  0
 16 17  1  0  0  0
 17 18  2  0  0  0
 18 19  1  0  0  0
  7  8  2  0  0  0
  8  9  1  0  0  0
  9 10  2  0  0  0
 10 11  1  0  0  0
 32 33  1  0  0  0
 33 27  1  0  0  0
 25 20  1  0  0  0
 10  5  1  0  0  0
 18 12  1  0  0  0
 30 34  1  0  0  0
 30 35  1  0  0  0
  1  4  1  0  0  0
M  END
> <minimizedAffinity>
-8.74653

> <CNNscore>
0.5682553053

> <CNNaffinity>
7.3943033218

> <CNN_VS>
4.2018523216

> <CNNaffinity_variance>
0.2796470225

$$$$
[H]c1nc([H])c(N([H])C(=O)c2nc(-c3c(F)c([H])c([H])c([H])c3F)c([H])c([H])c2F)c([C@@]2([H])C([H])([H])[C@@]([H])(N([H])[H])C([H])([H])[C@@]([H])(C([H])([H])[H])C2([H])[H])c1[H]


 35 38  0  0  0  0  0  0  0  0999 V2000
   -1.9001   21.7221  -24.9496 N   0  0  0  0  0  0  0  0  0  0  0  0
   -1.6229   22.3373  -23.7247 C   0  0  0  0  0  0  0  0  0  0  0  0
   -0.7445   23.2926  -23.6875 O   0  0  0  0  0  0  0  0  0  0  0  0
   -2.6176   20.9619  -24.9655 H   0  0  0  0  0  0  0  0  0  0  0  0
   -2.2096   22.0609  -22.4237 C   0  0  0  0  0  0  0  0  0  0  0  0
   -1.4007   21.8267  -21.3745 N   0  0  0  0  0  0  0  0  0  0  0  0
   -1.7674   21.5600  -20.1193 C   0  0  0  0  0  0  0  0  0  0  0  0
   -3.1487   21.5149  -19.8789 C   0  0  0  0  0  0  0  0  0  0  0  0
   -4.0415   21.7420  -20.9056 C   0  0  0  0  0  0  0  0  0  0  0  0
   -3.5451   22.0144  -22.1767 C   0  0  0  0  0  0  0  0  0  0  0  0
   -4.4773   22.2331  -23.1797 F   0  0  0  0  0  0  0  0  0  0  0  0
   -0.8552   21.3685  -19.0124 C   0  0  0  0  0  0  0  0  0  0  0  0
   -0.5143   20.1036  -18.5559 C   0  0  0  0  0  0  0  0  0  0  0  0
   -1.0699   18.9910  -19.1224 F   0  0  0  0  0  0  0  0  0  0  0  0
    0.3715   19.8903  -17.5260 C   0  0  0  0  0  0  0  0  0  0  0  0
    0.9661   20.9451  -16.8977 C   0  0  0  0  0  0  0  0  0  0  0  0
    0.6440   22.2327  -17.3303 C   0  0  0  0  0  0  0  0  0  0  0  0
   -0.2479   22.4142  -18.3649 C   0  0  0  0  0  0  0  0  0  0  0  0
   -0.5692   23.6805  -18.7965 F   0  0  0  0  0  0  0  0  0  0  0  0
   -2.0215   22.8000  -27.0550 C   0  0  0  0  0  0  0  0  0  0  0  0
   -1.3223   23.2804  -28.1678 C   0  0  0  0  0  0  0  0  0  0  0  0
    0.0395   23.0867  -28.3273 C   0  0  0  0  0  0  0  0  0  0  0  0
    0.7398   22.4274  -27.4139 N   0  0  0  0  0  0  0  0  0  0  0  0
    0.0892   21.9547  -26.3264 C   0  0  0  0  0  0  0  0  0  0  0  0
   -1.2361   22.1236  -26.1244 C   0  0  0  0  0  0  0  0  0  0  0  0
   -5.4961   23.7275  -30.1223 C   0  0  0  0  0  0  0  0  0  0  0  0
   -5.3589   23.1709  -28.6632 C   0  0  0  0  0  0  0  0  0  0  0  0
   -5.9800   24.2273  -27.7444 C   0  0  0  0  0  0  0  0  0  0  0  0
   -5.5951   23.8991  -26.3531 C   0  0  0  0  0  0  0  0  0  0  0  0
   -6.2369   24.7229  -25.3937 N   0  0  0  0  0  0  0  0  0  0  0  0
   -4.0557   23.9902  -26.1703 C   0  0  0  0  0  0  0  0  0  0  0  0
   -3.4602   22.8137  -26.9372 C   0  0  0  0  0  0  0  0  0  0  0  0
   -3.9111   23.1155  -28.4234 C   0  0  0  0  0  0  0  0  0  0  0  0
   -5.9946   24.4809  -24.3963 H   0  0  0  0  0  0  0  0  0  0  0  0
   -7.2377   24.9151  -25.5226 H   0  0  0  0  0  0  0  0  0  0  0  0
 26 27  1  0  0  0
 27 28  1  0  0  0
 28 29  1  0  0  0
 29 30  1  0  0  0
 29 31  1  0  0  0
 31 32  1  0  0  0
 32 20  1  0  0  0
 20 21  2  0  0  0
 21 22  1  0  0  0
 22 23  2  0  0  0
 23 24  1  0  0  0
 24 25  2  0  0  0
 25  1  1  0  0  0
  1  2  1  0  0  0
  2  3  2  0  0  0
  2  5  1  0  0  0
  5  6  2  0  0  0
  6  7  1  0  0  0
  7 12  1  0  0  0
 12 13  2  0  0  0
 13 14  1  0  0  0
 13 15  1  0  0  0
 15 16  2  0  0  0
 16 17  1  0  0  0
 17 18  2  0  0  0
 18 19  1  0  0  0
  7  8  2  0  0  0
  8  9  1  0  0  0
  9 10  2  0  0  0
 10 11  1  0  0  0
 32 33  1  0  0  0
 33 27  1  0  0  0
 25 20  1  0  0  0
 10  5  1  0  0  0
 18 12  1  0  0  0
 30 34  1  0  0  0
 30 35  1  0  0  0
  1  4  1  0  0  0
M  END
> <minimizedAffinity>
-8.77574

> <CNNscore>
0.5677496195

> <CNNaffinity>
7.3935632706

> <CNN_VS>
4.1976928711

> <CNNaffinity_variance>
0.2743612528

$$$$
[H]c1nc([H])c(N([H])C(=O)c2nc(-c3c(F)c([H])c([H])c([H])c3F)c([H])c([H])c2F)c([C@@]2([H])C([H])([H])[C@@]([H])(N([H])[H])C([H])([H])[C@@]([H])(C([H])([H])[H])C2([H])[H])c1[H]


 35 38  0  0  0  0  0  0  0  0999 V2000
   -1.7116   21.3514  -22.6895 N   0  0  0  0  0  0  0  0  0  0  0  0
   -1.4541   22.4817  -23.4718 C   0  0  0  0  0  0  0  0  0  0  0  0
   -1.1720   23.6025  -22.8804 O   0  0  0  0  0  0  0  0  0  0  0  0
   -1.9266   20.4538  -23.1803 H   0  0  0  0  0  0  0  0  0  0  0  0
   -1.4432   22.5915  -24.9213 C   0  0  0  0  0  0  0  0  0  0  0  0
   -2.4938   23.1544  -25.5455 N   0  0  0  0  0  0  0  0  0  0  0  0
   -2.6470   23.3356  -26.8588 C   0  0  0  0  0  0  0  0  0  0  0  0
   -1.5960   22.8808  -27.6689 C   0  0  0  0  0  0  0  0  0  0  0  0
   -0.4858   22.2901  -27.1019 C   0  0  0  0  0  0  0  0  0  0  0  0
   -0.4322   22.1557  -25.7178 C   0  0  0  0  0  0  0  0  0  0  0  0
    0.7001   21.5534  -25.1904 F   0  0  0  0  0  0  0  0  0  0  0  0
   -3.7753   23.9972  -27.4779 C   0  0  0  0  0  0  0  0  0  0  0  0
   -4.3831   23.4931  -28.6186 C   0  0  0  0  0  0  0  0  0  0  0  0
   -3.9002   22.3640  -29.2180 F   0  0  0  0  0  0  0  0  0  0  0  0
   -5.4741   24.0838  -29.2117 C   0  0  0  0  0  0  0  0  0  0  0  0
   -6.0156   25.2195  -28.6844 C   0  0  0  0  0  0  0  0  0  0  0  0
   -5.4272   25.7556  -27.5376 C   0  0  0  0  0  0  0  0  0  0  0  0
   -4.3341   25.1408  -26.9665 C   0  0  0  0  0  0  0  0  0  0  0  0
   -3.7499   25.6635  -25.8358 F   0  0  0  0  0  0  0  0  0  0  0  0
   -0.4773   21.0177  -20.6959 C   0  0  0  0  0  0  0  0  0  0  0  0
   -0.4213   21.1932  -19.3088 C   0  0  0  0  0  0  0  0  0  0  0  0
   -1.4778   21.7207  -18.5856 C   0  0  0  0  0  0  0  0  0  0  0  0
   -2.5988   22.0842  -19.1945 N   0  0  0  0  0  0  0  0  0  0  0  0
   -2.6786   21.9280  -20.5357 C   0  0  0  0  0  0  0  0  0  0  0  0
   -1.6729   21.4237  -21.2840 C   0  0  0  0  0  0  0  0  0  0  0  0
    2.9946   18.0465  -19.4880 C   0  0  0  0  0  0  0  0  0  0  0  0
    2.3158   18.5582  -20.8051 C   0  0  0  0  0  0  0  0  0  0  0  0
    3.3745   19.3915  -21.5337 C   0  0  0  0  0  0  0  0  0  0  0  0
    2.6936   20.1476  -22.6090 C   0  0  0  0  0  0  0  0  0  0  0  0
    3.5969   20.8432  -23.4523 N   0  0  0  0  0  0  0  0  0  0  0  0
    1.6633   21.1459  -22.0146 C   0  0  0  0  0  0  0  0  0  0  0  0
    0.5178   20.3043  -21.4608 C   0  0  0  0  0  0  0  0  0  0  0  0
    1.2384   19.4440  -20.3455 C   0  0  0  0  0  0  0  0  0  0  0  0
    3.1274   21.3625  -24.2409 H   0  0  0  0  0  0  0  0  0  0  0  0
    4.4457   20.3490  -23.7534 H   0  0  0  0  0  0  0  0  0  0  0  0
 26 27  1  0  0  0
 27 28  1  0  0  0
 28 29  1  0  0  0
 29 30  1  0  0  0
 29 31  1  0  0  0
 31 32  1  0  0  0
 32 20  1  0  0  0
 20 21  2  0  0  0
 21 22  1  0  0  0
 22 23  2  0  0  0
 23 24  1  0  0  0
 24 25  2  0  0  0
 25  1  1  0  0  0
  1  2  1  0  0  0
  2  3  2  0  0  0
  2  5  1  0  0  0
  5  6  2  0  0  0
  6  7  1  0  0  0
  7 12  1  0  0  0
 12 13  2  0  0  0
 13 14  1  0  0  0
 13 15  1  0  0  0
 15 16  2  0  0  0
 16 17  1  0  0  0
 17 18  2  0  0  0
 18 19  1  0  0  0
  7  8  2  0  0  0
  8  9  1  0  0  0
  9 10  2  0  0  0
 10 11  1  0  0  0
 32 33  1  0  0  0
 33 27  1  0  0  0
 25 20  1  0  0  0
 10  5  1  0  0  0
 18 12  1  0  0  0
 30 34  1  0  0  0
 30 35  1  0  0  0
  1  4  1  0  0  0
M  END
> <minimizedAffinity>
-9.26330

> <CNNscore>
0.2231923640

> <CNNaffinity>
6.5977082253

> <CNN_VS>
1.4725581408

> <CNNaffinity_variance>
0.2533364296

$$$$
[H]c1nc([H])c(N([H])C(=O)c2nc(-c3c(F)c([H])c([H])c([H])c3F)c([H])c([H])c2F)c([C@@]2([H])C([H])([H])[C@@]([H])(N([H])[H])C([H])([H])[C@@]([H])(C([H])([H])[H])C2([H])[H])c1[H]


 35 38  0  0  0  0  0  0  0  0999 V2000
   -1.3131   20.7900  -20.5269 N   0  0  0  0  0  0  0  0  0  0  0  0
   -1.7246   21.8530  -21.3370 C   0  0  0  0  0  0  0  0  0  0  0  0
   -1.4218   23.0649  -20.9829 O   0  0  0  0  0  0  0  0  0  0  0  0
   -1.5551   19.8194  -20.8308 H   0  0  0  0  0  0  0  0  0  0  0  0
   -2.4680   21.8002  -22.5851 C   0  0  0  0  0  0  0  0  0  0  0  0
   -1.8408   22.1009  -23.7367 N   0  0  0  0  0  0  0  0  0  0  0  0
   -2.3668   22.1016  -24.9633 C   0  0  0  0  0  0  0  0  0  0  0  0
   -3.7235   21.7560  -25.0505 C   0  0  0  0  0  0  0  0  0  0  0  0
   -4.4350   21.4374  -23.9124 C   0  0  0  0  0  0  0  0  0  0  0  0
   -3.7817   21.4669  -22.6841 C   0  0  0  0  0  0  0  0  0  0  0  0
   -4.5352   21.1431  -21.5660 F   0  0  0  0  0  0  0  0  0  0  0  0
   -1.6336   22.3810  -26.1792 C   0  0  0  0  0  0  0  0  0  0  0  0
   -2.2469   22.9388  -27.2914 C   0  0  0  0  0  0  0  0  0  0  0  0
   -3.5870   23.2062  -27.2808 F   0  0  0  0  0  0  0  0  0  0  0  0
   -1.5701   23.2419  -28.4494 C   0  0  0  0  0  0  0  0  0  0  0  0
   -0.2313   22.9995  -28.5498 C   0  0  0  0  0  0  0  0  0  0  0  0
    0.4176   22.4363  -27.4496 C   0  0  0  0  0  0  0  0  0  0  0  0
   -0.2883   22.1432  -26.3029 C   0  0  0  0  0  0  0  0  0  0  0  0
    0.3453   21.5885  -25.2148 F   0  0  0  0  0  0  0  0  0  0  0  0
    0.7917   20.8612  -19.4434 C   0  0  0  0  0  0  0  0  0  0  0  0
    1.5037   21.1978  -18.2868 C   0  0  0  0  0  0  0  0  0  0  0  0
    0.8781   21.6481  -17.1364 C   0  0  0  0  0  0  0  0  0  0  0  0
   -0.4413   21.7779  -17.0913 N   0  0  0  0  0  0  0  0  0  0  0  0
   -1.1538   21.4622  -18.1967 C   0  0  0  0  0  0  0  0  0  0  0  0
   -0.5880   21.0247  -19.3431 C   0  0  0  0  0  0  0  0  0  0  0  0
    4.2559   17.6834  -19.9354 C   0  0  0  0  0  0  0  0  0  0  0  0
    3.1692   18.3597  -20.8405 C   0  0  0  0  0  0  0  0  0  0  0  0
    3.9313   19.2435  -21.8326 C   0  0  0  0  0  0  0  0  0  0  0  0
    2.9495   20.1347  -22.4909 C   0  0  0  0  0  0  0  0  0  0  0  0
    3.5158   20.8989  -23.5427 N   0  0  0  0  0  0  0  0  0  0  0  0
    2.2861   21.0845  -21.4569 C   0  0  0  0  0  0  0  0  0  0  0  0
    1.3778   20.2148  -20.5934 C   0  0  0  0  0  0  0  0  0  0  0  0
    2.4042   19.2144  -19.9235 C   0  0  0  0  0  0  0  0  0  0  0  0
    2.8211   21.5168  -24.0402 H   0  0  0  0  0  0  0  0  0  0  0  0
    4.1549   20.4209  -24.1895 H   0  0  0  0  0  0  0  0  0  0  0  0
 26 27  1  0  0  0
 27 28  1  0  0  0
 28 29  1  0  0  0
 29 30  1  0  0  0
 29 31  1  0  0  0
 31 32  1  0  0  0
 32 20  1  0  0  0
 20 21  2  0  0  0
 21 22  1  0  0  0
 22 23  2  0  0  0
 23 24  1  0  0  0
 24 25  2  0  0  0
 25  1  1  0  0  0
  1  2  1  0  0  0
  2  3  2  0  0  0
  2  5  1  0  0  0
  5  6  2  0  0  0
  6  7  1  0  0  0
  7 12  1  0  0  0
 12 13  2  0  0  0
 13 14  1  0  0  0
 13 15  1  0  0  0
 15 16  2  0  0  0
 16 17  1  0  0  0
 17 18  2  0  0  0
 18 19  1  0  0  0
  7  8  2  0  0  0
  8  9  1  0  0  0
  9 10  2  0  0  0
 10 11  1  0  0  0
 32 33  1  0  0  0
 33 27  1  0  0  0
 25 20  1  0  0  0
 10  5  1  0  0  0
 18 12  1  0  0  0
 30 34  1  0  0  0
 30 35  1  0  0  0
  1  4  1  0  0  0
M  END
> <minimizedAffinity>
-8.92277

> <CNNscore>
0.1940298975

> <CNNaffinity>
6.2386860847

> <CNN_VS>
1.2104916573

> <CNNaffinity_variance>
0.4618963599

$$$$
[H]c1nc([H])c(N([H])C(=O)c2nc(-c3c(F)c([H])c([H])c([H])c3F)c([H])c([H])c2F)c([C@@]2([H])C([H])([H])[C@@]([H])(N([H])[H])C([H])([H])[C@@]([H])(C([H])([H])[H])C2([H])[H])c1[H]


 35 38  0  0  0  0  0  0  0  0999 V2000
   -2.4449   21.5845  -20.6841 N   0  0  0  0  0  0  0  0  0  0  0  0
   -1.8163   22.4900  -21.5448 C   0  0  0  0  0  0  0  0  0  0  0  0
   -1.9343   23.7617  -21.3117 O   0  0  0  0  0  0  0  0  0  0  0  0
   -2.3317   20.5636  -20.8785 H   0  0  0  0  0  0  0  0  0  0  0  0
   -0.9997   22.2050  -22.7132 C   0  0  0  0  0  0  0  0  0  0  0  0
   -1.4978   22.4505  -23.9386 N   0  0  0  0  0  0  0  0  0  0  0  0
   -0.8892   22.2511  -25.1095 C   0  0  0  0  0  0  0  0  0  0  0  0
    0.4083   21.7218  -25.0456 C   0  0  0  0  0  0  0  0  0  0  0  0
    0.9861   21.4414  -23.8248 C   0  0  0  0  0  0  0  0  0  0  0  0
    0.2581   21.6929  -22.6658 C   0  0  0  0  0  0  0  0  0  0  0  0
    0.8756   21.3933  -21.4609 F   0  0  0  0  0  0  0  0  0  0  0  0
   -1.4495   22.5831  -26.4018 C   0  0  0  0  0  0  0  0  0  0  0  0
   -2.8129   22.5118  -26.6481 C   0  0  0  0  0  0  0  0  0  0  0  0
   -3.6700   22.0823  -25.6742 F   0  0  0  0  0  0  0  0  0  0  0  0
   -3.3765   22.8487  -27.8563 C   0  0  0  0  0  0  0  0  0  0  0  0
   -2.5932   23.2792  -28.8869 C   0  0  0  0  0  0  0  0  0  0  0  0
   -1.2159   23.3607  -28.6744 C   0  0  0  0  0  0  0  0  0  0  0  0
   -0.6807   23.0155  -27.4523 C   0  0  0  0  0  0  0  0  0  0  0  0
    0.6757   23.0941  -27.2361 F   0  0  0  0  0  0  0  0  0  0  0  0
   -2.4703   22.3152  -18.4314 C   0  0  0  0  0  0  0  0  0  0  0  0
   -3.2213   22.8624  -17.3851 C   0  0  0  0  0  0  0  0  0  0  0  0
   -4.5813   23.0989  -17.4942 C   0  0  0  0  0  0  0  0  0  0  0  0
   -5.2298   22.8096  -18.6146 N   0  0  0  0  0  0  0  0  0  0  0  0
   -4.5273   22.2822  -19.6431 C   0  0  0  0  0  0  0  0  0  0  0  0
   -3.1994   22.0391  -19.5858 C   0  0  0  0  0  0  0  0  0  0  0  0
    0.1891   21.1195  -14.7113 C   0  0  0  0  0  0  0  0  0  0  0  0
    0.3007   21.0779  -16.2744 C   0  0  0  0  0  0  0  0  0  0  0  0
    1.3966   22.0802  -16.6497 C   0  0  0  0  0  0  0  0  0  0  0  0
    1.3202   22.3076  -18.1105 C   0  0  0  0  0  0  0  0  0  0  0  0
    2.3849   23.1053  -18.6016 N   0  0  0  0  0  0  0  0  0  0  0  0
   -0.0367   22.9557  -18.4980 C   0  0  0  0  0  0  0  0  0  0  0  0
   -1.1001   21.8800  -18.3007 C   0  0  0  0  0  0  0  0  0  0  0  0
   -0.9945   21.5800  -16.7509 C   0  0  0  0  0  0  0  0  0  0  0  0
    2.3597   23.2510  -19.6457 H   0  0  0  0  0  0  0  0  0  0  0  0
    3.3304   22.9071  -18.2522 H   0  0  0  0  0  0  0  0  0  0  0  0
 26 27  1  0  0  0
 27 28  1  0  0  0
 28 29  1  0  0  0
 29 30  1  0  0  0
 29 31  1  0  0  0
 31 32  1  0  0  0
 32 20  1  0  0  0
 20 21  2  0  0  0
 21 22  1  0  0  0
 22 23  2  0  0  0
 23 24  1  0  0  0
 24 25  2  0  0  0
 25  1  1  0  0  0
  1  2  1  0  0  0
  2  3  2  0  0  0
  2  5  1  0  0  0
  5  6  2  0  0  0
  6  7  1  0  0  0
  7 12  1  0  0  0
 12 13  2  0  0  0
 13 14  1  0  0  0
 13 15  1  0  0  0
 15 16  2  0  0  0
 16 17  1  0  0  0
 17 18  2  0  0  0
 18 19  1  0  0  0
  7  8  2  0  0  0
  8  9  1  0  0  0
  9 10  2  0  0  0
 10 11  1  0  0  0
 32 33  1  0  0  0
 33 27  1  0  0  0
 25 20  1  0  0  0
 10  5  1  0  0  0
 18 12  1  0  0  0
 30 34  1  0  0  0
 30 35  1  0  0  0
  1  4  1  0  0  0
M  END
> <minimizedAffinity>
-8.65047

> <CNNscore>
0.1641646773

> <CNNaffinity>
6.1899232864

> <CNN_VS>
1.0161668062

> <CNNaffinity_variance>
0.1763984412

$$$$
[H]c1nc([H])c(N([H])C(=O)c2nc(-c3c(F)c([H])c([H])c([H])c3F)c([H])c([H])c2F)c([C@@]2([H])C([H])([H])[C@@]([H])(N([H])[H])C([H])([H])[C@@]([H])(C([H])([H])[H])C2([H])[H])c1[H]


 35 38  0  0  0  0  0  0  0  0999 V2000
   -2.1889   21.8136  -22.8431 N   0  0  0  0  0  0  0  0  0  0  0  0
   -1.9197   22.7259  -21.8180 C   0  0  0  0  0  0  0  0  0  0  0  0
   -1.3157   23.8373  -22.1104 O   0  0  0  0  0  0  0  0  0  0  0  0
   -2.6854   20.9280  -22.5938 H   0  0  0  0  0  0  0  0  0  0  0  0
   -2.2420   22.6151  -20.4048 C   0  0  0  0  0  0  0  0  0  0  0  0
   -3.5108   22.3585  -20.0384 N   0  0  0  0  0  0  0  0  0  0  0  0
   -3.9781   22.2239  -18.7955 C   0  0  0  0  0  0  0  0  0  0  0  0
   -3.0376   22.3743  -17.7656 C   0  0  0  0  0  0  0  0  0  0  0  0
   -1.7172   22.6414  -18.0625 C   0  0  0  0  0  0  0  0  0  0  0  0
   -1.3414   22.7581  -19.3973 C   0  0  0  0  0  0  0  0  0  0  0  0
   -0.0054   23.0303  -19.6503 F   0  0  0  0  0  0  0  0  0  0  0  0
   -5.3453   21.8935  -18.4555 C   0  0  0  0  0  0  0  0  0  0  0  0
   -6.2529   22.8615  -18.0510 C   0  0  0  0  0  0  0  0  0  0  0  0
   -5.8627   24.1650  -17.9235 F   0  0  0  0  0  0  0  0  0  0  0  0
   -7.5651   22.5818  -17.7498 C   0  0  0  0  0  0  0  0  0  0  0  0
   -8.0370   21.3051  -17.8415 C   0  0  0  0  0  0  0  0  0  0  0  0
   -7.1498   20.3051  -18.2436 C   0  0  0  0  0  0  0  0  0  0  0  0
   -5.8402   20.6168  -18.5382 C   0  0  0  0  0  0  0  0  0  0  0  0
   -4.9608   19.6361  -18.9356 F   0  0  0  0  0  0  0  0  0  0  0  0
   -2.7133   22.8459  -24.9091 C   0  0  0  0  0  0  0  0  0  0  0  0
   -2.2722   23.1948  -26.1904 C   0  0  0  0  0  0  0  0  0  0  0  0
   -1.0366   22.8059  -26.6799 C   0  0  0  0  0  0  0  0  0  0  0  0
   -0.2146   22.0764  -25.9371 N   0  0  0  0  0  0  0  0  0  0  0  0
   -0.6150   21.7276  -24.6931 C   0  0  0  0  0  0  0  0  0  0  0  0
   -1.8078   22.0879  -24.1705 C   0  0  0  0  0  0  0  0  0  0  0  0
   -6.8433   23.5397  -27.1010 C   0  0  0  0  0  0  0  0  0  0  0  0
   -6.3373   23.2901  -25.6384 C   0  0  0  0  0  0  0  0  0  0  0  0
   -6.6058   24.5866  -24.8680 C   0  0  0  0  0  0  0  0  0  0  0  0
   -5.8670   24.5128  -23.5873 C   0  0  0  0  0  0  0  0  0  0  0  0
   -6.1588   25.5948  -22.7184 N   0  0  0  0  0  0  0  0  0  0  0  0
   -4.3358   24.4442  -23.8365 C   0  0  0  0  0  0  0  0  0  0  0  0
   -4.0569   23.0666  -24.4294 C   0  0  0  0  0  0  0  0  0  0  0  0
   -4.8872   23.1033  -25.7757 C   0  0  0  0  0  0  0  0  0  0  0  0
   -5.6618   25.5397  -21.7899 H   0  0  0  0  0  0  0  0  0  0  0  0
   -7.1410   25.8810  -22.6254 H   0  0  0  0  0  0  0  0  0  0  0  0
 26 27  1  0  0  0
 27 28  1  0  0  0
 28 29  1  0  0  0
 29 30  1  0  0  0
 29 31  1  0  0  0
 31 32  1  0  0  0
 32 20  1  0  0  0
 20 21  2  0  0  0
 21 22  1  0  0  0
 22 23  2  0  0  0
 23 24  1  0  0  0
 24 25  2  0  0  0
 25  1  1  0  0  0
  1  2  1  0  0  0
  2  3  2  0  0  0
  2  5  1  0  0  0
  5  6  2  0  0  0
  6  7  1  0  0  0
  7 12  1  0  0  0
 12 13  2  0  0  0
 13 14  1  0  0  0
 13 15  1  0  0  0
 15 16  2  0  0  0
 16 17  1  0  0  0
 17 18  2  0  0  0
 18 19  1  0  0  0
  7  8  2  0  0  0
  8  9  1  0  0  0
  9 10  2  0  0  0
 10 11  1  0  0  0
 32 33  1  0  0  0
 33 27  1  0  0  0
 25 20  1  0  0  0
 10  5  1  0  0  0
 18 12  1  0  0  0
 30 34  1  0  0  0
 30 35  1  0  0  0
  1  4  1  0  0  0
M  END
> <minimizedAffinity>
-7.74922

> <CNNscore>
0.1594105214

> <CNNaffinity>
6.6780672073

> <CNN_VS>
1.0645542145

> <CNNaffinity_variance>
0.4732107222

$$$$
[H]c1nc([H])c(N([H])C(=O)c2nc(-c3c(F)c([H])c([H])c([H])c3F)c([H])c([H])c2F)c([C@@]2([H])C([H])([H])[C@@]([H])(N([H])[H])C([H])([H])[C@@]([H])(C([H])([H])[H])C2([H])[H])c1[H]


 35 38  0  0  0  0  0  0  0  0999 V2000
   -2.1477   21.5955  -24.3616 N   0  0  0  0  0  0  0  0  0  0  0  0
   -1.1406   22.0707  -23.5156 C   0  0  0  0  0  0  0  0  0  0  0  0
   -0.4093   23.0683  -23.9100 O   0  0  0  0  0  0  0  0  0  0  0  0
   -2.7352   20.7987  -24.0256 H   0  0  0  0  0  0  0  0  0  0  0  0
   -0.7801   21.5981  -22.1889 C   0  0  0  0  0  0  0  0  0  0  0  0
   -0.0986   20.4447  -22.0650 N   0  0  0  0  0  0  0  0  0  0  0  0
    0.3114   19.8699  -20.9324 C   0  0  0  0  0  0  0  0  0  0  0  0
   -0.0139   20.5460  -19.7471 C   0  0  0  0  0  0  0  0  0  0  0  0
   -0.7138   21.7338  -19.7932 C   0  0  0  0  0  0  0  0  0  0  0  0
   -1.0882   22.2428  -21.0330 C   0  0  0  0  0  0  0  0  0  0  0  0
   -1.7931   23.4369  -21.0330 F   0  0  0  0  0  0  0  0  0  0  0  0
    1.0905   18.6529  -20.8557 C   0  0  0  0  0  0  0  0  0  0  0  0
    2.4508   18.6369  -21.1273 C   0  0  0  0  0  0  0  0  0  0  0  0
    3.0914   19.7789  -21.5182 F   0  0  0  0  0  0  0  0  0  0  0  0
    3.2220   17.5022  -21.0344 C   0  0  0  0  0  0  0  0  0  0  0  0
    2.6619   16.3160  -20.6595 C   0  0  0  0  0  0  0  0  0  0  0  0
    1.2941   16.2955  -20.3809 C   0  0  0  0  0  0  0  0  0  0  0  0
    0.5477   17.4493  -20.4835 C   0  0  0  0  0  0  0  0  0  0  0  0
   -0.8006   17.4361  -20.2097 F   0  0  0  0  0  0  0  0  0  0  0  0
   -3.3754   23.1387  -25.6732 C   0  0  0  0  0  0  0  0  0  0  0  0
   -3.5075   23.7823  -26.9087 C   0  0  0  0  0  0  0  0  0  0  0  0
   -2.7000   23.4792  -27.9920 C   0  0  0  0  0  0  0  0  0  0  0  0
   -1.7567   22.5518  -27.8931 N   0  0  0  0  0  0  0  0  0  0  0  0
   -1.6055   21.9160  -26.7089 C   0  0  0  0  0  0  0  0  0  0  0  0
   -2.3649   22.1813  -25.6233 C   0  0  0  0  0  0  0  0  0  0  0  0
   -7.8429   24.6643  -25.4380 C   0  0  0  0  0  0  0  0  0  0  0  0
   -6.8040   23.9757  -24.4873 C   0  0  0  0  0  0  0  0  0  0  0  0
   -6.4663   25.0077  -23.4069 C   0  0  0  0  0  0  0  0  0  0  0  0
   -5.2696   24.5265  -22.6803 C   0  0  0  0  0  0  0  0  0  0  0  0
   -4.9486   25.3264  -21.5542 N   0  0  0  0  0  0  0  0  0  0  0  0
   -4.0426   24.4474  -23.6289 C   0  0  0  0  0  0  0  0  0  0  0  0
   -4.3086   23.2861  -24.5817 C   0  0  0  0  0  0  0  0  0  0  0  0
   -5.6212   23.7558  -25.3296 C   0  0  0  0  0  0  0  0  0  0  0  0
   -4.1154   24.9781  -21.0097 H   0  0  0  0  0  0  0  0  0  0  0  0
   -5.7205   25.6278  -20.9471 H   0  0  0  0  0  0  0  0  0  0  0  0
 26 27  1  0  0  0
 27 28  1  0  0  0
 28 29  1  0  0  0
 29 30  1  0  0  0
 29 31  1  0  0  0
 31 32  1  0  0  0
 32 20  1  0  0  0
 20 21  2  0  0  0
 21 22  1  0  0  0
 22 23  2  0  0  0
 23 24  1  0  0  0
 24 25  2  0  0  0
 25  1  1  0  0  0
  1  2  1  0  0  0
  2  3  2  0  0  0
  2  5  1  0  0  0
  5  6  2  0  0  0
  6  7  1  0  0  0
  7 12  1  0  0  0
 12 13  2  0  0  0
 13 14  1  0  0  0
 13 15  1  0  0  0
 15 16  2  0  0  0
 16 17  1  0  0  0
 17 18  2  0  0  0
 18 19  1  0  0  0
  7  8  2  0  0  0
  8  9  1  0  0  0
  9 10  2  0  0  0
 10 11  1  0  0  0
 32 33  1  0  0  0
 33 27  1  0  0  0
 25 20  1  0  0  0
 10  5  1  0  0  0
 18 12  1  0  0  0
 30 34  1  0  0  0
 30 35  1  0  0  0
  1  4  1  0  0  0
M  END
> <minimizedAffinity>
-8.25920

> <CNNscore>
0.1278516501

> <CNNaffinity>
6.7406830788

> <CNN_VS>
0.8618074656

> <CNNaffinity_variance>
0.3332925439

$$$$
[H]c1nc([H])c(N([H])C(=O)c2nc(-c3c(F)c([H])c([H])c([H])c3F)c([H])c([H])c2F)c([C@@]2([H])C([H])([H])[C@@]([H])(N([H])[H])C([H])([H])[C@@]([H])(C([H])([H])[H])C2([H])[H])c1[H]


 35 38  0  0  0  0  0  0  0  0999 V2000
   -3.6720   22.9298  -26.3062 N   0  0  0  0  0  0  0  0  0  0  0  0
   -4.3250   24.1181  -25.9634 C   0  0  0  0  0  0  0  0  0  0  0  0
   -3.7507   25.2501  -26.2359 O   0  0  0  0  0  0  0  0  0  0  0  0
   -4.1519   22.0265  -26.0901 H   0  0  0  0  0  0  0  0  0  0  0  0
   -5.6211   24.2832  -25.3262 C   0  0  0  0  0  0  0  0  0  0  0  0
   -5.7835   23.8801  -24.0530 N   0  0  0  0  0  0  0  0  0  0  0  0
   -6.8959   23.9576  -23.3199 C   0  0  0  0  0  0  0  0  0  0  0  0
   -8.0142   24.5159  -23.9568 C   0  0  0  0  0  0  0  0  0  0  0  0
   -7.9262   24.9501  -25.2632 C   0  0  0  0  0  0  0  0  0  0  0  0
   -6.7120   24.8224  -25.9310 C   0  0  0  0  0  0  0  0  0  0  0  0
   -6.6690   25.2683  -27.2433 F   0  0  0  0  0  0  0  0  0  0  0  0
   -7.0041   23.5582  -21.9332 C   0  0  0  0  0  0  0  0  0  0  0  0
   -7.2514   22.2430  -21.5680 C   0  0  0  0  0  0  0  0  0  0  0  0
   -7.4411   21.2841  -22.5230 F   0  0  0  0  0  0  0  0  0  0  0  0
   -7.3304   21.8291  -20.2590 C   0  0  0  0  0  0  0  0  0  0  0  0
   -7.1623   22.7223  -19.2416 C   0  0  0  0  0  0  0  0  0  0  0  0
   -6.9141   24.0554  -19.5734 C   0  0  0  0  0  0  0  0  0  0  0  0
   -6.8411   24.4395  -20.8948 C   0  0  0  0  0  0  0  0  0  0  0  0
   -6.5961   25.7516  -21.2286 F   0  0  0  0  0  0  0  0  0  0  0  0
   -1.3260   22.6787  -26.1011 C   0  0  0  0  0  0  0  0  0  0  0  0
   -0.0929   22.6071  -26.7587 C   0  0  0  0  0  0  0  0  0  0  0  0
    0.0313   22.8051  -28.1236 C   0  0  0  0  0  0  0  0  0  0  0  0
   -1.0338   23.0740  -28.8671 N   0  0  0  0  0  0  0  0  0  0  0  0
   -2.2388   23.1461  -28.2571 C   0  0  0  0  0  0  0  0  0  0  0  0
   -2.4103   22.9550  -26.9305 C   0  0  0  0  0  0  0  0  0  0  0  0
    1.3143   20.9185  -22.5979 C   0  0  0  0  0  0  0  0  0  0  0  0
    0.0517   21.8357  -22.7464 C   0  0  0  0  0  0  0  0  0  0  0  0
   -1.1230   21.0396  -22.1698 C   0  0  0  0  0  0  0  0  0  0  0  0
   -2.3730   21.7239  -22.5707 C   0  0  0  0  0  0  0  0  0  0  0  0
   -3.5275   21.1626  -21.9681 N   0  0  0  0  0  0  0  0  0  0  0  0
   -2.5361   21.7152  -24.1150 C   0  0  0  0  0  0  0  0  0  0  0  0
   -1.4778   22.6659  -24.6655 C   0  0  0  0  0  0  0  0  0  0  0  0
   -0.1309   21.9812  -24.1963 C   0  0  0  0  0  0  0  0  0  0  0  0
   -4.4227   21.6589  -22.2217 H   0  0  0  0  0  0  0  0  0  0  0  0
   -3.4766   20.9228  -20.9705 H   0  0  0  0  0  0  0  0  0  0  0  0
 26 27  1  0  0  0
 27 28  1  0  0  0
 28 29  1  0  0  0
 29 30  1  0  0  0
 29 31  1  0  0  0
 31 32  1  0  0  0
 32 20  1  0  0  0
 20 21  2  0  0  0
 21 22  1  0  0  0
 22 23  2  0  0  0
 23 24  1  0  0  0
 24 25  2  0  0  0
 25  1  1  0  0  0
  1  2  1  0  0  0
  2  3  2  0  0  0
  2  5  1  0  0  0
  5  6  2  0  0  0
  6  7  1  0  0  0
  7 12  1  0  0  0
 12 13  2  0  0  0
 13 14  1  0  0  0
 13 15  1  0  0  0
 15 16  2  0  0  0
 16 17  1  0  0  0
 17 18  2  0  0  0
 18 19  1  0  0  0
  7  8  2  0  0  0
  8  9  1  0  0  0
  9 10  2  0  0  0
 10 11  1  0  0  0
 32 33  1  0  0  0
 33 27  1  0  0  0
 25 20  1  0  0  0
 10  5  1  0  0  0
 18 12  1  0  0  0
 30 34  1  0  0  0
 30 35  1  0  0  0
  1  4  1  0  0  0
M  END
> <minimizedAffinity>
-9.27914

> <CNNscore>
0.1276032925

> <CNNaffinity>
6.6681327820

> <CNN_VS>
0.8508756757

> <CNNaffinity_variance>
0.2173500359

$$$$
[H]c1nc([H])c(N([H])C(=O)c2nc(-c3c(F)c([H])c([H])c([H])c3F)c([H])c([H])c2F)c([C@@]2([H])C([H])([H])[C@@]([H])(N([H])[H])C([H])([H])[C@@]([H])(C([H])([H])[H])C2([H])[H])c1[H]


 35 38  0  0  0  0  0  0  0  0999 V2000
   -3.7524   22.8078  -22.8010 N   0  0  0  0  0  0  0  0  0  0  0  0
   -3.7768   22.0216  -23.9573 C   0  0  0  0  0  0  0  0  0  0  0  0
   -4.4156   20.8916  -23.9339 O   0  0  0  0  0  0  0  0  0  0  0  0
   -3.2431   23.7199  -22.8387 H   0  0  0  0  0  0  0  0  0  0  0  0
   -3.1730   22.3004  -25.2500 C   0  0  0  0  0  0  0  0  0  0  0  0
   -3.9133   22.8871  -26.2081 N   0  0  0  0  0  0  0  0  0  0  0  0
   -3.5211   23.2138  -27.4412 C   0  0  0  0  0  0  0  0  0  0  0  0
   -2.1927   22.9019  -27.7667 C   0  0  0  0  0  0  0  0  0  0  0  0
   -1.3722   22.2969  -26.8373 C   0  0  0  0  0  0  0  0  0  0  0  0
   -1.8881   22.0041  -25.5785 C   0  0  0  0  0  0  0  0  0  0  0  0
   -1.0302   21.3931  -24.6765 F   0  0  0  0  0  0  0  0  0  0  0  0
   -4.3425   23.8944  -28.4190 C   0  0  0  0  0  0  0  0  0  0  0  0
   -4.6543   25.2411  -28.3021 C   0  0  0  0  0  0  0  0  0  0  0  0
   -4.2200   25.9605  -27.2245 F   0  0  0  0  0  0  0  0  0  0  0  0
   -5.4078   25.9209  -29.2301 C   0  0  0  0  0  0  0  0  0  0  0  0
   -5.8895   25.2778  -30.3325 C   0  0  0  0  0  0  0  0  0  0  0  0
   -5.5966   23.9209  -30.4807 C   0  0  0  0  0  0  0  0  0  0  0  0
   -4.8392   23.2671  -29.5331 C   0  0  0  0  0  0  0  0  0  0  0  0
   -4.5464   21.9301  -29.6734 F   0  0  0  0  0  0  0  0  0  0  0  0
   -5.6705   22.9200  -21.4163 C   0  0  0  0  0  0  0  0  0  0  0  0
   -6.3419   22.4086  -20.3001 C   0  0  0  0  0  0  0  0  0  0  0  0
   -5.7798   21.4518  -19.4717 C   0  0  0  0  0  0  0  0  0  0  0  0
   -4.5641   20.9792  -19.7129 N   0  0  0  0  0  0  0  0  0  0  0  0
   -3.8939   21.4543  -20.7873 C   0  0  0  0  0  0  0  0  0  0  0  0
   -4.4027   22.3828  -21.6268 C   0  0  0  0  0  0  0  0  0  0  0  0
   -8.7213   26.4167  -20.5177 C   0  0  0  0  0  0  0  0  0  0  0  0
   -7.6886   26.0412  -21.6357 C   0  0  0  0  0  0  0  0  0  0  0  0
   -8.5120   25.7368  -22.8909 C   0  0  0  0  0  0  0  0  0  0  0  0
   -7.6174   25.0789  -23.8699 C   0  0  0  0  0  0  0  0  0  0  0  0
   -8.2303   24.8834  -25.1337 N   0  0  0  0  0  0  0  0  0  0  0  0
   -7.1069   23.7179  -23.3235 C   0  0  0  0  0  0  0  0  0  0  0  0
   -6.1354   24.0442  -22.1935 C   0  0  0  0  0  0  0  0  0  0  0  0
   -7.0619   24.8016  -21.1587 C   0  0  0  0  0  0  0  0  0  0  0  0
   -7.5947   24.4423  -25.8502 H   0  0  0  0  0  0  0  0  0  0  0  0
   -8.7856   25.6567  -25.5196 H   0  0  0  0  0  0  0  0  0  0  0  0
 26 27  1  0  0  0
 27 28  1  0  0  0
 28 29  1  0  0  0
 29 30  1  0  0  0
 29 31  1  0  0  0
 31 32  1  0  0  0
 32 20  1  0  0  0
 20 21  2  0  0  0
 21 22  1  0  0  0
 22 23  2  0  0  0
 23 24  1  0  0  0
 24 25  2  0  0  0
 25  1  1  0  0  0
  1  2  1  0  0  0
  2  3  2  0  0  0
  2  5  1  0  0  0
  5  6  2  0  0  0
  6  7  1  0  0  0
  7 12  1  0  0  0
 12 13  2  0  0  0
 13 14  1  0  0  0
 13 15  1  0  0  0
 15 16  2  0  0  0
 16 17  1  0  0  0
 17 18  2  0  0  0
 18 19  1  0  0  0
  7  8  2  0  0  0
  8  9  1  0  0  0
  9 10  2  0  0  0
 10 11  1  0  0  0
 32 33  1  0  0  0
 33 27  1  0  0  0
 25 20  1  0  0  0
 10  5  1  0  0  0
 18 12  1  0  0  0
 30 34  1  0  0  0
 30 35  1  0  0  0
  1  4  1  0  0  0
M  END
> <minimizedAffinity>
-9.99876

> <CNNscore>
0.1259717345

> <CNNaffinity>
6.4421629906

> <CNN_VS>
0.8115304708

> <CNNaffinity_variance>
0.5011872053

$$$$
[H]OC(=O)C1(C([H])([H])c2c([H])nc(OC([H])([H])C([H])([H])c3nc(-c4c([H])c([H])c([H])c(Cl)c4[H])oc3C([H])([H])[H])c([H])c2[H])OC([H])([H])C([H])([H])C1([H])[H]


 32 35  0  0  0  0  0  0  0  0999 V2000
    0.4227   22.3581  -26.1554 O   0  0  0  0  0  0  0  0  0  0  0  0
   -0.7459   22.5595  -26.8691 C   0  0  0  0  0  0  0  0  0  0  0  0
   -1.9781   22.2800  -26.2555 C   0  0  0  0  0  0  0  0  0  0  0  0
   -3.1606   22.4717  -26.9441 C   0  0  0  0  0  0  0  0  0  0  0  0
   -3.1772   22.9385  -28.2426 C   0  0  0  0  0  0  0  0  0  0  0  0
   -1.9515   23.1949  -28.7948 C   0  0  0  0  0  0  0  0  0  0  0  0
   -0.8090   23.0065  -28.1204 N   0  0  0  0  0  0  0  0  0  0  0  0
   -4.4309   23.1436  -28.9675 C   0  0  0  0  0  0  0  0  0  0  0  0
   -5.1955   24.3832  -28.6789 C   0  0  0  0  0  0  0  0  0  0  0  0
   -4.3124   25.6103  -28.8495 C   0  0  0  0  0  0  0  0  0  0  0  0
   -4.2590   25.6940  -30.3623 C   0  0  0  0  0  0  0  0  0  0  0  0
   -5.5709   25.1098  -30.7572 C   0  0  0  0  0  0  0  0  0  0  0  0
   -6.1781   24.5233  -29.6755 O   0  0  0  0  0  0  0  0  0  0  0  0
   -5.9025   24.4153  -27.3819 C   0  0  0  0  0  0  0  0  0  0  0  0
   -5.4950   25.1583  -26.4216 O   0  0  0  0  0  0  0  0  0  0  0  0
   -7.0326   23.6719  -27.0840 O   0  0  0  0  0  0  0  0  0  0  0  0
   -7.7835   24.1425  -26.5987 H   0  0  0  0  0  0  0  0  0  0  0  0
    0.6921   22.7762  -24.8524 C   0  0  0  0  0  0  0  0  0  0  0  0
    1.0898   21.5702  -24.0139 C   0  0  0  0  0  0  0  0  0  0  0  0
    1.7224   20.5920  -21.0803 C   0  0  0  0  0  0  0  0  0  0  0  0
    0.4160   21.0808  -21.5941 C   0  0  0  0  0  0  0  0  0  0  0  0
   -0.6931   21.1860  -20.9195 O   0  0  0  0  0  0  0  0  0  0  0  0
   -1.6600   21.6487  -21.6606 C   0  0  0  0  0  0  0  0  0  0  0  0
   -1.1474   21.8549  -22.8840 N   0  0  0  0  0  0  0  0  0  0  0  0
    0.1522   21.5121  -22.8885 C   0  0  0  0  0  0  0  0  0  0  0  0
   -3.0353   21.8992  -21.2559 C   0  0  0  0  0  0  0  0  0  0  0  0
   -3.3977   22.3265  -19.9973 C   0  0  0  0  0  0  0  0  0  0  0  0
   -4.7120   22.5574  -19.6456 C   0  0  0  0  0  0  0  0  0  0  0  0
   -5.7307   22.3660  -20.5551 C   0  0  0  0  0  0  0  0  0  0  0  0
   -5.4033   21.9363  -21.8316 C   0  0  0  0  0  0  0  0  0  0  0  0
   -6.6676   21.6769  -23.0310 Cl  0  0  0  0  0  0  0  0  0  0  0  0
   -4.0850   21.7120  -22.1610 C   0  0  0  0  0  0  0  0  0  0  0  0
 20 21  1  0  0  0
 21 22  1  0  0  0
 22 23  1  0  0  0
 23 26  1  0  0  0
 26 27  2  0  0  0
 27 28  1  0  0  0
 28 29  2  0  0  0
 29 30  1  0  0  0
 30 31  1  0  0  0
 30 32  2  0  0  0
 23 24  2  0  0  0
 24 25  1  0  0  0
 25 19  1  0  0  0
 19 18  1  0  0  0
 18  1  1  0  0  0
  1  2  1  0  0  0
  2  3  2  0  0  0
  3  4  1  0  0  0
  4  5  2  0  0  0
  5  8  1  0  0  0
  8  9  1  0  0  0
  9 14  1  0  0  0
 14 15  2  0  0  0
 14 16  1  0  0  0
  9 10  1  0  0  0
 10 11  1  0  0  0
 11 12  1  0  0  0
 12 13  1  0  0  0
  5  6  1  0  0  0
  6  7  2  0  0  0
 25 21  2  0  0  0
  7  2  1  0  0  0
 32 26  1  0  0  0
 13  9  1  0  0  0
 16 17  1  0  0  0
M  END
> <minimizedAffinity>
-8.23632

> <CNNscore>
0.6925330758

> <CNNaffinity>
7.1172447205

> <CNN_VS>
4.9289274216

> <CNNaffinity_variance>
0.1651608497

$$$$
[H]OC(=O)C1(C([H])([H])c2c([H])nc(OC([H])([H])C([H])([H])c3nc(-c4c([H])c([H])c([H])c(Cl)c4[H])oc3C([H])([H])[H])c([H])c2[H])OC([H])([H])C([H])([H])C1([H])[H]


 32 35  0  0  0  0  0  0  0  0999 V2000
   -0.7866   21.9123  -25.4329 O   0  0  0  0  0  0  0  0  0  0  0  0
   -1.8055   22.3185  -26.2769 C   0  0  0  0  0  0  0  0  0  0  0  0
   -3.0897   22.5265  -25.7471 C   0  0  0  0  0  0  0  0  0  0  0  0
   -4.1259   22.9322  -26.5663 C   0  0  0  0  0  0  0  0  0  0  0  0
   -3.9425   23.1458  -27.9172 C   0  0  0  0  0  0  0  0  0  0  0  0
   -2.6743   22.9288  -28.3837 C   0  0  0  0  0  0  0  0  0  0  0  0
   -1.6746   22.5355  -27.5829 N   0  0  0  0  0  0  0  0  0  0  0  0
   -5.0408   23.5785  -28.7808 C   0  0  0  0  0  0  0  0  0  0  0  0
   -5.3660   25.0270  -28.8037 C   0  0  0  0  0  0  0  0  0  0  0  0
   -4.1455   25.8447  -29.1991 C   0  0  0  0  0  0  0  0  0  0  0  0
   -4.1109   25.5711  -30.6899 C   0  0  0  0  0  0  0  0  0  0  0  0
   -5.5508   25.3567  -31.0048 C   0  0  0  0  0  0  0  0  0  0  0  0
   -6.2815   25.2450  -29.8489 O   0  0  0  0  0  0  0  0  0  0  0  0
   -5.9898   25.5653  -27.5773 C   0  0  0  0  0  0  0  0  0  0  0  0
   -5.5103   26.5948  -26.9850 O   0  0  0  0  0  0  0  0  0  0  0  0
   -7.1117   25.0303  -26.9660 O   0  0  0  0  0  0  0  0  0  0  0  0
   -7.8226   25.6763  -26.6527 H   0  0  0  0  0  0  0  0  0  0  0  0
   -0.5011   22.4115  -24.1624 C   0  0  0  0  0  0  0  0  0  0  0  0
   -1.1153   21.4929  -23.1161 C   0  0  0  0  0  0  0  0  0  0  0  0
   -2.7548   23.9335  -21.9680 C   0  0  0  0  0  0  0  0  0  0  0  0
   -1.6332   23.2214  -21.3015 C   0  0  0  0  0  0  0  0  0  0  0  0
   -1.1335   23.4864  -20.1283 O   0  0  0  0  0  0  0  0  0  0  0  0
   -0.1563   22.6767  -19.8321 C   0  0  0  0  0  0  0  0  0  0  0  0
   -0.0161   21.8400  -20.8724 N   0  0  0  0  0  0  0  0  0  0  0  0
   -0.9217   22.1450  -21.8176 C   0  0  0  0  0  0  0  0  0  0  0  0
    0.6393   22.6677  -18.6137 C   0  0  0  0  0  0  0  0  0  0  0  0
    0.3412   21.8993  -17.5097 C   0  0  0  0  0  0  0  0  0  0  0  0
    1.1183   21.9117  -16.3694 C   0  0  0  0  0  0  0  0  0  0  0  0
    2.2419   22.7071  -16.2889 C   0  0  0  0  0  0  0  0  0  0  0  0
    2.5728   23.4939  -17.3809 C   0  0  0  0  0  0  0  0  0  0  0  0
    3.9985   24.5278  -17.3291 Cl  0  0  0  0  0  0  0  0  0  0  0  0
    1.7830   23.4660  -18.5089 C   0  0  0  0  0  0  0  0  0  0  0  0
 20 21  1  0  0  0
 21 22  1  0  0  0
 22 23  1  0  0  0
 23 26  1  0  0  0
 26 27  2  0  0  0
 27 28  1  0  0  0
 28 29  2  0  0  0
 29 30  1  0  0  0
 30 31  1  0  0  0
 30 32  2  0  0  0
 23 24  2  0  0  0
 24 25  1  0  0  0
 25 19  1  0  0  0
 19 18  1  0  0  0
 18  1  1  0  0  0
  1  2  1  0  0  0
  2  3  2  0  0  0
  3  4  1  0  0  0
  4  5  2  0  0  0
  5  8  1  0  0  0
  8  9  1  0  0  0
  9 14  1  0  0  0
 14 15  2  0  0  0
 14 16  1  0  0  0
  9 10  1  0  0  0
 10 11  1  0  0  0
 11 12  1  0  0  0
 12 13  1  0  0  0
  5  6  1  0  0  0
  6  7  2  0  0  0
 25 21  2  0  0  0
  7  2  1  0  0  0
 32 26  1  0  0  0
 13  9  1  0  0  0
 16 17  1  0  0  0
M  END
> <minimizedAffinity>
-8.99148

> <CNNscore>
0.3652431965

> <CNNaffinity>
6.4836287498

> <CNN_VS>
2.3681013584

> <CNNaffinity_variance>
0.1904707849

$$$$
[H]OC(=O)C1(C([H])([H])c2c([H])nc(OC([H])([H])C([H])([H])c3nc(-c4c([H])c([H])c([H])c(Cl)c4[H])oc3C([H])([H])[H])c([H])c2[H])OC([H])([H])C([H])([H])C1([H])[H]


 32 35  0  0  0  0  0  0  0  0999 V2000
   -0.9349   22.9756  -20.7319 O   0  0  0  0  0  0  0  0  0  0  0  0
    0.1034   22.7442  -19.8465 C   0  0  0  0  0  0  0  0  0  0  0  0
    0.7701   21.5084  -19.8831 C   0  0  0  0  0  0  0  0  0  0  0  0
    1.8102   21.2498  -19.0110 C   0  0  0  0  0  0  0  0  0  0  0  0
    2.2287   22.1818  -18.0834 C   0  0  0  0  0  0  0  0  0  0  0  0
    1.5468   23.3684  -18.0879 C   0  0  0  0  0  0  0  0  0  0  0  0
    0.5391   23.6117  -18.9370 N   0  0  0  0  0  0  0  0  0  0  0  0
    3.3323   21.9061  -17.1640 C   0  0  0  0  0  0  0  0  0  0  0  0
    4.5150   22.8018  -17.2235 C   0  0  0  0  0  0  0  0  0  0  0  0
    5.7839   22.0391  -16.8726 C   0  0  0  0  0  0  0  0  0  0  0  0
    5.9927   21.2609  -18.1568 C   0  0  0  0  0  0  0  0  0  0  0  0
    5.3944   22.1675  -19.1760 C   0  0  0  0  0  0  0  0  0  0  0  0
    4.6994   23.1807  -18.5654 O   0  0  0  0  0  0  0  0  0  0  0  0
    4.4149   24.0517  -16.4420 C   0  0  0  0  0  0  0  0  0  0  0  0
    5.1009   25.0871  -16.7544 O   0  0  0  0  0  0  0  0  0  0  0  0
    3.6019   24.2229  -15.3336 O   0  0  0  0  0  0  0  0  0  0  0  0
    3.0750   25.0827  -15.2723 H   0  0  0  0  0  0  0  0  0  0  0  0
   -1.8283   22.0335  -21.2412 C   0  0  0  0  0  0  0  0  0  0  0  0
   -1.0681   21.0475  -22.1163 C   0  0  0  0  0  0  0  0  0  0  0  0
    1.3040   21.6656  -24.1048 C   0  0  0  0  0  0  0  0  0  0  0  0
   -0.1496   21.8110  -24.3795 C   0  0  0  0  0  0  0  0  0  0  0  0
   -0.6924   22.2220  -25.4898 O   0  0  0  0  0  0  0  0  0  0  0  0
   -1.9929   22.2360  -25.4083 C   0  0  0  0  0  0  0  0  0  0  0  0
   -2.3096   21.8095  -24.1756 N   0  0  0  0  0  0  0  0  0  0  0  0
   -1.1844   21.5316  -23.4950 C   0  0  0  0  0  0  0  0  0  0  0  0
   -2.9344   22.6342  -26.4441 C   0  0  0  0  0  0  0  0  0  0  0  0
   -2.6073   22.7366  -27.7784 C   0  0  0  0  0  0  0  0  0  0  0  0
   -3.5251   23.1150  -28.7370 C   0  0  0  0  0  0  0  0  0  0  0  0
   -4.8268   23.4105  -28.3910 C   0  0  0  0  0  0  0  0  0  0  0  0
   -5.1921   23.3182  -27.0572 C   0  0  0  0  0  0  0  0  0  0  0  0
   -6.8429   23.6849  -26.5628 Cl  0  0  0  0  0  0  0  0  0  0  0  0
   -4.2598   22.9387  -26.1171 C   0  0  0  0  0  0  0  0  0  0  0  0
 20 21  1  0  0  0
 21 22  1  0  0  0
 22 23  1  0  0  0
 23 26  1  0  0  0
 26 27  2  0  0  0
 27 28  1  0  0  0
 28 29  2  0  0  0
 29 30  1  0  0  0
 30 31  1  0  0  0
 30 32  2  0  0  0
 23 24  2  0  0  0
 24 25  1  0  0  0
 25 19  1  0  0  0
 19 18  1  0  0  0
 18  1  1  0  0  0
  1  2  1  0  0  0
  2  3  2  0  0  0
  3  4  1  0  0  0
  4  5  2  0  0  0
  5  8  1  0  0  0
  8  9  1  0  0  0
  9 14  1  0  0  0
 14 15  2  0  0  0
 14 16  1  0  0  0
  9 10  1  0  0  0
 10 11  1  0  0  0
 11 12  1  0  0  0
 12 13  1  0  0  0
  5  6  1  0  0  0
  6  7  2  0  0  0
 25 21  2  0  0  0
  7  2  1  0  0  0
 32 26  1  0  0  0
 13  9  1  0  0  0
 16 17  1  0  0  0
M  END
> <minimizedAffinity>
-7.47660

> <CNNscore>
0.2120827734

> <CNNaffinity>
5.6335587502

> <CNN_VS>
1.1947807074

> <CNNaffinity_variance>
0.1754216999

$$$$
[H]OC(=O)C1(C([H])([H])c2c([H])nc(OC([H])([H])C([H])([H])c3nc(-c4c([H])c([H])c([H])c(Cl)c4[H])oc3C([H])([H])[H])c([H])c2[H])OC([H])([H])C([H])([H])C1([H])[H]


 32 35  0  0  0  0  0  0  0  0999 V2000
   -1.1182   22.2948  -26.6896 O   0  0  0  0  0  0  0  0  0  0  0  0
   -1.2451   22.0730  -25.3294 C   0  0  0  0  0  0  0  0  0  0  0  0
   -0.1278   22.2609  -24.4991 C   0  0  0  0  0  0  0  0  0  0  0  0
   -0.2255   22.0468  -23.1375 C   0  0  0  0  0  0  0  0  0  0  0  0
   -1.4073   21.6460  -22.5485 C   0  0  0  0  0  0  0  0  0  0  0  0
   -2.4651   21.4765  -23.4002 C   0  0  0  0  0  0  0  0  0  0  0  0
   -2.3624   21.6862  -24.7197 N   0  0  0  0  0  0  0  0  0  0  0  0
   -1.5082   21.4237  -21.1064 C   0  0  0  0  0  0  0  0  0  0  0  0
   -2.1864   22.4674  -20.2970 C   0  0  0  0  0  0  0  0  0  0  0  0
   -2.2559   22.0518  -18.8351 C   0  0  0  0  0  0  0  0  0  0  0  0
   -0.8204   22.3022  -18.4166 C   0  0  0  0  0  0  0  0  0  0  0  0
   -0.4195   23.4190  -19.3170 C   0  0  0  0  0  0  0  0  0  0  0  0
   -1.3648   23.6089  -20.2931 O   0  0  0  0  0  0  0  0  0  0  0  0
   -3.5105   22.9021  -20.7878 C   0  0  0  0  0  0  0  0  0  0  0  0
   -4.5513   22.1737  -20.6249 O   0  0  0  0  0  0  0  0  0  0  0  0
   -3.7506   24.0946  -21.4503 O   0  0  0  0  0  0  0  0  0  0  0  0
   -4.5668   24.6227  -21.1753 H   0  0  0  0  0  0  0  0  0  0  0  0
   -2.1250   22.2083  -27.6508 C   0  0  0  0  0  0  0  0  0  0  0  0
   -2.6623   23.6030  -27.9370 C   0  0  0  0  0  0  0  0  0  0  0  0
   -5.3775   23.0357  -29.4433 C   0  0  0  0  0  0  0  0  0  0  0  0
   -5.2134   23.4170  -28.0160 C   0  0  0  0  0  0  0  0  0  0  0  0
   -6.1652   23.5849  -27.1430 O   0  0  0  0  0  0  0  0  0  0  0  0
   -5.6893   23.9176  -25.9764 C   0  0  0  0  0  0  0  0  0  0  0  0
   -4.3537   23.9675  -26.1015 N   0  0  0  0  0  0  0  0  0  0  0  0
   -4.0104   23.6607  -27.3642 C   0  0  0  0  0  0  0  0  0  0  0  0
   -6.4455   24.1867  -24.7625 C   0  0  0  0  0  0  0  0  0  0  0  0
   -6.9634   25.4220  -24.4406 C   0  0  0  0  0  0  0  0  0  0  0  0
   -7.6789   25.6439  -23.2816 C   0  0  0  0  0  0  0  0  0  0  0  0
   -7.9068   24.6209  -22.3855 C   0  0  0  0  0  0  0  0  0  0  0  0
   -7.4005   23.3639  -22.6765 C   0  0  0  0  0  0  0  0  0  0  0  0
   -7.6642   22.0228  -21.5646 Cl  0  0  0  0  0  0  0  0  0  0  0  0
   -6.6893   23.1649  -23.8390 C   0  0  0  0  0  0  0  0  0  0  0  0
 20 21  1  0  0  0
 21 22  1  0  0  0
 22 23  1  0  0  0
 23 26  1  0  0  0
 26 27  2  0  0  0
 27 28  1  0  0  0
 28 29  2  0  0  0
 29 30  1  0  0  0
 30 31  1  0  0  0
 30 32  2  0  0  0
 23 24  2  0  0  0
 24 25  1  0  0  0
 25 19  1  0  0  0
 19 18  1  0  0  0
 18  1  1  0  0  0
  1  2  1  0  0  0
  2  3  2  0  0  0
  3  4  1  0  0  0
  4  5  2  0  0  0
  5  8  1  0  0  0
  8  9  1  0  0  0
  9 14  1  0  0  0
 14 15  2  0  0  0
 14 16  1  0  0  0
  9 10  1  0  0  0
 10 11  1  0  0  0
 11 12  1  0  0  0
 12 13  1  0  0  0
  5  6  1  0  0  0
  6  7  2  0  0  0
 25 21  2  0  0  0
  7  2  1  0  0  0
 32 26  1  0  0  0
 13  9  1  0  0  0
 16 17  1  0  0  0
M  END
> <minimizedAffinity>
-7.84454

> <CNNscore>
0.2054510564

> <CNNaffinity>
6.2378015518

> <CNN_VS>
1.2815629244

> <CNNaffinity_variance>
0.3102693856

$$$$
[H]OC(=O)C1(C([H])([H])c2c([H])nc(OC([H])([H])C([H])([H])c3nc(-c4c([H])c([H])c([H])c(Cl)c4[H])oc3C([H])([H])[H])c([H])c2[H])OC([H])([H])C([H])([H])C1([H])[H]


 32 35  0  0  0  0  0  0  0  0999 V2000
   -0.2137   21.7360  -25.7012 O   0  0  0  0  0  0  0  0  0  0  0  0
   -1.3454   22.2162  -26.3369 C   0  0  0  0  0  0  0  0  0  0  0  0
   -2.5862   22.1247  -25.6849 C   0  0  0  0  0  0  0  0  0  0  0  0
   -3.7326   22.5960  -26.2956 C   0  0  0  0  0  0  0  0  0  0  0  0
   -3.7039   23.1666  -27.5518 C   0  0  0  0  0  0  0  0  0  0  0  0
   -2.4719   23.2314  -28.1441 C   0  0  0  0  0  0  0  0  0  0  0  0
   -1.3646   22.7722  -27.5453 N   0  0  0  0  0  0  0  0  0  0  0  0
   -4.9188   23.6675  -28.1940 C   0  0  0  0  0  0  0  0  0  0  0  0
   -5.1048   25.1392  -28.2568 C   0  0  0  0  0  0  0  0  0  0  0  0
   -6.5231   25.5184  -27.8575 C   0  0  0  0  0  0  0  0  0  0  0  0
   -6.4353   25.3399  -26.3546 C   0  0  0  0  0  0  0  0  0  0  0  0
   -5.0027   25.6445  -26.0838 C   0  0  0  0  0  0  0  0  0  0  0  0
   -4.2988   25.7168  -27.2593 O   0  0  0  0  0  0  0  0  0  0  0  0
   -4.7237   25.7816  -29.5316 C   0  0  0  0  0  0  0  0  0  0  0  0
   -5.5665   26.4707  -30.2063 O   0  0  0  0  0  0  0  0  0  0  0  0
   -3.4653   25.7045  -30.1054 O   0  0  0  0  0  0  0  0  0  0  0  0
   -3.0729   26.5564  -30.4808 H   0  0  0  0  0  0  0  0  0  0  0  0
    0.6383   22.4463  -24.8559 C   0  0  0  0  0  0  0  0  0  0  0  0
    1.0176   21.5649  -23.6748 C   0  0  0  0  0  0  0  0  0  0  0  0
    0.6452   19.7476  -21.1210 C   0  0  0  0  0  0  0  0  0  0  0  0
   -0.3192   20.7462  -21.6520 C   0  0  0  0  0  0  0  0  0  0  0  0
   -1.4862   21.0395  -21.1536 O   0  0  0  0  0  0  0  0  0  0  0  0
   -2.0869   21.9590  -21.8550 C   0  0  0  0  0  0  0  0  0  0  0  0
   -1.2617   22.2791  -22.8641 N   0  0  0  0  0  0  0  0  0  0  0  0
   -0.1407   21.5428  -22.7767 C   0  0  0  0  0  0  0  0  0  0  0  0
   -3.3988   22.5378  -21.6060 C   0  0  0  0  0  0  0  0  0  0  0  0
   -3.7600   23.8105  -21.9903 C   0  0  0  0  0  0  0  0  0  0  0  0
   -5.0142   24.3293  -21.7411 C   0  0  0  0  0  0  0  0  0  0  0  0
   -5.9706   23.5820  -21.0866 C   0  0  0  0  0  0  0  0  0  0  0  0
   -5.6425   22.2966  -20.6850 C   0  0  0  0  0  0  0  0  0  0  0  0
   -6.8285   21.3003  -19.8454 Cl  0  0  0  0  0  0  0  0  0  0  0  0
   -4.3847   21.7988  -20.9440 C   0  0  0  0  0  0  0  0  0  0  0  0
 20 21  1  0  0  0
 21 22  1  0  0  0
 22 23  1  0  0  0
 23 26  1  0  0  0
 26 27  2  0  0  0
 27 28  1  0  0  0
 28 29  2  0  0  0
 29 30  1  0  0  0
 30 31  1  0  0  0
 30 32  2  0  0  0
 23 24  2  0  0  0
 24 25  1  0  0  0
 25 19  1  0  0  0
 19 18  1  0  0  0
 18  1  1  0  0  0
  1  2  1  0  0  0
  2  3  2  0  0  0
  3  4  1  0  0  0
  4  5  2  0  0  0
  5  8  1  0  0  0
  8  9  1  0  0  0
  9 14  1  0  0  0
 14 15  2  0  0  0
 14 16  1  0  0  0
  9 10  1  0  0  0
 10 11  1  0  0  0
 11 12  1  0  0  0
 12 13  1  0  0  0
  5  6  1  0  0  0
  6  7  2  0  0  0
 25 21  2  0  0  0
  7  2  1  0  0  0
 32 26  1  0  0  0
 13  9  1  0  0  0
 16 17  1  0  0  0
M  END
> <minimizedAffinity>
-7.61716

> <CNNscore>
0.1964952052

> <CNNaffinity>
6.4551553726

> <CNN_VS>
1.2684071064

> <CNNaffinity_variance>
0.5019431114

$$$$
[H]OC(=O)C1(C([H])([H])c2c([H])nc(OC([H])([H])C([H])([H])c3nc(-c4c([H])c([H])c([H])c(Cl)c4[H])oc3C([H])([H])[H])c([H])c2[H])OC([H])([H])C([H])([H])C1([H])[H]


 32 35  0  0  0  0  0  0  0  0999 V2000
   -1.4262   22.7112  -24.1232 O   0  0  0  0  0  0  0  0  0  0  0  0
   -2.3035   22.9238  -25.1723 C   0  0  0  0  0  0  0  0  0  0  0  0
   -1.8371   22.7919  -26.4907 C   0  0  0  0  0  0  0  0  0  0  0  0
   -2.6907   22.9983  -27.5575 C   0  0  0  0  0  0  0  0  0  0  0  0
   -4.0155   23.3371  -27.3723 C   0  0  0  0  0  0  0  0  0  0  0  0
   -4.4199   23.4537  -26.0701 C   0  0  0  0  0  0  0  0  0  0  0  0
   -3.5860   23.2519  -25.0408 N   0  0  0  0  0  0  0  0  0  0  0  0
   -4.9172   23.5515  -28.5038 C   0  0  0  0  0  0  0  0  0  0  0  0
   -5.4071   24.9332  -28.7387 C   0  0  0  0  0  0  0  0  0  0  0  0
   -4.2895   25.8147  -29.2761 C   0  0  0  0  0  0  0  0  0  0  0  0
   -4.2260   25.3234  -30.7089 C   0  0  0  0  0  0  0  0  0  0  0  0
   -5.6321   24.9015  -30.9604 C   0  0  0  0  0  0  0  0  0  0  0  0
   -6.3433   24.8844  -29.7872 O   0  0  0  0  0  0  0  0  0  0  0  0
   -6.0868   25.5773  -27.5958 C   0  0  0  0  0  0  0  0  0  0  0  0
   -5.6331   26.6558  -27.0750 O   0  0  0  0  0  0  0  0  0  0  0  0
   -7.2381   25.0971  -26.9936 O   0  0  0  0  0  0  0  0  0  0  0  0
   -7.9611   25.7673  -26.7729 H   0  0  0  0  0  0  0  0  0  0  0  0
   -1.3341   21.5712  -23.3252 C   0  0  0  0  0  0  0  0  0  0  0  0
   -1.4015   21.9807  -21.8610 C   0  0  0  0  0  0  0  0  0  0  0  0
    0.0035   22.6895  -19.1249 C   0  0  0  0  0  0  0  0  0  0  0  0
    0.2210   21.4715  -19.9488 C   0  0  0  0  0  0  0  0  0  0  0  0
    1.0328   20.4887  -19.6818 O   0  0  0  0  0  0  0  0  0  0  0  0
    0.9899   19.5704  -20.6054 C   0  0  0  0  0  0  0  0  0  0  0  0
    0.0997   19.9822  -21.5217 N   0  0  0  0  0  0  0  0  0  0  0  0
   -0.4076   21.1703  -21.1509 C   0  0  0  0  0  0  0  0  0  0  0  0
    1.7530   18.3320  -20.6500 C   0  0  0  0  0  0  0  0  0  0  0  0
    1.2007   17.1015  -20.9306 C   0  0  0  0  0  0  0  0  0  0  0  0
    1.9531   15.9452  -20.9676 C   0  0  0  0  0  0  0  0  0  0  0  0
    3.3095   15.9768  -20.7208 C   0  0  0  0  0  0  0  0  0  0  0  0
    3.8997   17.1979  -20.4349 C   0  0  0  0  0  0  0  0  0  0  0  0
    5.6292   17.2926  -20.1125 Cl  0  0  0  0  0  0  0  0  0  0  0  0
    3.1297   18.3394  -20.4032 C   0  0  0  0  0  0  0  0  0  0  0  0
 20 21  1  0  0  0
 21 22  1  0  0  0
 22 23  1  0  0  0
 23 26  1  0  0  0
 26 27  2  0  0  0
 27 28  1  0  0  0
 28 29  2  0  0  0
 29 30  1  0  0  0
 30 31  1  0  0  0
 30 32  2  0  0  0
 23 24  2  0  0  0
 24 25  1  0  0  0
 25 19  1  0  0  0
 19 18  1  0  0  0
 18  1  1  0  0  0
  1  2  1  0  0  0
  2  3  2  0  0  0
  3  4  1  0  0  0
  4  5  2  0  0  0
  5  8  1  0  0  0
  8  9  1  0  0  0
  9 14  1  0  0  0
 14 15  2  0  0  0
 14 16  1  0  0  0
  9 10  1  0  0  0
 10 11  1  0  0  0
 11 12  1  0  0  0
 12 13  1  0  0  0
  5  6  1  0  0  0
  6  7  2  0  0  0
 25 21  2  0  0  0
  7  2  1  0  0  0
 32 26  1  0  0  0
 13  9  1  0  0  0
 16 17  1  0  0  0
M  END
> <minimizedAffinity>
-7.56067

> <CNNscore>
0.1961068511

> <CNNaffinity>
5.9487133026

> <CNN_VS>
1.1665834188

> <CNNaffinity_variance>
0.1407679170

$$$$
[H]OC(=O)C1(C([H])([H])c2c([H])nc(OC([H])([H])C([H])([H])c3nc(-c4c([H])c([H])c([H])c(Cl)c4[H])oc3C([H])([H])[H])c([H])c2[H])OC([H])([H])C([H])([H])C1([H])[H]


 32 35  0  0  0  0  0  0  0  0999 V2000
   -0.7448   22.7097  -24.7740 O   0  0  0  0  0  0  0  0  0  0  0  0
   -1.7837   22.9241  -25.6630 C   0  0  0  0  0  0  0  0  0  0  0  0
   -1.5431   22.7902  -27.0404 C   0  0  0  0  0  0  0  0  0  0  0  0
   -2.5615   22.9983  -27.9508 C   0  0  0  0  0  0  0  0  0  0  0  0
   -3.8362   23.3410  -27.5485 C   0  0  0  0  0  0  0  0  0  0  0  0
   -4.0183   23.4595  -26.1972 C   0  0  0  0  0  0  0  0  0  0  0  0
   -3.0256   23.2560  -25.3206 N   0  0  0  0  0  0  0  0  0  0  0  0
   -4.9128   23.5572  -28.5147 C   0  0  0  0  0  0  0  0  0  0  0  0
   -5.3766   24.9520  -28.7245 C   0  0  0  0  0  0  0  0  0  0  0  0
   -4.2455   25.8193  -29.2564 C   0  0  0  0  0  0  0  0  0  0  0  0
   -4.2019   25.3493  -30.6971 C   0  0  0  0  0  0  0  0  0  0  0  0
   -5.6180   24.9594  -30.9448 C   0  0  0  0  0  0  0  0  0  0  0  0
   -6.3210   24.9381  -29.7667 O   0  0  0  0  0  0  0  0  0  0  0  0
   -6.0353   25.5915  -27.5668 C   0  0  0  0  0  0  0  0  0  0  0  0
   -5.5361   26.6309  -27.0093 O   0  0  0  0  0  0  0  0  0  0  0  0
   -7.2127   25.1473  -26.9880 O   0  0  0  0  0  0  0  0  0  0  0  0
   -7.9056   25.8436  -26.7515 H   0  0  0  0  0  0  0  0  0  0  0  0
   -0.4665   21.5339  -24.0775 C   0  0  0  0  0  0  0  0  0  0  0  0
    1.0275   21.4621  -23.7973 C   0  0  0  0  0  0  0  0  0  0  0  0
    3.5068   20.1070  -22.3901 C   0  0  0  0  0  0  0  0  0  0  0  0
    2.2576   20.5766  -21.7353 C   0  0  0  0  0  0  0  0  0  0  0  0
    1.9724   20.5057  -20.4665 O   0  0  0  0  0  0  0  0  0  0  0  0
    0.7961   21.0060  -20.2134 C   0  0  0  0  0  0  0  0  0  0  0  0
    0.2917   21.4247  -21.3848 N   0  0  0  0  0  0  0  0  0  0  0  0
    1.1743   21.1753  -22.3672 C   0  0  0  0  0  0  0  0  0  0  0  0
    0.1411   21.1002  -18.9173 C   0  0  0  0  0  0  0  0  0  0  0  0
    0.7740   21.5198  -17.7678 C   0  0  0  0  0  0  0  0  0  0  0  0
    0.1232   21.6003  -16.5536 C   0  0  0  0  0  0  0  0  0  0  0  0
   -1.2079   21.2581  -16.4415 C   0  0  0  0  0  0  0  0  0  0  0  0
   -1.8773   20.8314  -17.5776 C   0  0  0  0  0  0  0  0  0  0  0  0
   -3.5787   20.3827  -17.4881 Cl  0  0  0  0  0  0  0  0  0  0  0  0
   -1.2082   20.7585  -18.7793 C   0  0  0  0  0  0  0  0  0  0  0  0
 20 21  1  0  0  0
 21 22  1  0  0  0
 22 23  1  0  0  0
 23 26  1  0  0  0
 26 27  2  0  0  0
 27 28  1  0  0  0
 28 29  2  0  0  0
 29 30  1  0  0  0
 30 31  1  0  0  0
 30 32  2  0  0  0
 23 24  2  0  0  0
 24 25  1  0  0  0
 25 19  1  0  0  0
 19 18  1  0  0  0
 18  1  1  0  0  0
  1  2  1  0  0  0
  2  3  2  0  0  0
  3  4  1  0  0  0
  4  5  2  0  0  0
  5  8  1  0  0  0
  8  9  1  0  0  0
  9 14  1  0  0  0
 14 15  2  0  0  0
 14 16  1  0  0  0
  9 10  1  0  0  0
 10 11  1  0  0  0
 11 12  1  0  0  0
 12 13  1  0  0  0
  5  6  1  0  0  0
  6  7  2  0  0  0
 25 21  2  0  0  0
  7  2  1  0  0  0
 32 26  1  0  0  0
 13  9  1  0  0  0
 16 17  1  0  0  0
M  END
> <minimizedAffinity>
-7.63223

> <CNNscore>
0.1945554018

> <CNNaffinity>
5.9741520882

> <CNN_VS>
1.1623035669

> <CNNaffinity_variance>
0.0966204181

$$$$
[H]OC(=O)C1(C([H])([H])c2c([H])nc(OC([H])([H])C([H])([H])c3nc(-c4c([H])c([H])c([H])c(Cl)c4[H])oc3C([H])([H])[H])c([H])c2[H])OC([H])([H])C([H])([H])C1([H])[H]


 32 35  0  0  0  0  0  0  0  0999 V2000
   -4.8932   23.8670  -20.9945 O   0  0  0  0  0  0  0  0  0  0  0  0
   -5.8509   23.1373  -20.3118 C   0  0  0  0  0  0  0  0  0  0  0  0
   -5.9015   21.7444  -20.4862 C   0  0  0  0  0  0  0  0  0  0  0  0
   -6.8470   20.9907  -19.8174 C   0  0  0  0  0  0  0  0  0  0  0  0
   -7.7652   21.5683  -18.9645 C   0  0  0  0  0  0  0  0  0  0  0  0
   -7.6743   22.9272  -18.8297 C   0  0  0  0  0  0  0  0  0  0  0  0
   -6.7544   23.6512  -19.4817 N   0  0  0  0  0  0  0  0  0  0  0  0
   -8.7625   20.7670  -18.2554 C   0  0  0  0  0  0  0  0  0  0  0  0
   -8.2705   19.6492  -17.4111 C   0  0  0  0  0  0  0  0  0  0  0  0
   -6.9560   20.0209  -16.7414 C   0  0  0  0  0  0  0  0  0  0  0  0
   -7.4614   20.9519  -15.6568 C   0  0  0  0  0  0  0  0  0  0  0  0
   -8.8222   20.4105  -15.3853 C   0  0  0  0  0  0  0  0  0  0  0  0
   -9.1704   19.4907  -16.3419 O   0  0  0  0  0  0  0  0  0  0  0  0
   -8.1721   18.3346  -18.0783 C   0  0  0  0  0  0  0  0  0  0  0  0
   -7.2199   18.0733  -18.8939 O   0  0  0  0  0  0  0  0  0  0  0  0
   -9.0667   17.2926  -17.8979 O   0  0  0  0  0  0  0  0  0  0  0  0
   -8.6824   16.3660  -17.7773 H   0  0  0  0  0  0  0  0  0  0  0  0
   -5.1177   24.8639  -21.9436 C   0  0  0  0  0  0  0  0  0  0  0  0
   -5.9136   24.2798  -23.1017 C   0  0  0  0  0  0  0  0  0  0  0  0
   -6.5506   21.3248  -24.0101 C   0  0  0  0  0  0  0  0  0  0  0  0
   -5.2788   22.0658  -24.2171 C   0  0  0  0  0  0  0  0  0  0  0  0
   -4.2075   21.6189  -24.8077 O   0  0  0  0  0  0  0  0  0  0  0  0
   -3.2634   22.5170  -24.8264 C   0  0  0  0  0  0  0  0  0  0  0  0
   -3.7516   23.6068  -24.2134 N   0  0  0  0  0  0  0  0  0  0  0  0
   -5.0129   23.3690  -23.8146 C   0  0  0  0  0  0  0  0  0  0  0  0
   -1.9316   22.3809  -25.3972 C   0  0  0  0  0  0  0  0  0  0  0  0
   -1.6404   22.6064  -26.7247 C   0  0  0  0  0  0  0  0  0  0  0  0
   -0.3653   22.4709  -27.2346 C   0  0  0  0  0  0  0  0  0  0  0  0
    0.6845   22.0979  -26.4219 C   0  0  0  0  0  0  0  0  0  0  0  0
    0.4288   21.8625  -25.0802 C   0  0  0  0  0  0  0  0  0  0  0  0
    1.7353   21.3839  -23.9994 Cl  0  0  0  0  0  0  0  0  0  0  0  0
   -0.8515   22.0038  -24.5925 C   0  0  0  0  0  0  0  0  0  0  0  0
 20 21  1  0  0  0
 21 22  1  0  0  0
 22 23  1  0  0  0
 23 26  1  0  0  0
 26 27  2  0  0  0
 27 28  1  0  0  0
 28 29  2  0  0  0
 29 30  1  0  0  0
 30 31  1  0  0  0
 30 32  2  0  0  0
 23 24  2  0  0  0
 24 25  1  0  0  0
 25 19  1  0  0  0
 19 18  1  0  0  0
 18  1  1  0  0  0
  1  2  1  0  0  0
  2  3  2  0  0  0
  3  4  1  0  0  0
  4  5  2  0  0  0
  5  8  1  0  0  0
  8  9  1  0  0  0
  9 14  1  0  0  0
 14 15  2  0  0  0
 14 16  1  0  0  0
  9 10  1  0  0  0
 10 11  1  0  0  0
 11 12  1  0  0  0
 12 13  1  0  0  0
  5  6  1  0  0  0
  6  7  2  0  0  0
 25 21  2  0  0  0
  7  2  1  0  0  0
 32 26  1  0  0  0
 13  9  1  0  0  0
 16 17  1  0  0  0
M  END
> <minimizedAffinity>
-6.76966

> <CNNscore>
0.1893251091

> <CNNaffinity>
5.4428329468

> <CNN_VS>
1.0304648876

> <CNNaffinity_variance>
0.1199973822

$$$$
[H]OC(=O)C1(C([H])([H])c2c([H])nc(OC([H])([H])C([H])([H])c3nc(-c4c([H])c([H])c([H])c(Cl)c4[H])oc3C([H])([H])[H])c([H])c2[H])OC([H])([H])C([H])([H])C1([H])[H]


 32 35  0  0  0  0  0  0  0  0999 V2000
   -1.6561   23.7398  -22.7652 O   0  0  0  0  0  0  0  0  0  0  0  0
   -2.9192   23.8120  -22.2040 C   0  0  0  0  0  0  0  0  0  0  0  0
   -3.8607   24.6991  -22.7516 C   0  0  0  0  0  0  0  0  0  0  0  0
   -5.1292   24.7920  -22.2117 C   0  0  0  0  0  0  0  0  0  0  0  0
   -5.5154   24.0282  -21.1293 C   0  0  0  0  0  0  0  0  0  0  0  0
   -4.5621   23.1809  -20.6328 C   0  0  0  0  0  0  0  0  0  0  0  0
   -3.3339   23.0965  -21.1620 N   0  0  0  0  0  0  0  0  0  0  0  0
   -6.8601   24.1265  -20.5624 C   0  0  0  0  0  0  0  0  0  0  0  0
   -7.9533   23.4032  -21.2596 C   0  0  0  0  0  0  0  0  0  0  0  0
   -9.2877   23.6581  -20.5747 C   0  0  0  0  0  0  0  0  0  0  0  0
   -9.5713   25.0674  -21.0564 C   0  0  0  0  0  0  0  0  0  0  0  0
   -8.8921   25.0905  -22.3818 C   0  0  0  0  0  0  0  0  0  0  0  0
   -8.1036   23.9781  -22.5344 O   0  0  0  0  0  0  0  0  0  0  0  0
   -7.7344   21.9574  -21.4720 C   0  0  0  0  0  0  0  0  0  0  0  0
   -7.1403   21.5225  -22.5199 O   0  0  0  0  0  0  0  0  0  0  0  0
   -8.1362   20.9643  -20.5940 O   0  0  0  0  0  0  0  0  0  0  0  0
   -7.4787   20.2222  -20.3996 H   0  0  0  0  0  0  0  0  0  0  0  0
   -0.8724   22.5970  -22.9221 C   0  0  0  0  0  0  0  0  0  0  0  0
   -1.6093   21.6050  -23.8102 C   0  0  0  0  0  0  0  0  0  0  0  0
    0.3854   22.0215  -26.2207 C   0  0  0  0  0  0  0  0  0  0  0  0
   -1.0225   22.4910  -26.1381 C   0  0  0  0  0  0  0  0  0  0  0  0
   -1.6727   23.1584  -27.0481 O   0  0  0  0  0  0  0  0  0  0  0  0
   -2.8920   23.4184  -26.6688 C   0  0  0  0  0  0  0  0  0  0  0  0
   -3.0391   22.8891  -25.4440 N   0  0  0  0  0  0  0  0  0  0  0  0
   -1.8914   22.2975  -25.0710 C   0  0  0  0  0  0  0  0  0  0  0  0
   -3.9099   24.1418  -27.4161 C   0  0  0  0  0  0  0  0  0  0  0  0
   -4.5312   25.2827  -26.9574 C   0  0  0  0  0  0  0  0  0  0  0  0
   -5.4918   25.9471  -27.6925 C   0  0  0  0  0  0  0  0  0  0  0  0
   -5.8738   25.4872  -28.9351 C   0  0  0  0  0  0  0  0  0  0  0  0
   -5.2698   24.3416  -29.4289 C   0  0  0  0  0  0  0  0  0  0  0  0
   -5.7221   23.7129  -31.0114 Cl  0  0  0  0  0  0  0  0  0  0  0  0
   -4.3134   23.6944  -28.6784 C   0  0  0  0  0  0  0  0  0  0  0  0
 20 21  1  0  0  0
 21 22  1  0  0  0
 22 23  1  0  0  0
 23 26  1  0  0  0
 26 27  2  0  0  0
 27 28  1  0  0  0
 28 29  2  0  0  0
 29 30  1  0  0  0
 30 31  1  0  0  0
 30 32  2  0  0  0
 23 24  2  0  0  0
 24 25  1  0  0  0
 25 19  1  0  0  0
 19 18  1  0  0  0
 18  1  1  0  0  0
  1  2  1  0  0  0
  2  3  2  0  0  0
  3  4  1  0  0  0
  4  5  2  0  0  0
  5  8  1  0  0  0
  8  9  1  0  0  0
  9 14  1  0  0  0
 14 15  2  0  0  0
 14 16  1  0  0  0
  9 10  1  0  0  0
 10 11  1  0  0  0
 11 12  1  0  0  0
 12 13  1  0  0  0
  5  6  1  0  0  0
  6  7  2  0  0  0
 25 21  2  0  0  0
  7  2  1  0  0  0
 32 26  1  0  0  0
 13  9  1  0  0  0
 16 17  1  0  0  0
M  END
> <minimizedAffinity>
-8.40559

> <CNNscore>
0.1885891259

> <CNNaffinity>
6.0926499367

> <CNN_VS>
1.1490075588

> <CNNaffinity_variance>
0.3944702446

$$$$
[H]OC(=O)C([H])([H])c1c([H])c([H])c(Oc2c([H])c([H])c(C(=O)N([H])C([H])(C([H])([H])[H])C([H])([H])[H])c([H])c2N([H])S(=O)(=O)c2c([H])c([H])c(Cl)c([H])c2Cl)c(OC([H])([H])[H])c1[H]


 40 42  0  0  0  0  0  0  0  0999 V2000
   -4.4750   21.8278  -24.0274 C   0  0  0  0  0  0  0  0  0  0  0  0
   -5.7800   22.2315  -23.9490 C   0  0  0  0  0  0  0  0  0  0  0  0
   -6.4134   22.4080  -22.7343 C   0  0  0  0  0  0  0  0  0  0  0  0
   -5.7267   22.1753  -21.5700 C   0  0  0  0  0  0  0  0  0  0  0  0
   -4.4122   21.7683  -21.6614 C   0  0  0  0  0  0  0  0  0  0  0  0
   -3.7476   21.5817  -22.8461 C   0  0  0  0  0  0  0  0  0  0  0  0
   -6.3618   22.3558  -20.2586 C   0  0  0  0  0  0  0  0  0  0  0  0
   -7.5916   22.0527  -20.1680 O   0  0  0  0  0  0  0  0  0  0  0  0
   -5.6464   22.8393  -19.1571 N   0  0  0  0  0  0  0  0  0  0  0  0
   -4.6525   23.0876  -19.2062 H   0  0  0  0  0  0  0  0  0  0  0  0
   -6.3275   22.9988  -17.8816 C   0  0  0  0  0  0  0  0  0  0  0  0
   -6.0049   21.7571  -17.0684 C   0  0  0  0  0  0  0  0  0  0  0  0
   -5.8712   24.2521  -17.1986 C   0  0  0  0  0  0  0  0  0  0  0  0
   -2.3982   21.1503  -22.9602 N   0  0  0  0  0  0  0  0  0  0  0  0
   -2.2008   20.1170  -23.0690 H   0  0  0  0  0  0  0  0  0  0  0  0
   -1.1328   22.3044  -22.9183 S   0  0  0  0  0  0  0  0  0  0  0  0
   -1.1166   23.1779  -24.1678 O   0  0  0  0  0  0  0  0  0  0  0  0
   -1.3755   23.2174  -21.7100 O   0  0  0  0  0  0  0  0  0  0  0  0
    0.4048   21.5058  -22.7020 C   0  0  0  0  0  0  0  0  0  0  0  0
    1.3815   21.6188  -23.6491 C   0  0  0  0  0  0  0  0  0  0  0  0
    2.5790   20.9288  -23.4147 C   0  0  0  0  0  0  0  0  0  0  0  0
    2.7849   20.1682  -22.2943 C   0  0  0  0  0  0  0  0  0  0  0  0
    4.2833   19.3196  -22.0249 Cl  0  0  0  0  0  0  0  0  0  0  0  0
    1.7682   20.0896  -21.3755 C   0  0  0  0  0  0  0  0  0  0  0  0
    0.5808   20.7387  -21.5483 C   0  0  0  0  0  0  0  0  0  0  0  0
   -0.7313   20.6397  -20.3664 Cl  0  0  0  0  0  0  0  0  0  0  0  0
   -3.8399   21.6536  -25.2412 O   0  0  0  0  0  0  0  0  0  0  0  0
   -2.8220   22.6052  -27.2251 C   0  0  0  0  0  0  0  0  0  0  0  0
   -2.9177   23.5102  -28.2705 C   0  0  0  0  0  0  0  0  0  0  0  0
   -4.0061   24.3488  -28.4481 C   0  0  0  0  0  0  0  0  0  0  0  0
   -5.0311   24.2615  -27.5287 C   0  0  0  0  0  0  0  0  0  0  0  0
   -4.9565   23.3690  -26.4812 C   0  0  0  0  0  0  0  0  0  0  0  0
   -3.8499   22.5224  -26.3075 C   0  0  0  0  0  0  0  0  0  0  0  0
   -0.4141   22.3247  -27.3600 C   0  0  0  0  0  0  0  0  0  0  0  0
   -1.7004   21.7819  -27.0986 O   0  0  0  0  0  0  0  0  0  0  0  0
   -4.0957   25.3162  -29.5759 C   0  0  0  0  0  0  0  0  0  0  0  0
   -5.3932   25.1534  -30.2782 C   0  0  0  0  0  0  0  0  0  0  0  0
   -5.7513   24.1185  -30.8743 O   0  0  0  0  0  0  0  0  0  0  0  0
   -6.2614   26.2555  -30.2563 O   0  0  0  0  0  0  0  0  0  0  0  0
   -6.5620   26.6166  -29.3643 H   0  0  0  0  0  0  0  0  0  0  0  0
 34 35  1  0  0  0
 35 28  1  0  0  0
 28 29  2  0  0  0
 29 30  1  0  0  0
 30 36  1  0  0  0
 36 37  1  0  0  0
 37 38  2  0  0  0
 37 39  1  0  0  0
 30 31  2  0  0  0
 31 32  1  0  0  0
 32 33  2  0  0  0
 33 27  1  0  0  0
 27  1  1  0  0  0
  1  2  2  0  0  0
  2  3  1  0  0  0
  3  4  2  0  0  0
  4  7  1  0  0  0
  7  8  2  0  0  0
  7  9  1  0  0  0
  9 11  1  0  0  0
 11 12  1  0  0  0
 11 13  1  0  0  0
  4  5  1  0  0  0
  5  6  2  0  0  0
  6 14  1  0  0  0
 14 16  1  0  0  0
 16 17  2  0  0  0
 16 18  2  0  0  0
 16 19  1  0  0  0
 19 20  2  0  0  0
 20 21  1  0  0  0
 21 22  2  0  0  0
 22 23  1  0  0  0
 22 24  1  0  0  0
 24 25  2  0  0  0
 25 26  1  0  0  0
 33 28  1  0  0  0
  6  1  1  0  0  0
 25 19  1  0  0  0
 39 40  1  0  0  0
  9 10  1  0  0  0
 14 15  1  0  0  0
M  END
> <minimizedAffinity>
-8.23167

> <CNNscore>
0.3235164285

> <CNNaffinity>
6.7879409790

> <CNN_VS>
2.1960103512

> <CNNaffinity_variance>
0.2515650094

$$$$
[H]OC(=O)C([H])([H])c1c([H])c([H])c(Oc2c([H])c([H])c(C(=O)N([H])C([H])(C([H])([H])[H])C([H])([H])[H])c([H])c2N([H])S(=O)(=O)c2c([H])c([H])c(Cl)c([H])c2Cl)c(OC([H])([H])[H])c1[H]


 40 42  0  0  0  0  0  0  0  0999 V2000
   -1.1480   21.3882  -22.9477 C   0  0  0  0  0  0  0  0  0  0  0  0
   -0.1180   21.6187  -23.8186 C   0  0  0  0  0  0  0  0  0  0  0  0
   -0.3437   22.0442  -25.1131 C   0  0  0  0  0  0  0  0  0  0  0  0
   -1.6290   22.2440  -25.5481 C   0  0  0  0  0  0  0  0  0  0  0  0
   -2.6589   22.0081  -24.6619 C   0  0  0  0  0  0  0  0  0  0  0  0
   -2.4775   21.5856  -23.3701 C   0  0  0  0  0  0  0  0  0  0  0  0
   -1.9114   22.7004  -26.9148 C   0  0  0  0  0  0  0  0  0  0  0  0
   -0.9401   22.7039  -27.7328 O   0  0  0  0  0  0  0  0  0  0  0  0
   -3.1919   23.1130  -27.3008 N   0  0  0  0  0  0  0  0  0  0  0  0
   -3.9914   23.1158  -26.6585 H   0  0  0  0  0  0  0  0  0  0  0  0
   -3.4136   23.5562  -28.6686 C   0  0  0  0  0  0  0  0  0  0  0  0
   -4.5986   22.7600  -29.1874 C   0  0  0  0  0  0  0  0  0  0  0  0
   -3.6691   25.0323  -28.7047 C   0  0  0  0  0  0  0  0  0  0  0  0
   -3.5262   21.3246  -22.4469 N   0  0  0  0  0  0  0  0  0  0  0  0
   -3.6377   20.3445  -22.0656 H   0  0  0  0  0  0  0  0  0  0  0  0
   -4.5777   22.5932  -21.9777 S   0  0  0  0  0  0  0  0  0  0  0  0
   -5.7727   22.0784  -21.1831 O   0  0  0  0  0  0  0  0  0  0  0  0
   -3.7850   23.5435  -21.0714 O   0  0  0  0  0  0  0  0  0  0  0  0
   -5.1069   23.4878  -23.3807 C   0  0  0  0  0  0  0  0  0  0  0  0
   -4.7449   24.7938  -23.5446 C   0  0  0  0  0  0  0  0  0  0  0  0
   -5.2293   25.4509  -24.6842 C   0  0  0  0  0  0  0  0  0  0  0  0
   -6.0318   24.8333  -25.6066 C   0  0  0  0  0  0  0  0  0  0  0  0
   -6.6215   25.6716  -27.0164 Cl  0  0  0  0  0  0  0  0  0  0  0  0
   -6.3648   23.5193  -25.3909 C   0  0  0  0  0  0  0  0  0  0  0  0
   -5.9239   22.8273  -24.3011 C   0  0  0  0  0  0  0  0  0  0  0  0
   -6.3510   21.1341  -24.0201 Cl  0  0  0  0  0  0  0  0  0  0  0  0
   -0.9235   20.9653  -21.6524 O   0  0  0  0  0  0  0  0  0  0  0  0
    1.2296   21.0929  -20.5452 C   0  0  0  0  0  0  0  0  0  0  0  0
    2.0254   21.7245  -19.6024 C   0  0  0  0  0  0  0  0  0  0  0  0
    1.5860   22.7891  -18.8324 C   0  0  0  0  0  0  0  0  0  0  0  0
    0.2917   23.2240  -19.0304 C   0  0  0  0  0  0  0  0  0  0  0  0
   -0.5172   22.6101  -19.9623 C   0  0  0  0  0  0  0  0  0  0  0  0
   -0.0649   21.5314  -20.7389 C   0  0  0  0  0  0  0  0  0  0  0  0
    2.8950   20.2210  -22.0818 C   0  0  0  0  0  0  0  0  0  0  0  0
    1.7284   20.0251  -21.2955 O   0  0  0  0  0  0  0  0  0  0  0  0
    2.4518   23.4582  -17.8233 C   0  0  0  0  0  0  0  0  0  0  0  0
    3.7905   22.8173  -17.8029 C   0  0  0  0  0  0  0  0  0  0  0  0
    4.0629   21.7643  -17.1934 O   0  0  0  0  0  0  0  0  0  0  0  0
    4.8053   23.4602  -18.5281 O   0  0  0  0  0  0  0  0  0  0  0  0
    4.6722   23.6115  -19.5159 H   0  0  0  0  0  0  0  0  0  0  0  0
 34 35  1  0  0  0
 35 28  1  0  0  0
 28 29  2  0  0  0
 29 30  1  0  0  0
 30 36  1  0  0  0
 36 37  1  0  0  0
 37 38  2  0  0  0
 37 39  1  0  0  0
 30 31  2  0  0  0
 31 32  1  0  0  0
 32 33  2  0  0  0
 33 27  1  0  0  0
 27  1  1  0  0  0
  1  2  2  0  0  0
  2  3  1  0  0  0
  3  4  2  0  0  0
  4  7  1  0  0  0
  7  8  2  0  0  0
  7  9  1  0  0  0
  9 11  1  0  0  0
 11 12  1  0  0  0
 11 13  1  0  0  0
  4  5  1  0  0  0
  5  6  2  0  0  0
  6 14  1  0  0  0
 14 16  1  0  0  0
 16 17  2  0  0  0
 16 18  2  0  0  0
 16 19  1  0  0  0
 19 20  2  0  0  0
 20 21  1  0  0  0
 21 22  2  0  0  0
 22 23  1  0  0  0
 22 24  1  0  0  0
 24 25  2  0  0  0
 25 26  1  0  0  0
 33 28  1  0  0  0
  6  1  1  0  0  0
 25 19  1  0  0  0
 39 40  1  0  0  0
  9 10  1  0  0  0
 14 15  1  0  0  0
M  END
> <minimizedAffinity>
-8.45444

> <CNNscore>
0.2449349910

> <CNNaffinity>
6.9499535561

> <CNN_VS>
1.7022868395

> <CNNaffinity_variance>
0.2085269690

$$$$
[H]OC(=O)C([H])([H])c1c([H])c([H])c(Oc2c([H])c([H])c(C(=O)N([H])C([H])(C([H])([H])[H])C([H])([H])[H])c([H])c2N([H])S(=O)(=O)c2c([H])c([H])c(Cl)c([H])c2Cl)c(OC([H])([H])[H])c1[H]


 40 42  0  0  0  0  0  0  0  0999 V2000
   -1.2335   21.4524  -22.9350 C   0  0  0  0  0  0  0  0  0  0  0  0
   -0.2062   21.6768  -23.8107 C   0  0  0  0  0  0  0  0  0  0  0  0
   -0.4375   22.0436  -25.1221 C   0  0  0  0  0  0  0  0  0  0  0  0
   -1.7258   22.1895  -25.5695 C   0  0  0  0  0  0  0  0  0  0  0  0
   -2.7530   21.9602  -24.6782 C   0  0  0  0  0  0  0  0  0  0  0  0
   -2.5660   21.5950  -23.3699 C   0  0  0  0  0  0  0  0  0  0  0  0
   -2.0144   22.5828  -26.9544 C   0  0  0  0  0  0  0  0  0  0  0  0
   -1.0522   22.5263  -27.7811 O   0  0  0  0  0  0  0  0  0  0  0  0
   -3.2909   23.0008  -27.3477 N   0  0  0  0  0  0  0  0  0  0  0  0
   -4.0831   23.0514  -26.6984 H   0  0  0  0  0  0  0  0  0  0  0  0
   -3.5190   23.3796  -28.7337 C   0  0  0  0  0  0  0  0  0  0  0  0
   -4.8582   22.7787  -29.1244 C   0  0  0  0  0  0  0  0  0  0  0  0
   -3.5093   24.8712  -28.8761 C   0  0  0  0  0  0  0  0  0  0  0  0
   -3.6114   21.3417  -22.4408 N   0  0  0  0  0  0  0  0  0  0  0  0
   -3.7102   20.3692  -22.0373 H   0  0  0  0  0  0  0  0  0  0  0  0
   -4.6792   22.6070  -22.0006 S   0  0  0  0  0  0  0  0  0  0  0  0
   -5.9019   22.0866  -21.2532 O   0  0  0  0  0  0  0  0  0  0  0  0
   -3.9198   23.5506  -21.0595 O   0  0  0  0  0  0  0  0  0  0  0  0
   -5.1578   23.5117  -23.4152 C   0  0  0  0  0  0  0  0  0  0  0  0
   -4.7558   24.8064  -23.5762 C   0  0  0  0  0  0  0  0  0  0  0  0
   -5.2010   25.4734  -24.7259 C   0  0  0  0  0  0  0  0  0  0  0  0
   -6.0043   24.8759  -25.6608 C   0  0  0  0  0  0  0  0  0  0  0  0
   -6.5448   25.7261  -27.0831 Cl  0  0  0  0  0  0  0  0  0  0  0  0
   -6.3785   23.5726  -25.4475 C   0  0  0  0  0  0  0  0  0  0  0  0
   -5.9769   22.8719  -24.3481 C   0  0  0  0  0  0  0  0  0  0  0  0
   -6.4571   21.1924  -24.0701 Cl  0  0  0  0  0  0  0  0  0  0  0  0
   -1.0034   21.0881  -21.6230 O   0  0  0  0  0  0  0  0  0  0  0  0
    0.8072   21.5698  -20.0844 C   0  0  0  0  0  0  0  0  0  0  0  0
    2.0343   21.1888  -19.5647 C   0  0  0  0  0  0  0  0  0  0  0  0
    2.7062   20.0472  -19.9703 C   0  0  0  0  0  0  0  0  0  0  0  0
    2.1066   19.2681  -20.9384 C   0  0  0  0  0  0  0  0  0  0  0  0
    0.8868   19.6286  -21.4692 C   0  0  0  0  0  0  0  0  0  0  0  0
    0.2119   20.7874  -21.0534 C   0  0  0  0  0  0  0  0  0  0  0  0
    0.8201   23.5319  -18.6542 C   0  0  0  0  0  0  0  0  0  0  0  0
    0.1746   22.7312  -19.6339 O   0  0  0  0  0  0  0  0  0  0  0  0
    4.0239   19.6499  -19.4034 C   0  0  0  0  0  0  0  0  0  0  0  0
    5.1138   20.0644  -20.3218 C   0  0  0  0  0  0  0  0  0  0  0  0
    5.7226   19.2954  -21.0916 O   0  0  0  0  0  0  0  0  0  0  0  0
    5.4666   21.4224  -20.3047 O   0  0  0  0  0  0  0  0  0  0  0  0
    4.7584   22.1086  -20.5141 H   0  0  0  0  0  0  0  0  0  0  0  0
 34 35  1  0  0  0
 35 28  1  0  0  0
 28 29  2  0  0  0
 29 30  1  0  0  0
 30 36  1  0  0  0
 36 37  1  0  0  0
 37 38  2  0  0  0
 37 39  1  0  0  0
 30 31  2  0  0  0
 31 32  1  0  0  0
 32 33  2  0  0  0
 33 27  1  0  0  0
 27  1  1  0  0  0
  1  2  2  0  0  0
  2  3  1  0  0  0
  3  4  2  0  0  0
  4  7  1  0  0  0
  7  8  2  0  0  0
  7  9  1  0  0  0
  9 11  1  0  0  0
 11 12  1  0  0  0
 11 13  1  0  0  0
  4  5  1  0  0  0
  5  6  2  0  0  0
  6 14  1  0  0  0
 14 16  1  0  0  0
 16 17  2  0  0  0
 16 18  2  0  0  0
 16 19  1  0  0  0
 19 20  2  0  0  0
 20 21  1  0  0  0
 21 22  2  0  0  0
 22 23  1  0  0  0
 22 24  1  0  0  0
 24 25  2  0  0  0
 25 26  1  0  0  0
 33 28  1  0  0  0
  6  1  1  0  0  0
 25 19  1  0  0  0
 39 40  1  0  0  0
  9 10  1  0  0  0
 14 15  1  0  0  0
M  END
> <minimizedAffinity>
-7.91746

> <CNNscore>
0.1731529832

> <CNNaffinity>
6.8002257347

> <CNN_VS>
1.1774793863

> <CNNaffinity_variance>
0.2213018388

$$$$
[H]OC(=O)C([H])([H])c1c([H])c([H])c(Oc2c([H])c([H])c(C(=O)N([H])C([H])(C([H])([H])[H])C([H])([H])[H])c([H])c2N([H])S(=O)(=O)c2c([H])c([H])c(Cl)c([H])c2Cl)c(OC([H])([H])[H])c1[H]


 40 42  0  0  0  0  0  0  0  0999 V2000
   -0.5392   22.1068  -23.4012 C   0  0  0  0  0  0  0  0  0  0  0  0
    0.3277   22.3204  -24.4382 C   0  0  0  0  0  0  0  0  0  0  0  0
   -0.1214   22.5498  -25.7241 C   0  0  0  0  0  0  0  0  0  0  0  0
   -1.4688   22.5660  -25.9802 C   0  0  0  0  0  0  0  0  0  0  0  0
   -2.3329   22.3489  -24.9275 C   0  0  0  0  0  0  0  0  0  0  0  0
   -1.9280   22.1178  -23.6381 C   0  0  0  0  0  0  0  0  0  0  0  0
   -1.9872   22.8110  -27.3319 C   0  0  0  0  0  0  0  0  0  0  0  0
   -1.1683   22.6847  -28.2942 O   0  0  0  0  0  0  0  0  0  0  0  0
   -3.3227   23.1673  -27.5522 N   0  0  0  0  0  0  0  0  0  0  0  0
   -4.0021   23.2722  -26.7912 H   0  0  0  0  0  0  0  0  0  0  0  0
   -3.7812   23.3988  -28.9133 C   0  0  0  0  0  0  0  0  0  0  0  0
   -5.2173   22.9068  -28.9683 C   0  0  0  0  0  0  0  0  0  0  0  0
   -3.6713   24.8520  -29.2617 C   0  0  0  0  0  0  0  0  0  0  0  0
   -2.8027   21.8791  -22.5434 N   0  0  0  0  0  0  0  0  0  0  0  0
   -3.0955   20.8851  -22.3323 H   0  0  0  0  0  0  0  0  0  0  0  0
   -3.3586   23.1964  -21.5997 S   0  0  0  0  0  0  0  0  0  0  0  0
   -2.4879   23.4233  -20.3690 O   0  0  0  0  0  0  0  0  0  0  0  0
   -3.2807   24.4575  -22.4693 O   0  0  0  0  0  0  0  0  0  0  0  0
   -5.0251   22.9488  -21.1412 C   0  0  0  0  0  0  0  0  0  0  0  0
   -5.3580   22.7367  -19.8343 C   0  0  0  0  0  0  0  0  0  0  0  0
   -6.7136   22.5220  -19.5491 C   0  0  0  0  0  0  0  0  0  0  0  0
   -7.6802   22.5196  -20.5196 C   0  0  0  0  0  0  0  0  0  0  0  0
   -9.3600   22.2506  -20.1399 Cl  0  0  0  0  0  0  0  0  0  0  0  0
   -7.2885   22.7375  -21.8169 C   0  0  0  0  0  0  0  0  0  0  0  0
   -5.9847   22.9525  -22.1559 C   0  0  0  0  0  0  0  0  0  0  0  0
   -5.4764   23.2337  -23.8265 Cl  0  0  0  0  0  0  0  0  0  0  0  0
   -0.0914   21.8799  -22.1148 O   0  0  0  0  0  0  0  0  0  0  0  0
    1.7870   20.4122  -21.6726 C   0  0  0  0  0  0  0  0  0  0  0  0
    2.2347   19.2091  -21.1502 C   0  0  0  0  0  0  0  0  0  0  0  0
    1.3913   18.2753  -20.5706 C   0  0  0  0  0  0  0  0  0  0  0  0
    0.0462   18.5787  -20.5222 C   0  0  0  0  0  0  0  0  0  0  0  0
   -0.4208   19.7692  -21.0362 C   0  0  0  0  0  0  0  0  0  0  0  0
    0.4402   20.7107  -21.6226 C   0  0  0  0  0  0  0  0  0  0  0  0
    3.3663   20.9543  -23.4353 C   0  0  0  0  0  0  0  0  0  0  0  0
    2.6856   21.3175  -22.2427 O   0  0  0  0  0  0  0  0  0  0  0  0
    1.8860   16.9868  -20.0132 C   0  0  0  0  0  0  0  0  0  0  0  0
    1.1266   15.8568  -20.6043 C   0  0  0  0  0  0  0  0  0  0  0  0
    0.3638   15.1048  -19.9661 O   0  0  0  0  0  0  0  0  0  0  0  0
    1.2951   15.6388  -21.9802 O   0  0  0  0  0  0  0  0  0  0  0  0
    1.0702   16.3854  -22.6192 H   0  0  0  0  0  0  0  0  0  0  0  0
 34 35  1  0  0  0
 35 28  1  0  0  0
 28 29  2  0  0  0
 29 30  1  0  0  0
 30 36  1  0  0  0
 36 37  1  0  0  0
 37 38  2  0  0  0
 37 39  1  0  0  0
 30 31  2  0  0  0
 31 32  1  0  0  0
 32 33  2  0  0  0
 33 27  1  0  0  0
 27  1  1  0  0  0
  1  2  2  0  0  0
  2  3  1  0  0  0
  3  4  2  0  0  0
  4  7  1  0  0  0
  7  8  2  0  0  0
  7  9  1  0  0  0
  9 11  1  0  0  0
 11 12  1  0  0  0
 11 13  1  0  0  0
  4  5  1  0  0  0
  5  6  2  0  0  0
  6 14  1  0  0  0
 14 16  1  0  0  0
 16 17  2  0  0  0
 16 18  2  0  0  0
 16 19  1  0  0  0
 19 20  2  0  0  0
 20 21  1  0  0  0
 21 22  2  0  0  0
 22 23  1  0  0  0
 22 24  1  0  0  0
 24 25  2  0  0  0
 25 26  1  0  0  0
 33 28  1  0  0  0
  6  1  1  0  0  0
 25 19  1  0  0  0
 39 40  1  0  0  0
  9 10  1  0  0  0
 14 15  1  0  0  0
M  END
> <minimizedAffinity>
-7.64308

> <CNNscore>
0.1651737243

> <CNNaffinity>
6.5135259628

> <CNN_VS>
1.0758633614

> <CNNaffinity_variance>
0.2029625475

$$$$
[H]OC(=O)C([H])([H])c1c([H])c([H])c(Oc2c([H])c([H])c(C(=O)N([H])C([H])(C([H])([H])[H])C([H])([H])[H])c([H])c2N([H])S(=O)(=O)c2c([H])c([H])c(Cl)c([H])c2Cl)c(OC([H])([H])[H])c1[H]


 40 42  0  0  0  0  0  0  0  0999 V2000
   -1.5749   21.3923  -23.5263 C   0  0  0  0  0  0  0  0  0  0  0  0
   -0.5738   21.7937  -24.3683 C   0  0  0  0  0  0  0  0  0  0  0  0
   -0.8413   22.2890  -25.6296 C   0  0  0  0  0  0  0  0  0  0  0  0
   -2.1399   22.3852  -26.0602 C   0  0  0  0  0  0  0  0  0  0  0  0
   -3.1405   21.9772  -25.2033 C   0  0  0  0  0  0  0  0  0  0  0  0
   -2.9172   21.4805  -23.9449 C   0  0  0  0  0  0  0  0  0  0  0  0
   -2.4671   22.9106  -27.3917 C   0  0  0  0  0  0  0  0  0  0  0  0
   -1.5102   23.0164  -28.2198 O   0  0  0  0  0  0  0  0  0  0  0  0
   -3.7731   23.2783  -27.7349 N   0  0  0  0  0  0  0  0  0  0  0  0
   -4.5616   23.1988  -27.0839 H   0  0  0  0  0  0  0  0  0  0  0  0
   -4.0390   23.7938  -29.0691 C   0  0  0  0  0  0  0  0  0  0  0  0
   -5.2399   23.0242  -29.5915 C   0  0  0  0  0  0  0  0  0  0  0  0
   -4.2960   25.2692  -29.0177 C   0  0  0  0  0  0  0  0  0  0  0  0
   -3.9339   21.0429  -23.0532 N   0  0  0  0  0  0  0  0  0  0  0  0
   -4.0459   20.0062  -22.8770 H   0  0  0  0  0  0  0  0  0  0  0  0
   -4.9469   22.1956  -22.2913 S   0  0  0  0  0  0  0  0  0  0  0  0
   -6.3406   21.6395  -22.0219 O   0  0  0  0  0  0  0  0  0  0  0  0
   -4.3135   22.5509  -20.9403 O   0  0  0  0  0  0  0  0  0  0  0  0
   -5.0366   23.6494  -23.2541 C   0  0  0  0  0  0  0  0  0  0  0  0
   -6.0995   23.8647  -24.0833 C   0  0  0  0  0  0  0  0  0  0  0  0
   -6.0873   25.0436  -24.8417 C   0  0  0  0  0  0  0  0  0  0  0  0
   -5.0666   25.9545  -24.7727 C   0  0  0  0  0  0  0  0  0  0  0  0
   -5.0743   27.4139  -25.7256 Cl  0  0  0  0  0  0  0  0  0  0  0  0
   -4.0228   25.6865  -23.9225 C   0  0  0  0  0  0  0  0  0  0  0  0
   -3.9789   24.5566  -23.1594 C   0  0  0  0  0  0  0  0  0  0  0  0
   -2.6356   24.2081  -22.0628 Cl  0  0  0  0  0  0  0  0  0  0  0  0
   -1.3088   20.8994  -22.2641 O   0  0  0  0  0  0  0  0  0  0  0  0
   -0.2097   21.7256  -20.2672 C   0  0  0  0  0  0  0  0  0  0  0  0
    0.9779   21.9168  -19.5788 C   0  0  0  0  0  0  0  0  0  0  0  0
    2.2122   21.5351  -20.0789 C   0  0  0  0  0  0  0  0  0  0  0  0
    2.2360   20.9387  -21.3228 C   0  0  0  0  0  0  0  0  0  0  0  0
    1.0670   20.7394  -22.0251 C   0  0  0  0  0  0  0  0  0  0  0  0
   -0.1804   21.1292  -21.5118 C   0  0  0  0  0  0  0  0  0  0  0  0
   -1.4215   22.8157  -18.4677 C   0  0  0  0  0  0  0  0  0  0  0  0
   -1.4263   22.1285  -19.7107 O   0  0  0  0  0  0  0  0  0  0  0  0
    3.4801   21.7464  -19.3284 C   0  0  0  0  0  0  0  0  0  0  0  0
    3.2382   22.6459  -18.1727 C   0  0  0  0  0  0  0  0  0  0  0  0
    3.0135   22.2594  -17.0088 O   0  0  0  0  0  0  0  0  0  0  0  0
    3.2695   24.0244  -18.4328 O   0  0  0  0  0  0  0  0  0  0  0  0
    4.1087   24.4238  -18.8235 H   0  0  0  0  0  0  0  0  0  0  0  0
 34 35  1  0  0  0
 35 28  1  0  0  0
 28 29  2  0  0  0
 29 30  1  0  0  0
 30 36  1  0  0  0
 36 37  1  0  0  0
 37 38  2  0  0  0
 37 39  1  0  0  0
 30 31  2  0  0  0
 31 32  1  0  0  0
 32 33  2  0  0  0
 33 27  1  0  0  0
 27  1  1  0  0  0
  1  2  2  0  0  0
  2  3  1  0  0  0
  3  4  2  0  0  0
  4  7  1  0  0  0
  7  8  2  0  0  0
  7  9  1  0  0  0
  9 11  1  0  0  0
 11 12  1  0  0  0
 11 13  1  0  0  0
  4  5  1  0  0  0
  5  6  2  0  0  0
  6 14  1  0  0  0
 14 16  1  0  0  0
 16 17  2  0  0  0
 16 18  2  0  0  0
 16 19  1  0  0  0
 19 20  2  0  0  0
 20 21  1  0  0  0
 21 22  2  0  0  0
 22 23  1  0  0  0
 22 24  1  0  0  0
 24 25  2  0  0  0
 25 26  1  0  0  0
 33 28  1  0  0  0
  6  1  1  0  0  0
 25 19  1  0  0  0
 39 40  1  0  0  0
  9 10  1  0  0  0
 14 15  1  0  0  0
M  END
> <minimizedAffinity>
-8.45251

> <CNNscore>
0.1526899338

> <CNNaffinity>
6.7893934250

> <CNN_VS>
1.0366719961

> <CNNaffinity_variance>
0.2765780091

$$$$
[H]OC(=O)C([H])([H])c1c([H])c([H])c(Oc2c([H])c([H])c(C(=O)N([H])C([H])(C([H])([H])[H])C([H])([H])[H])c([H])c2N([H])S(=O)(=O)c2c([H])c([H])c(Cl)c([H])c2Cl)c(OC([H])([H])[H])c1[H]


 40 42  0  0  0  0  0  0  0  0999 V2000
   -0.4511   22.1368  -23.8109 C   0  0  0  0  0  0  0  0  0  0  0  0
    0.3810   22.4221  -24.8590 C   0  0  0  0  0  0  0  0  0  0  0  0
   -0.1095   22.7039  -26.1191 C   0  0  0  0  0  0  0  0  0  0  0  0
   -1.4636   22.7005  -26.3374 C   0  0  0  0  0  0  0  0  0  0  0  0
   -2.2924   22.4111  -25.2738 C   0  0  0  0  0  0  0  0  0  0  0  0
   -1.8460   22.1263  -24.0090 C   0  0  0  0  0  0  0  0  0  0  0  0
   -2.0256   22.9995  -27.6605 C   0  0  0  0  0  0  0  0  0  0  0  0
   -1.2174   23.0112  -28.6399 O   0  0  0  0  0  0  0  0  0  0  0  0
   -3.3894   23.2598  -27.8367 N   0  0  0  0  0  0  0  0  0  0  0  0
   -4.0607   23.2530  -27.0613 H   0  0  0  0  0  0  0  0  0  0  0  0
   -3.8908   23.5510  -29.1710 C   0  0  0  0  0  0  0  0  0  0  0  0
   -5.2588   22.8974  -29.2638 C   0  0  0  0  0  0  0  0  0  0  0  0
   -3.9592   25.0315  -29.3920 C   0  0  0  0  0  0  0  0  0  0  0  0
   -2.6836   21.8129  -22.9043 N   0  0  0  0  0  0  0  0  0  0  0  0
   -2.8986   20.7980  -22.6993 H   0  0  0  0  0  0  0  0  0  0  0  0
   -3.3214   23.0763  -21.9388 S   0  0  0  0  0  0  0  0  0  0  0  0
   -2.3475   23.5066  -20.8476 O   0  0  0  0  0  0  0  0  0  0  0  0
   -3.5652   24.2832  -22.8535 O   0  0  0  0  0  0  0  0  0  0  0  0
   -4.8506   22.5941  -21.2479 C   0  0  0  0  0  0  0  0  0  0  0  0
   -5.0253   22.5856  -19.8940 C   0  0  0  0  0  0  0  0  0  0  0  0
   -6.2732   22.1629  -19.4153 C   0  0  0  0  0  0  0  0  0  0  0  0
   -7.2881   21.7706  -20.2474 C   0  0  0  0  0  0  0  0  0  0  0  0
   -8.8318   21.2494  -19.6282 Cl  0  0  0  0  0  0  0  0  0  0  0  0
   -7.0568   21.7985  -21.6001 C   0  0  0  0  0  0  0  0  0  0  0  0
   -5.8635   22.2002  -22.1252 C   0  0  0  0  0  0  0  0  0  0  0  0
   -5.5621   22.2374  -23.8676 Cl  0  0  0  0  0  0  0  0  0  0  0  0
    0.0380   21.8574  -22.5501 O   0  0  0  0  0  0  0  0  0  0  0  0
    0.8032   19.9486  -21.2660 C   0  0  0  0  0  0  0  0  0  0  0  0
    1.8215   19.0451  -21.0059 C   0  0  0  0  0  0  0  0  0  0  0  0
    3.0382   19.0650  -21.6681 C   0  0  0  0  0  0  0  0  0  0  0  0
    3.2225   20.0391  -22.6277 C   0  0  0  0  0  0  0  0  0  0  0  0
    2.2234   20.9481  -22.9020 C   0  0  0  0  0  0  0  0  0  0  0  0
    0.9929   20.9218  -22.2264 C   0  0  0  0  0  0  0  0  0  0  0  0
   -0.5096   20.5188  -19.3047 C   0  0  0  0  0  0  0  0  0  0  0  0
   -0.4050   19.8778  -20.5679 O   0  0  0  0  0  0  0  0  0  0  0  0
    4.1232   18.0880  -21.3786 C   0  0  0  0  0  0  0  0  0  0  0  0
    4.1928   17.0757  -22.4620 C   0  0  0  0  0  0  0  0  0  0  0  0
    5.1163   16.9921  -23.2954 O   0  0  0  0  0  0  0  0  0  0  0  0
    3.1330   16.1588  -22.5332 O   0  0  0  0  0  0  0  0  0  0  0  0
    2.9406   15.5789  -21.7313 H   0  0  0  0  0  0  0  0  0  0  0  0
 34 35  1  0  0  0
 35 28  1  0  0  0
 28 29  2  0  0  0
 29 30  1  0  0  0
 30 36  1  0  0  0
 36 37  1  0  0  0
 37 38  2  0  0  0
 37 39  1  0  0  0
 30 31  2  0  0  0
 31 32  1  0  0  0
 32 33  2  0  0  0
 33 27  1  0  0  0
 27  1  1  0  0  0
  1  2  2  0  0  0
  2  3  1  0  0  0
  3  4  2  0  0  0
  4  7  1  0  0  0
  7  8  2  0  0  0
  7  9  1  0  0  0
  9 11  1  0  0  0
 11 12  1  0  0  0
 11 13  1  0  0  0
  4  5  1  0  0  0
  5  6  2  0  0  0
  6 14  1  0  0  0
 14 16  1  0  0  0
 16 17  2  0  0  0
 16 18  2  0  0  0
 16 19  1  0  0  0
 19 20  2  0  0  0
 20 21  1  0  0  0
 21 22  2  0  0  0
 22 23  1  0  0  0
 22 24  1  0  0  0
 24 25  2  0  0  0
 25 26  1  0  0  0
 33 28  1  0  0  0
  6  1  1  0  0  0
 25 19  1  0  0  0
 39 40  1  0  0  0
  9 10  1  0  0  0
 14 15  1  0  0  0
M  END
> <minimizedAffinity>
-7.99785

> <CNNscore>
0.1478781551

> <CNNaffinity>
6.5415573120

> <CNN_VS>
0.9673534036

> <CNNaffinity_variance>
0.1201840490

$$$$
[H]OC(=O)C([H])([H])c1c([H])c([H])c(Oc2c([H])c([H])c(C(=O)N([H])C([H])(C([H])([H])[H])C([H])([H])[H])c([H])c2N([H])S(=O)(=O)c2c([H])c([H])c(Cl)c([H])c2Cl)c(OC([H])([H])[H])c1[H]


 40 42  0  0  0  0  0  0  0  0999 V2000
   -0.7105   21.3502  -23.2232 C   0  0  0  0  0  0  0  0  0  0  0  0
    0.1543   21.6279  -24.2465 C   0  0  0  0  0  0  0  0  0  0  0  0
   -0.2824   22.1730  -25.4381 C   0  0  0  0  0  0  0  0  0  0  0  0
   -1.6151   22.4469  -25.6117 C   0  0  0  0  0  0  0  0  0  0  0  0
   -2.4774   22.1623  -24.5738 C   0  0  0  0  0  0  0  0  0  0  0  0
   -2.0845   21.6218  -23.3765 C   0  0  0  0  0  0  0  0  0  0  0  0
   -2.1193   23.0307  -26.8610 C   0  0  0  0  0  0  0  0  0  0  0  0
   -1.3365   23.0150  -27.8608 O   0  0  0  0  0  0  0  0  0  0  0  0
   -3.4038   23.5797  -26.9486 N   0  0  0  0  0  0  0  0  0  0  0  0
   -4.0538   23.6006  -26.1555 H   0  0  0  0  0  0  0  0  0  0  0  0
   -3.8504   24.1453  -28.2123 C   0  0  0  0  0  0  0  0  0  0  0  0
   -4.7274   23.0905  -28.8646 C   0  0  0  0  0  0  0  0  0  0  0  0
   -4.5917   25.4264  -27.9785 C   0  0  0  0  0  0  0  0  0  0  0  0
   -2.9597   21.3096  -22.3010 N   0  0  0  0  0  0  0  0  0  0  0  0
   -3.2688   20.3068  -22.1698 H   0  0  0  0  0  0  0  0  0  0  0  0
   -3.4904   22.5551  -21.2511 S   0  0  0  0  0  0  0  0  0  0  0  0
   -3.6204   22.0699  -19.8116 O   0  0  0  0  0  0  0  0  0  0  0  0
   -2.4350   23.6678  -21.2783 O   0  0  0  0  0  0  0  0  0  0  0  0
   -5.0021   23.2191  -21.8189 C   0  0  0  0  0  0  0  0  0  0  0  0
   -6.1873   22.6424  -21.4632 C   0  0  0  0  0  0  0  0  0  0  0  0
   -7.3563   23.2189  -21.9788 C   0  0  0  0  0  0  0  0  0  0  0  0
   -7.3377   24.3116  -22.8047 C   0  0  0  0  0  0  0  0  0  0  0  0
   -8.8053   25.0110  -23.4330 Cl  0  0  0  0  0  0  0  0  0  0  0  0
   -6.1178   24.8501  -23.1300 C   0  0  0  0  0  0  0  0  0  0  0  0
   -4.9464   24.3333  -22.6592 C   0  0  0  0  0  0  0  0  0  0  0  0
   -3.3728   25.0248  -23.0762 Cl  0  0  0  0  0  0  0  0  0  0  0  0
   -0.2747   20.8078  -22.0304 O   0  0  0  0  0  0  0  0  0  0  0  0
    1.0176   21.6188  -20.1462 C   0  0  0  0  0  0  0  0  0  0  0  0
    2.2692   21.8314  -19.5900 C   0  0  0  0  0  0  0  0  0  0  0  0
    3.4500   21.5033  -20.2361 C   0  0  0  0  0  0  0  0  0  0  0  0
    3.3510   20.9398  -21.4915 C   0  0  0  0  0  0  0  0  0  0  0  0
    2.1166   20.7200  -22.0638 C   0  0  0  0  0  0  0  0  0  0  0  0
    0.9241   21.0554  -21.4030 C   0  0  0  0  0  0  0  0  0  0  0  0
   -0.1886   23.2177  -18.7737 C   0  0  0  0  0  0  0  0  0  0  0  0
   -0.1398   21.9671  -19.4455 O   0  0  0  0  0  0  0  0  0  0  0  0
    4.7876   21.7372  -19.6265 C   0  0  0  0  0  0  0  0  0  0  0  0
    4.8986   20.9870  -18.3505 C   0  0  0  0  0  0  0  0  0  0  0  0
    5.0197   19.7490  -18.2646 O   0  0  0  0  0  0  0  0  0  0  0  0
    4.8621   21.7460  -17.1709 O   0  0  0  0  0  0  0  0  0  0  0  0
    5.5539   22.4672  -17.0384 H   0  0  0  0  0  0  0  0  0  0  0  0
 34 35  1  0  0  0
 35 28  1  0  0  0
 28 29  2  0  0  0
 29 30  1  0  0  0
 30 36  1  0  0  0
 36 37  1  0  0  0
 37 38  2  0  0  0
 37 39  1  0  0  0
 30 31  2  0  0  0
 31 32  1  0  0  0
 32 33  2  0  0  0
 33 27  1  0  0  0
 27  1  1  0  0  0
  1  2  2  0  0  0
  2  3  1  0  0  0
  3  4  2  0  0  0
  4  7  1  0  0  0
  7  8  2  0  0  0
  7  9  1  0  0  0
  9 11  1  0  0  0
 11 12  1  0  0  0
 11 13  1  0  0  0
  4  5  1  0  0  0
  5  6  2  0  0  0
  6 14  1  0  0  0
 14 16  1  0  0  0
 16 17  2  0  0  0
 16 18  2  0  0  0
 16 19  1  0  0  0
 19 20  2  0  0  0
 20 21  1  0  0  0
 21 22  2  0  0  0
 22 23  1  0  0  0
 22 24  1  0  0  0
 24 25  2  0  0  0
 25 26  1  0  0  0
 33 28  1  0  0  0
  6  1  1  0  0  0
 25 19  1  0  0  0
 39 40  1  0  0  0
  9 10  1  0  0  0
 14 15  1  0  0  0
M  END
> <minimizedAffinity>
-8.03928

> <CNNscore>
0.1441221088

> <CNNaffinity>
6.4485192299

> <CNN_VS>
0.9293742180

> <CNNaffinity_variance>
0.3018766344

$$$$
[H]OC(=O)C([H])([H])c1c([H])c([H])c(Oc2c([H])c([H])c(C(=O)N([H])C([H])(C([H])([H])[H])C([H])([H])[H])c([H])c2N([H])S(=O)(=O)c2c([H])c([H])c(Cl)c([H])c2Cl)c(OC([H])([H])[H])c1[H]


 40 42  0  0  0  0  0  0  0  0999 V2000
   -0.5827   21.7915  -23.7536 C   0  0  0  0  0  0  0  0  0  0  0  0
    0.2272   21.8724  -24.8535 C   0  0  0  0  0  0  0  0  0  0  0  0
   -0.2590   22.2642  -26.0856 C   0  0  0  0  0  0  0  0  0  0  0  0
   -1.5861   22.5826  -26.2221 C   0  0  0  0  0  0  0  0  0  0  0  0
   -2.3929   22.4969  -25.1069 C   0  0  0  0  0  0  0  0  0  0  0  0
   -1.9498   22.1128  -23.8675 C   0  0  0  0  0  0  0  0  0  0  0  0
   -2.1414   23.0081  -27.5130 C   0  0  0  0  0  0  0  0  0  0  0  0
   -1.3427   23.0435  -28.4996 O   0  0  0  0  0  0  0  0  0  0  0  0
   -3.4892   23.3588  -27.6523 N   0  0  0  0  0  0  0  0  0  0  0  0
   -4.1527   23.3349  -26.8707 H   0  0  0  0  0  0  0  0  0  0  0  0
   -3.9846   23.7738  -28.9557 C   0  0  0  0  0  0  0  0  0  0  0  0
   -5.2299   22.9457  -29.2213 C   0  0  0  0  0  0  0  0  0  0  0  0
   -4.2756   25.2437  -28.9603 C   0  0  0  0  0  0  0  0  0  0  0  0
   -2.7683   22.0058  -22.7104 N   0  0  0  0  0  0  0  0  0  0  0  0
   -3.3879   21.1558  -22.6010 H   0  0  0  0  0  0  0  0  0  0  0  0
   -2.7335   23.2468  -21.5298 S   0  0  0  0  0  0  0  0  0  0  0  0
   -1.9784   24.4776  -22.0190 O   0  0  0  0  0  0  0  0  0  0  0  0
   -4.1827   23.6648  -21.2511 O   0  0  0  0  0  0  0  0  0  0  0  0
   -2.0405   22.6462  -20.0440 C   0  0  0  0  0  0  0  0  0  0  0  0
   -0.8286   23.1032  -19.6123 C   0  0  0  0  0  0  0  0  0  0  0  0
   -0.3280   22.5552  -18.4232 C   0  0  0  0  0  0  0  0  0  0  0  0
   -1.0042   21.6026  -17.7079 C   0  0  0  0  0  0  0  0  0  0  0  0
   -0.3609   20.9364  -16.2313 Cl  0  0  0  0  0  0  0  0  0  0  0  0
   -2.2181   21.1794  -18.1889 C   0  0  0  0  0  0  0  0  0  0  0  0
   -2.7567   21.6757  -19.3399 C   0  0  0  0  0  0  0  0  0  0  0  0
   -4.3207   21.1328  -19.9625 Cl  0  0  0  0  0  0  0  0  0  0  0  0
   -0.0972   21.4025  -22.5208 O   0  0  0  0  0  0  0  0  0  0  0  0
    1.3216   19.9289  -21.2195 C   0  0  0  0  0  0  0  0  0  0  0  0
    2.5788   19.3747  -21.0370 C   0  0  0  0  0  0  0  0  0  0  0  0
    3.6571   19.6576  -21.8597 C   0  0  0  0  0  0  0  0  0  0  0  0
    3.4460   20.5352  -22.9031 C   0  0  0  0  0  0  0  0  0  0  0  0
    2.2040   21.0984  -23.1027 C   0  0  0  0  0  0  0  0  0  0  0  0
    1.1159   20.8071  -22.2645 C   0  0  0  0  0  0  0  0  0  0  0  0
    0.1149   18.2555  -19.9394 C   0  0  0  0  0  0  0  0  0  0  0  0
    0.2701   19.6036  -20.3590 O   0  0  0  0  0  0  0  0  0  0  0  0
    5.0021   19.0548  -21.6520 C   0  0  0  0  0  0  0  0  0  0  0  0
    5.5615   19.5050  -20.3529 C   0  0  0  0  0  0  0  0  0  0  0  0
    5.6642   20.6965  -20.0004 O   0  0  0  0  0  0  0  0  0  0  0  0
    5.9993   18.5007  -19.4762 O   0  0  0  0  0  0  0  0  0  0  0  0
    5.3399   17.7994  -19.1765 H   0  0  0  0  0  0  0  0  0  0  0  0
 34 35  1  0  0  0
 35 28  1  0  0  0
 28 29  2  0  0  0
 29 30  1  0  0  0
 30 36  1  0  0  0
 36 37  1  0  0  0
 37 38  2  0  0  0
 37 39  1  0  0  0
 30 31  2  0  0  0
 31 32  1  0  0  0
 32 33  2  0  0  0
 33 27  1  0  0  0
 27  1  1  0  0  0
  1  2  2  0  0  0
  2  3  1  0  0  0
  3  4  2  0  0  0
  4  7  1  0  0  0
  7  8  2  0  0  0
  7  9  1  0  0  0
  9 11  1  0  0  0
 11 12  1  0  0  0
 11 13  1  0  0  0
  4  5  1  0  0  0
  5  6  2  0  0  0
  6 14  1  0  0  0
 14 16  1  0  0  0
 16 17  2  0  0  0
 16 18  2  0  0  0
 16 19  1  0  0  0
 19 20  2  0  0  0
 20 21  1  0  0  0
 21 22  2  0  0  0
 22 23  1  0  0  0
 22 24  1  0  0  0
 24 25  2  0  0  0
 25 26  1  0  0  0
 33 28  1  0  0  0
  6  1  1  0  0  0
 25 19  1  0  0  0
 39 40  1  0  0  0
  9 10  1  0  0  0
 14 15  1  0  0  0
M  END
> <minimizedAffinity>
-7.62089

> <CNNscore>
0.1375105381

> <CNNaffinity>
6.3407297134

> <CNN_VS>
0.8719171286

> <CNNaffinity_variance>
0.2552902699

$$$$
[H]OC(=O)C([H])([H])c1c([H])c([H])c(Oc2c([H])c([H])c(C(=O)N([H])C([H])(C([H])([H])[H])C([H])([H])[H])c([H])c2N([H])S(=O)(=O)c2c([H])c([H])c(Cl)c([H])c2Cl)c(OC([H])([H])[H])c1[H]


 40 42  0  0  0  0  0  0  0  0999 V2000
   -4.7696   23.0592  -23.7057 C   0  0  0  0  0  0  0  0  0  0  0  0
   -6.0577   23.4695  -23.9174 C   0  0  0  0  0  0  0  0  0  0  0  0
   -7.0795   23.1279  -23.0530 C   0  0  0  0  0  0  0  0  0  0  0  0
   -6.8080   22.3578  -21.9510 C   0  0  0  0  0  0  0  0  0  0  0  0
   -5.5064   21.9498  -21.7482 C   0  0  0  0  0  0  0  0  0  0  0  0
   -4.4646   22.2670  -22.5813 C   0  0  0  0  0  0  0  0  0  0  0  0
   -7.8646   21.9770  -21.0052 C   0  0  0  0  0  0  0  0  0  0  0  0
   -7.8950   20.7628  -20.6345 O   0  0  0  0  0  0  0  0  0  0  0  0
   -8.7965   22.9079  -20.5322 N   0  0  0  0  0  0  0  0  0  0  0  0
   -8.7894   23.8936  -20.8153 H   0  0  0  0  0  0  0  0  0  0  0  0
   -9.8224   22.4740  -19.5965 C   0  0  0  0  0  0  0  0  0  0  0  0
   -9.1613   22.4306  -18.2296 C   0  0  0  0  0  0  0  0  0  0  0  0
  -10.9889   23.4141  -19.6269 C   0  0  0  0  0  0  0  0  0  0  0  0
   -3.1200   21.8449  -22.3960 N   0  0  0  0  0  0  0  0  0  0  0  0
   -2.8147   20.9199  -22.8077 H   0  0  0  0  0  0  0  0  0  0  0  0
   -2.0341   22.8359  -21.5163 S   0  0  0  0  0  0  0  0  0  0  0  0
   -1.7238   24.1344  -22.2525 O   0  0  0  0  0  0  0  0  0  0  0  0
   -2.7080   23.1989  -20.1871 O   0  0  0  0  0  0  0  0  0  0  0  0
   -0.5663   21.9581  -21.1651 C   0  0  0  0  0  0  0  0  0  0  0  0
   -0.1371   21.8165  -19.8769 C   0  0  0  0  0  0  0  0  0  0  0  0
    1.0628   21.1195  -19.6781 C   0  0  0  0  0  0  0  0  0  0  0  0
    1.7911   20.5947  -20.7128 C   0  0  0  0  0  0  0  0  0  0  0  0
    3.2805   19.7313  -20.4403 Cl  0  0  0  0  0  0  0  0  0  0  0  0
    1.3127   20.7676  -21.9876 C   0  0  0  0  0  0  0  0  0  0  0  0
    0.1515   21.4362  -22.2436 C   0  0  0  0  0  0  0  0  0  0  0  0
   -0.4679   21.6607  -23.8850 Cl  0  0  0  0  0  0  0  0  0  0  0  0
   -3.7468   23.4023  -24.5677 O   0  0  0  0  0  0  0  0  0  0  0  0
   -4.1343   25.2049  -26.1421 C   0  0  0  0  0  0  0  0  0  0  0  0
   -4.2490   25.5981  -27.4662 C   0  0  0  0  0  0  0  0  0  0  0  0
   -4.1170   24.7208  -28.5302 C   0  0  0  0  0  0  0  0  0  0  0  0
   -3.8594   23.3981  -28.2339 C   0  0  0  0  0  0  0  0  0  0  0  0
   -3.7420   22.9851  -26.9242 C   0  0  0  0  0  0  0  0  0  0  0  0
   -3.8774   23.8802  -25.8509 C   0  0  0  0  0  0  0  0  0  0  0  0
   -4.8482   27.4028  -25.3974 C   0  0  0  0  0  0  0  0  0  0  0  0
   -4.2740   26.1359  -25.1097 O   0  0  0  0  0  0  0  0  0  0  0  0
   -4.2425   25.1571  -29.9478 C   0  0  0  0  0  0  0  0  0  0  0  0
   -5.6459   24.9947  -30.4031 C   0  0  0  0  0  0  0  0  0  0  0  0
   -6.0590   24.0490  -31.1027 O   0  0  0  0  0  0  0  0  0  0  0  0
   -6.5537   25.9882  -30.0057 O   0  0  0  0  0  0  0  0  0  0  0  0
   -6.6827   26.1592  -29.0205 H   0  0  0  0  0  0  0  0  0  0  0  0
 34 35  1  0  0  0
 35 28  1  0  0  0
 28 29  2  0  0  0
 29 30  1  0  0  0
 30 36  1  0  0  0
 36 37  1  0  0  0
 37 38  2  0  0  0
 37 39  1  0  0  0
 30 31  2  0  0  0
 31 32  1  0  0  0
 32 33  2  0  0  0
 33 27  1  0  0  0
 27  1  1  0  0  0
  1  2  2  0  0  0
  2  3  1  0  0  0
  3  4  2  0  0  0
  4  7  1  0  0  0
  7  8  2  0  0  0
  7  9  1  0  0  0
  9 11  1  0  0  0
 11 12  1  0  0  0
 11 13  1  0  0  0
  4  5  1  0  0  0
  5  6  2  0  0  0
  6 14  1  0  0  0
 14 16  1  0  0  0
 16 17  2  0  0  0
 16 18  2  0  0  0
 16 19  1  0  0  0
 19 20  2  0  0  0
 20 21  1  0  0  0
 21 22  2  0  0  0
 22 23  1  0  0  0
 22 24  1  0  0  0
 24 25  2  0  0  0
 25 26  1  0  0  0
 33 28  1  0  0  0
  6  1  1  0  0  0
 25 19  1  0  0  0
 39 40  1  0  0  0
  9 10  1  0  0  0
 14 15  1  0  0  0
M  END
> <minimizedAffinity>
-8.62840

> <CNNscore>
0.1222418845

> <CNNaffinity>
6.3194589615

> <CNN_VS>
0.7725026011

> <CNNaffinity_variance>
0.5317178965

$$$$
[H]c1c([H])c([H])c(N([H])c2nc3c([H])nc(N([H])c4c([H])c([H])c(OC([H])([H])[H])c([H])c4[H])nc3n2C([H])(C([H])([H])[H])C([H])([H])[H])c(F)c1[H]


 31 34  0  0  0  0  0  0  0  0999 V2000
    0.5328   21.9979  -25.6975 C   0  0  0  0  0  0  0  0  0  0  0  0
    0.6713   22.2759  -26.9934 N   0  0  0  0  0  0  0  0  0  0  0  0
   -0.2842   22.7164  -27.8098 C   0  0  0  0  0  0  0  0  0  0  0  0
   -1.5477   22.9121  -27.2893 C   0  0  0  0  0  0  0  0  0  0  0  0
   -2.7148   23.3302  -27.7906 N   0  0  0  0  0  0  0  0  0  0  0  0
   -3.6318   23.3272  -26.8133 C   0  0  0  0  0  0  0  0  0  0  0  0
   -3.0542   22.9003  -25.6557 N   0  0  0  0  0  0  0  0  0  0  0  0
   -1.7601   22.6445  -25.9592 C   0  0  0  0  0  0  0  0  0  0  0  0
   -0.7413   22.2049  -25.2134 N   0  0  0  0  0  0  0  0  0  0  0  0
   -3.6741   22.7420  -24.3489 C   0  0  0  0  0  0  0  0  0  0  0  0
   -3.1122   23.7208  -23.3361 C   0  0  0  0  0  0  0  0  0  0  0  0
   -3.6281   21.3255  -23.8618 C   0  0  0  0  0  0  0  0  0  0  0  0
    1.5340   21.5365  -24.8424 N   0  0  0  0  0  0  0  0  0  0  0  0
    2.4950   21.3547  -25.2682 H   0  0  0  0  0  0  0  0  0  0  0  0
    1.3491   20.7749  -20.6814 C   0  0  0  0  0  0  0  0  0  0  0  0
    0.2208   21.1246  -21.3818 C   0  0  0  0  0  0  0  0  0  0  0  0
    0.2515   21.3729  -22.7515 C   0  0  0  0  0  0  0  0  0  0  0  0
    1.3991   21.2838  -23.4707 C   0  0  0  0  0  0  0  0  0  0  0  0
    2.5582   20.9205  -22.7314 C   0  0  0  0  0  0  0  0  0  0  0  0
    2.5113   20.6823  -21.4017 C   0  0  0  0  0  0  0  0  0  0  0  0
    0.0887   20.7027  -18.6260 C   0  0  0  0  0  0  0  0  0  0  0  0
    1.3033   20.5305  -19.3173 O   0  0  0  0  0  0  0  0  0  0  0  0
   -4.9888   23.7009  -26.9309 N   0  0  0  0  0  0  0  0  0  0  0  0
   -5.4597   23.3864  -27.8460 H   0  0  0  0  0  0  0  0  0  0  0  0
   -5.7946   24.4135  -26.0346 C   0  0  0  0  0  0  0  0  0  0  0  0
   -6.9598   23.9518  -25.4727 C   0  0  0  0  0  0  0  0  0  0  0  0
   -7.6836   24.7621  -24.5839 C   0  0  0  0  0  0  0  0  0  0  0  0
   -7.2527   26.0260  -24.2540 C   0  0  0  0  0  0  0  0  0  0  0  0
   -6.0860   26.5070  -24.8075 C   0  0  0  0  0  0  0  0  0  0  0  0
   -5.4022   25.7129  -25.6611 C   0  0  0  0  0  0  0  0  0  0  0  0
   -4.2478   26.2275  -26.1898 F   0  0  0  0  0  0  0  0  0  0  0  0
 21 22  1  0  0  0
 22 15  1  0  0  0
 15 16  2  0  0  0
 16 17  1  0  0  0
 17 18  2  0  0  0
 18 13  1  0  0  0
 13  1  1  0  0  0
  1  2  2  0  0  0
  2  3  1  0  0  0
  3  4  2  0  0  0
  4  5  1  0  0  0
  5  6  2  0  0  0
  6 23  1  0  0  0
 23 25  1  0  0  0
 25 26  2  0  0  0
 26 27  1  0  0  0
 27 28  2  0  0  0
 28 29  1  0  0  0
 29 30  2  0  0  0
 30 31  1  0  0  0
  6  7  1  0  0  0
  7 10  1  0  0  0
 10 11  1  0  0  0
 10 12  1  0  0  0
  7  8  1  0  0  0
  8  9  2  0  0  0
 18 19  1  0  0  0
 19 20  2  0  0  0
 20 15  1  0  0  0
  9  1  1  0  0  0
  8  4  1  0  0  0
 30 25  1  0  0  0
 13 14  1  0  0  0
 23 24  1  0  0  0
M  END
> <minimizedAffinity>
-7.89701

> <CNNscore>
0.9024558067

> <CNNaffinity>
7.3264412880

> <CNN_VS>
6.6117897034

> <CNNaffinity_variance>
0.0446042567

$$$$
[H]c1c([H])c([H])c(N([H])c2nc3c([H])nc(N([H])c4c([H])c([H])c(OC([H])([H])[H])c([H])c4[H])nc3n2C([H])(C([H])([H])[H])C([H])([H])[H])c(F)c1[H]


 31 34  0  0  0  0  0  0  0  0999 V2000
   -0.1430   21.8488  -24.7055 C   0  0  0  0  0  0  0  0  0  0  0  0
    0.4381   22.0221  -25.8920 N   0  0  0  0  0  0  0  0  0  0  0  0
   -0.1726   22.3679  -27.0238 C   0  0  0  0  0  0  0  0  0  0  0  0
   -1.5375   22.5724  -26.9922 C   0  0  0  0  0  0  0  0  0  0  0  0
   -2.4562   22.9164  -27.9011 N   0  0  0  0  0  0  0  0  0  0  0  0
   -3.6556   22.9700  -27.3055 C   0  0  0  0  0  0  0  0  0  0  0  0
   -3.5177   22.6560  -25.9870 N   0  0  0  0  0  0  0  0  0  0  0  0
   -2.1997   22.4103  -25.8002 C   0  0  0  0  0  0  0  0  0  0  0  0
   -1.5050   22.0613  -24.7125 N   0  0  0  0  0  0  0  0  0  0  0  0
   -4.5535   22.5901  -24.9674 C   0  0  0  0  0  0  0  0  0  0  0  0
   -4.3919   23.6826  -23.9282 C   0  0  0  0  0  0  0  0  0  0  0  0
   -4.6650   21.2279  -24.3525 C   0  0  0  0  0  0  0  0  0  0  0  0
    0.4971   21.4866  -23.5198 N   0  0  0  0  0  0  0  0  0  0  0  0
    1.5211   21.1954  -23.5864 H   0  0  0  0  0  0  0  0  0  0  0  0
   -1.1168   21.2406  -19.6130 C   0  0  0  0  0  0  0  0  0  0  0  0
   -1.3263   22.3532  -20.3902 C   0  0  0  0  0  0  0  0  0  0  0  0
   -0.8141   22.4573  -21.6808 C   0  0  0  0  0  0  0  0  0  0  0  0
   -0.0781   21.4646  -22.2422 C   0  0  0  0  0  0  0  0  0  0  0  0
    0.1296   20.3195  -21.4251 C   0  0  0  0  0  0  0  0  0  0  0  0
   -0.3751   20.2340  -20.1741 C   0  0  0  0  0  0  0  0  0  0  0  0
   -2.3690   22.2309  -17.8048 C   0  0  0  0  0  0  0  0  0  0  0  0
   -1.6333   21.1509  -18.3294 O   0  0  0  0  0  0  0  0  0  0  0  0
   -4.8857   23.2965  -27.9178 N   0  0  0  0  0  0  0  0  0  0  0  0
   -5.7539   22.9405  -27.3909 H   0  0  0  0  0  0  0  0  0  0  0  0
   -5.1286   24.0090  -29.0984 C   0  0  0  0  0  0  0  0  0  0  0  0
   -5.6383   23.4772  -30.2577 C   0  0  0  0  0  0  0  0  0  0  0  0
   -5.8384   24.2955  -31.3807 C   0  0  0  0  0  0  0  0  0  0  0  0
   -5.5338   25.6365  -31.3532 C   0  0  0  0  0  0  0  0  0  0  0  0
   -5.0215   26.1885  -30.1992 C   0  0  0  0  0  0  0  0  0  0  0  0
   -4.8355   25.3857  -29.1279 C   0  0  0  0  0  0  0  0  0  0  0  0
   -4.3244   25.9724  -28.0003 F   0  0  0  0  0  0  0  0  0  0  0  0
 21 22  1  0  0  0
 22 15  1  0  0  0
 15 16  2  0  0  0
 16 17  1  0  0  0
 17 18  2  0  0  0
 18 13  1  0  0  0
 13  1  1  0  0  0
  1  2  2  0  0  0
  2  3  1  0  0  0
  3  4  2  0  0  0
  4  5  1  0  0  0
  5  6  2  0  0  0
  6 23  1  0  0  0
 23 25  1  0  0  0
 25 26  2  0  0  0
 26 27  1  0  0  0
 27 28  2  0  0  0
 28 29  1  0  0  0
 29 30  2  0  0  0
 30 31  1  0  0  0
  6  7  1  0  0  0
  7 10  1  0  0  0
 10 11  1  0  0  0
 10 12  1  0  0  0
  7  8  1  0  0  0
  8  9  2  0  0  0
 18 19  1  0  0  0
 19 20  2  0  0  0
 20 15  1  0  0  0
  9  1  1  0  0  0
  8  4  1  0  0  0
 30 25  1  0  0  0
 13 14  1  0  0  0
 23 24  1  0  0  0
M  END
> <minimizedAffinity>
-8.39241

> <CNNscore>
0.5364906192

> <CNNaffinity>
7.0795631409

> <CNN_VS>
3.7981193066

> <CNNaffinity_variance>
0.0994167179

$$$$
[H]c1c([H])c([H])c(N([H])c2nc3c([H])nc(N([H])c4c([H])c([H])c(OC([H])([H])[H])c([H])c4[H])nc3n2C([H])(C([H])([H])[H])C([H])([H])[H])c(F)c1[H]


 31 34  0  0  0  0  0  0  0  0999 V2000
   -0.6073   21.9755  -23.9314 C   0  0  0  0  0  0  0  0  0  0  0  0
    0.0790   22.1067  -25.0660 N   0  0  0  0  0  0  0  0  0  0  0  0
   -0.4268   22.4055  -26.2612 C   0  0  0  0  0  0  0  0  0  0  0  0
   -1.7894   22.6033  -26.3617 C   0  0  0  0  0  0  0  0  0  0  0  0
   -2.6222   22.9071  -27.3629 N   0  0  0  0  0  0  0  0  0  0  0  0
   -3.8709   22.9767  -26.8813 C   0  0  0  0  0  0  0  0  0  0  0  0
   -3.8530   22.7141  -25.5446 N   0  0  0  0  0  0  0  0  0  0  0  0
   -2.5570   22.4832  -25.2294 C   0  0  0  0  0  0  0  0  0  0  0  0
   -1.9635   22.1800  -24.0704 N   0  0  0  0  0  0  0  0  0  0  0  0
   -4.9772   22.6814  -24.6216 C   0  0  0  0  0  0  0  0  0  0  0  0
   -4.8195   23.6953  -23.5050 C   0  0  0  0  0  0  0  0  0  0  0  0
   -5.2543   21.3017  -24.1063 C   0  0  0  0  0  0  0  0  0  0  0  0
   -0.0771   21.6626  -22.6793 N   0  0  0  0  0  0  0  0  0  0  0  0
   -0.6283   21.9783  -21.8224 H   0  0  0  0  0  0  0  0  0  0  0  0
    3.4209   19.4422  -21.8067 C   0  0  0  0  0  0  0  0  0  0  0  0
    3.4037   20.3479  -22.8388 C   0  0  0  0  0  0  0  0  0  0  0  0
    2.2699   21.0969  -23.1426 C   0  0  0  0  0  0  0  0  0  0  0  0
    1.1180   20.9727  -22.4358 C   0  0  0  0  0  0  0  0  0  0  0  0
    1.1520   20.0314  -21.3704 C   0  0  0  0  0  0  0  0  0  0  0  0
    2.2612   19.3123  -21.0881 C   0  0  0  0  0  0  0  0  0  0  0  0
    4.6700   17.3884  -22.0069 C   0  0  0  0  0  0  0  0  0  0  0  0
    4.5575   18.7033  -21.5156 O   0  0  0  0  0  0  0  0  0  0  0  0
   -5.0409   23.2726  -27.6150 N   0  0  0  0  0  0  0  0  0  0  0  0
   -5.9503   22.9089  -27.1691 H   0  0  0  0  0  0  0  0  0  0  0  0
   -5.1795   23.9637  -28.8248 C   0  0  0  0  0  0  0  0  0  0  0  0
   -5.6280   23.4207  -30.0041 C   0  0  0  0  0  0  0  0  0  0  0  0
   -5.7242   24.2175  -31.1558 C   0  0  0  0  0  0  0  0  0  0  0  0
   -5.3765   25.5481  -31.1373 C   0  0  0  0  0  0  0  0  0  0  0  0
   -4.9243   26.1111  -29.9637 C   0  0  0  0  0  0  0  0  0  0  0  0
   -4.8382   25.3289  -28.8648 C   0  0  0  0  0  0  0  0  0  0  0  0
   -4.3842   25.9259  -27.7182 F   0  0  0  0  0  0  0  0  0  0  0  0
 21 22  1  0  0  0
 22 15  1  0  0  0
 15 16  2  0  0  0
 16 17  1  0  0  0
 17 18  2  0  0  0
 18 13  1  0  0  0
 13  1  1  0  0  0
  1  2  2  0  0  0
  2  3  1  0  0  0
  3  4  2  0  0  0
  4  5  1  0  0  0
  5  6  2  0  0  0
  6 23  1  0  0  0
 23 25  1  0  0  0
 25 26  2  0  0  0
 26 27  1  0  0  0
 27 28  2  0  0  0
 28 29  1  0  0  0
 29 30  2  0  0  0
 30 31  1  0  0  0
  6  7  1  0  0  0
  7 10  1  0  0  0
 10 11  1  0  0  0
 10 12  1  0  0  0
  7  8  1  0  0  0
  8  9  2  0  0  0
 18 19  1  0  0  0
 19 20  2  0  0  0
 20 15  1  0  0  0
  9  1  1  0  0  0
  8  4  1  0  0  0
 30 25  1  0  0  0
 13 14  1  0  0  0
 23 24  1  0  0  0
M  END
> <minimizedAffinity>
-8.35197

> <CNNscore>
0.4490041733

> <CNNaffinity>
7.0598449707

> <CNN_VS>
3.1698999405

> <CNNaffinity_variance>
0.2270555198

$$$$
[H]c1c([H])c([H])c(N([H])c2nc3c([H])nc(N([H])c4c([H])c([H])c(OC([H])([H])[H])c([H])c4[H])nc3n2C([H])(C([H])([H])[H])C([H])([H])[H])c(F)c1[H]


 31 34  0  0  0  0  0  0  0  0999 V2000
   -0.3162   21.9165  -23.1554 C   0  0  0  0  0  0  0  0  0  0  0  0
    0.6562   22.0046  -24.0623 N   0  0  0  0  0  0  0  0  0  0  0  0
    0.4952   22.1410  -25.3772 C   0  0  0  0  0  0  0  0  0  0  0  0
   -0.7915   22.1994  -25.8742 C   0  0  0  0  0  0  0  0  0  0  0  0
   -1.3209   22.3281  -27.0954 N   0  0  0  0  0  0  0  0  0  0  0  0
   -2.6569   22.3248  -26.9907 C   0  0  0  0  0  0  0  0  0  0  0  0
   -3.0052   22.1916  -25.6804 N   0  0  0  0  0  0  0  0  0  0  0  0
   -1.8415   22.1143  -24.9933 C   0  0  0  0  0  0  0  0  0  0  0  0
   -1.5862   21.9784  -23.6881 N   0  0  0  0  0  0  0  0  0  0  0  0
   -4.3420   22.1400  -25.1082 C   0  0  0  0  0  0  0  0  0  0  0  0
   -4.6893   23.4188  -24.3710 C   0  0  0  0  0  0  0  0  0  0  0  0
   -4.5574   20.9185  -24.2671 C   0  0  0  0  0  0  0  0  0  0  0  0
   -0.1473   21.7737  -21.7777 N   0  0  0  0  0  0  0  0  0  0  0  0
   -0.3929   22.6122  -21.1658 H   0  0  0  0  0  0  0  0  0  0  0  0
    1.0627   18.3005  -19.6800 C   0  0  0  0  0  0  0  0  0  0  0  0
    1.8328   18.8108  -20.6961 C   0  0  0  0  0  0  0  0  0  0  0  0
    1.4629   19.9556  -21.3971 C   0  0  0  0  0  0  0  0  0  0  0  0
    0.3196   20.6305  -21.1154 C   0  0  0  0  0  0  0  0  0  0  0  0
   -0.4665   20.0900  -20.0608 C   0  0  0  0  0  0  0  0  0  0  0  0
   -0.0928   18.9777  -19.3898 C   0  0  0  0  0  0  0  0  0  0  0  0
    0.7777   16.8195  -17.7975 C   0  0  0  0  0  0  0  0  0  0  0  0
    1.4439   17.1595  -18.9906 O   0  0  0  0  0  0  0  0  0  0  0  0
   -3.5846   22.4390  -28.0495 N   0  0  0  0  0  0  0  0  0  0  0  0
   -3.7773   21.5194  -28.5741 H   0  0  0  0  0  0  0  0  0  0  0  0
   -4.2784   23.5669  -28.5046 C   0  0  0  0  0  0  0  0  0  0  0  0
   -4.2994   24.7918  -27.8837 C   0  0  0  0  0  0  0  0  0  0  0  0
   -5.0347   25.8512  -28.4383 C   0  0  0  0  0  0  0  0  0  0  0  0
   -5.7467   25.6954  -29.6048 C   0  0  0  0  0  0  0  0  0  0  0  0
   -5.7380   24.4739  -30.2425 C   0  0  0  0  0  0  0  0  0  0  0  0
   -5.0246   23.4654  -29.6941 C   0  0  0  0  0  0  0  0  0  0  0  0
   -5.0416   22.2672  -30.3582 F   0  0  0  0  0  0  0  0  0  0  0  0
 21 22  1  0  0  0
 22 15  1  0  0  0
 15 16  2  0  0  0
 16 17  1  0  0  0
 17 18  2  0  0  0
 18 13  1  0  0  0
 13  1  1  0  0  0
  1  2  2  0  0  0
  2  3  1  0  0  0
  3  4  2  0  0  0
  4  5  1  0  0  0
  5  6  2  0  0  0
  6 23  1  0  0  0
 23 25  1  0  0  0
 25 26  2  0  0  0
 26 27  1  0  0  0
 27 28  2  0  0  0
 28 29  1  0  0  0
 29 30  2  0  0  0
 30 31  1  0  0  0
  6  7  1  0  0  0
  7 10  1  0  0  0
 10 11  1  0  0  0
 10 12  1  0  0  0
  7  8  1  0  0  0
  8  9  2  0  0  0
 18 19  1  0  0  0
 19 20  2  0  0  0
 20 15  1  0  0  0
  9  1  1  0  0  0
  8  4  1  0  0  0
 30 25  1  0  0  0
 13 14  1  0  0  0
 23 24  1  0  0  0
M  END
> <minimizedAffinity>
-7.24580

> <CNNscore>
0.4316769540

> <CNNaffinity>
6.8615212440

> <CNN_VS>
2.9619605541

> <CNNaffinity_variance>
0.0901250467

$$$$
[H]c1c([H])c([H])c(N([H])c2nc3c([H])nc(N([H])c4c([H])c([H])c(OC([H])([H])[H])c([H])c4[H])nc3n2C([H])(C([H])([H])[H])C([H])([H])[H])c(F)c1[H]


 31 34  0  0  0  0  0  0  0  0999 V2000
   -2.9748   22.6257  -26.7172 C   0  0  0  0  0  0  0  0  0  0  0  0
   -1.8702   22.4582  -27.4435 N   0  0  0  0  0  0  0  0  0  0  0  0
   -0.6532   22.1900  -26.9738 C   0  0  0  0  0  0  0  0  0  0  0  0
   -0.4935   22.0687  -25.6080 C   0  0  0  0  0  0  0  0  0  0  0  0
    0.5438   21.8134  -24.8035 N   0  0  0  0  0  0  0  0  0  0  0  0
    0.1167   21.8129  -23.5332 C   0  0  0  0  0  0  0  0  0  0  0  0
   -1.2205   22.0721  -23.5081 N   0  0  0  0  0  0  0  0  0  0  0  0
   -1.5922   22.2297  -24.8001 C   0  0  0  0  0  0  0  0  0  0  0  0
   -2.7768   22.4975  -25.3590 N   0  0  0  0  0  0  0  0  0  0  0  0
   -2.0945   22.1660  -22.3486 C   0  0  0  0  0  0  0  0  0  0  0  0
   -3.4180   21.4636  -22.5819 C   0  0  0  0  0  0  0  0  0  0  0  0
   -2.2715   23.5781  -21.8787 C   0  0  0  0  0  0  0  0  0  0  0  0
   -4.2497   22.9066  -27.2095 N   0  0  0  0  0  0  0  0  0  0  0  0
   -5.0760   22.4440  -26.7186 H   0  0  0  0  0  0  0  0  0  0  0  0
   -5.3034   25.2654  -30.5642 C   0  0  0  0  0  0  0  0  0  0  0  0
   -4.6025   25.8093  -29.5160 C   0  0  0  0  0  0  0  0  0  0  0  0
   -4.2362   25.0549  -28.4045 C   0  0  0  0  0  0  0  0  0  0  0  0
   -4.5527   23.7396  -28.2948 C   0  0  0  0  0  0  0  0  0  0  0  0
   -5.2780   23.1913  -29.3881 C   0  0  0  0  0  0  0  0  0  0  0  0
   -5.6255   23.9374  -30.4604 C   0  0  0  0  0  0  0  0  0  0  0  0
   -6.0822   27.3591  -31.4742 C   0  0  0  0  0  0  0  0  0  0  0  0
   -5.6613   26.0289  -31.6648 O   0  0  0  0  0  0  0  0  0  0  0  0
    0.9012   21.5840  -22.3813 N   0  0  0  0  0  0  0  0  0  0  0  0
    1.3113   22.4744  -21.9375 H   0  0  0  0  0  0  0  0  0  0  0  0
    1.2147   20.3763  -21.7459 C   0  0  0  0  0  0  0  0  0  0  0  0
    0.3481   19.6288  -20.9865 C   0  0  0  0  0  0  0  0  0  0  0  0
    0.7803   18.4301  -20.3975 C   0  0  0  0  0  0  0  0  0  0  0  0
    2.0678   17.9750  -20.5616 C   0  0  0  0  0  0  0  0  0  0  0  0
    2.9522   18.7110  -21.3200 C   0  0  0  0  0  0  0  0  0  0  0  0
    2.5186   19.8625  -21.8794 C   0  0  0  0  0  0  0  0  0  0  0  0
    3.4278   20.5649  -22.6257 F   0  0  0  0  0  0  0  0  0  0  0  0
 21 22  1  0  0  0
 22 15  1  0  0  0
 15 16  2  0  0  0
 16 17  1  0  0  0
 17 18  2  0  0  0
 18 13  1  0  0  0
 13  1  1  0  0  0
  1  2  2  0  0  0
  2  3  1  0  0  0
  3  4  2  0  0  0
  4  5  1  0  0  0
  5  6  2  0  0  0
  6 23  1  0  0  0
 23 25  1  0  0  0
 25 26  2  0  0  0
 26 27  1  0  0  0
 27 28  2  0  0  0
 28 29  1  0  0  0
 29 30  2  0  0  0
 30 31  1  0  0  0
  6  7  1  0  0  0
  7 10  1  0  0  0
 10 11  1  0  0  0
 10 12  1  0  0  0
  7  8  1  0  0  0
  8  9  2  0  0  0
 18 19  1  0  0  0
 19 20  2  0  0  0
 20 15  1  0  0  0
  9  1  1  0  0  0
  8  4  1  0  0  0
 30 25  1  0  0  0
 13 14  1  0  0  0
 23 24  1  0  0  0
M  END
> <minimizedAffinity>
-7.73814

> <CNNscore>
0.2789508998

> <CNNaffinity>
6.7850036621

> <CNN_VS>
1.8926829100

> <CNNaffinity_variance>
0.2202118635

$$$$
[H]c1c([H])c([H])c(N([H])c2nc3c([H])nc(N([H])c4c([H])c([H])c(OC([H])([H])[H])c([H])c4[H])nc3n2C([H])(C([H])([H])[H])C([H])([H])[H])c(F)c1[H]


 31 34  0  0  0  0  0  0  0  0999 V2000
    0.2801   21.4193  -22.5893 C   0  0  0  0  0  0  0  0  0  0  0  0
    1.0045   21.5290  -23.7024 N   0  0  0  0  0  0  0  0  0  0  0  0
    0.5379   21.7927  -24.9215 C   0  0  0  0  0  0  0  0  0  0  0  0
   -0.8221   21.9740  -25.0743 C   0  0  0  0  0  0  0  0  0  0  0  0
   -1.6222   22.2442  -26.1111 N   0  0  0  0  0  0  0  0  0  0  0  0
   -2.8876   22.3130  -25.6752 C   0  0  0  0  0  0  0  0  0  0  0  0
   -2.9140   22.0840  -24.3324 N   0  0  0  0  0  0  0  0  0  0  0  0
   -1.6277   21.8744  -23.9666 C   0  0  0  0  0  0  0  0  0  0  0  0
   -1.0723   21.6063  -22.7804 N   0  0  0  0  0  0  0  0  0  0  0  0
   -4.0694   22.0629  -23.4484 C   0  0  0  0  0  0  0  0  0  0  0  0
   -5.1542   21.1352  -23.9605 C   0  0  0  0  0  0  0  0  0  0  0  0
   -4.5864   23.4375  -23.1499 C   0  0  0  0  0  0  0  0  0  0  0  0
    0.7691   21.1431  -21.3120 N   0  0  0  0  0  0  0  0  0  0  0  0
    0.1373   21.3782  -20.4854 H   0  0  0  0  0  0  0  0  0  0  0  0
    4.4725   19.2686  -20.4756 C   0  0  0  0  0  0  0  0  0  0  0  0
    4.3389   20.6322  -20.3817 C   0  0  0  0  0  0  0  0  0  0  0  0
    3.1311   21.2737  -20.6433 C   0  0  0  0  0  0  0  0  0  0  0  0
    2.0184   20.5868  -21.0067 C   0  0  0  0  0  0  0  0  0  0  0  0
    2.1728   19.1762  -21.0992 C   0  0  0  0  0  0  0  0  0  0  0  0
    3.3525   18.5687  -20.8414 C   0  0  0  0  0  0  0  0  0  0  0  0
    6.0197   18.3283  -18.8818 C   0  0  0  0  0  0  0  0  0  0  0  0
    5.6816   18.6435  -20.2119 O   0  0  0  0  0  0  0  0  0  0  0  0
   -4.0339   22.5784  -26.4563 N   0  0  0  0  0  0  0  0  0  0  0  0
   -4.7656   21.7893  -26.4562 H   0  0  0  0  0  0  0  0  0  0  0  0
   -4.3459   23.7099  -27.2198 C   0  0  0  0  0  0  0  0  0  0  0  0
   -4.8474   24.8892  -26.7257 C   0  0  0  0  0  0  0  0  0  0  0  0
   -5.1218   25.9577  -27.5939 C   0  0  0  0  0  0  0  0  0  0  0  0
   -4.8994   25.8561  -28.9474 C   0  0  0  0  0  0  0  0  0  0  0  0
   -4.3966   24.6808  -29.4622 C   0  0  0  0  0  0  0  0  0  0  0  0
   -4.1384   23.6628  -28.6115 C   0  0  0  0  0  0  0  0  0  0  0  0
   -3.6396   22.5118  -29.1623 F   0  0  0  0  0  0  0  0  0  0  0  0
 21 22  1  0  0  0
 22 15  1  0  0  0
 15 16  2  0  0  0
 16 17  1  0  0  0
 17 18  2  0  0  0
 18 13  1  0  0  0
 13  1  1  0  0  0
  1  2  2  0  0  0
  2  3  1  0  0  0
  3  4  2  0  0  0
  4  5  1  0  0  0
  5  6  2  0  0  0
  6 23  1  0  0  0
 23 25  1  0  0  0
 25 26  2  0  0  0
 26 27  1  0  0  0
 27 28  2  0  0  0
 28 29  1  0  0  0
 29 30  2  0  0  0
 30 31  1  0  0  0
  6  7  1  0  0  0
  7 10  1  0  0  0
 10 11  1  0  0  0
 10 12  1  0  0  0
  7  8  1  0  0  0
  8  9  2  0  0  0
 18 19  1  0  0  0
 19 20  2  0  0  0
 20 15  1  0  0  0
  9  1  1  0  0  0
  8  4  1  0  0  0
 30 25  1  0  0  0
 13 14  1  0  0  0
 23 24  1  0  0  0
M  END
> <minimizedAffinity>
-7.00566

> <CNNscore>
0.2483733594

> <CNNaffinity>
6.5414237976

> <CNN_VS>
1.6247154474

> <CNNaffinity_variance>
0.1814961135

$$$$
[H]c1c([H])c([H])c(N([H])c2nc3c([H])nc(N([H])c4c([H])c([H])c(OC([H])([H])[H])c([H])c4[H])nc3n2C([H])(C([H])([H])[H])C([H])([H])[H])c(F)c1[H]


 31 34  0  0  0  0  0  0  0  0999 V2000
   -1.6101   21.4643  -23.3925 C   0  0  0  0  0  0  0  0  0  0  0  0
   -0.7711   21.7711  -24.3812 N   0  0  0  0  0  0  0  0  0  0  0  0
   -1.0927   22.3613  -25.5309 C   0  0  0  0  0  0  0  0  0  0  0  0
   -2.4146   22.6979  -25.7438 C   0  0  0  0  0  0  0  0  0  0  0  0
   -3.0852   23.2812  -26.7429 N   0  0  0  0  0  0  0  0  0  0  0  0
   -4.3804   23.3591  -26.4076 C   0  0  0  0  0  0  0  0  0  0  0  0
   -4.5581   22.8180  -25.1700 N   0  0  0  0  0  0  0  0  0  0  0  0
   -3.3329   22.4096  -24.7644 C   0  0  0  0  0  0  0  0  0  0  0  0
   -2.9201   21.8149  -23.6404 N   0  0  0  0  0  0  0  0  0  0  0  0
   -5.7956   22.6913  -24.4154 C   0  0  0  0  0  0  0  0  0  0  0  0
   -5.8144   23.6057  -23.2058 C   0  0  0  0  0  0  0  0  0  0  0  0
   -6.1070   21.2686  -24.0618 C   0  0  0  0  0  0  0  0  0  0  0  0
   -1.2729   20.8460  -22.1880 N   0  0  0  0  0  0  0  0  0  0  0  0
   -1.6521   19.8632  -22.0202 H   0  0  0  0  0  0  0  0  0  0  0  0
    0.9348   22.6126  -19.0363 C   0  0  0  0  0  0  0  0  0  0  0  0
    1.4638   21.5801  -19.7711 C   0  0  0  0  0  0  0  0  0  0  0  0
    0.7632   20.9862  -20.8176 C   0  0  0  0  0  0  0  0  0  0  0  0
   -0.4825   21.3945  -21.1692 C   0  0  0  0  0  0  0  0  0  0  0  0
   -1.0161   22.4644  -20.3993 C   0  0  0  0  0  0  0  0  0  0  0  0
   -0.3225   23.0304  -19.3865 C   0  0  0  0  0  0  0  0  0  0  0  0
    3.0517   23.1497  -18.0122 C   0  0  0  0  0  0  0  0  0  0  0  0
    1.6444   23.1944  -17.9968 O   0  0  0  0  0  0  0  0  0  0  0  0
   -5.4208   23.9082  -27.1890 N   0  0  0  0  0  0  0  0  0  0  0  0
   -6.3891   23.8867  -26.7200 H   0  0  0  0  0  0  0  0  0  0  0  0
   -5.3676   24.4688  -28.4710 C   0  0  0  0  0  0  0  0  0  0  0  0
   -5.1183   25.7900  -28.7516 C   0  0  0  0  0  0  0  0  0  0  0  0
   -5.0903   26.2353  -30.0826 C   0  0  0  0  0  0  0  0  0  0  0  0
   -5.3089   25.3725  -31.1312 C   0  0  0  0  0  0  0  0  0  0  0  0
   -5.5608   24.0431  -30.8699 C   0  0  0  0  0  0  0  0  0  0  0  0
   -5.5840   23.6323  -29.5825 C   0  0  0  0  0  0  0  0  0  0  0  0
   -5.8377   22.3037  -29.3648 F   0  0  0  0  0  0  0  0  0  0  0  0
 21 22  1  0  0  0
 22 15  1  0  0  0
 15 16  2  0  0  0
 16 17  1  0  0  0
 17 18  2  0  0  0
 18 13  1  0  0  0
 13  1  1  0  0  0
  1  2  2  0  0  0
  2  3  1  0  0  0
  3  4  2  0  0  0
  4  5  1  0  0  0
  5  6  2  0  0  0
  6 23  1  0  0  0
 23 25  1  0  0  0
 25 26  2  0  0  0
 26 27  1  0  0  0
 27 28  2  0  0  0
 28 29  1  0  0  0
 29 30  2  0  0  0
 30 31  1  0  0  0
  6  7  1  0  0  0
  7 10  1  0  0  0
 10 11  1  0  0  0
 10 12  1  0  0  0
  7  8  1  0  0  0
  8  9  2  0  0  0
 18 19  1  0  0  0
 19 20  2  0  0  0
 20 15  1  0  0  0
  9  1  1  0  0  0
  8  4  1  0  0  0
 30 25  1  0  0  0
 13 14  1  0  0  0
 23 24  1  0  0  0
M  END
> <minimizedAffinity>
-8.13000

> <CNNscore>
0.1710967422

> <CNNaffinity>
6.5555472374

> <CNN_VS>
1.1216328144

> <CNNaffinity_variance>
0.0629270822

$$$$
[H]c1c([H])c([H])c(N([H])c2nc3c([H])nc(N([H])c4c([H])c([H])c(OC([H])([H])[H])c([H])c4[H])nc3n2C([H])(C([H])([H])[H])C([H])([H])[H])c(F)c1[H]


 31 34  0  0  0  0  0  0  0  0999 V2000
   -1.5246   22.4953  -25.3612 C   0  0  0  0  0  0  0  0  0  0  0  0
   -0.3829   22.2575  -26.0059 N   0  0  0  0  0  0  0  0  0  0  0  0
    0.7528   21.8253  -25.4609 C   0  0  0  0  0  0  0  0  0  0  0  0
    0.7764   21.5936  -24.1002 C   0  0  0  0  0  0  0  0  0  0  0  0
    1.7055   21.1711  -23.2362 N   0  0  0  0  0  0  0  0  0  0  0  0
    1.1688   21.1303  -22.0089 C   0  0  0  0  0  0  0  0  0  0  0  0
   -0.1312   21.5327  -22.0727 N   0  0  0  0  0  0  0  0  0  0  0  0
   -0.3675   21.8187  -23.3745 C   0  0  0  0  0  0  0  0  0  0  0  0
   -1.4632   22.2530  -24.0055 N   0  0  0  0  0  0  0  0  0  0  0  0
   -1.0909   21.6424  -20.9846 C   0  0  0  0  0  0  0  0  0  0  0  0
   -1.0070   22.9890  -20.2925 C   0  0  0  0  0  0  0  0  0  0  0  0
   -0.9973   20.4977  -20.0218 C   0  0  0  0  0  0  0  0  0  0  0  0
   -2.7144   22.9479  -25.9325 N   0  0  0  0  0  0  0  0  0  0  0  0
   -2.7016   23.1717  -26.9753 H   0  0  0  0  0  0  0  0  0  0  0  0
   -6.3539   23.7537  -23.9243 C   0  0  0  0  0  0  0  0  0  0  0  0
   -6.0866   22.5000  -24.4167 C   0  0  0  0  0  0  0  0  0  0  0  0
   -4.8950   22.2054  -25.0740 C   0  0  0  0  0  0  0  0  0  0  0  0
   -3.9313   23.1418  -25.2654 C   0  0  0  0  0  0  0  0  0  0  0  0
   -4.2228   24.4345  -24.7495 C   0  0  0  0  0  0  0  0  0  0  0  0
   -5.3846   24.7040  -24.1134 C   0  0  0  0  0  0  0  0  0  0  0  0
   -8.0156   25.3590  -23.2315 C   0  0  0  0  0  0  0  0  0  0  0  0
   -7.5451   24.0325  -23.2717 O   0  0  0  0  0  0  0  0  0  0  0  0
    1.8192   20.7378  -20.8182 N   0  0  0  0  0  0  0  0  0  0  0  0
    1.5542   19.7550  -20.4691 H   0  0  0  0  0  0  0  0  0  0  0  0
    2.7477   21.4401  -20.0404 C   0  0  0  0  0  0  0  0  0  0  0  0
    2.4371   22.3206  -19.0330 C   0  0  0  0  0  0  0  0  0  0  0  0
    3.4598   22.9670  -18.3210 C   0  0  0  0  0  0  0  0  0  0  0  0
    4.7858   22.7404  -18.6079 C   0  0  0  0  0  0  0  0  0  0  0  0
    5.1175   21.8605  -19.6152 C   0  0  0  0  0  0  0  0  0  0  0  0
    4.1198   21.2474  -20.2900 C   0  0  0  0  0  0  0  0  0  0  0  0
    4.4908   20.3802  -21.2837 F   0  0  0  0  0  0  0  0  0  0  0  0
 21 22  1  0  0  0
 22 15  1  0  0  0
 15 16  2  0  0  0
 16 17  1  0  0  0
 17 18  2  0  0  0
 18 13  1  0  0  0
 13  1  1  0  0  0
  1  2  2  0  0  0
  2  3  1  0  0  0
  3  4  2  0  0  0
  4  5  1  0  0  0
  5  6  2  0  0  0
  6 23  1  0  0  0
 23 25  1  0  0  0
 25 26  2  0  0  0
 26 27  1  0  0  0
 27 28  2  0  0  0
 28 29  1  0  0  0
 29 30  2  0  0  0
 30 31  1  0  0  0
  6  7  1  0  0  0
  7 10  1  0  0  0
 10 11  1  0  0  0
 10 12  1  0  0  0
  7  8  1  0  0  0
  8  9  2  0  0  0
 18 19  1  0  0  0
 19 20  2  0  0  0
 20 15  1  0  0  0
  9  1  1  0  0  0
  8  4  1  0  0  0
 30 25  1  0  0  0
 13 14  1  0  0  0
 23 24  1  0  0  0
M  END
> <minimizedAffinity>
-6.58876

> <CNNscore>
0.1698227376

> <CNNaffinity>
6.1592216492

> <CNN_VS>
1.0459759235

> <CNNaffinity_variance>
0.0845406055

$$$$
[H]c1c([H])c([H])c(N([H])c2nc3c([H])nc(N([H])c4c([H])c([H])c(OC([H])([H])[H])c([H])c4[H])nc3n2C([H])(C([H])([H])[H])C([H])([H])[H])c(F)c1[H]


 31 34  0  0  0  0  0  0  0  0999 V2000
   -0.6138   22.1112  -23.3923 C   0  0  0  0  0  0  0  0  0  0  0  0
    0.0648   21.9963  -24.5334 N   0  0  0  0  0  0  0  0  0  0  0  0
   -0.4117   22.2162  -25.7573 C   0  0  0  0  0  0  0  0  0  0  0  0
   -1.7314   22.6010  -25.8840 C   0  0  0  0  0  0  0  0  0  0  0  0
   -2.5272   22.8988  -26.9167 N   0  0  0  0  0  0  0  0  0  0  0  0
   -3.7433   23.2132  -26.4497 C   0  0  0  0  0  0  0  0  0  0  0  0
   -3.7415   23.1192  -25.0906 N   0  0  0  0  0  0  0  0  0  0  0  0
   -2.4888   22.7386  -24.7468 C   0  0  0  0  0  0  0  0  0  0  0  0
   -1.9270   22.4968  -23.5580 N   0  0  0  0  0  0  0  0  0  0  0  0
   -4.8421   23.3696  -24.1724 C   0  0  0  0  0  0  0  0  0  0  0  0
   -5.9802   22.3883  -24.3756 C   0  0  0  0  0  0  0  0  0  0  0  0
   -5.3030   24.7952  -24.2074 C   0  0  0  0  0  0  0  0  0  0  0  0
   -0.1143   21.8809  -22.1100 N   0  0  0  0  0  0  0  0  0  0  0  0
    0.9163   21.6191  -22.0268 H   0  0  0  0  0  0  0  0  0  0  0  0
   -2.2079   22.3081  -18.4546 C   0  0  0  0  0  0  0  0  0  0  0  0
   -2.5621   21.3352  -19.3568 C   0  0  0  0  0  0  0  0  0  0  0  0
   -1.8861   21.1674  -20.5624 C   0  0  0  0  0  0  0  0  0  0  0  0
   -0.8395   21.9571  -20.9135 C   0  0  0  0  0  0  0  0  0  0  0  0
   -0.4849   22.9592  -19.9689 C   0  0  0  0  0  0  0  0  0  0  0  0
   -1.1514   23.1086  -18.8024 C   0  0  0  0  0  0  0  0  0  0  0  0
   -4.0879   23.2039  -17.2374 C   0  0  0  0  0  0  0  0  0  0  0  0
   -2.8904   22.4634  -17.2577 O   0  0  0  0  0  0  0  0  0  0  0  0
   -4.8690   23.5867  -27.2166 N   0  0  0  0  0  0  0  0  0  0  0  0
   -5.8139   23.2954  -26.7918 H   0  0  0  0  0  0  0  0  0  0  0  0
   -4.9251   24.2736  -28.4353 C   0  0  0  0  0  0  0  0  0  0  0  0
   -4.5049   25.5651  -28.6404 C   0  0  0  0  0  0  0  0  0  0  0  0
   -4.6125   26.1481  -29.9129 C   0  0  0  0  0  0  0  0  0  0  0  0
   -5.1352   25.4520  -30.9778 C   0  0  0  0  0  0  0  0  0  0  0  0
   -5.5622   24.1551  -30.7919 C   0  0  0  0  0  0  0  0  0  0  0  0
   -5.4510   23.6101  -29.5601 C   0  0  0  0  0  0  0  0  0  0  0  0
   -5.8866   22.3191  -29.4166 F   0  0  0  0  0  0  0  0  0  0  0  0
 21 22  1  0  0  0
 22 15  1  0  0  0
 15 16  2  0  0  0
 16 17  1  0  0  0
 17 18  2  0  0  0
 18 13  1  0  0  0
 13  1  1  0  0  0
  1  2  2  0  0  0
  2  3  1  0  0  0
  3  4  2  0  0  0
  4  5  1  0  0  0
  5  6  2  0  0  0
  6 23  1  0  0  0
 23 25  1  0  0  0
 25 26  2  0  0  0
 26 27  1  0  0  0
 27 28  2  0  0  0
 28 29  1  0  0  0
 29 30  2  0  0  0
 30 31  1  0  0  0
  6  7  1  0  0  0
  7 10  1  0  0  0
 10 11  1  0  0  0
 10 12  1  0  0  0
  7  8  1  0  0  0
  8  9  2  0  0  0
 18 19  1  0  0  0
 19 20  2  0  0  0
 20 15  1  0  0  0
  9  1  1  0  0  0
  8  4  1  0  0  0
 30 25  1  0  0  0
 13 14  1  0  0  0
 23 24  1  0  0  0
M  END
> <minimizedAffinity>
-7.72899

> <CNNscore>
0.1666749865

> <CNNaffinity>
6.6844787598

> <CNN_VS>
1.1141353846

> <CNNaffinity_variance>
0.2443596572

$$$$
[H]c1nc(-c2c([H])c([H])c(OC([H])([H])C([H])([H])C([H])([H])N3C([H])([H])C([H])([H])C([H])(C([H])([H])c4c([H])nc([H])n4[H])C([H])([H])C3([H])[H])c([H])c2[H])nc([H])c1[H]


 29 32  0  0  0  0  0  0  0  0999 V2000
   -6.1094   24.0170  -21.6735 C   0  0  0  0  0  0  0  0  0  0  0  0
   -7.3927   24.5729  -22.2618 C   0  0  0  0  0  0  0  0  0  0  0  0
   -7.0647   25.7335  -22.9619 O   0  0  0  0  0  0  0  0  0  0  0  0
   -5.8312   25.7374  -27.0027 C   0  0  0  0  0  0  0  0  0  0  0  0
   -5.2247   26.5448  -26.0651 C   0  0  0  0  0  0  0  0  0  0  0  0
   -5.6295   26.5457  -24.7316 C   0  0  0  0  0  0  0  0  0  0  0  0
   -6.6564   25.7344  -24.3008 C   0  0  0  0  0  0  0  0  0  0  0  0
   -7.2597   24.9285  -25.2427 C   0  0  0  0  0  0  0  0  0  0  0  0
   -6.8583   24.9252  -26.5739 C   0  0  0  0  0  0  0  0  0  0  0  0
   -4.5367   25.7499  -31.0047 C   0  0  0  0  0  0  0  0  0  0  0  0
   -3.6396   25.6345  -29.9657 C   0  0  0  0  0  0  0  0  0  0  0  0
   -4.0964   25.6348  -28.7010 N   0  0  0  0  0  0  0  0  0  0  0  0
   -5.4005   25.7436  -28.3965 C   0  0  0  0  0  0  0  0  0  0  0  0
   -6.2685   25.8555  -29.4103 N   0  0  0  0  0  0  0  0  0  0  0  0
   -5.8712   25.8616  -30.7085 C   0  0  0  0  0  0  0  0  0  0  0  0
   -5.9034   22.6218  -22.2179 C   0  0  0  0  0  0  0  0  0  0  0  0
   -4.5044   22.3305  -22.4710 N   0  0  0  0  0  0  0  0  0  0  0  0
   -4.4606   21.2421  -23.4292 C   0  0  0  0  0  0  0  0  0  0  0  0
   -4.4685   21.8334  -24.8446 C   0  0  0  0  0  0  0  0  0  0  0  0
   -3.0884   22.3988  -25.0638 C   0  0  0  0  0  0  0  0  0  0  0  0
   -2.7199   23.2408  -23.8898 C   0  0  0  0  0  0  0  0  0  0  0  0
   -3.8999   23.5375  -22.9942 C   0  0  0  0  0  0  0  0  0  0  0  0
   -2.9774   23.1336  -26.3788 C   0  0  0  0  0  0  0  0  0  0  0  0
   -1.6294   22.8970  -26.9328 C   0  0  0  0  0  0  0  0  0  0  0  0
   -1.1429   23.2387  -28.1664 C   0  0  0  0  0  0  0  0  0  0  0  0
    0.1232   22.8387  -28.2565 N   0  0  0  0  0  0  0  0  0  0  0  0
    0.4523   22.2486  -27.1028 C   0  0  0  0  0  0  0  0  0  0  0  0
   -0.6185   22.2869  -26.3009 N   0  0  0  0  0  0  0  0  0  0  0  0
   -0.6529   21.8932  -25.3187 H   0  0  0  0  0  0  0  0  0  0  0  0
 10 11  2  0  0  0
 11 12  1  0  0  0
 12 13  2  0  0  0
 13  4  1  0  0  0
  4  5  2  0  0  0
  5  6  1  0  0  0
  6  7  2  0  0  0
  7  3  1  0  0  0
  3  2  1  0  0  0
  2  1  1  0  0  0
  1 16  1  0  0  0
 16 17  1  0  0  0
 17 18  1  0  0  0
 18 19  1  0  0  0
 19 20  1  0  0  0
 20 23  1  0  0  0
 23 24  1  0  0  0
 24 25  2  0  0  0
 25 26  1  0  0  0
 26 27  2  0  0  0
 27 28  1  0  0  0
 20 21  1  0  0  0
 21 22  1  0  0  0
  7  8  1  0  0  0
  8  9  2  0  0  0
 13 14  1  0  0  0
 14 15  2  0  0  0
 15 10  1  0  0  0
  9  4  1  0  0  0
 22 17  1  0  0  0
 28 24  1  0  0  0
 28 29  1  0  0  0
M  END
> <minimizedAffinity>
-7.94208

> <CNNscore>
0.7790846825

> <CNNaffinity>
7.1954407692

> <CNN_VS>
5.6058578491

> <CNNaffinity_variance>
0.1307329237

$$$$
[H]c1nc(-c2c([H])c([H])c(OC([H])([H])C([H])([H])C([H])([H])N3C([H])([H])C([H])([H])C([H])(C([H])([H])c4c([H])nc([H])n4[H])C([H])([H])C3([H])[H])c([H])c2[H])nc([H])c1[H]


 29 32  0  0  0  0  0  0  0  0999 V2000
   -6.1858   25.2059  -20.8876 C   0  0  0  0  0  0  0  0  0  0  0  0
   -7.5059   25.0652  -21.6222 C   0  0  0  0  0  0  0  0  0  0  0  0
   -7.5407   26.0459  -22.6131 O   0  0  0  0  0  0  0  0  0  0  0  0
   -6.3967   25.3396  -26.6183 C   0  0  0  0  0  0  0  0  0  0  0  0
   -7.3965   24.6068  -26.0163 C   0  0  0  0  0  0  0  0  0  0  0  0
   -7.7759   24.8375  -24.6954 C   0  0  0  0  0  0  0  0  0  0  0  0
   -7.1613   25.8122  -23.9400 C   0  0  0  0  0  0  0  0  0  0  0  0
   -6.1618   26.5425  -24.5470 C   0  0  0  0  0  0  0  0  0  0  0  0
   -5.7808   26.3149  -25.8646 C   0  0  0  0  0  0  0  0  0  0  0  0
   -5.2615   24.6761  -30.6137 C   0  0  0  0  0  0  0  0  0  0  0  0
   -5.2468   25.9414  -30.0692 C   0  0  0  0  0  0  0  0  0  0  0  0
   -5.6175   26.1087  -28.7875 N   0  0  0  0  0  0  0  0  0  0  0  0
   -6.0063   25.0906  -28.0017 C   0  0  0  0  0  0  0  0  0  0  0  0
   -6.0188   23.8626  -28.5359 N   0  0  0  0  0  0  0  0  0  0  0  0
   -5.6562   23.6273  -29.8230 C   0  0  0  0  0  0  0  0  0  0  0  0
   -5.6883   23.8220  -20.5368 C   0  0  0  0  0  0  0  0  0  0  0  0
   -4.4076   23.5251  -21.1514 N   0  0  0  0  0  0  0  0  0  0  0  0
   -4.4708   22.1578  -21.6324 C   0  0  0  0  0  0  0  0  0  0  0  0
   -5.0197   22.1661  -23.0648 C   0  0  0  0  0  0  0  0  0  0  0  0
   -3.8973   22.6726  -23.9344 C   0  0  0  0  0  0  0  0  0  0  0  0
   -3.3387   23.9143  -23.3267 C   0  0  0  0  0  0  0  0  0  0  0  0
   -4.2171   24.4708  -22.2309 C   0  0  0  0  0  0  0  0  0  0  0  0
   -4.3292   22.8573  -25.3699 C   0  0  0  0  0  0  0  0  0  0  0  0
   -3.1411   22.7211  -26.2357 C   0  0  0  0  0  0  0  0  0  0  0  0
   -1.9722   22.0551  -25.9802 C   0  0  0  0  0  0  0  0  0  0  0  0
   -1.1642   22.1839  -27.0298 N   0  0  0  0  0  0  0  0  0  0  0  0
   -1.7970   22.9197  -27.9494 C   0  0  0  0  0  0  0  0  0  0  0  0
   -2.9999   23.2439  -27.4605 N   0  0  0  0  0  0  0  0  0  0  0  0
   -3.7233   23.8250  -27.9703 H   0  0  0  0  0  0  0  0  0  0  0  0
 10 11  2  0  0  0
 11 12  1  0  0  0
 12 13  2  0  0  0
 13  4  1  0  0  0
  4  5  2  0  0  0
  5  6  1  0  0  0
  6  7  2  0  0  0
  7  3  1  0  0  0
  3  2  1  0  0  0
  2  1  1  0  0  0
  1 16  1  0  0  0
 16 17  1  0  0  0
 17 18  1  0  0  0
 18 19  1  0  0  0
 19 20  1  0  0  0
 20 23  1  0  0  0
 23 24  1  0  0  0
 24 25  2  0  0  0
 25 26  1  0  0  0
 26 27  2  0  0  0
 27 28  1  0  0  0
 20 21  1  0  0  0
 21 22  1  0  0  0
  7  8  1  0  0  0
  8  9  2  0  0  0
 13 14  1  0  0  0
 14 15  2  0  0  0
 15 10  1  0  0  0
  9  4  1  0  0  0
 22 17  1  0  0  0
 28 24  1  0  0  0
 28 29  1  0  0  0
M  END
> <minimizedAffinity>
-7.84631

> <CNNscore>
0.4176845849

> <CNNaffinity>
6.8743376732

> <CNN_VS>
2.8713049889

> <CNNaffinity_variance>
0.1719679981

$$$$
[H]c1nc(-c2c([H])c([H])c(OC([H])([H])C([H])([H])C([H])([H])N3C([H])([H])C([H])([H])C([H])(C([H])([H])c4c([H])nc([H])n4[H])C([H])([H])C3([H])[H])c([H])c2[H])nc([H])c1[H]


 29 32  0  0  0  0  0  0  0  0999 V2000
   -7.0720   24.0136  -26.1725 C   0  0  0  0  0  0  0  0  0  0  0  0
   -6.6242   23.8569  -24.7313 C   0  0  0  0  0  0  0  0  0  0  0  0
   -5.6935   22.8192  -24.6920 O   0  0  0  0  0  0  0  0  0  0  0  0
   -2.4964   22.6702  -21.9343 C   0  0  0  0  0  0  0  0  0  0  0  0
   -3.0879   21.5210  -22.4118 C   0  0  0  0  0  0  0  0  0  0  0  0
   -4.1426   21.5671  -23.3215 C   0  0  0  0  0  0  0  0  0  0  0  0
   -4.6342   22.7704  -23.7783 C   0  0  0  0  0  0  0  0  0  0  0  0
   -4.0388   23.9172  -23.2975 C   0  0  0  0  0  0  0  0  0  0  0  0
   -2.9864   23.8747  -22.3900 C   0  0  0  0  0  0  0  0  0  0  0  0
    0.7053   22.4569  -19.2146 C   0  0  0  0  0  0  0  0  0  0  0  0
    0.5725   21.5386  -20.2328 C   0  0  0  0  0  0  0  0  0  0  0  0
   -0.4663   21.6437  -21.0802 N   0  0  0  0  0  0  0  0  0  0  0  0
   -1.3927   22.6119  -20.9820 C   0  0  0  0  0  0  0  0  0  0  0  0
   -1.2590   23.5021  -19.9904 N   0  0  0  0  0  0  0  0  0  0  0  0
   -0.2332   23.4508  -19.1025 C   0  0  0  0  0  0  0  0  0  0  0  0
   -6.5746   25.3475  -26.6814 C   0  0  0  0  0  0  0  0  0  0  0  0
   -5.7608   25.2126  -27.8755 N   0  0  0  0  0  0  0  0  0  0  0  0
   -4.4133   25.6182  -27.5228 C   0  0  0  0  0  0  0  0  0  0  0  0
   -3.6494   24.3907  -27.0101 C   0  0  0  0  0  0  0  0  0  0  0  0
   -3.3366   23.5601  -28.2285 C   0  0  0  0  0  0  0  0  0  0  0  0
   -4.5801   23.3997  -29.0354 C   0  0  0  0  0  0  0  0  0  0  0  0
   -5.8196   23.8248  -28.2834 C   0  0  0  0  0  0  0  0  0  0  0  0
   -2.6894   22.2437  -27.8684 C   0  0  0  0  0  0  0  0  0  0  0  0
   -1.3727   22.5220  -27.2612 C   0  0  0  0  0  0  0  0  0  0  0  0
   -0.2226   22.9410  -27.8750 C   0  0  0  0  0  0  0  0  0  0  0  0
    0.7332   23.0699  -26.9579 N   0  0  0  0  0  0  0  0  0  0  0  0
    0.2130   22.7408  -25.7711 C   0  0  0  0  0  0  0  0  0  0  0  0
   -1.0692   22.4081  -25.9618 N   0  0  0  0  0  0  0  0  0  0  0  0
   -1.7349   22.1028  -25.1973 H   0  0  0  0  0  0  0  0  0  0  0  0
 10 11  2  0  0  0
 11 12  1  0  0  0
 12 13  2  0  0  0
 13  4  1  0  0  0
  4  5  2  0  0  0
  5  6  1  0  0  0
  6  7  2  0  0  0
  7  3  1  0  0  0
  3  2  1  0  0  0
  2  1  1  0  0  0
  1 16  1  0  0  0
 16 17  1  0  0  0
 17 18  1  0  0  0
 18 19  1  0  0  0
 19 20  1  0  0  0
 20 23  1  0  0  0
 23 24  1  0  0  0
 24 25  2  0  0  0
 25 26  1  0  0  0
 26 27  2  0  0  0
 27 28  1  0  0  0
 20 21  1  0  0  0
 21 22  1  0  0  0
  7  8  1  0  0  0
  8  9  2  0  0  0
 13 14  1  0  0  0
 14 15  2  0  0  0
 15 10  1  0  0  0
  9  4  1  0  0  0
 22 17  1  0  0  0
 28 24  1  0  0  0
 28 29  1  0  0  0
M  END
> <minimizedAffinity>
-7.30915

> <CNNscore>
0.3964598775

> <CNNaffinity>
6.8277044296

> <CNN_VS>
2.7069108486

> <CNNaffinity_variance>
0.1605705619

$$$$
[H]c1nc(-c2c([H])c([H])c(OC([H])([H])C([H])([H])C([H])([H])N3C([H])([H])C([H])([H])C([H])(C([H])([H])c4c([H])nc([H])n4[H])C([H])([H])C3([H])[H])c([H])c2[H])nc([H])c1[H]


 29 32  0  0  0  0  0  0  0  0999 V2000
   -0.4971   21.7990  -23.7422 C   0  0  0  0  0  0  0  0  0  0  0  0
    0.6550   22.1957  -24.6463 C   0  0  0  0  0  0  0  0  0  0  0  0
    0.3659   21.7223  -25.9258 O   0  0  0  0  0  0  0  0  0  0  0  0
   -2.6472   23.3711  -28.3858 C   0  0  0  0  0  0  0  0  0  0  0  0
   -1.3149   23.4541  -28.7275 C   0  0  0  0  0  0  0  0  0  0  0  0
   -0.3189   22.9113  -27.9180 C   0  0  0  0  0  0  0  0  0  0  0  0
   -0.6328   22.2684  -26.7405 C   0  0  0  0  0  0  0  0  0  0  0  0
   -1.9672   22.1880  -26.4033 C   0  0  0  0  0  0  0  0  0  0  0  0
   -2.9633   22.7286  -27.2086 C   0  0  0  0  0  0  0  0  0  0  0  0
   -5.6041   25.0662  -30.8508 C   0  0  0  0  0  0  0  0  0  0  0  0
   -4.4786   25.7768  -30.4958 C   0  0  0  0  0  0  0  0  0  0  0  0
   -3.5581   25.1966  -29.7058 N   0  0  0  0  0  0  0  0  0  0  0  0
   -3.6829   23.9426  -29.2397 C   0  0  0  0  0  0  0  0  0  0  0  0
   -4.7788   23.2561  -29.5877 N   0  0  0  0  0  0  0  0  0  0  0  0
   -5.7446   23.7849  -30.3822 C   0  0  0  0  0  0  0  0  0  0  0  0
   -0.8766   22.9983  -22.9036 C   0  0  0  0  0  0  0  0  0  0  0  0
   -2.1359   22.8075  -22.2079 N   0  0  0  0  0  0  0  0  0  0  0  0
   -2.9780   23.9446  -22.5281 C   0  0  0  0  0  0  0  0  0  0  0  0
   -3.7718   23.6248  -23.8011 C   0  0  0  0  0  0  0  0  0  0  0  0
   -4.8409   22.6463  -23.3865 C   0  0  0  0  0  0  0  0  0  0  0  0
   -4.2129   21.5553  -22.5875 C   0  0  0  0  0  0  0  0  0  0  0  0
   -2.7049   21.5624  -22.6789 C   0  0  0  0  0  0  0  0  0  0  0  0
   -5.6335   22.1362  -24.5668 C   0  0  0  0  0  0  0  0  0  0  0  0
   -6.4256   23.2549  -25.1152 C   0  0  0  0  0  0  0  0  0  0  0  0
   -6.5556   23.6478  -26.4205 C   0  0  0  0  0  0  0  0  0  0  0  0
   -7.3646   24.7031  -26.4746 N   0  0  0  0  0  0  0  0  0  0  0  0
   -7.7525   24.9897  -25.2277 C   0  0  0  0  0  0  0  0  0  0  0  0
   -7.1778   24.1049  -24.4044 N   0  0  0  0  0  0  0  0  0  0  0  0
   -7.3037   24.0864  -23.3533 H   0  0  0  0  0  0  0  0  0  0  0  0
 10 11  2  0  0  0
 11 12  1  0  0  0
 12 13  2  0  0  0
 13  4  1  0  0  0
  4  5  2  0  0  0
  5  6  1  0  0  0
  6  7  2  0  0  0
  7  3  1  0  0  0
  3  2  1  0  0  0
  2  1  1  0  0  0
  1 16  1  0  0  0
 16 17  1  0  0  0
 17 18  1  0  0  0
 18 19  1  0  0  0
 19 20  1  0  0  0
 20 23  1  0  0  0
 23 24  1  0  0  0
 24 25  2  0  0  0
 25 26  1  0  0  0
 26 27  2  0  0  0
 27 28  1  0  0  0
 20 21  1  0  0  0
 21 22  1  0  0  0
  7  8  1  0  0  0
  8  9  2  0  0  0
 13 14  1  0  0  0
 14 15  2  0  0  0
 15 10  1  0  0  0
  9  4  1  0  0  0
 22 17  1  0  0  0
 28 24  1  0  0  0
 28 29  1  0  0  0
M  END
> <minimizedAffinity>
-8.01776

> <CNNscore>
0.3946901858

> <CNNaffinity>
6.6774520874

> <CNN_VS>
2.6355247498

> <CNNaffinity_variance>
0.7997339964

$$$$
[H]c1nc(-c2c([H])c([H])c(OC([H])([H])C([H])([H])C([H])([H])N3C([H])([H])C([H])([H])C([H])(C([H])([H])c4c([H])nc([H])n4[H])C([H])([H])C3([H])[H])c([H])c2[H])nc([H])c1[H]


 29 32  0  0  0  0  0  0  0  0999 V2000
   -7.7011   24.5117  -23.0831 C   0  0  0  0  0  0  0  0  0  0  0  0
   -7.2496   23.6075  -21.9514 C   0  0  0  0  0  0  0  0  0  0  0  0
   -6.7308   22.4466  -22.5239 O   0  0  0  0  0  0  0  0  0  0  0  0
   -3.1007   22.3456  -24.6828 C   0  0  0  0  0  0  0  0  0  0  0  0
   -3.1362   22.7029  -23.3524 C   0  0  0  0  0  0  0  0  0  0  0  0
   -4.3321   22.7372  -22.6378 C   0  0  0  0  0  0  0  0  0  0  0  0
   -5.5283   22.4130  -23.2396 C   0  0  0  0  0  0  0  0  0  0  0  0
   -5.4873   22.0561  -24.5707 C   0  0  0  0  0  0  0  0  0  0  0  0
   -4.2959   22.0209  -25.2865 C   0  0  0  0  0  0  0  0  0  0  0  0
    0.4969   22.2696  -26.8610 C   0  0  0  0  0  0  0  0  0  0  0  0
   -0.6811   22.6816  -27.4443 C   0  0  0  0  0  0  0  0  0  0  0  0
   -1.8085   22.6904  -26.7116 N   0  0  0  0  0  0  0  0  0  0  0  0
   -1.8437   22.3127  -25.4226 C   0  0  0  0  0  0  0  0  0  0  0  0
   -0.6958   21.9132  -24.8602 N   0  0  0  0  0  0  0  0  0  0  0  0
    0.4757   21.8814  -25.5457 C   0  0  0  0  0  0  0  0  0  0  0  0
   -6.6844   25.6197  -23.2395 C   0  0  0  0  0  0  0  0  0  0  0  0
   -6.7783   26.2749  -24.5310 N   0  0  0  0  0  0  0  0  0  0  0  0
   -5.4886   26.8840  -24.7964 C   0  0  0  0  0  0  0  0  0  0  0  0
   -4.6010   25.8603  -25.5157 C   0  0  0  0  0  0  0  0  0  0  0  0
   -5.1222   25.7818  -26.9281 C   0  0  0  0  0  0  0  0  0  0  0  0
   -6.6026   25.6093  -26.8872 C   0  0  0  0  0  0  0  0  0  0  0  0
   -7.1088   25.2587  -25.5077 C   0  0  0  0  0  0  0  0  0  0  0  0
   -4.4224   24.7128  -27.7337 C   0  0  0  0  0  0  0  0  0  0  0  0
   -4.8520   24.8333  -29.1410 C   0  0  0  0  0  0  0  0  0  0  0  0
   -5.4900   23.9051  -29.9199 C   0  0  0  0  0  0  0  0  0  0  0  0
   -5.6925   24.4227  -31.1291 N   0  0  0  0  0  0  0  0  0  0  0  0
   -5.1952   25.6637  -31.1349 C   0  0  0  0  0  0  0  0  0  0  0  0
   -4.6848   25.9082  -29.9221 N   0  0  0  0  0  0  0  0  0  0  0  0
   -4.2216   26.8151  -29.6325 H   0  0  0  0  0  0  0  0  0  0  0  0
 10 11  2  0  0  0
 11 12  1  0  0  0
 12 13  2  0  0  0
 13  4  1  0  0  0
  4  5  2  0  0  0
  5  6  1  0  0  0
  6  7  2  0  0  0
  7  3  1  0  0  0
  3  2  1  0  0  0
  2  1  1  0  0  0
  1 16  1  0  0  0
 16 17  1  0  0  0
 17 18  1  0  0  0
 18 19  1  0  0  0
 19 20  1  0  0  0
 20 23  1  0  0  0
 23 24  1  0  0  0
 24 25  2  0  0  0
 25 26  1  0  0  0
 26 27  2  0  0  0
 27 28  1  0  0  0
 20 21  1  0  0  0
 21 22  1  0  0  0
  7  8  1  0  0  0
  8  9  2  0  0  0
 13 14  1  0  0  0
 14 15  2  0  0  0
 15 10  1  0  0  0
  9  4  1  0  0  0
 22 17  1  0  0  0
 28 24  1  0  0  0
 28 29  1  0  0  0
M  END
> <minimizedAffinity>
-7.90394

> <CNNscore>
0.3340659142

> <CNNaffinity>
6.6776275635

> <CNN_VS>
2.2307677269

> <CNNaffinity_variance>
0.5595685244

$$$$
[H]c1nc(-c2c([H])c([H])c(OC([H])([H])C([H])([H])C([H])([H])N3C([H])([H])C([H])([H])C([H])(C([H])([H])c4c([H])nc([H])n4[H])C([H])([H])C3([H])[H])c([H])c2[H])nc([H])c1[H]


 29 32  0  0  0  0  0  0  0  0999 V2000
   -7.6402   25.2349  -22.9246 C   0  0  0  0  0  0  0  0  0  0  0  0
   -6.7609   25.2281  -21.6882 C   0  0  0  0  0  0  0  0  0  0  0  0
   -6.3262   23.9179  -21.4901 O   0  0  0  0  0  0  0  0  0  0  0  0
   -2.4192   22.6048  -22.4175 C   0  0  0  0  0  0  0  0  0  0  0  0
   -2.7738   23.9326  -22.5169 C   0  0  0  0  0  0  0  0  0  0  0  0
   -4.0618   24.3687  -22.2118 C   0  0  0  0  0  0  0  0  0  0  0  0
   -5.0319   23.4824  -21.7973 C   0  0  0  0  0  0  0  0  0  0  0  0
   -4.6719   22.1551  -21.6994 C   0  0  0  0  0  0  0  0  0  0  0  0
   -3.3878   21.7169  -22.0031 C   0  0  0  0  0  0  0  0  0  0  0  0
    1.4728   21.3431  -23.3939 C   0  0  0  0  0  0  0  0  0  0  0  0
    0.7421   22.1321  -24.2549 C   0  0  0  0  0  0  0  0  0  0  0  0
   -0.4985   22.5129  -23.9032 N   0  0  0  0  0  0  0  0  0  0  0  0
   -1.0682   22.1579  -22.7393 C   0  0  0  0  0  0  0  0  0  0  0  0
   -0.3537   21.3908  -21.9058 N   0  0  0  0  0  0  0  0  0  0  0  0
    0.9037   20.9731  -22.2021 C   0  0  0  0  0  0  0  0  0  0  0  0
   -6.9602   26.0699  -23.9857 C   0  0  0  0  0  0  0  0  0  0  0  0
   -6.9435   25.4105  -25.2784 N   0  0  0  0  0  0  0  0  0  0  0  0
   -5.7918   25.9159  -26.0015 C   0  0  0  0  0  0  0  0  0  0  0  0
   -4.5799   25.0352  -25.6720 C   0  0  0  0  0  0  0  0  0  0  0  0
   -4.7881   23.7469  -26.4267 C   0  0  0  0  0  0  0  0  0  0  0  0
   -6.1742   23.2587  -26.1748 C   0  0  0  0  0  0  0  0  0  0  0  0
   -6.8485   23.9865  -25.0356 C   0  0  0  0  0  0  0  0  0  0  0  0
   -3.7293   22.7200  -26.1014 C   0  0  0  0  0  0  0  0  0  0  0  0
   -2.6186   22.8750  -27.0617 C   0  0  0  0  0  0  0  0  0  0  0  0
   -2.6737   23.2675  -28.3725 C   0  0  0  0  0  0  0  0  0  0  0  0
   -1.4407   23.2730  -28.8731 N   0  0  0  0  0  0  0  0  0  0  0  0
   -0.6009   22.8913  -27.9053 C   0  0  0  0  0  0  0  0  0  0  0  0
   -1.3236   22.6503  -26.8050 N   0  0  0  0  0  0  0  0  0  0  0  0
   -0.9249   22.3312  -25.8775 H   0  0  0  0  0  0  0  0  0  0  0  0
 10 11  2  0  0  0
 11 12  1  0  0  0
 12 13  2  0  0  0
 13  4  1  0  0  0
  4  5  2  0  0  0
  5  6  1  0  0  0
  6  7  2  0  0  0
  7  3  1  0  0  0
  3  2  1  0  0  0
  2  1  1  0  0  0
  1 16  1  0  0  0
 16 17  1  0  0  0
 17 18  1  0  0  0
 18 19  1  0  0  0
 19 20  1  0  0  0
 20 23  1  0  0  0
 23 24  1  0  0  0
 24 25  2  0  0  0
 25 26  1  0  0  0
 26 27  2  0  0  0
 27 28  1  0  0  0
 20 21  1  0  0  0
 21 22  1  0  0  0
  7  8  1  0  0  0
  8  9  2  0  0  0
 13 14  1  0  0  0
 14 15  2  0  0  0
 15 10  1  0  0  0
  9  4  1  0  0  0
 22 17  1  0  0  0
 28 24  1  0  0  0
 28 29  1  0  0  0
M  END
> <minimizedAffinity>
-6.66067

> <CNNscore>
0.2661899924

> <CNNaffinity>
6.5967550278

> <CNN_VS>
1.7559901476

> <CNNaffinity_variance>
0.2091035098

$$$$
[H]c1nc(-c2c([H])c([H])c(OC([H])([H])C([H])([H])C([H])([H])N3C([H])([H])C([H])([H])C([H])(C([H])([H])c4c([H])nc([H])n4[H])C([H])([H])C3([H])[H])c([H])c2[H])nc([H])c1[H]


 29 32  0  0  0  0  0  0  0  0999 V2000
   -6.8541   23.3598  -22.0173 C   0  0  0  0  0  0  0  0  0  0  0  0
   -5.9687   23.5887  -20.8066 C   0  0  0  0  0  0  0  0  0  0  0  0
   -5.1022   22.5004  -20.7091 O   0  0  0  0  0  0  0  0  0  0  0  0
   -1.2426   22.7514  -19.0094 C   0  0  0  0  0  0  0  0  0  0  0  0
   -1.4490   22.9516  -20.3571 C   0  0  0  0  0  0  0  0  0  0  0  0
   -2.7209   22.8694  -20.9205 C   0  0  0  0  0  0  0  0  0  0  0  0
   -3.8236   22.5834  -20.1455 C   0  0  0  0  0  0  0  0  0  0  0  0
   -3.6117   22.3841  -18.7979 C   0  0  0  0  0  0  0  0  0  0  0  0
   -2.3440   22.4654  -18.2327 C   0  0  0  0  0  0  0  0  0  0  0  0
    2.6205   23.0452  -17.3716 C   0  0  0  0  0  0  0  0  0  0  0  0
    2.2290   23.8454  -18.4224 C   0  0  0  0  0  0  0  0  0  0  0  0
    0.9846   23.7186  -18.9157 N   0  0  0  0  0  0  0  0  0  0  0  0
    0.0929   22.8394  -18.4288 C   0  0  0  0  0  0  0  0  0  0  0  0
    0.4785   22.0639  -17.4072 N   0  0  0  0  0  0  0  0  0  0  0  0
    1.7204   22.1432  -16.8644 C   0  0  0  0  0  0  0  0  0  0  0  0
   -6.0058   22.7688  -23.1203 C   0  0  0  0  0  0  0  0  0  0  0  0
   -5.6237   23.7578  -24.1112 N   0  0  0  0  0  0  0  0  0  0  0  0
   -4.1926   23.9594  -23.9847 C   0  0  0  0  0  0  0  0  0  0  0  0
   -3.4729   22.9515  -24.8898 C   0  0  0  0  0  0  0  0  0  0  0  0
   -3.6603   23.4541  -26.2986 C   0  0  0  0  0  0  0  0  0  0  0  0
   -5.1016   23.7723  -26.5097 C   0  0  0  0  0  0  0  0  0  0  0  0
   -5.9836   23.2292  -25.4100 C   0  0  0  0  0  0  0  0  0  0  0  0
   -3.1090   22.4915  -27.3237 C   0  0  0  0  0  0  0  0  0  0  0  0
   -1.6403   22.6378  -27.3584 C   0  0  0  0  0  0  0  0  0  0  0  0
   -0.8542   23.1061  -28.3772 C   0  0  0  0  0  0  0  0  0  0  0  0
    0.4188   23.0705  -27.9909 N   0  0  0  0  0  0  0  0  0  0  0  0
    0.4582   22.5882  -26.7446 C   0  0  0  0  0  0  0  0  0  0  0  0
   -0.7981   22.3265  -26.3648 N   0  0  0  0  0  0  0  0  0  0  0  0
   -1.0753   21.9337  -25.4215 H   0  0  0  0  0  0  0  0  0  0  0  0
 10 11  2  0  0  0
 11 12  1  0  0  0
 12 13  2  0  0  0
 13  4  1  0  0  0
  4  5  2  0  0  0
  5  6  1  0  0  0
  6  7  2  0  0  0
  7  3  1  0  0  0
  3  2  1  0  0  0
  2  1  1  0  0  0
  1 16  1  0  0  0
 16 17  1  0  0  0
 17 18  1  0  0  0
 18 19  1  0  0  0
 19 20  1  0  0  0
 20 23  1  0  0  0
 23 24  1  0  0  0
 24 25  2  0  0  0
 25 26  1  0  0  0
 26 27  2  0  0  0
 27 28  1  0  0  0
 20 21  1  0  0  0
 21 22  1  0  0  0
  7  8  1  0  0  0
  8  9  2  0  0  0
 13 14  1  0  0  0
 14 15  2  0  0  0
 15 10  1  0  0  0
  9  4  1  0  0  0
 22 17  1  0  0  0
 28 24  1  0  0  0
 28 29  1  0  0  0
M  END
> <minimizedAffinity>
-6.48055

> <CNNscore>
0.2624872923

> <CNNaffinity>
6.2205772400

> <CNN_VS>
1.6328225136

> <CNNaffinity_variance>
0.1990007460

$$$$
[H]c1nc(-c2c([H])c([H])c(OC([H])([H])C([H])([H])C([H])([H])N3C([H])([H])C([H])([H])C([H])(C([H])([H])c4c([H])nc([H])n4[H])C([H])([H])C3([H])[H])c([H])c2[H])nc([H])c1[H]


 29 32  0  0  0  0  0  0  0  0999 V2000
   -4.8445   22.1711  -20.4565 C   0  0  0  0  0  0  0  0  0  0  0  0
   -6.1127   21.7465  -19.7399 C   0  0  0  0  0  0  0  0  0  0  0  0
   -6.5270   22.8188  -18.9504 O   0  0  0  0  0  0  0  0  0  0  0  0
   -9.0347   25.9105  -20.3652 C   0  0  0  0  0  0  0  0  0  0  0  0
   -7.6764   26.0946  -20.2238 C   0  0  0  0  0  0  0  0  0  0  0  0
   -6.8468   25.0767  -19.7573 C   0  0  0  0  0  0  0  0  0  0  0  0
   -7.3583   23.8429  -19.4191 C   0  0  0  0  0  0  0  0  0  0  0  0
   -8.7178   23.6638  -19.5625 C   0  0  0  0  0  0  0  0  0  0  0  0
   -9.5482   24.6773  -20.0275 C   0  0  0  0  0  0  0  0  0  0  0  0
  -11.5308   28.9686  -21.8179 C   0  0  0  0  0  0  0  0  0  0  0  0
  -11.4287   27.7606  -22.4721 C   0  0  0  0  0  0  0  0  0  0  0  0
  -10.6188   26.8103  -21.9732 N   0  0  0  0  0  0  0  0  0  0  0  0
   -9.8952   26.9823  -20.8542 C   0  0  0  0  0  0  0  0  0  0  0  0
   -9.9981   28.1585  -20.2219 N   0  0  0  0  0  0  0  0  0  0  0  0
  -10.7978   29.1580  -20.6743 C   0  0  0  0  0  0  0  0  0  0  0  0
   -5.0652   22.0148  -21.9440 C   0  0  0  0  0  0  0  0  0  0  0  0
   -4.3664   23.0274  -22.7137 N   0  0  0  0  0  0  0  0  0  0  0  0
   -2.9550   22.6933  -22.6782 C   0  0  0  0  0  0  0  0  0  0  0  0
   -2.6423   21.7575  -23.8527 C   0  0  0  0  0  0  0  0  0  0  0  0
   -2.6506   22.6248  -25.0856 C   0  0  0  0  0  0  0  0  0  0  0  0
   -3.8891   23.4549  -25.0833 C   0  0  0  0  0  0  0  0  0  0  0  0
   -4.8982   22.9901  -24.0596 C   0  0  0  0  0  0  0  0  0  0  0  0
   -2.4804   21.8168  -26.3504 C   0  0  0  0  0  0  0  0  0  0  0  0
   -1.3455   22.3755  -27.1116 C   0  0  0  0  0  0  0  0  0  0  0  0
   -0.0189   22.3955  -26.7722 C   0  0  0  0  0  0  0  0  0  0  0  0
    0.6655   22.9959  -27.7429 N   0  0  0  0  0  0  0  0  0  0  0  0
   -0.2007   23.3588  -28.6945 C   0  0  0  0  0  0  0  0  0  0  0  0
   -1.4232   22.9786  -28.3048 N   0  0  0  0  0  0  0  0  0  0  0  0
   -2.3108   23.1344  -28.8605 H   0  0  0  0  0  0  0  0  0  0  0  0
 10 11  2  0  0  0
 11 12  1  0  0  0
 12 13  2  0  0  0
 13  4  1  0  0  0
  4  5  2  0  0  0
  5  6  1  0  0  0
  6  7  2  0  0  0
  7  3  1  0  0  0
  3  2  1  0  0  0
  2  1  1  0  0  0
  1 16  1  0  0  0
 16 17  1  0  0  0
 17 18  1  0  0  0
 18 19  1  0  0  0
 19 20  1  0  0  0
 20 23  1  0  0  0
 23 24  1  0  0  0
 24 25  2  0  0  0
 25 26  1  0  0  0
 26 27  2  0  0  0
 27 28  1  0  0  0
 20 21  1  0  0  0
 21 22  1  0  0  0
  7  8  1  0  0  0
  8  9  2  0  0  0
 13 14  1  0  0  0
 14 15  2  0  0  0
 15 10  1  0  0  0
  9  4  1  0  0  0
 22 17  1  0  0  0
 28 24  1  0  0  0
 28 29  1  0  0  0
M  END
> <minimizedAffinity>
-6.68109

> <CNNscore>
0.2207489312

> <CNNaffinity>
5.7698163986

> <CNN_VS>
1.2736808062

> <CNNaffinity_variance>
0.1876951009

$$$$
[H]c1nc(-c2c([H])c([H])c(OC([H])([H])C([H])([H])C([H])([H])N3C([H])([H])C([H])([H])C([H])(C([H])([H])c4c([H])nc([H])n4[H])C([H])([H])C3([H])[H])c([H])c2[H])nc([H])c1[H]


 29 32  0  0  0  0  0  0  0  0999 V2000
   -7.3946   24.4817  -25.3879 C   0  0  0  0  0  0  0  0  0  0  0  0
   -7.7858   24.8842  -23.9783 C   0  0  0  0  0  0  0  0  0  0  0  0
   -7.2022   23.9683  -23.1036 O   0  0  0  0  0  0  0  0  0  0  0  0
   -9.2657   22.2215  -19.8571 C   0  0  0  0  0  0  0  0  0  0  0  0
   -9.4665   23.5378  -20.2120 C   0  0  0  0  0  0  0  0  0  0  0  0
   -8.7872   24.1166  -21.2823 C   0  0  0  0  0  0  0  0  0  0  0  0
   -7.8856   23.3891  -22.0280 C   0  0  0  0  0  0  0  0  0  0  0  0
   -7.6885   22.0727  -21.6689 C   0  0  0  0  0  0  0  0  0  0  0  0
   -8.3646   21.4922  -20.6016 C   0  0  0  0  0  0  0  0  0  0  0  0
  -11.2842   20.4699  -16.6090 C   0  0  0  0  0  0  0  0  0  0  0  0
   -9.9793   20.1381  -16.9002 C   0  0  0  0  0  0  0  0  0  0  0  0
   -9.3717   20.7220  -17.9479 N   0  0  0  0  0  0  0  0  0  0  0  0
   -9.9815   21.6244  -18.7348 C   0  0  0  0  0  0  0  0  0  0  0  0
  -11.2500   21.9436  -18.4474 N   0  0  0  0  0  0  0  0  0  0  0  0
  -11.9191   21.3898  -17.4039 C   0  0  0  0  0  0  0  0  0  0  0  0
   -6.7491   25.6726  -26.0594 C   0  0  0  0  0  0  0  0  0  0  0  0
   -5.9333   25.2883  -27.1964 N   0  0  0  0  0  0  0  0  0  0  0  0
   -4.5759   25.7144  -26.9125 C   0  0  0  0  0  0  0  0  0  0  0  0
   -3.8530   24.5858  -26.1663 C   0  0  0  0  0  0  0  0  0  0  0  0
   -3.5591   23.5289  -27.2002 C   0  0  0  0  0  0  0  0  0  0  0  0
   -4.8025   23.2536  -27.9757 C   0  0  0  0  0  0  0  0  0  0  0  0
   -6.0324   23.8504  -27.3327 C   0  0  0  0  0  0  0  0  0  0  0  0
   -2.9547   22.2873  -26.5882 C   0  0  0  0  0  0  0  0  0  0  0  0
   -1.4845   22.4169  -26.6263 C   0  0  0  0  0  0  0  0  0  0  0  0
   -0.6863   22.7609  -27.6845 C   0  0  0  0  0  0  0  0  0  0  0  0
    0.5833   22.7589  -27.2855 N   0  0  0  0  0  0  0  0  0  0  0  0
    0.6086   22.4200  -25.9924 C   0  0  0  0  0  0  0  0  0  0  0  0
   -0.6529   22.2130  -25.5965 N   0  0  0  0  0  0  0  0  0  0  0  0
   -0.9410   21.9314  -24.6174 H   0  0  0  0  0  0  0  0  0  0  0  0
 10 11  2  0  0  0
 11 12  1  0  0  0
 12 13  2  0  0  0
 13  4  1  0  0  0
  4  5  2  0  0  0
  5  6  1  0  0  0
  6  7  2  0  0  0
  7  3  1  0  0  0
  3  2  1  0  0  0
  2  1  1  0  0  0
  1 16  1  0  0  0
 16 17  1  0  0  0
 17 18  1  0  0  0
 18 19  1  0  0  0
 19 20  1  0  0  0
 20 23  1  0  0  0
 23 24  1  0  0  0
 24 25  2  0  0  0
 25 26  1  0  0  0
 26 27  2  0  0  0
 27 28  1  0  0  0
 20 21  1  0  0  0
 21 22  1  0  0  0
  7  8  1  0  0  0
  8  9  2  0  0  0
 13 14  1  0  0  0
 14 15  2  0  0  0
 15 10  1  0  0  0
  9  4  1  0  0  0
 22 17  1  0  0  0
 28 24  1  0  0  0
 28 29  1  0  0  0
M  END
> <minimizedAffinity>
-7.18918

> <CNNscore>
0.1992889643

> <CNNaffinity>
6.0189652443

> <CNN_VS>
1.1995133162

> <CNNaffinity_variance>
0.1274125874

$$$$
[H]OC(=O)[C@]1([H])N([H])[C@@]([H])(C([H])([H])C([H])([H])c2c([H])c([H])c([H])c([H])c2[H])C(=O)N([H])[C@]([H])(C(=O)N([H])C([H])([H])[H])C([H])([H])C([H])([H])C(=O)OC([H])([H])C([H])([H])N([H])C(=O)C([H])([H])C1([H])[H]


 39 40  0  0  0  0  0  0  0  0999 V2000
   -1.4723   18.9562  -17.8489 C   0  0  0  0  0  0  0  0  0  0  0  0
   -1.1722   19.6492  -16.5607 C   0  0  0  0  0  0  0  0  0  0  0  0
   -2.2976   19.8243  -15.6026 C   0  0  0  0  0  0  0  0  0  0  0  0
   -2.2355   21.1981  -14.9815 C   0  0  0  0  0  0  0  0  0  0  0  0
   -2.9807   22.0888  -15.5160 O   0  0  0  0  0  0  0  0  0  0  0  0
   -1.4485   21.5205  -13.9143 O   0  0  0  0  0  0  0  0  0  0  0  0
   -0.0954   21.3063  -13.7158 C   0  0  0  0  0  0  0  0  0  0  0  0
    0.7925   22.4807  -14.1280 C   0  0  0  0  0  0  0  0  0  0  0  0
    2.1345   21.9934  -14.2904 N   0  0  0  0  0  0  0  0  0  0  0  0
    3.1330   22.5238  -15.1374 C   0  0  0  0  0  0  0  0  0  0  0  0
    4.3220   22.7087  -14.7017 O   0  0  0  0  0  0  0  0  0  0  0  0
    2.9132   22.9064  -16.5659 C   0  0  0  0  0  0  0  0  0  0  0  0
    2.0246   21.9368  -17.2741 C   0  0  0  0  0  0  0  0  0  0  0  0
    2.7307   20.7742  -17.9389 C   0  0  0  0  0  0  0  0  0  0  0  0
    1.7430   19.9813  -18.6113 N   0  0  0  0  0  0  0  0  0  0  0  0
    0.9944   20.5163  -19.6616 C   0  0  0  0  0  0  0  0  0  0  0  0
   -0.4572   20.7380  -19.4129 C   0  0  0  0  0  0  0  0  0  0  0  0
   -0.8544   21.9392  -19.6170 O   0  0  0  0  0  0  0  0  0  0  0  0
   -1.4299   19.8449  -19.0006 N   0  0  0  0  0  0  0  0  0  0  0  0
    2.4168   21.1469  -13.7149 H   0  0  0  0  0  0  0  0  0  0  0  0
    2.0354   19.0070  -18.6282 H   0  0  0  0  0  0  0  0  0  0  0  0
   -2.3128   19.7724  -19.6099 H   0  0  0  0  0  0  0  0  0  0  0  0
   -5.1090   17.8589  -18.3903 C   0  0  0  0  0  0  0  0  0  0  0  0
   -3.8752   18.6006  -18.4492 N   0  0  0  0  0  0  0  0  0  0  0  0
   -2.7214   18.1802  -17.7726 C   0  0  0  0  0  0  0  0  0  0  0  0
   -2.7570   17.1374  -17.0995 O   0  0  0  0  0  0  0  0  0  0  0  0
   -3.8418   19.4762  -19.0118 H   0  0  0  0  0  0  0  0  0  0  0  0
    3.8887   21.1845  -18.7297 C   0  0  0  0  0  0  0  0  0  0  0  0
    3.8884   21.9461  -19.7239 O   0  0  0  0  0  0  0  0  0  0  0  0
    5.1360   20.6668  -18.3346 O   0  0  0  0  0  0  0  0  0  0  0  0
    5.4415   19.8480  -18.8433 H   0  0  0  0  0  0  0  0  0  0  0  0
    1.1726   19.7638  -20.9855 C   0  0  0  0  0  0  0  0  0  0  0  0
    1.1650   18.2869  -20.7845 C   0  0  0  0  0  0  0  0  0  0  0  0
    2.3887   17.6429  -21.3590 C   0  0  0  0  0  0  0  0  0  0  0  0
    2.4258   16.3397  -21.7504 C   0  0  0  0  0  0  0  0  0  0  0  0
    3.6205   15.8577  -22.2718 C   0  0  0  0  0  0  0  0  0  0  0  0
    4.7420   16.6548  -22.3971 C   0  0  0  0  0  0  0  0  0  0  0  0
    4.6901   17.9697  -21.9975 C   0  0  0  0  0  0  0  0  0  0  0  0
    3.5044   18.4401  -21.4824 C   0  0  0  0  0  0  0  0  0  0  0  0
 23 24  1  0  0  0
 24 25  1  0  0  0
 25 26  2  0  0  0
 25  1  1  0  0  0
  1  2  1  0  0  0
  2  3  1  0  0  0
  3  4  1  0  0  0
  4  5  2  0  0  0
  4  6  1  0  0  0
  6  7  1  0  0  0
  7  8  1  0  0  0
  8  9  1  0  0  0
  9 10  1  0  0  0
 10 11  2  0  0  0
 10 12  1  0  0  0
 12 13  1  0  0  0
 13 14  1  0  0  0
 14 28  1  0  0  0
 28 29  2  0  0  0
 28 30  1  0  0  0
 14 15  1  0  0  0
 15 16  1  0  0  0
 16 32  1  0  0  0
 32 33  1  0  0  0
 33 34  1  0  0  0
 34 35  2  0  0  0
 35 36  1  0  0  0
 36 37  2  0  0  0
 37 38  1  0  0  0
 38 39  2  0  0  0
 16 17  1  0  0  0
 17 18  2  0  0  0
 17 19  1  0  0  0
 19  1  1  0  0  0
 39 34  1  0  0  0
 24 27  1  0  0  0
  9 20  1  0  0  0
 30 31  1  0  0  0
 15 21  1  0  0  0
 19 22  1  0  0  0
M  END
> <minimizedAffinity>
-4.76556

> <CNNscore>
0.3208651245

> <CNNaffinity>
4.4979557991

> <CNN_VS>
1.4432371855

> <CNNaffinity_variance>
0.4866300225

$$$$
[H]OC(=O)[C@]1([H])N([H])[C@@]([H])(C([H])([H])C([H])([H])c2c([H])c([H])c([H])c([H])c2[H])C(=O)N([H])[C@]([H])(C(=O)N([H])C([H])([H])[H])C([H])([H])C([H])([H])C(=O)OC([H])([H])C([H])([H])N([H])C(=O)C([H])([H])C1([H])[H]


 39 40  0  0  0  0  0  0  0  0999 V2000
   -3.3712   22.3952  -19.5336 C   0  0  0  0  0  0  0  0  0  0  0  0
   -3.5235   22.5162  -18.0531 C   0  0  0  0  0  0  0  0  0  0  0  0
   -2.3111   22.2838  -17.2218 C   0  0  0  0  0  0  0  0  0  0  0  0
   -2.6732   21.4798  -15.9973 C   0  0  0  0  0  0  0  0  0  0  0  0
   -2.4654   20.2206  -16.0722 O   0  0  0  0  0  0  0  0  0  0  0  0
   -3.1936   22.0167  -14.8558 O   0  0  0  0  0  0  0  0  0  0  0  0
   -4.2749   22.8650  -14.6896 C   0  0  0  0  0  0  0  0  0  0  0  0
   -5.5938   22.1495  -14.3959 C   0  0  0  0  0  0  0  0  0  0  0  0
   -6.6702   23.0585  -14.6784 N   0  0  0  0  0  0  0  0  0  0  0  0
   -7.9841   22.7212  -15.0724 C   0  0  0  0  0  0  0  0  0  0  0  0
   -8.9919   23.2796  -14.5151 O   0  0  0  0  0  0  0  0  0  0  0  0
   -8.3178   21.7222  -16.1335 C   0  0  0  0  0  0  0  0  0  0  0  0
   -7.3810   21.8051  -17.2940 C   0  0  0  0  0  0  0  0  0  0  0  0
   -7.7922   22.7607  -18.3939 C   0  0  0  0  0  0  0  0  0  0  0  0
   -6.8185   22.6748  -19.4431 N   0  0  0  0  0  0  0  0  0  0  0  0
   -6.6268   21.4807  -20.1410 C   0  0  0  0  0  0  0  0  0  0  0  0
   -5.3357   20.7706  -19.9240 C   0  0  0  0  0  0  0  0  0  0  0  0
   -5.4557   19.5561  -19.5329 O   0  0  0  0  0  0  0  0  0  0  0  0
   -4.0390   21.2252  -20.0843 N   0  0  0  0  0  0  0  0  0  0  0  0
   -6.4677   24.0963  -14.5806 H   0  0  0  0  0  0  0  0  0  0  0  0
   -6.7451   23.5703  -19.9202 H   0  0  0  0  0  0  0  0  0  0  0  0
   -3.3927   20.6395  -20.7129 H   0  0  0  0  0  0  0  0  0  0  0  0
    0.1901   21.4153  -20.5729 C   0  0  0  0  0  0  0  0  0  0  0  0
   -1.1909   21.3443  -20.1682 N   0  0  0  0  0  0  0  0  0  0  0  0
   -1.9613   22.4946  -19.9466 C   0  0  0  0  0  0  0  0  0  0  0  0
   -1.4436   23.6125  -20.1016 O   0  0  0  0  0  0  0  0  0  0  0  0
   -1.6282   20.4086  -20.0362 H   0  0  0  0  0  0  0  0  0  0  0  0
   -9.1916   22.6125  -18.7872 C   0  0  0  0  0  0  0  0  0  0  0  0
   -9.7723   21.5522  -19.1141 O   0  0  0  0  0  0  0  0  0  0  0  0
   -9.9684   23.7856  -18.8034 O   0  0  0  0  0  0  0  0  0  0  0  0
  -10.0610   24.2267  -19.7086 H   0  0  0  0  0  0  0  0  0  0  0  0
   -6.8917   21.6022  -21.6462 C   0  0  0  0  0  0  0  0  0  0  0  0
   -5.8786   22.4668  -22.3153 C   0  0  0  0  0  0  0  0  0  0  0  0
   -6.4560   23.1863  -23.4948 C   0  0  0  0  0  0  0  0  0  0  0  0
   -6.1370   22.8755  -24.7812 C   0  0  0  0  0  0  0  0  0  0  0  0
   -6.7418   23.6143  -25.7910 C   0  0  0  0  0  0  0  0  0  0  0  0
   -7.6370   24.6316  -25.5217 C   0  0  0  0  0  0  0  0  0  0  0  0
   -7.9498   24.9348  -24.2172 C   0  0  0  0  0  0  0  0  0  0  0  0
   -7.3476   24.1995  -23.2227 C   0  0  0  0  0  0  0  0  0  0  0  0
 23 24  1  0  0  0
 24 25  1  0  0  0
 25 26  2  0  0  0
 25  1  1  0  0  0
  1  2  1  0  0  0
  2  3  1  0  0  0
  3  4  1  0  0  0
  4  5  2  0  0  0
  4  6  1  0  0  0
  6  7  1  0  0  0
  7  8  1  0  0  0
  8  9  1  0  0  0
  9 10  1  0  0  0
 10 11  2  0  0  0
 10 12  1  0  0  0
 12 13  1  0  0  0
 13 14  1  0  0  0
 14 28  1  0  0  0
 28 29  2  0  0  0
 28 30  1  0  0  0
 14 15  1  0  0  0
 15 16  1  0  0  0
 16 32  1  0  0  0
 32 33  1  0  0  0
 33 34  1  0  0  0
 34 35  2  0  0  0
 35 36  1  0  0  0
 36 37  2  0  0  0
 37 38  1  0  0  0
 38 39  2  0  0  0
 16 17  1  0  0  0
 17 18  2  0  0  0
 17 19  1  0  0  0
 19  1  1  0  0  0
 39 34  1  0  0  0
 24 27  1  0  0  0
  9 20  1  0  0  0
 30 31  1  0  0  0
 15 21  1  0  0  0
 19 22  1  0  0  0
M  END
> <minimizedAffinity>
-6.63701

> <CNNscore>
0.3157608211

> <CNNaffinity>
5.2348690033

> <CNN_VS>
1.6529664993

> <CNNaffinity_variance>
0.4414824843

$$$$
[H]OC(=O)[C@]1([H])N([H])[C@@]([H])(C([H])([H])C([H])([H])c2c([H])c([H])c([H])c([H])c2[H])C(=O)N([H])[C@]([H])(C(=O)N([H])C([H])([H])[H])C([H])([H])C([H])([H])C(=O)OC([H])([H])C([H])([H])N([H])C(=O)C([H])([H])C1([H])[H]


 39 40  0  0  0  0  0  0  0  0999 V2000
   -2.7186   22.5260  -19.2100 C   0  0  0  0  0  0  0  0  0  0  0  0
   -1.6611   22.2026  -18.2066 C   0  0  0  0  0  0  0  0  0  0  0  0
   -0.3985   21.6016  -18.7165 C   0  0  0  0  0  0  0  0  0  0  0  0
    0.0599   20.5033  -17.7888 C   0  0  0  0  0  0  0  0  0  0  0  0
   -0.2613   19.3132  -18.1277 O   0  0  0  0  0  0  0  0  0  0  0  0
    0.7754   20.7157  -16.6464 O   0  0  0  0  0  0  0  0  0  0  0  0
    0.5265   21.5799  -15.5939 C   0  0  0  0  0  0  0  0  0  0  0  0
   -0.2464   20.9502  -14.4348 C   0  0  0  0  0  0  0  0  0  0  0  0
   -0.8100   22.0090  -13.6435 N   0  0  0  0  0  0  0  0  0  0  0  0
   -1.9794   21.9474  -12.8534 C   0  0  0  0  0  0  0  0  0  0  0  0
   -1.9809   22.4098  -11.6600 O   0  0  0  0  0  0  0  0  0  0  0  0
   -3.2773   21.3621  -13.3095 C   0  0  0  0  0  0  0  0  0  0  0  0
   -3.5724   21.6987  -14.7346 C   0  0  0  0  0  0  0  0  0  0  0  0
   -4.3443   22.9828  -14.9525 C   0  0  0  0  0  0  0  0  0  0  0  0
   -4.5861   23.1217  -16.3591 N   0  0  0  0  0  0  0  0  0  0  0  0
   -5.3638   22.1858  -17.0440 C   0  0  0  0  0  0  0  0  0  0  0  0
   -4.6623   21.3129  -18.0261 C   0  0  0  0  0  0  0  0  0  0  0  0
   -4.8128   20.0565  -17.8236 O   0  0  0  0  0  0  0  0  0  0  0  0
   -3.8824   21.6572  -19.1155 N   0  0  0  0  0  0  0  0  0  0  0  0
   -0.2991   22.9398  -13.6433 H   0  0  0  0  0  0  0  0  0  0  0  0
   -4.6255   24.1076  -16.6069 H   0  0  0  0  0  0  0  0  0  0  0  0
   -4.1546   21.2284  -20.0631 H   0  0  0  0  0  0  0  0  0  0  0  0
   -1.6912   21.5397  -22.7730 C   0  0  0  0  0  0  0  0  0  0  0  0
   -2.2199   21.4924  -21.4335 N   0  0  0  0  0  0  0  0  0  0  0  0
   -2.1709   22.5997  -20.5749 C   0  0  0  0  0  0  0  0  0  0  0  0
   -1.6570   23.6570  -20.9746 O   0  0  0  0  0  0  0  0  0  0  0  0
   -2.6507   20.6071  -21.0945 H   0  0  0  0  0  0  0  0  0  0  0  0
   -5.5051   23.1088  -14.0741 C   0  0  0  0  0  0  0  0  0  0  0  0
   -5.7661   24.0624  -13.3056 O   0  0  0  0  0  0  0  0  0  0  0  0
   -6.4255   22.0447  -14.0911 O   0  0  0  0  0  0  0  0  0  0  0  0
   -6.3052   21.3612  -13.3556 H   0  0  0  0  0  0  0  0  0  0  0  0
   -6.6099   22.7896  -17.7020 C   0  0  0  0  0  0  0  0  0  0  0  0
   -6.3888   24.2087  -18.1007 C   0  0  0  0  0  0  0  0  0  0  0  0
   -7.0716   24.5343  -19.3931 C   0  0  0  0  0  0  0  0  0  0  0  0
   -6.6829   25.5606  -20.1984 C   0  0  0  0  0  0  0  0  0  0  0  0
   -7.3947   25.7609  -21.3751 C   0  0  0  0  0  0  0  0  0  0  0  0
   -8.4613   24.9596  -21.7339 C   0  0  0  0  0  0  0  0  0  0  0  0
   -8.8431   23.9262  -20.9105 C   0  0  0  0  0  0  0  0  0  0  0  0
   -8.1342   23.7337  -19.7474 C   0  0  0  0  0  0  0  0  0  0  0  0
 23 24  1  0  0  0
 24 25  1  0  0  0
 25 26  2  0  0  0
 25  1  1  0  0  0
  1  2  1  0  0  0
  2  3  1  0  0  0
  3  4  1  0  0  0
  4  5  2  0  0  0
  4  6  1  0  0  0
  6  7  1  0  0  0
  7  8  1  0  0  0
  8  9  1  0  0  0
  9 10  1  0  0  0
 10 11  2  0  0  0
 10 12  1  0  0  0
 12 13  1  0  0  0
 13 14  1  0  0  0
 14 28  1  0  0  0
 28 29  2  0  0  0
 28 30  1  0  0  0
 14 15  1  0  0  0
 15 16  1  0  0  0
 16 32  1  0  0  0
 32 33  1  0  0  0
 33 34  1  0  0  0
 34 35  2  0  0  0
 35 36  1  0  0  0
 36 37  2  0  0  0
 37 38  1  0  0  0
 38 39  2  0  0  0
 16 17  1  0  0  0
 17 18  2  0  0  0
 17 19  1  0  0  0
 19  1  1  0  0  0
 39 34  1  0  0  0
 24 27  1  0  0  0
  9 20  1  0  0  0
 30 31  1  0  0  0
 15 21  1  0  0  0
 19 22  1  0  0  0
M  END
> <minimizedAffinity>
-5.63669

> <CNNscore>
0.2977686226

> <CNNaffinity>
4.7826232910

> <CNN_VS>
1.4241151810

> <CNNaffinity_variance>
0.2960999608

$$$$
[H]OC(=O)[C@]1([H])N([H])[C@@]([H])(C([H])([H])C([H])([H])c2c([H])c([H])c([H])c([H])c2[H])C(=O)N([H])[C@]([H])(C(=O)N([H])C([H])([H])[H])C([H])([H])C([H])([H])C(=O)OC([H])([H])C([H])([H])N([H])C(=O)C([H])([H])C1([H])[H]


 39 40  0  0  0  0  0  0  0  0999 V2000
   -4.7537   22.0317  -20.3374 C   0  0  0  0  0  0  0  0  0  0  0  0
   -5.6640   20.9880  -19.7789 C   0  0  0  0  0  0  0  0  0  0  0  0
   -7.1279   21.2415  -19.8687 C   0  0  0  0  0  0  0  0  0  0  0  0
   -7.8026   20.8194  -18.5867 C   0  0  0  0  0  0  0  0  0  0  0  0
   -8.0233   21.7490  -17.7373 O   0  0  0  0  0  0  0  0  0  0  0  0
   -8.1740   19.5371  -18.3037 O   0  0  0  0  0  0  0  0  0  0  0  0
   -7.4366   18.3673  -18.3685 C   0  0  0  0  0  0  0  0  0  0  0  0
   -6.7744   17.9695  -17.0491 C   0  0  0  0  0  0  0  0  0  0  0  0
   -5.7222   17.0349  -17.3389 N   0  0  0  0  0  0  0  0  0  0  0  0
   -4.5471   16.8198  -16.5849 C   0  0  0  0  0  0  0  0  0  0  0  0
   -4.1632   15.6309  -16.3074 O   0  0  0  0  0  0  0  0  0  0  0  0
   -3.6704   17.9099  -16.0572 C   0  0  0  0  0  0  0  0  0  0  0  0
   -3.5204   19.0292  -17.0348 C   0  0  0  0  0  0  0  0  0  0  0  0
   -2.3674   18.8931  -18.0065 C   0  0  0  0  0  0  0  0  0  0  0  0
   -2.3379   20.0686  -18.8273 N   0  0  0  0  0  0  0  0  0  0  0  0
   -2.1069   21.3251  -18.2638 C   0  0  0  0  0  0  0  0  0  0  0  0
   -3.2465   22.2842  -18.2600 C   0  0  0  0  0  0  0  0  0  0  0  0
   -3.5539   22.7403  -17.1025 O   0  0  0  0  0  0  0  0  0  0  0  0
   -4.0117   22.7519  -19.3133 N   0  0  0  0  0  0  0  0  0  0  0  0
   -5.8311   16.4352  -18.2084 H   0  0  0  0  0  0  0  0  0  0  0  0
   -1.9690   19.8383  -19.7470 H   0  0  0  0  0  0  0  0  0  0  0  0
   -4.0918   23.8187  -19.4198 H   0  0  0  0  0  0  0  0  0  0  0  0
   -6.3772   23.4115  -23.5286 C   0  0  0  0  0  0  0  0  0  0  0  0
   -5.6897   22.5519  -22.5988 N   0  0  0  0  0  0  0  0  0  0  0  0
   -5.4587   22.9287  -21.2683 C   0  0  0  0  0  0  0  0  0  0  0  0
   -5.8558   24.0365  -20.8722 O   0  0  0  0  0  0  0  0  0  0  0  0
   -5.3544   21.6226  -22.9277 H   0  0  0  0  0  0  0  0  0  0  0  0
   -1.1134   18.5174  -17.3575 C   0  0  0  0  0  0  0  0  0  0  0  0
   -0.5958   19.0570  -16.3529 O   0  0  0  0  0  0  0  0  0  0  0  0
   -0.4112   17.4370  -17.9229 O   0  0  0  0  0  0  0  0  0  0  0  0
    0.3306   17.6936  -18.5604 H   0  0  0  0  0  0  0  0  0  0  0  0
   -0.8587   22.0234  -18.8160 C   0  0  0  0  0  0  0  0  0  0  0  0
   -1.2133   23.1042  -19.7792 C   0  0  0  0  0  0  0  0  0  0  0  0
   -1.0835   22.6461  -21.1989 C   0  0  0  0  0  0  0  0  0  0  0  0
   -0.3178   21.5826  -21.5673 C   0  0  0  0  0  0  0  0  0  0  0  0
   -0.2802   21.2529  -22.9168 C   0  0  0  0  0  0  0  0  0  0  0  0
   -0.9863   21.9651  -23.8670 C   0  0  0  0  0  0  0  0  0  0  0  0
   -1.7557   23.0375  -23.4805 C   0  0  0  0  0  0  0  0  0  0  0  0
   -1.7884   23.3582  -22.1432 C   0  0  0  0  0  0  0  0  0  0  0  0
 23 24  1  0  0  0
 24 25  1  0  0  0
 25 26  2  0  0  0
 25  1  1  0  0  0
  1  2  1  0  0  0
  2  3  1  0  0  0
  3  4  1  0  0  0
  4  5  2  0  0  0
  4  6  1  0  0  0
  6  7  1  0  0  0
  7  8  1  0  0  0
  8  9  1  0  0  0
  9 10  1  0  0  0
 10 11  2  0  0  0
 10 12  1  0  0  0
 12 13  1  0  0  0
 13 14  1  0  0  0
 14 28  1  0  0  0
 28 29  2  0  0  0
 28 30  1  0  0  0
 14 15  1  0  0  0
 15 16  1  0  0  0
 16 32  1  0  0  0
 32 33  1  0  0  0
 33 34  1  0  0  0
 34 35  2  0  0  0
 35 36  1  0  0  0
 36 37  2  0  0  0
 37 38  1  0  0  0
 38 39  2  0  0  0
 16 17  1  0  0  0
 17 18  2  0  0  0
 17 19  1  0  0  0
 19  1  1  0  0  0
 39 34  1  0  0  0
 24 27  1  0  0  0
  9 20  1  0  0  0
 30 31  1  0  0  0
 15 21  1  0  0  0
 19 22  1  0  0  0
M  END
> <minimizedAffinity>
-5.42744

> <CNNscore>
0.2824703157

> <CNNaffinity>
4.8252806664

> <CNN_VS>
1.3629986048

> <CNNaffinity_variance>
0.2327447683

$$$$
[H]OC(=O)[C@]1([H])N([H])[C@@]([H])(C([H])([H])C([H])([H])c2c([H])c([H])c([H])c([H])c2[H])C(=O)N([H])[C@]([H])(C(=O)N([H])C([H])([H])[H])C([H])([H])C([H])([H])C(=O)OC([H])([H])C([H])([H])N([H])C(=O)C([H])([H])C1([H])[H]


 39 40  0  0  0  0  0  0  0  0999 V2000
   -4.2834   22.0173  -22.2461 C   0  0  0  0  0  0  0  0  0  0  0  0
   -4.3925   21.5586  -20.8293 C   0  0  0  0  0  0  0  0  0  0  0  0
   -5.6126   21.9572  -20.0757 C   0  0  0  0  0  0  0  0  0  0  0  0
   -5.2410   22.3553  -18.6685 C   0  0  0  0  0  0  0  0  0  0  0  0
   -5.0982   23.6085  -18.4599 O   0  0  0  0  0  0  0  0  0  0  0  0
   -5.0571   21.4703  -17.6462 O   0  0  0  0  0  0  0  0  0  0  0  0
   -4.2732   20.3305  -17.5925 C   0  0  0  0  0  0  0  0  0  0  0  0
   -2.8728   20.5588  -17.0231 C   0  0  0  0  0  0  0  0  0  0  0  0
   -2.0421   19.4550  -17.4183 N   0  0  0  0  0  0  0  0  0  0  0  0
   -0.6419   19.4710  -17.6046 C   0  0  0  0  0  0  0  0  0  0  0  0
    0.0889   18.5440  -17.1100 O   0  0  0  0  0  0  0  0  0  0  0  0
    0.0973   20.5252  -18.3647 C   0  0  0  0  0  0  0  0  0  0  0  0
   -0.6430   20.9546  -19.5889 C   0  0  0  0  0  0  0  0  0  0  0  0
   -0.3357   20.1658  -20.8441 C   0  0  0  0  0  0  0  0  0  0  0  0
   -1.0838   20.7411  -21.9238 N   0  0  0  0  0  0  0  0  0  0  0  0
   -0.8490   22.0556  -22.3321 C   0  0  0  0  0  0  0  0  0  0  0  0
   -1.9266   23.0488  -22.0663 C   0  0  0  0  0  0  0  0  0  0  0  0
   -1.5530   24.0706  -21.3889 O   0  0  0  0  0  0  0  0  0  0  0  0
   -3.2577   23.0309  -22.4426 N   0  0  0  0  0  0  0  0  0  0  0  0
   -2.5215   18.5228  -17.5880 H   0  0  0  0  0  0  0  0  0  0  0  0
   -1.3164   20.0217  -22.6045 H   0  0  0  0  0  0  0  0  0  0  0  0
   -3.6260   23.8935  -22.9680 H   0  0  0  0  0  0  0  0  0  0  0  0
   -7.2367   24.1810  -23.3948 C   0  0  0  0  0  0  0  0  0  0  0  0
   -5.9630   23.7658  -22.8644 N   0  0  0  0  0  0  0  0  0  0  0  0
   -5.5915   22.4158  -22.7925 C   0  0  0  0  0  0  0  0  0  0  0  0
   -6.3799   21.5457  -23.1961 O   0  0  0  0  0  0  0  0  0  0  0  0
   -5.2997   24.4927  -22.5240 H   0  0  0  0  0  0  0  0  0  0  0  0
    1.0963   19.9801  -21.0671 C   0  0  0  0  0  0  0  0  0  0  0  0
    1.9523   20.8773  -21.2418 O   0  0  0  0  0  0  0  0  0  0  0  0
    1.5625   18.6527  -21.0913 O   0  0  0  0  0  0  0  0  0  0  0  0
    1.6600   18.2487  -22.0131 H   0  0  0  0  0  0  0  0  0  0  0  0
   -0.4020   22.1719  -23.7940 C   0  0  0  0  0  0  0  0  0  0  0  0
   -1.4616   21.7048  -24.7324 C   0  0  0  0  0  0  0  0  0  0  0  0
   -1.2479   22.2330  -26.1172 C   0  0  0  0  0  0  0  0  0  0  0  0
   -0.0120   22.4433  -26.6474 C   0  0  0  0  0  0  0  0  0  0  0  0
    0.0567   22.9344  -27.9457 C   0  0  0  0  0  0  0  0  0  0  0  0
   -1.0756   23.2064  -28.6891 C   0  0  0  0  0  0  0  0  0  0  0  0
   -2.3180   22.9892  -28.1405 C   0  0  0  0  0  0  0  0  0  0  0  0
   -2.3785   22.5030  -26.8550 C   0  0  0  0  0  0  0  0  0  0  0  0
 23 24  1  0  0  0
 24 25  1  0  0  0
 25 26  2  0  0  0
 25  1  1  0  0  0
  1  2  1  0  0  0
  2  3  1  0  0  0
  3  4  1  0  0  0
  4  5  2  0  0  0
  4  6  1  0  0  0
  6  7  1  0  0  0
  7  8  1  0  0  0
  8  9  1  0  0  0
  9 10  1  0  0  0
 10 11  2  0  0  0
 10 12  1  0  0  0
 12 13  1  0  0  0
 13 14  1  0  0  0
 14 28  1  0  0  0
 28 29  2  0  0  0
 28 30  1  0  0  0
 14 15  1  0  0  0
 15 16  1  0  0  0
 16 32  1  0  0  0
 32 33  1  0  0  0
 33 34  1  0  0  0
 34 35  2  0  0  0
 35 36  1  0  0  0
 36 37  2  0  0  0
 37 38  1  0  0  0
 38 39  2  0  0  0
 16 17  1  0  0  0
 17 18  2  0  0  0
 17 19  1  0  0  0
 19  1  1  0  0  0
 39 34  1  0  0  0
 24 27  1  0  0  0
  9 20  1  0  0  0
 30 31  1  0  0  0
 15 21  1  0  0  0
 19 22  1  0  0  0
M  END
> <minimizedAffinity>
-8.55410

> <CNNscore>
0.2608203888

> <CNNaffinity>
5.4382987022

> <CNN_VS>
1.4184191227

> <CNNaffinity_variance>
0.3492478132

$$$$
[H]OC(=O)[C@]1([H])N([H])[C@@]([H])(C([H])([H])C([H])([H])c2c([H])c([H])c([H])c([H])c2[H])C(=O)N([H])[C@]([H])(C(=O)N([H])C([H])([H])[H])C([H])([H])C([H])([H])C(=O)OC([H])([H])C([H])([H])N([H])C(=O)C([H])([H])C1([H])[H]


 39 40  0  0  0  0  0  0  0  0999 V2000
   -4.0418   22.8067  -21.1771 C   0  0  0  0  0  0  0  0  0  0  0  0
   -5.2671   22.8194  -20.3238 C   0  0  0  0  0  0  0  0  0  0  0  0
   -6.1945   23.9731  -20.4797 C   0  0  0  0  0  0  0  0  0  0  0  0
   -6.6930   24.4190  -19.1271 C   0  0  0  0  0  0  0  0  0  0  0  0
   -6.0745   25.4056  -18.5994 O   0  0  0  0  0  0  0  0  0  0  0  0
   -7.7357   23.8376  -18.4661 O   0  0  0  0  0  0  0  0  0  0  0  0
   -7.9663   22.5039  -18.1757 C   0  0  0  0  0  0  0  0  0  0  0  0
   -7.4616   22.0651  -16.8008 C   0  0  0  0  0  0  0  0  0  0  0  0
   -7.3565   20.6321  -16.7975 N   0  0  0  0  0  0  0  0  0  0  0  0
   -6.4765   19.8477  -16.0191 C   0  0  0  0  0  0  0  0  0  0  0  0
   -6.9065   18.8164  -15.3952 O   0  0  0  0  0  0  0  0  0  0  0  0
   -5.0176   20.1290  -15.8516 C   0  0  0  0  0  0  0  0  0  0  0  0
   -4.3883   20.5946  -17.1239 C   0  0  0  0  0  0  0  0  0  0  0  0
   -3.8357   19.5012  -18.0134 C   0  0  0  0  0  0  0  0  0  0  0  0
   -3.2255   20.1224  -19.1527 N   0  0  0  0  0  0  0  0  0  0  0  0
   -2.1245   20.9673  -18.9988 C   0  0  0  0  0  0  0  0  0  0  0  0
   -2.3378   22.4140  -19.2815 C   0  0  0  0  0  0  0  0  0  0  0  0
   -2.0248   23.1965  -18.3160 O   0  0  0  0  0  0  0  0  0  0  0  0
   -2.8169   23.0302  -20.4237 N   0  0  0  0  0  0  0  0  0  0  0  0
   -8.0071   20.0959  -17.4431 H   0  0  0  0  0  0  0  0  0  0  0  0
   -3.2974   19.5083  -19.9606 H   0  0  0  0  0  0  0  0  0  0  0  0
   -2.2074   23.8070  -20.8491 H   0  0  0  0  0  0  0  0  0  0  0  0
   -4.9435   24.1488  -24.6569 C   0  0  0  0  0  0  0  0  0  0  0  0
   -4.8024   23.2850  -23.5124 N   0  0  0  0  0  0  0  0  0  0  0  0
   -4.1732   23.7089  -22.3334 C   0  0  0  0  0  0  0  0  0  0  0  0
   -3.7207   24.8633  -22.2667 O   0  0  0  0  0  0  0  0  0  0  0  0
   -5.1798   22.3159  -23.5650 H   0  0  0  0  0  0  0  0  0  0  0  0
   -3.0238   18.5278  -17.2866 C   0  0  0  0  0  0  0  0  0  0  0  0
   -1.9584   18.7506  -16.6672 O   0  0  0  0  0  0  0  0  0  0  0  0
   -3.4861   17.1988  -17.2849 O   0  0  0  0  0  0  0  0  0  0  0  0
   -3.0664   16.5974  -17.9811 H   0  0  0  0  0  0  0  0  0  0  0  0
   -0.8738   20.4846  -19.7427 C   0  0  0  0  0  0  0  0  0  0  0  0
    0.3763   20.9422  -19.0724 C   0  0  0  0  0  0  0  0  0  0  0  0
    1.5373   20.9613  -20.0179 C   0  0  0  0  0  0  0  0  0  0  0  0
    2.7856   21.3611  -19.6505 C   0  0  0  0  0  0  0  0  0  0  0  0
    3.7822   21.3313  -20.6186 C   0  0  0  0  0  0  0  0  0  0  0  0
    3.5370   20.9149  -21.9128 C   0  0  0  0  0  0  0  0  0  0  0  0
    2.2709   20.5138  -22.2700 C   0  0  0  0  0  0  0  0  0  0  0  0
    1.2893   20.5457  -21.3068 C   0  0  0  0  0  0  0  0  0  0  0  0
 23 24  1  0  0  0
 24 25  1  0  0  0
 25 26  2  0  0  0
 25  1  1  0  0  0
  1  2  1  0  0  0
  2  3  1  0  0  0
  3  4  1  0  0  0
  4  5  2  0  0  0
  4  6  1  0  0  0
  6  7  1  0  0  0
  7  8  1  0  0  0
  8  9  1  0  0  0
  9 10  1  0  0  0
 10 11  2  0  0  0
 10 12  1  0  0  0
 12 13  1  0  0  0
 13 14  1  0  0  0
 14 28  1  0  0  0
 28 29  2  0  0  0
 28 30  1  0  0  0
 14 15  1  0  0  0
 15 16  1  0  0  0
 16 32  1  0  0  0
 32 33  1  0  0  0
 33 34  1  0  0  0
 34 35  2  0  0  0
 35 36  1  0  0  0
 36 37  2  0  0  0
 37 38  1  0  0  0
 38 39  2  0  0  0
 16 17  1  0  0  0
 17 18  2  0  0  0
 17 19  1  0  0  0
 19  1  1  0  0  0
 39 34  1  0  0  0
 24 27  1  0  0  0
  9 20  1  0  0  0
 30 31  1  0  0  0
 15 21  1  0  0  0
 19 22  1  0  0  0
M  END
> <minimizedAffinity>
-6.14635

> <CNNscore>
0.2413878739

> <CNNaffinity>
5.0375323296

> <CNN_VS>
1.2159992456

> <CNNaffinity_variance>
0.3291281164

$$$$
[H]OC(=O)[C@]1([H])N([H])[C@@]([H])(C([H])([H])C([H])([H])c2c([H])c([H])c([H])c([H])c2[H])C(=O)N([H])[C@]([H])(C(=O)N([H])C([H])([H])[H])C([H])([H])C([H])([H])C(=O)OC([H])([H])C([H])([H])N([H])C(=O)C([H])([H])C1([H])[H]


 39 40  0  0  0  0  0  0  0  0999 V2000
   -3.0729   22.4774  -19.4885 C   0  0  0  0  0  0  0  0  0  0  0  0
   -2.5044   21.7936  -18.2889 C   0  0  0  0  0  0  0  0  0  0  0  0
   -1.3152   20.9238  -18.4997 C   0  0  0  0  0  0  0  0  0  0  0  0
   -1.4469   19.6644  -17.6790 C   0  0  0  0  0  0  0  0  0  0  0  0
   -1.8999   18.6395  -18.2944 O   0  0  0  0  0  0  0  0  0  0  0  0
   -1.1164   19.5739  -16.3581 O   0  0  0  0  0  0  0  0  0  0  0  0
   -1.4937   20.3755  -15.2944 C   0  0  0  0  0  0  0  0  0  0  0  0
   -2.7247   19.8755  -14.5381 C   0  0  0  0  0  0  0  0  0  0  0  0
   -3.2612   20.9715  -13.7794 N   0  0  0  0  0  0  0  0  0  0  0  0
   -4.6066   21.1558  -13.3902 C   0  0  0  0  0  0  0  0  0  0  0  0
   -4.8940   21.4931  -12.1895 O   0  0  0  0  0  0  0  0  0  0  0  0
   -5.7805   20.9836  -14.3000 C   0  0  0  0  0  0  0  0  0  0  0  0
   -5.5084   21.5131  -15.6700 C   0  0  0  0  0  0  0  0  0  0  0  0
   -5.8547   22.9714  -15.8835 C   0  0  0  0  0  0  0  0  0  0  0  0
   -5.5847   23.2952  -17.2541 N   0  0  0  0  0  0  0  0  0  0  0  0
   -6.2857   22.6676  -18.2858 C   0  0  0  0  0  0  0  0  0  0  0  0
   -5.5182   21.7299  -19.1519 C   0  0  0  0  0  0  0  0  0  0  0  0
   -6.0068   20.5471  -19.2191 O   0  0  0  0  0  0  0  0  0  0  0  0
   -4.3682   21.9481  -19.8891 N   0  0  0  0  0  0  0  0  0  0  0  0
   -2.5820   21.7272  -13.4710 H   0  0  0  0  0  0  0  0  0  0  0  0
   -5.3166   24.2736  -17.3313 H   0  0  0  0  0  0  0  0  0  0  0  0
   -4.4047   21.6946  -20.9333 H   0  0  0  0  0  0  0  0  0  0  0  0
   -1.0904   21.4992  -22.6247 C   0  0  0  0  0  0  0  0  0  0  0  0
   -2.0266   21.4777  -21.5297 N   0  0  0  0  0  0  0  0  0  0  0  0
   -2.1070   22.5231  -20.5989 C   0  0  0  0  0  0  0  0  0  0  0  0
   -1.3505   23.5008  -20.7156 O   0  0  0  0  0  0  0  0  0  0  0  0
   -2.6620   20.6589  -21.4281 H   0  0  0  0  0  0  0  0  0  0  0  0
   -7.1787   23.3253  -15.3769 C   0  0  0  0  0  0  0  0  0  0  0  0
   -7.4505   24.2221  -14.5460 O   0  0  0  0  0  0  0  0  0  0  0  0
   -8.2627   22.5776  -15.8724 O   0  0  0  0  0  0  0  0  0  0  0  0
   -8.5599   21.8107  -15.2840 H   0  0  0  0  0  0  0  0  0  0  0  0
   -7.0768   23.6401  -19.1683 C   0  0  0  0  0  0  0  0  0  0  0  0
   -8.1129   22.9338  -19.9742 C   0  0  0  0  0  0  0  0  0  0  0  0
   -8.7546   23.8456  -20.9737 C   0  0  0  0  0  0  0  0  0  0  0  0
   -8.1300   24.2540  -22.1121 C   0  0  0  0  0  0  0  0  0  0  0  0
   -8.8315   25.0990  -22.9638 C   0  0  0  0  0  0  0  0  0  0  0  0
  -10.1168   25.5217  -22.6845 C   0  0  0  0  0  0  0  0  0  0  0  0
  -10.7356   25.1011  -21.5305 C   0  0  0  0  0  0  0  0  0  0  0  0
  -10.0354   24.2648  -20.6921 C   0  0  0  0  0  0  0  0  0  0  0  0
 23 24  1  0  0  0
 24 25  1  0  0  0
 25 26  2  0  0  0
 25  1  1  0  0  0
  1  2  1  0  0  0
  2  3  1  0  0  0
  3  4  1  0  0  0
  4  5  2  0  0  0
  4  6  1  0  0  0
  6  7  1  0  0  0
  7  8  1  0  0  0
  8  9  1  0  0  0
  9 10  1  0  0  0
 10 11  2  0  0  0
 10 12  1  0  0  0
 12 13  1  0  0  0
 13 14  1  0  0  0
 14 28  1  0  0  0
 28 29  2  0  0  0
 28 30  1  0  0  0
 14 15  1  0  0  0
 15 16  1  0  0  0
 16 32  1  0  0  0
 32 33  1  0  0  0
 33 34  1  0  0  0
 34 35  2  0  0  0
 35 36  1  0  0  0
 36 37  2  0  0  0
 37 38  1  0  0  0
 38 39  2  0  0  0
 16 17  1  0  0  0
 17 18  2  0  0  0
 17 19  1  0  0  0
 19  1  1  0  0  0
 39 34  1  0  0  0
 24 27  1  0  0  0
  9 20  1  0  0  0
 30 31  1  0  0  0
 15 21  1  0  0  0
 19 22  1  0  0  0
M  END
> <minimizedAffinity>
-5.53580

> <CNNscore>
0.2182026207

> <CNNaffinity>
4.8600082397

> <CNN_VS>
1.0604665279

> <CNNaffinity_variance>
0.4578778744

$$$$
[H]OC(=O)[C@]1([H])N([H])[C@@]([H])(C([H])([H])C([H])([H])c2c([H])c([H])c([H])c([H])c2[H])C(=O)N([H])[C@]([H])(C(=O)N([H])C([H])([H])[H])C([H])([H])C([H])([H])C(=O)OC([H])([H])C([H])([H])N([H])C(=O)C([H])([H])C1([H])[H]


 39 40  0  0  0  0  0  0  0  0999 V2000
   -5.3102   22.6592  -22.0262 C   0  0  0  0  0  0  0  0  0  0  0  0
   -5.6629   22.9485  -20.6043 C   0  0  0  0  0  0  0  0  0  0  0  0
   -6.7787   23.9026  -20.3592 C   0  0  0  0  0  0  0  0  0  0  0  0
   -6.4286   24.8203  -19.2137 C   0  0  0  0  0  0  0  0  0  0  0  0
   -5.9546   25.9630  -19.5359 O   0  0  0  0  0  0  0  0  0  0  0  0
   -6.5893   24.4969  -17.8977 O   0  0  0  0  0  0  0  0  0  0  0  0
   -6.1678   23.3755  -17.2040 C   0  0  0  0  0  0  0  0  0  0  0  0
   -4.8129   23.5372  -16.5145 C   0  0  0  0  0  0  0  0  0  0  0  0
   -4.2989   22.2276  -16.2221 N   0  0  0  0  0  0  0  0  0  0  0  0
   -2.9411   21.8551  -16.1077 C   0  0  0  0  0  0  0  0  0  0  0  0
   -2.5470   21.1330  -15.1272 O   0  0  0  0  0  0  0  0  0  0  0  0
   -1.8726   22.2483  -17.0767 C   0  0  0  0  0  0  0  0  0  0  0  0
   -2.3558   22.2054  -18.4895 C   0  0  0  0  0  0  0  0  0  0  0  0
   -2.1806   20.8778  -19.1959 C   0  0  0  0  0  0  0  0  0  0  0  0
   -2.6419   21.0291  -20.5452 N   0  0  0  0  0  0  0  0  0  0  0  0
   -2.0110   21.9176  -21.4183 C   0  0  0  0  0  0  0  0  0  0  0  0
   -2.7814   23.1248  -21.8278 C   0  0  0  0  0  0  0  0  0  0  0  0
   -2.1916   24.2377  -21.5912 O   0  0  0  0  0  0  0  0  0  0  0  0
   -4.0266   23.2188  -22.4229 N   0  0  0  0  0  0  0  0  0  0  0  0
   -5.0068   21.4506  -16.0712 H   0  0  0  0  0  0  0  0  0  0  0  0
   -3.0110   20.1441  -20.8852 H   0  0  0  0  0  0  0  0  0  0  0  0
   -4.0901   23.7937  -23.3292 H   0  0  0  0  0  0  0  0  0  0  0  0
   -7.3238   24.4911  -24.7304 C   0  0  0  0  0  0  0  0  0  0  0  0
   -6.2711   24.1118  -23.8227 N   0  0  0  0  0  0  0  0  0  0  0  0
   -6.4012   23.0269  -22.9442 C   0  0  0  0  0  0  0  0  0  0  0  0
   -7.4539   22.3684  -22.9427 O   0  0  0  0  0  0  0  0  0  0  0  0
   -5.3873   24.6624  -23.8204 H   0  0  0  0  0  0  0  0  0  0  0  0
   -0.8465   20.3082  -19.0213 C   0  0  0  0  0  0  0  0  0  0  0  0
    0.2427   20.8295  -19.3533 O   0  0  0  0  0  0  0  0  0  0  0  0
   -0.7782   19.0383  -18.4192 O   0  0  0  0  0  0  0  0  0  0  0  0
   -0.7108   18.2612  -19.0627 H   0  0  0  0  0  0  0  0  0  0  0  0
   -1.4286   21.2411  -22.6648 C   0  0  0  0  0  0  0  0  0  0  0  0
   -0.3688   22.0752  -23.2994 C   0  0  0  0  0  0  0  0  0  0  0  0
   -0.5912   22.2279  -24.7723 C   0  0  0  0  0  0  0  0  0  0  0  0
    0.4196   22.4592  -25.6542 C   0  0  0  0  0  0  0  0  0  0  0  0
    0.0867   22.5795  -26.9981 C   0  0  0  0  0  0  0  0  0  0  0  0
   -1.2163   22.4719  -27.4447 C   0  0  0  0  0  0  0  0  0  0  0  0
   -2.2276   22.2381  -26.5423 C   0  0  0  0  0  0  0  0  0  0  0  0
   -1.8909   22.1201  -25.2137 C   0  0  0  0  0  0  0  0  0  0  0  0
 23 24  1  0  0  0
 24 25  1  0  0  0
 25 26  2  0  0  0
 25  1  1  0  0  0
  1  2  1  0  0  0
  2  3  1  0  0  0
  3  4  1  0  0  0
  4  5  2  0  0  0
  4  6  1  0  0  0
  6  7  1  0  0  0
  7  8  1  0  0  0
  8  9  1  0  0  0
  9 10  1  0  0  0
 10 11  2  0  0  0
 10 12  1  0  0  0
 12 13  1  0  0  0
 13 14  1  0  0  0
 14 28  1  0  0  0
 28 29  2  0  0  0
 28 30  1  0  0  0
 14 15  1  0  0  0
 15 16  1  0  0  0
 16 32  1  0  0  0
 32 33  1  0  0  0
 33 34  1  0  0  0
 34 35  2  0  0  0
 35 36  1  0  0  0
 36 37  2  0  0  0
 37 38  1  0  0  0
 38 39  2  0  0  0
 16 17  1  0  0  0
 17 18  2  0  0  0
 17 19  1  0  0  0
 19  1  1  0  0  0
 39 34  1  0  0  0
 24 27  1  0  0  0
  9 20  1  0  0  0
 30 31  1  0  0  0
 15 21  1  0  0  0
 19 22  1  0  0  0
M  END
> <minimizedAffinity>
-8.41672

> <CNNscore>
0.2118475437

> <CNNaffinity>
5.4129900932

> <CNN_VS>
1.1467286348

> <CNNaffinity_variance>
0.2268207967

$$$$
[H]OC(=O)[C@]1([H])N([H])[C@@]([H])(C([H])([H])C([H])([H])c2c([H])c([H])c([H])c([H])c2[H])C(=O)N([H])[C@]([H])(C(=O)N([H])C([H])([H])[H])C([H])([H])C([H])([H])C(=O)OC([H])([H])C([H])([H])N([H])C(=O)C([H])([H])C1([H])[H]


 39 40  0  0  0  0  0  0  0  0999 V2000
   -4.4435   22.1915  -22.2592 C   0  0  0  0  0  0  0  0  0  0  0  0
   -5.2357   22.5317  -21.0401 C   0  0  0  0  0  0  0  0  0  0  0  0
   -6.3709   23.4797  -21.2073 C   0  0  0  0  0  0  0  0  0  0  0  0
   -6.4088   24.4464  -20.0493 C   0  0  0  0  0  0  0  0  0  0  0  0
   -5.8562   25.5818  -20.2489 O   0  0  0  0  0  0  0  0  0  0  0  0
   -6.9851   24.1730  -18.8429 O   0  0  0  0  0  0  0  0  0  0  0  0
   -6.8098   23.0855  -18.0044 C   0  0  0  0  0  0  0  0  0  0  0  0
   -5.7495   23.2922  -16.9226 C   0  0  0  0  0  0  0  0  0  0  0  0
   -5.3573   22.0021  -16.4261 N   0  0  0  0  0  0  0  0  0  0  0  0
   -4.1088   21.6526  -15.8651 C   0  0  0  0  0  0  0  0  0  0  0  0
   -4.0519   20.9751  -14.7808 O   0  0  0  0  0  0  0  0  0  0  0  0
   -2.7850   22.0217  -16.4538 C   0  0  0  0  0  0  0  0  0  0  0  0
   -2.7869   21.9167  -17.9438 C   0  0  0  0  0  0  0  0  0  0  0  0
   -2.3935   20.5648  -18.5004 C   0  0  0  0  0  0  0  0  0  0  0  0
   -2.3952   20.6567  -19.9314 N   0  0  0  0  0  0  0  0  0  0  0  0
   -1.5164   21.5185  -20.5909 C   0  0  0  0  0  0  0  0  0  0  0  0
   -2.1136   22.6982  -21.2765 C   0  0  0  0  0  0  0  0  0  0  0  0
   -1.6316   23.8273  -20.9090 O   0  0  0  0  0  0  0  0  0  0  0  0
   -3.1005   22.7521  -22.2443 N   0  0  0  0  0  0  0  0  0  0  0  0
   -6.0760   21.2223  -16.4791 H   0  0  0  0  0  0  0  0  0  0  0  0
   -2.6350   19.7542  -20.3350 H   0  0  0  0  0  0  0  0  0  0  0  0
   -2.8684   23.2899  -23.1459 H   0  0  0  0  0  0  0  0  0  0  0  0
   -5.6377   24.0253  -25.4111 C   0  0  0  0  0  0  0  0  0  0  0  0
   -4.9304   23.6931  -24.2005 N   0  0  0  0  0  0  0  0  0  0  0  0
   -5.1803   22.5080  -23.4942 C   0  0  0  0  0  0  0  0  0  0  0  0
   -6.0368   21.7158  -23.9191 O   0  0  0  0  0  0  0  0  0  0  0  0
   -4.2122   24.3555  -23.8406 H   0  0  0  0  0  0  0  0  0  0  0  0
   -1.1868   20.0204  -17.8818 C   0  0  0  0  0  0  0  0  0  0  0  0
   -0.1177   20.6314  -17.6540 O   0  0  0  0  0  0  0  0  0  0  0  0
   -1.2293   18.6654  -17.5048 O   0  0  0  0  0  0  0  0  0  0  0  0
   -0.8290   18.0211  -18.1735 H   0  0  0  0  0  0  0  0  0  0  0  0
   -0.5634   20.8012  -21.5541 C   0  0  0  0  0  0  0  0  0  0  0  0
    0.7664   20.5518  -20.9287 C   0  0  0  0  0  0  0  0  0  0  0  0
    1.1332   19.1004  -20.9661 C   0  0  0  0  0  0  0  0  0  0  0  0
    0.2361   18.1033  -20.7339 C   0  0  0  0  0  0  0  0  0  0  0  0
    0.6973   16.7940  -20.8001 C   0  0  0  0  0  0  0  0  0  0  0  0
    2.0142   16.4927  -21.0893 C   0  0  0  0  0  0  0  0  0  0  0  0
    2.9096   17.5103  -21.3217 C   0  0  0  0  0  0  0  0  0  0  0  0
    2.4464   18.8039  -21.2546 C   0  0  0  0  0  0  0  0  0  0  0  0
 23 24  1  0  0  0
 24 25  1  0  0  0
 25 26  2  0  0  0
 25  1  1  0  0  0
  1  2  1  0  0  0
  2  3  1  0  0  0
  3  4  1  0  0  0
  4  5  2  0  0  0
  4  6  1  0  0  0
  6  7  1  0  0  0
  7  8  1  0  0  0
  8  9  1  0  0  0
  9 10  1  0  0  0
 10 11  2  0  0  0
 10 12  1  0  0  0
 12 13  1  0  0  0
 13 14  1  0  0  0
 14 28  1  0  0  0
 28 29  2  0  0  0
 28 30  1  0  0  0
 14 15  1  0  0  0
 15 16  1  0  0  0
 16 32  1  0  0  0
 32 33  1  0  0  0
 33 34  1  0  0  0
 34 35  2  0  0  0
 35 36  1  0  0  0
 36 37  2  0  0  0
 37 38  1  0  0  0
 38 39  2  0  0  0
 16 17  1  0  0  0
 17 18  2  0  0  0
 17 19  1  0  0  0
 19  1  1  0  0  0
 39 34  1  0  0  0
 24 27  1  0  0  0
  9 20  1  0  0  0
 30 31  1  0  0  0
 15 21  1  0  0  0
 19 22  1  0  0  0
M  END
> <minimizedAffinity>
-6.52210

> <CNNscore>
0.1960056275

> <CNNaffinity>
4.8767790794

> <CNN_VS>
0.9558761716

> <CNNaffinity_variance>
0.3377824426

$$$$
[H]c1nc2n(n1)C([H])(c1sc([H])c([H])c1[H])C([H])([H])C([H])(c1c([H])c([H])c(Cl)c(Cl)c1[H])N2[H]


 23 26  0  0  0  0  0  0  0  0999 V2000
   -3.3707   23.4167  -27.3954 C   0  0  0  0  0  0  0  0  0  0  0  0
   -3.9560   22.3945  -26.4843 C   0  0  0  0  0  0  0  0  0  0  0  0
   -3.1872   22.2560  -25.2219 C   0  0  0  0  0  0  0  0  0  0  0  0
   -1.7707   22.3747  -25.3639 N   0  0  0  0  0  0  0  0  0  0  0  0
   -0.8040   22.1777  -24.4911 N   0  0  0  0  0  0  0  0  0  0  0  0
    0.3932   22.4007  -25.0475 C   0  0  0  0  0  0  0  0  0  0  0  0
    0.1310   22.7494  -26.3191 N   0  0  0  0  0  0  0  0  0  0  0  0
   -1.1909   22.7429  -26.5451 C   0  0  0  0  0  0  0  0  0  0  0  0
   -2.0042   23.0231  -27.6773 N   0  0  0  0  0  0  0  0  0  0  0  0
   -1.5775   22.9303  -28.6134 H   0  0  0  0  0  0  0  0  0  0  0  0
   -6.5440   24.4550  -32.3754 Cl  0  0  0  0  0  0  0  0  0  0  0  0
   -5.6223   24.1341  -30.9259 C   0  0  0  0  0  0  0  0  0  0  0  0
   -5.4750   22.8400  -30.4843 C   0  0  0  0  0  0  0  0  0  0  0  0
   -4.7308   22.6129  -29.3195 C   0  0  0  0  0  0  0  0  0  0  0  0
   -4.1546   23.6373  -28.6203 C   0  0  0  0  0  0  0  0  0  0  0  0
   -4.3156   24.9247  -29.0817 C   0  0  0  0  0  0  0  0  0  0  0  0
   -5.0537   25.1882  -30.2435 C   0  0  0  0  0  0  0  0  0  0  0  0
   -5.2671   26.8192  -30.8420 Cl  0  0  0  0  0  0  0  0  0  0  0  0
   -3.6472   23.2254  -24.1590 C   0  0  0  0  0  0  0  0  0  0  0  0
   -3.6100   24.5898  -24.2059 C   0  0  0  0  0  0  0  0  0  0  0  0
   -4.0713   25.2601  -23.1439 C   0  0  0  0  0  0  0  0  0  0  0  0
   -4.5452   24.5193  -22.0919 C   0  0  0  0  0  0  0  0  0  0  0  0
   -4.3287   22.9152  -22.6258 S   0  0  0  0  0  0  0  0  0  0  0  0
 11 12  1  0  0  0
 12 13  2  0  0  0
 13 14  1  0  0  0
 14 15  2  0  0  0
 15  1  1  0  0  0
  1  2  1  0  0  0
  2  3  1  0  0  0
  3 19  1  0  0  0
 19 20  2  0  0  0
 20 21  1  0  0  0
 21 22  2  0  0  0
 22 23  1  0  0  0
  3  4  1  0  0  0
  4  5  1  0  0  0
  5  6  2  0  0  0
  6  7  1  0  0  0
  7  8  2  0  0  0
  8  9  1  0  0  0
 15 16  1  0  0  0
 16 17  2  0  0  0
 17 18  1  0  0  0
 17 12  1  0  0  0
  9  1  1  0  0  0
 23 19  1  0  0  0
  8  4  1  0  0  0
  9 10  1  0  0  0
M  END
> <minimizedAffinity>
-8.12749

> <CNNscore>
0.5453187823

> <CNNaffinity>
6.9355669022

> <CNN_VS>
3.7820949554

> <CNNaffinity_variance>
0.4699279666

$$$$
[H]c1nc2n(n1)C([H])(c1sc([H])c([H])c1[H])C([H])([H])C([H])(c1c([H])c([H])c(Cl)c(Cl)c1[H])N2[H]


 23 26  0  0  0  0  0  0  0  0999 V2000
   -0.1809   21.7943  -23.4136 C   0  0  0  0  0  0  0  0  0  0  0  0
   -0.7673   20.7046  -22.5849 C   0  0  0  0  0  0  0  0  0  0  0  0
   -0.0491   20.5244  -21.2982 C   0  0  0  0  0  0  0  0  0  0  0  0
    1.3669   20.6990  -21.3697 N   0  0  0  0  0  0  0  0  0  0  0  0
    2.3015   20.4882  -20.4658 N   0  0  0  0  0  0  0  0  0  0  0  0
    3.5127   20.7820  -20.9551 C   0  0  0  0  0  0  0  0  0  0  0  0
    3.2930   21.1900  -22.2171 N   0  0  0  0  0  0  0  0  0  0  0  0
    1.9833   21.1504  -22.5026 C   0  0  0  0  0  0  0  0  0  0  0  0
    1.2100   21.4636  -23.6539 N   0  0  0  0  0  0  0  0  0  0  0  0
    1.6798   21.4364  -24.5734 H   0  0  0  0  0  0  0  0  0  0  0  0
   -3.0659   22.8812  -28.5560 Cl  0  0  0  0  0  0  0  0  0  0  0  0
   -2.2414   22.5608  -27.0490 C   0  0  0  0  0  0  0  0  0  0  0  0
   -2.9686   22.2139  -25.9345 C   0  0  0  0  0  0  0  0  0  0  0  0
   -2.2809   21.9627  -24.7403 C   0  0  0  0  0  0  0  0  0  0  0  0
   -0.9188   22.0540  -24.6593 C   0  0  0  0  0  0  0  0  0  0  0  0
   -0.2118   22.4028  -25.7883 C   0  0  0  0  0  0  0  0  0  0  0  0
   -0.8675   22.6610  -26.9997 C   0  0  0  0  0  0  0  0  0  0  0  0
    0.0176   23.1056  -28.4428 Cl  0  0  0  0  0  0  0  0  0  0  0  0
   -0.5899   21.4183  -20.2076 C   0  0  0  0  0  0  0  0  0  0  0  0
   -0.2830   22.7292  -19.9786 C   0  0  0  0  0  0  0  0  0  0  0  0
   -0.8814   23.3358  -18.9472 C   0  0  0  0  0  0  0  0  0  0  0  0
   -1.7570   22.5885  -18.2020 C   0  0  0  0  0  0  0  0  0  0  0  0
   -1.7111   21.0677  -18.9702 S   0  0  0  0  0  0  0  0  0  0  0  0
 11 12  1  0  0  0
 12 13  2  0  0  0
 13 14  1  0  0  0
 14 15  2  0  0  0
 15  1  1  0  0  0
  1  2  1  0  0  0
  2  3  1  0  0  0
  3 19  1  0  0  0
 19 20  2  0  0  0
 20 21  1  0  0  0
 21 22  2  0  0  0
 22 23  1  0  0  0
  3  4  1  0  0  0
  4  5  1  0  0  0
  5  6  2  0  0  0
  6  7  1  0  0  0
  7  8  2  0  0  0
  8  9  1  0  0  0
 15 16  1  0  0  0
 16 17  2  0  0  0
 17 18  1  0  0  0
 17 12  1  0  0  0
  9  1  1  0  0  0
 23 19  1  0  0  0
  8  4  1  0  0  0
  9 10  1  0  0  0
M  END
> <minimizedAffinity>
-7.51056

> <CNNscore>
0.3197052777

> <CNNaffinity>
5.8688836098

> <CNN_VS>
1.8763130903

> <CNNaffinity_variance>
0.1124367267

$$$$
[H]c1nc2n(n1)C([H])(c1sc([H])c([H])c1[H])C([H])([H])C([H])(c1c([H])c([H])c(Cl)c(Cl)c1[H])N2[H]


 23 26  0  0  0  0  0  0  0  0999 V2000
   -1.4937   22.0555  -24.4630 C   0  0  0  0  0  0  0  0  0  0  0  0
   -2.1498   23.2745  -23.9141 C   0  0  0  0  0  0  0  0  0  0  0  0
   -3.3799   23.6392  -24.6608 C   0  0  0  0  0  0  0  0  0  0  0  0
   -3.3134   23.4244  -26.0716 N   0  0  0  0  0  0  0  0  0  0  0  0
   -4.1572   23.7543  -27.0277 N   0  0  0  0  0  0  0  0  0  0  0  0
   -3.7003   23.3607  -28.2232 C   0  0  0  0  0  0  0  0  0  0  0  0
   -2.5223   22.7642  -27.9709 N   0  0  0  0  0  0  0  0  0  0  0  0
   -2.2559   22.7871  -26.6567 C   0  0  0  0  0  0  0  0  0  0  0  0
   -1.1813   22.3137  -25.8549 N   0  0  0  0  0  0  0  0  0  0  0  0
   -0.2613   22.1856  -26.3069 H   0  0  0  0  0  0  0  0  0  0  0  0
    3.2187   20.2490  -21.2260 Cl  0  0  0  0  0  0  0  0  0  0  0  0
    1.8566   20.7792  -22.1837 C   0  0  0  0  0  0  0  0  0  0  0  0
    2.0602   21.2314  -23.4666 C   0  0  0  0  0  0  0  0  0  0  0  0
    0.9497   21.6499  -24.2108 C   0  0  0  0  0  0  0  0  0  0  0  0
   -0.3169   21.6193  -23.6959 C   0  0  0  0  0  0  0  0  0  0  0  0
   -0.4961   21.1626  -22.4092 C   0  0  0  0  0  0  0  0  0  0  0  0
    0.5923   20.7361  -21.6364 C   0  0  0  0  0  0  0  0  0  0  0  0
    0.3801   20.1532  -19.9996 Cl  0  0  0  0  0  0  0  0  0  0  0  0
   -4.6067   22.9400  -24.1248 C   0  0  0  0  0  0  0  0  0  0  0  0
   -5.0946   21.7185  -24.4923 C   0  0  0  0  0  0  0  0  0  0  0  0
   -6.2058   21.2860  -23.8857 C   0  0  0  0  0  0  0  0  0  0  0  0
   -6.7655   22.1078  -22.9414 C   0  0  0  0  0  0  0  0  0  0  0  0
   -5.7187   23.4529  -22.9367 S   0  0  0  0  0  0  0  0  0  0  0  0
 11 12  1  0  0  0
 12 13  2  0  0  0
 13 14  1  0  0  0
 14 15  2  0  0  0
 15  1  1  0  0  0
  1  2  1  0  0  0
  2  3  1  0  0  0
  3 19  1  0  0  0
 19 20  2  0  0  0
 20 21  1  0  0  0
 21 22  2  0  0  0
 22 23  1  0  0  0
  3  4  1  0  0  0
  4  5  1  0  0  0
  5  6  2  0  0  0
  6  7  1  0  0  0
  7  8  2  0  0  0
  8  9  1  0  0  0
 15 16  1  0  0  0
 16 17  2  0  0  0
 17 18  1  0  0  0
 17 12  1  0  0  0
  9  1  1  0  0  0
 23 19  1  0  0  0
  8  4  1  0  0  0
  9 10  1  0  0  0
M  END
> <minimizedAffinity>
-7.21308

> <CNNscore>
0.2778922319

> <CNNaffinity>
6.3138689995

> <CNN_VS>
1.7545751333

> <CNNaffinity_variance>
0.5636407137

$$$$
[H]c1nc2n(n1)C([H])(c1sc([H])c([H])c1[H])C([H])([H])C([H])(c1c([H])c([H])c(Cl)c(Cl)c1[H])N2[H]


 23 26  0  0  0  0  0  0  0  0999 V2000
   -3.2447   23.3720  -26.2592 C   0  0  0  0  0  0  0  0  0  0  0  0
   -3.8622   22.5709  -27.3523 C   0  0  0  0  0  0  0  0  0  0  0  0
   -5.1103   23.1869  -27.8687 C   0  0  0  0  0  0  0  0  0  0  0  0
   -5.9273   23.8125  -26.8777 N   0  0  0  0  0  0  0  0  0  0  0  0
   -7.1362   24.3279  -26.9667 N   0  0  0  0  0  0  0  0  0  0  0  0
   -7.5347   24.8149  -25.7848 C   0  0  0  0  0  0  0  0  0  0  0  0
   -6.5124   24.5794  -24.9442 N   0  0  0  0  0  0  0  0  0  0  0  0
   -5.5084   23.9641  -25.5860 C   0  0  0  0  0  0  0  0  0  0  0  0
   -4.2238   23.4945  -25.1973 N   0  0  0  0  0  0  0  0  0  0  0  0
   -4.0717   23.2741  -24.1996 H   0  0  0  0  0  0  0  0  0  0  0  0
    1.9221   21.1513  -24.1804 Cl  0  0  0  0  0  0  0  0  0  0  0  0
    0.4242   21.8013  -24.8029 C   0  0  0  0  0  0  0  0  0  0  0  0
    0.3594   22.2365  -26.1059 C   0  0  0  0  0  0  0  0  0  0  0  0
   -0.8544   22.7526  -26.5776 C   0  0  0  0  0  0  0  0  0  0  0  0
   -1.9628   22.8324  -25.7805 C   0  0  0  0  0  0  0  0  0  0  0  0
   -1.8739   22.3905  -24.4793 C   0  0  0  0  0  0  0  0  0  0  0  0
   -0.6754   21.8683  -23.9745 C   0  0  0  0  0  0  0  0  0  0  0  0
   -0.5473   21.3030  -22.3229 Cl  0  0  0  0  0  0  0  0  0  0  0  0
   -4.8461   24.1824  -28.9733 C   0  0  0  0  0  0  0  0  0  0  0  0
   -3.8482   25.1127  -29.0328 C   0  0  0  0  0  0  0  0  0  0  0  0
   -3.7990   25.9019  -30.1120 C   0  0  0  0  0  0  0  0  0  0  0  0
   -4.7582   25.7109  -31.0731 C   0  0  0  0  0  0  0  0  0  0  0  0
   -5.6920   24.4368  -30.4331 S   0  0  0  0  0  0  0  0  0  0  0  0
 11 12  1  0  0  0
 12 13  2  0  0  0
 13 14  1  0  0  0
 14 15  2  0  0  0
 15  1  1  0  0  0
  1  2  1  0  0  0
  2  3  1  0  0  0
  3 19  1  0  0  0
 19 20  2  0  0  0
 20 21  1  0  0  0
 21 22  2  0  0  0
 22 23  1  0  0  0
  3  4  1  0  0  0
  4  5  1  0  0  0
  5  6  2  0  0  0
  6  7  1  0  0  0
  7  8  2  0  0  0
  8  9  1  0  0  0
 15 16  1  0  0  0
 16 17  2  0  0  0
 17 18  1  0  0  0
 17 12  1  0  0  0
  9  1  1  0  0  0
 23 19  1  0  0  0
  8  4  1  0  0  0
  9 10  1  0  0  0
M  END
> <minimizedAffinity>
-8.68901

> <CNNscore>
0.2438444346

> <CNNaffinity>
6.4131765366

> <CNN_VS>
1.5638173819

> <CNNaffinity_variance>
0.1908195764

$$$$
[H]c1nc2n(n1)C([H])(c1sc([H])c([H])c1[H])C([H])([H])C([H])(c1c([H])c([H])c(Cl)c(Cl)c1[H])N2[H]


 23 26  0  0  0  0  0  0  0  0999 V2000
   -3.8435   22.3458  -23.5524 C   0  0  0  0  0  0  0  0  0  0  0  0
   -5.1360   21.7875  -24.0377 C   0  0  0  0  0  0  0  0  0  0  0  0
   -6.2100   21.8791  -23.0170 C   0  0  0  0  0  0  0  0  0  0  0  0
   -5.7829   21.6556  -21.6722 N   0  0  0  0  0  0  0  0  0  0  0  0
   -6.4811   21.5350  -20.5619 N   0  0  0  0  0  0  0  0  0  0  0  0
   -5.6755   21.3295  -19.5123 C   0  0  0  0  0  0  0  0  0  0  0  0
   -4.4305   21.3267  -20.0194 N   0  0  0  0  0  0  0  0  0  0  0  0
   -4.4627   21.5248  -21.3454 C   0  0  0  0  0  0  0  0  0  0  0  0
   -3.4691   21.6135  -22.3586 N   0  0  0  0  0  0  0  0  0  0  0  0
   -2.5585   21.1583  -22.1834 H   0  0  0  0  0  0  0  0  0  0  0  0
    0.3995   22.3772  -27.7885 Cl  0  0  0  0  0  0  0  0  0  0  0  0
   -0.8243   22.3635  -26.5412 C   0  0  0  0  0  0  0  0  0  0  0  0
   -0.4753   22.0545  -25.2473 C   0  0  0  0  0  0  0  0  0  0  0  0
   -1.4773   22.0514  -24.2684 C   0  0  0  0  0  0  0  0  0  0  0  0
   -2.7791   22.3451  -24.5675 C   0  0  0  0  0  0  0  0  0  0  0  0
   -3.1046   22.6514  -25.8700 C   0  0  0  0  0  0  0  0  0  0  0  0
   -2.1276   22.6641  -26.8745 C   0  0  0  0  0  0  0  0  0  0  0  0
   -2.5264   23.0514  -28.5343 Cl  0  0  0  0  0  0  0  0  0  0  0  0
   -6.9479   23.1956  -23.0751 C   0  0  0  0  0  0  0  0  0  0  0  0
   -6.9930   24.0781  -24.1164 C   0  0  0  0  0  0  0  0  0  0  0  0
   -7.7119   25.1946  -23.9530 C   0  0  0  0  0  0  0  0  0  0  0  0
   -8.3465   25.3615  -22.7490 C   0  0  0  0  0  0  0  0  0  0  0  0
   -7.9153   23.9532  -21.8912 S   0  0  0  0  0  0  0  0  0  0  0  0
 11 12  1  0  0  0
 12 13  2  0  0  0
 13 14  1  0  0  0
 14 15  2  0  0  0
 15  1  1  0  0  0
  1  2  1  0  0  0
  2  3  1  0  0  0
  3 19  1  0  0  0
 19 20  2  0  0  0
 20 21  1  0  0  0
 21 22  2  0  0  0
 22 23  1  0  0  0
  3  4  1  0  0  0
  4  5  1  0  0  0
  5  6  2  0  0  0
  6  7  1  0  0  0
  7  8  2  0  0  0
  8  9  1  0  0  0
 15 16  1  0  0  0
 16 17  2  0  0  0
 17 18  1  0  0  0
 17 12  1  0  0  0
  9  1  1  0  0  0
 23 19  1  0  0  0
  8  4  1  0  0  0
  9 10  1  0  0  0
M  END
> <minimizedAffinity>
-7.59234

> <CNNscore>
0.2185726762

> <CNNaffinity>
5.8111286163

> <CNN_VS>
1.2701538801

> <CNNaffinity_variance>
0.1230993867

$$$$
[H]c1nc2n(n1)C([H])(c1sc([H])c([H])c1[H])C([H])([H])C([H])(c1c([H])c([H])c(Cl)c(Cl)c1[H])N2[H]


 23 26  0  0  0  0  0  0  0  0999 V2000
   -0.8797   21.6278  -22.7591 C   0  0  0  0  0  0  0  0  0  0  0  0
    0.5989   21.4707  -22.6762 C   0  0  0  0  0  0  0  0  0  0  0  0
    1.0564   21.1443  -21.3021 C   0  0  0  0  0  0  0  0  0  0  0  0
    0.3372   21.8005  -20.2567 N   0  0  0  0  0  0  0  0  0  0  0  0
    0.5600   21.8394  -18.9591 N   0  0  0  0  0  0  0  0  0  0  0  0
   -0.3672   22.5795  -18.3384 C   0  0  0  0  0  0  0  0  0  0  0  0
   -1.1880   23.0063  -19.3138 N   0  0  0  0  0  0  0  0  0  0  0  0
   -0.7817   22.5442  -20.5054 C   0  0  0  0  0  0  0  0  0  0  0  0
   -1.2622   22.6789  -21.8369 N   0  0  0  0  0  0  0  0  0  0  0  0
   -1.8438   23.5031  -22.0594 H   0  0  0  0  0  0  0  0  0  0  0  0
   -2.7628   22.6406  -28.3606 Cl  0  0  0  0  0  0  0  0  0  0  0  0
   -2.2316   22.3428  -26.7227 C   0  0  0  0  0  0  0  0  0  0  0  0
   -3.1585   22.0645  -25.7455 C   0  0  0  0  0  0  0  0  0  0  0  0
   -2.7037   21.8299  -24.4416 C   0  0  0  0  0  0  0  0  0  0  0  0
   -1.3743   21.8711  -24.1228 C   0  0  0  0  0  0  0  0  0  0  0  0
   -0.4649   22.1516  -25.1180 C   0  0  0  0  0  0  0  0  0  0  0  0
   -0.8848   22.3914  -26.4333 C   0  0  0  0  0  0  0  0  0  0  0  0
    0.2595   22.7493  -27.7085 Cl  0  0  0  0  0  0  0  0  0  0  0  0
    1.0502   19.6585  -21.0315 C   0  0  0  0  0  0  0  0  0  0  0  0
   -0.0271   18.8707  -20.7418 C   0  0  0  0  0  0  0  0  0  0  0  0
    0.1948   17.5679  -20.5336 C   0  0  0  0  0  0  0  0  0  0  0  0
    1.4905   17.1292  -20.6287 C   0  0  0  0  0  0  0  0  0  0  0  0
    2.3492   18.5525  -21.0051 S   0  0  0  0  0  0  0  0  0  0  0  0
 11 12  1  0  0  0
 12 13  2  0  0  0
 13 14  1  0  0  0
 14 15  2  0  0  0
 15  1  1  0  0  0
  1  2  1  0  0  0
  2  3  1  0  0  0
  3 19  1  0  0  0
 19 20  2  0  0  0
 20 21  1  0  0  0
 21 22  2  0  0  0
 22 23  1  0  0  0
  3  4  1  0  0  0
  4  5  1  0  0  0
  5  6  2  0  0  0
  6  7  1  0  0  0
  7  8  2  0  0  0
  8  9  1  0  0  0
 15 16  1  0  0  0
 16 17  2  0  0  0
 17 18  1  0  0  0
 17 12  1  0  0  0
  9  1  1  0  0  0
 23 19  1  0  0  0
  8  4  1  0  0  0
  9 10  1  0  0  0
M  END
> <minimizedAffinity>
-7.06783

> <CNNscore>
0.1978574842

> <CNNaffinity>
5.5400352478

> <CNN_VS>
1.0961374044

> <CNNaffinity_variance>
0.0943015963

$$$$
[H]c1nc2n(n1)C([H])(c1sc([H])c([H])c1[H])C([H])([H])C([H])(c1c([H])c([H])c(Cl)c(Cl)c1[H])N2[H]


 23 26  0  0  0  0  0  0  0  0999 V2000
   -3.7626   23.1610  -23.5865 C   0  0  0  0  0  0  0  0  0  0  0  0
   -3.5866   21.7629  -23.1046 C   0  0  0  0  0  0  0  0  0  0  0  0
   -2.1731   21.3147  -23.1743 C   0  0  0  0  0  0  0  0  0  0  0  0
   -1.4475   21.7867  -24.3109 N   0  0  0  0  0  0  0  0  0  0  0  0
   -0.2411   21.4815  -24.7425 N   0  0  0  0  0  0  0  0  0  0  0  0
    0.0515   22.1605  -25.8588 C   0  0  0  0  0  0  0  0  0  0  0  0
   -1.0352   22.9113  -26.1093 N   0  0  0  0  0  0  0  0  0  0  0  0
   -1.9750   22.7041  -25.1752 C   0  0  0  0  0  0  0  0  0  0  0  0
   -3.2818   23.2185  -24.9529 N   0  0  0  0  0  0  0  0  0  0  0  0
   -3.7975   23.5945  -25.7651 H   0  0  0  0  0  0  0  0  0  0  0  0
   -9.3811   25.2161  -23.1897 Cl  0  0  0  0  0  0  0  0  0  0  0  0
   -7.7424   24.6171  -23.2867 C   0  0  0  0  0  0  0  0  0  0  0  0
   -7.0307   24.3885  -22.1323 C   0  0  0  0  0  0  0  0  0  0  0  0
   -5.7193   23.9082  -22.2407 C   0  0  0  0  0  0  0  0  0  0  0  0
   -5.1382   23.6647  -23.4546 C   0  0  0  0  0  0  0  0  0  0  0  0
   -5.8704   23.9009  -24.5966 C   0  0  0  0  0  0  0  0  0  0  0  0
   -7.1849   24.3813  -24.5251 C   0  0  0  0  0  0  0  0  0  0  0  0
   -8.1276   24.6864  -25.9681 Cl  0  0  0  0  0  0  0  0  0  0  0  0
   -1.3962   21.6658  -21.9276 C   0  0  0  0  0  0  0  0  0  0  0  0
   -0.4073   20.9366  -21.3314 C   0  0  0  0  0  0  0  0  0  0  0  0
    0.1508   21.4371  -20.2233 C   0  0  0  0  0  0  0  0  0  0  0  0
   -0.3178   22.6456  -19.7758 C   0  0  0  0  0  0  0  0  0  0  0  0
   -1.5196   23.0367  -20.9194 S   0  0  0  0  0  0  0  0  0  0  0  0
 11 12  1  0  0  0
 12 13  2  0  0  0
 13 14  1  0  0  0
 14 15  2  0  0  0
 15  1  1  0  0  0
  1  2  1  0  0  0
  2  3  1  0  0  0
  3 19  1  0  0  0
 19 20  2  0  0  0
 20 21  1  0  0  0
 21 22  2  0  0  0
 22 23  1  0  0  0
  3  4  1  0  0  0
  4  5  1  0  0  0
  5  6  2  0  0  0
  6  7  1  0  0  0
  7  8  2  0  0  0
  8  9  1  0  0  0
 15 16  1  0  0  0
 16 17  2  0  0  0
 17 18  1  0  0  0
 17 12  1  0  0  0
  9  1  1  0  0  0
 23 19  1  0  0  0
  8  4  1  0  0  0
  9 10  1  0  0  0
M  END
> <minimizedAffinity>
-6.23573

> <CNNscore>
0.1798875630

> <CNNaffinity>
5.8111324310

> <CNN_VS>
1.0453504324

> <CNNaffinity_variance>
0.7972488403

$$$$
[H]c1nc2n(n1)C([H])(c1sc([H])c([H])c1[H])C([H])([H])C([H])(c1c([H])c([H])c(Cl)c(Cl)c1[H])N2[H]


 23 26  0  0  0  0  0  0  0  0999 V2000
   -1.6442   21.9973  -23.9107 C   0  0  0  0  0  0  0  0  0  0  0  0
   -2.2236   23.2932  -23.4605 C   0  0  0  0  0  0  0  0  0  0  0  0
   -3.3472   23.7396  -24.3219 C   0  0  0  0  0  0  0  0  0  0  0  0
   -3.1853   23.4623  -25.7139 N   0  0  0  0  0  0  0  0  0  0  0  0
   -3.9117   23.8298  -26.7494 N   0  0  0  0  0  0  0  0  0  0  0  0
   -3.3975   23.3471  -27.8876 C   0  0  0  0  0  0  0  0  0  0  0  0
   -2.3069   22.6547  -27.5154 N   0  0  0  0  0  0  0  0  0  0  0  0
   -2.1490   22.7064  -26.1846 C   0  0  0  0  0  0  0  0  0  0  0  0
   -1.1946   22.1685  -25.2782 N   0  0  0  0  0  0  0  0  0  0  0  0
   -0.2570   21.9373  -25.6449 H   0  0  0  0  0  0  0  0  0  0  0  0
    2.7791   19.9322  -20.4296 Cl  0  0  0  0  0  0  0  0  0  0  0  0
    1.4778   20.5311  -21.4303 C   0  0  0  0  0  0  0  0  0  0  0  0
    0.1962   20.5666  -20.9328 C   0  0  0  0  0  0  0  0  0  0  0  0
   -0.8268   21.0517  -21.7575 C   0  0  0  0  0  0  0  0  0  0  0  0
   -0.5821   21.4855  -23.0312 C   0  0  0  0  0  0  0  0  0  0  0  0
    0.7091   21.4406  -23.5076 C   0  0  0  0  0  0  0  0  0  0  0  0
    1.7568   20.9613  -22.7098 C   0  0  0  0  0  0  0  0  0  0  0  0
    3.4029   20.8981  -23.3017 Cl  0  0  0  0  0  0  0  0  0  0  0  0
   -4.6754   23.1796  -23.8709 C   0  0  0  0  0  0  0  0  0  0  0  0
   -5.1878   21.9412  -24.1335 C   0  0  0  0  0  0  0  0  0  0  0  0
   -6.3939   21.6498  -23.6334 C   0  0  0  0  0  0  0  0  0  0  0  0
   -7.0187   22.6221  -22.8954 C   0  0  0  0  0  0  0  0  0  0  0  0
   -5.8981   23.9059  -22.9282 S   0  0  0  0  0  0  0  0  0  0  0  0
 11 12  1  0  0  0
 12 13  2  0  0  0
 13 14  1  0  0  0
 14 15  2  0  0  0
 15  1  1  0  0  0
  1  2  1  0  0  0
  2  3  1  0  0  0
  3 19  1  0  0  0
 19 20  2  0  0  0
 20 21  1  0  0  0
 21 22  2  0  0  0
 22 23  1  0  0  0
  3  4  1  0  0  0
  4  5  1  0  0  0
  5  6  2  0  0  0
  6  7  1  0  0  0
  7  8  2  0  0  0
  8  9  1  0  0  0
 15 16  1  0  0  0
 16 17  2  0  0  0
 17 18  1  0  0  0
 17 12  1  0  0  0
  9  1  1  0  0  0
 23 19  1  0  0  0
  8  4  1  0  0  0
  9 10  1  0  0  0
M  END
> <minimizedAffinity>
-6.81924

> <CNNscore>
0.1787411720

> <CNNaffinity>
6.0893921852

> <CNN_VS>
1.0884250402

> <CNNaffinity_variance>
0.5249409080

$$$$
[H]c1nc2n(n1)C([H])(c1sc([H])c([H])c1[H])C([H])([H])C([H])(c1c([H])c([H])c(Cl)c(Cl)c1[H])N2[H]


 23 26  0  0  0  0  0  0  0  0999 V2000
   -3.0294   22.9971  -26.4652 C   0  0  0  0  0  0  0  0  0  0  0  0
   -3.2725   24.4599  -26.3268 C   0  0  0  0  0  0  0  0  0  0  0  0
   -4.5734   24.8743  -26.9098 C   0  0  0  0  0  0  0  0  0  0  0  0
   -4.9421   24.1881  -28.1072 N   0  0  0  0  0  0  0  0  0  0  0  0
   -5.9432   24.3949  -28.9379 N   0  0  0  0  0  0  0  0  0  0  0  0
   -5.9167   23.5130  -29.9450 C   0  0  0  0  0  0  0  0  0  0  0  0
   -4.8448   22.7376  -29.7059 N   0  0  0  0  0  0  0  0  0  0  0  0
   -4.2241   23.1273  -28.5828 C   0  0  0  0  0  0  0  0  0  0  0  0
   -3.0745   22.6760  -27.8781 N   0  0  0  0  0  0  0  0  0  0  0  0
   -2.3561   22.1565  -28.4082 H   0  0  0  0  0  0  0  0  0  0  0  0
    1.9642   21.1016  -23.7415 Cl  0  0  0  0  0  0  0  0  0  0  0  0
    0.5188   21.6581  -24.5505 C   0  0  0  0  0  0  0  0  0  0  0  0
    0.6000   22.1411  -25.8357 C   0  0  0  0  0  0  0  0  0  0  0  0
   -0.5750   22.5802  -26.4592 C   0  0  0  0  0  0  0  0  0  0  0  0
   -1.7863   22.5397  -25.8256 C   0  0  0  0  0  0  0  0  0  0  0  0
   -1.8430   22.0520  -24.5391 C   0  0  0  0  0  0  0  0  0  0  0  0
   -0.6872   21.6044  -23.8852 C   0  0  0  0  0  0  0  0  0  0  0  0
   -0.7437   20.9821  -22.2501 Cl  0  0  0  0  0  0  0  0  0  0  0  0
   -5.7091   24.7607  -25.9207 C   0  0  0  0  0  0  0  0  0  0  0  0
   -6.3688   23.6275  -25.5388 C   0  0  0  0  0  0  0  0  0  0  0  0
   -7.3539   23.7550  -24.6426 C   0  0  0  0  0  0  0  0  0  0  0  0
   -7.6212   25.0177  -24.1796 C   0  0  0  0  0  0  0  0  0  0  0  0
   -6.4867   25.9785  -25.0132 S   0  0  0  0  0  0  0  0  0  0  0  0
 11 12  1  0  0  0
 12 13  2  0  0  0
 13 14  1  0  0  0
 14 15  2  0  0  0
 15  1  1  0  0  0
  1  2  1  0  0  0
  2  3  1  0  0  0
  3 19  1  0  0  0
 19 20  2  0  0  0
 20 21  1  0  0  0
 21 22  2  0  0  0
 22 23  1  0  0  0
  3  4  1  0  0  0
  4  5  1  0  0  0
  5  6  2  0  0  0
  6  7  1  0  0  0
  7  8  2  0  0  0
  8  9  1  0  0  0
 15 16  1  0  0  0
 16 17  2  0  0  0
 17 18  1  0  0  0
 17 12  1  0  0  0
  9  1  1  0  0  0
 23 19  1  0  0  0
  8  4  1  0  0  0
  9 10  1  0  0  0
M  END
> <minimizedAffinity>
-7.89938

> <CNNscore>
0.1680055559

> <CNNaffinity>
6.3976845741

> <CNN_VS>
1.0748465061

> <CNNaffinity_variance>
0.2771845162

$$$$
[H]c1nc([H])c2c(c1[H])c1c([H])nc(N([H])c3nnc(N([H])C([H])([H])C4([H])C([H])([H])N([H])C4([H])[H])c([H])c3[H])nc1n2C1([H])C([H])([H])C([H])([H])C([H])([H])C1([H])[H]


 34 39  0  0  0  0  0  0  0  0999 V2000
   -5.5593   23.6486  -29.2503 C   0  0  0  0  0  0  0  0  0  0  0  0
   -4.2054   23.4083  -29.0987 C   0  0  0  0  0  0  0  0  0  0  0  0
   -3.6846   23.2071  -27.8388 C   0  0  0  0  0  0  0  0  0  0  0  0
   -2.4084   22.9556  -27.4193 C   0  0  0  0  0  0  0  0  0  0  0  0
   -1.1763   22.8066  -28.0520 C   0  0  0  0  0  0  0  0  0  0  0  0
   -0.0888   22.5571  -27.3062 N   0  0  0  0  0  0  0  0  0  0  0  0
   -0.1150   22.4398  -25.9615 C   0  0  0  0  0  0  0  0  0  0  0  0
   -1.2899   22.5790  -25.3275 N   0  0  0  0  0  0  0  0  0  0  0  0
   -2.4091   22.8315  -26.0473 C   0  0  0  0  0  0  0  0  0  0  0  0
   -3.7007   23.0112  -25.6438 N   0  0  0  0  0  0  0  0  0  0  0  0
   -4.4743   23.2372  -26.7109 C   0  0  0  0  0  0  0  0  0  0  0  0
   -5.8199   23.4794  -26.8988 C   0  0  0  0  0  0  0  0  0  0  0  0
   -6.3075   23.6719  -28.1245 N   0  0  0  0  0  0  0  0  0  0  0  0
   -4.1756   22.9672  -24.2795 C   0  0  0  0  0  0  0  0  0  0  0  0
   -3.4806   23.9585  -23.3823 C   0  0  0  0  0  0  0  0  0  0  0  0
   -3.3332   23.3016  -22.0392 C   0  0  0  0  0  0  0  0  0  0  0  0
   -3.6757   21.8532  -22.1923 C   0  0  0  0  0  0  0  0  0  0  0  0
   -4.0398   21.6219  -23.6400 C   0  0  0  0  0  0  0  0  0  0  0  0
    1.0997   22.1712  -25.2388 N   0  0  0  0  0  0  0  0  0  0  0  0
    2.0108   22.3846  -25.6989 H   0  0  0  0  0  0  0  0  0  0  0  0
    1.0845   21.6297  -23.9320 C   0  0  0  0  0  0  0  0  0  0  0  0
   -0.0553   21.5237  -23.1685 C   0  0  0  0  0  0  0  0  0  0  0  0
   -0.0352   20.9874  -21.8896 C   0  0  0  0  0  0  0  0  0  0  0  0
    1.1587   20.5452  -21.3605 C   0  0  0  0  0  0  0  0  0  0  0  0
    2.2544   20.6699  -22.1492 N   0  0  0  0  0  0  0  0  0  0  0  0
    2.2173   21.1838  -23.3668 N   0  0  0  0  0  0  0  0  0  0  0  0
    1.2523   19.9848  -20.0567 N   0  0  0  0  0  0  0  0  0  0  0  0
    1.0137   20.5564  -19.2346 H   0  0  0  0  0  0  0  0  0  0  0  0
    1.6813   18.6152  -19.8849 C   0  0  0  0  0  0  0  0  0  0  0  0
    0.9081   17.6701  -20.7787 C   0  0  0  0  0  0  0  0  0  0  0  0
    1.7475   16.4900  -21.2147 C   0  0  0  0  0  0  0  0  0  0  0  0
    0.6161   15.6033  -20.9526 N   0  0  0  0  0  0  0  0  0  0  0  0
    0.1092   16.6272  -20.0382 C   0  0  0  0  0  0  0  0  0  0  0  0
    0.9228   14.7685  -20.3890 H   0  0  0  0  0  0  0  0  0  0  0  0
  1  2  2  0  0  0
  2  3  1  0  0  0
  3  4  1  0  0  0
  4  5  2  0  0  0
  5  6  1  0  0  0
  6  7  2  0  0  0
  7 19  1  0  0  0
 19 21  1  0  0  0
 21 22  2  0  0  0
 22 23  1  0  0  0
 23 24  2  0  0  0
 24 27  1  0  0  0
 27 29  1  0  0  0
 29 30  1  0  0  0
 30 31  1  0  0  0
 31 32  1  0  0  0
 32 33  1  0  0  0
 24 25  1  0  0  0
 25 26  2  0  0  0
  7  8  1  0  0  0
  8  9  2  0  0  0
  9 10  1  0  0  0
 10 14  1  0  0  0
 14 15  1  0  0  0
 15 16  1  0  0  0
 16 17  1  0  0  0
 17 18  1  0  0  0
 10 11  1  0  0  0
 11 12  1  0  0  0
 12 13  2  0  0  0
 13  1  1  0  0  0
 11  3  2  0  0  0
  9  4  1  0  0  0
 18 14  1  0  0  0
 26 21  1  0  0  0
 33 30  1  0  0  0
 19 20  1  0  0  0
 27 28  1  0  0  0
 32 34  1  0  0  0
M  END
> <minimizedAffinity>
-8.57318

> <CNNscore>
0.9591884613

> <CNNaffinity>
7.6835451126

> <CNN_VS>
7.3699679375

> <CNNaffinity_variance>
0.1656469107

$$$$
[H]c1nc([H])c2c(c1[H])c1c([H])nc(N([H])c3nnc(N([H])C([H])([H])C4([H])C([H])([H])N([H])C4([H])[H])c([H])c3[H])nc1n2C1([H])C([H])([H])C([H])([H])C([H])([H])C1([H])[H]


 34 39  0  0  0  0  0  0  0  0999 V2000
   -5.5935   23.6905  -28.9850 C   0  0  0  0  0  0  0  0  0  0  0  0
   -4.2466   23.3877  -28.8960 C   0  0  0  0  0  0  0  0  0  0  0  0
   -3.6781   23.1603  -27.6614 C   0  0  0  0  0  0  0  0  0  0  0  0
   -2.3968   22.8495  -27.3012 C   0  0  0  0  0  0  0  0  0  0  0  0
   -1.2034   22.6451  -27.9900 C   0  0  0  0  0  0  0  0  0  0  0  0
   -0.0953   22.3443  -27.2952 N   0  0  0  0  0  0  0  0  0  0  0  0
   -0.0649   22.2258  -25.9507 C   0  0  0  0  0  0  0  0  0  0  0  0
   -1.2016   22.4177  -25.2632 N   0  0  0  0  0  0  0  0  0  0  0  0
   -2.3400   22.7229  -25.9307 C   0  0  0  0  0  0  0  0  0  0  0  0
   -3.6019   22.9611  -25.4679 N   0  0  0  0  0  0  0  0  0  0  0  0
   -4.4127   23.2246  -26.4983 C   0  0  0  0  0  0  0  0  0  0  0  0
   -5.7529   23.5289  -26.6239 C   0  0  0  0  0  0  0  0  0  0  0  0
   -6.2871   23.7460  -27.8258 N   0  0  0  0  0  0  0  0  0  0  0  0
   -4.0150   22.9364  -24.0832 C   0  0  0  0  0  0  0  0  0  0  0  0
   -3.2491   23.9086  -23.2234 C   0  0  0  0  0  0  0  0  0  0  0  0
   -3.0608   23.2518  -21.8854 C   0  0  0  0  0  0  0  0  0  0  0  0
   -3.4547   21.8143  -22.0158 C   0  0  0  0  0  0  0  0  0  0  0  0
   -3.8918   21.5897  -23.4443 C   0  0  0  0  0  0  0  0  0  0  0  0
    1.1681   21.9000  -25.2848 N   0  0  0  0  0  0  0  0  0  0  0  0
    2.0479   21.8852  -25.8444 H   0  0  0  0  0  0  0  0  0  0  0  0
    1.2120   21.6028  -23.9024 C   0  0  0  0  0  0  0  0  0  0  0  0
    0.0917   21.5295  -23.1068 C   0  0  0  0  0  0  0  0  0  0  0  0
    0.1702   21.2356  -21.7536 C   0  0  0  0  0  0  0  0  0  0  0  0
    1.4038   21.0089  -21.1812 C   0  0  0  0  0  0  0  0  0  0  0  0
    2.4782   21.0919  -22.0040 N   0  0  0  0  0  0  0  0  0  0  0  0
    2.3854   21.3733  -23.2925 N   0  0  0  0  0  0  0  0  0  0  0  0
    1.5577   20.7028  -19.8010 N   0  0  0  0  0  0  0  0  0  0  0  0
    1.7648   19.7374  -19.5099 H   0  0  0  0  0  0  0  0  0  0  0  0
    1.4242   21.7443  -18.8076 C   0  0  0  0  0  0  0  0  0  0  0  0
    2.5524   22.7490  -18.8949 C   0  0  0  0  0  0  0  0  0  0  0  0
    2.1043   24.1385  -18.4998 C   0  0  0  0  0  0  0  0  0  0  0  0
    3.3310   24.3003  -17.7224 N   0  0  0  0  0  0  0  0  0  0  0  0
    3.4018   22.8403  -17.6522 C   0  0  0  0  0  0  0  0  0  0  0  0
    3.1142   24.6749  -16.7626 H   0  0  0  0  0  0  0  0  0  0  0  0
  1  2  2  0  0  0
  2  3  1  0  0  0
  3  4  1  0  0  0
  4  5  2  0  0  0
  5  6  1  0  0  0
  6  7  2  0  0  0
  7 19  1  0  0  0
 19 21  1  0  0  0
 21 22  2  0  0  0
 22 23  1  0  0  0
 23 24  2  0  0  0
 24 27  1  0  0  0
 27 29  1  0  0  0
 29 30  1  0  0  0
 30 31  1  0  0  0
 31 32  1  0  0  0
 32 33  1  0  0  0
 24 25  1  0  0  0
 25 26  2  0  0  0
  7  8  1  0  0  0
  8  9  2  0  0  0
  9 10  1  0  0  0
 10 14  1  0  0  0
 14 15  1  0  0  0
 15 16  1  0  0  0
 16 17  1  0  0  0
 17 18  1  0  0  0
 10 11  1  0  0  0
 11 12  1  0  0  0
 12 13  2  0  0  0
 13  1  1  0  0  0
 11  3  2  0  0  0
  9  4  1  0  0  0
 18 14  1  0  0  0
 26 21  1  0  0  0
 33 30  1  0  0  0
 19 20  1  0  0  0
 27 28  1  0  0  0
 32 34  1  0  0  0
M  END
> <minimizedAffinity>
-8.67567

> <CNNscore>
0.9041669369

> <CNNaffinity>
7.4954023361

> <CNN_VS>
6.7770948410

> <CNNaffinity_variance>
0.1909953356

$$$$
[H]c1nc([H])c2c(c1[H])c1c([H])nc(N([H])c3nnc(N([H])C([H])([H])C4([H])C([H])([H])N([H])C4([H])[H])c([H])c3[H])nc1n2C1([H])C([H])([H])C([H])([H])C([H])([H])C1([H])[H]


 34 39  0  0  0  0  0  0  0  0999 V2000
    0.4841   22.1135  -26.1596 C   0  0  0  0  0  0  0  0  0  0  0  0
   -0.6360   22.4159  -25.4063 C   0  0  0  0  0  0  0  0  0  0  0  0
   -1.7877   22.8380  -26.0345 C   0  0  0  0  0  0  0  0  0  0  0  0
   -3.0095   23.1935  -25.5357 C   0  0  0  0  0  0  0  0  0  0  0  0
   -3.5666   23.2727  -24.2614 C   0  0  0  0  0  0  0  0  0  0  0  0
   -4.8407   23.6744  -24.1330 N   0  0  0  0  0  0  0  0  0  0  0  0
   -5.6273   24.0114  -25.1772 C   0  0  0  0  0  0  0  0  0  0  0  0
   -5.1145   23.9437  -26.4157 N   0  0  0  0  0  0  0  0  0  0  0  0
   -3.8319   23.5424  -26.5843 C   0  0  0  0  0  0  0  0  0  0  0  0
   -3.0921   23.3934  -27.7217 N   0  0  0  0  0  0  0  0  0  0  0  0
   -1.8638   22.9711  -27.4031 C   0  0  0  0  0  0  0  0  0  0  0  0
   -0.7282   22.6610  -28.1233 C   0  0  0  0  0  0  0  0  0  0  0  0
    0.3776   22.2541  -27.5000 N   0  0  0  0  0  0  0  0  0  0  0  0
   -3.5493   23.6479  -29.0689 C   0  0  0  0  0  0  0  0  0  0  0  0
   -3.7931   25.1098  -29.3411 C   0  0  0  0  0  0  0  0  0  0  0  0
   -4.9862   25.1904  -30.2506 C   0  0  0  0  0  0  0  0  0  0  0  0
   -5.6194   23.8359  -30.3046 C   0  0  0  0  0  0  0  0  0  0  0  0
   -4.8050   22.9171  -29.4244 C   0  0  0  0  0  0  0  0  0  0  0  0
   -6.9843   24.4321  -24.9496 N   0  0  0  0  0  0  0  0  0  0  0  0
   -7.5511   24.7494  -25.7653 H   0  0  0  0  0  0  0  0  0  0  0  0
   -7.5595   24.4244  -23.6572 C   0  0  0  0  0  0  0  0  0  0  0  0
   -8.2981   25.4687  -23.1499 C   0  0  0  0  0  0  0  0  0  0  0  0
   -8.8485   25.4287  -21.8775 C   0  0  0  0  0  0  0  0  0  0  0  0
   -8.6543   24.3129  -21.0914 C   0  0  0  0  0  0  0  0  0  0  0  0
   -7.9204   23.3099  -21.6334 N   0  0  0  0  0  0  0  0  0  0  0  0
   -7.4027   23.3646  -22.8487 N   0  0  0  0  0  0  0  0  0  0  0  0
   -9.1895   24.2044  -19.7782 N   0  0  0  0  0  0  0  0  0  0  0  0
   -8.9084   24.8783  -19.0527 H   0  0  0  0  0  0  0  0  0  0  0  0
  -10.1266   23.1505  -19.4616 C   0  0  0  0  0  0  0  0  0  0  0  0
   -9.5810   22.2150  -18.4047 C   0  0  0  0  0  0  0  0  0  0  0  0
  -10.6113   21.2008  -17.9605 C   0  0  0  0  0  0  0  0  0  0  0  0
   -9.5896   20.1575  -18.0125 N   0  0  0  0  0  0  0  0  0  0  0  0
   -8.8606   21.0091  -18.9532 C   0  0  0  0  0  0  0  0  0  0  0  0
   -9.9486   19.3132  -18.5289 H   0  0  0  0  0  0  0  0  0  0  0  0
  1  2  2  0  0  0
  2  3  1  0  0  0
  3  4  1  0  0  0
  4  5  2  0  0  0
  5  6  1  0  0  0
  6  7  2  0  0  0
  7 19  1  0  0  0
 19 21  1  0  0  0
 21 22  2  0  0  0
 22 23  1  0  0  0
 23 24  2  0  0  0
 24 27  1  0  0  0
 27 29  1  0  0  0
 29 30  1  0  0  0
 30 31  1  0  0  0
 31 32  1  0  0  0
 32 33  1  0  0  0
 24 25  1  0  0  0
 25 26  2  0  0  0
  7  8  1  0  0  0
  8  9  2  0  0  0
  9 10  1  0  0  0
 10 14  1  0  0  0
 14 15  1  0  0  0
 15 16  1  0  0  0
 16 17  1  0  0  0
 17 18  1  0  0  0
 10 11  1  0  0  0
 11 12  1  0  0  0
 12 13  2  0  0  0
 13  1  1  0  0  0
 11  3  2  0  0  0
  9  4  1  0  0  0
 18 14  1  0  0  0
 26 21  1  0  0  0
 33 30  1  0  0  0
 19 20  1  0  0  0
 27 28  1  0  0  0
 32 34  1  0  0  0
M  END
> <minimizedAffinity>
-8.86117

> <CNNscore>
0.4178328216

> <CNNaffinity>
6.8859863281

> <CNN_VS>
2.8771910667

> <CNNaffinity_variance>
0.5287807584

$$$$
[H]c1nc([H])c2c(c1[H])c1c([H])nc(N([H])c3nnc(N([H])C([H])([H])C4([H])C([H])([H])N([H])C4([H])[H])c([H])c3[H])nc1n2C1([H])C([H])([H])C([H])([H])C([H])([H])C1([H])[H]


 34 39  0  0  0  0  0  0  0  0999 V2000
   -0.3406   22.8236  -28.6843 C   0  0  0  0  0  0  0  0  0  0  0  0
   -1.6567   23.1110  -28.3696 C   0  0  0  0  0  0  0  0  0  0  0  0
   -2.0652   23.0863  -27.0537 C   0  0  0  0  0  0  0  0  0  0  0  0
   -3.2833   23.3261  -26.4821 C   0  0  0  0  0  0  0  0  0  0  0  0
   -4.5437   23.6743  -26.9621 C   0  0  0  0  0  0  0  0  0  0  0  0
   -5.5501   23.8350  -26.0889 N   0  0  0  0  0  0  0  0  0  0  0  0
   -5.4148   23.6778  -24.7548 C   0  0  0  0  0  0  0  0  0  0  0  0
   -4.2104   23.3424  -24.2666 N   0  0  0  0  0  0  0  0  0  0  0  0
   -3.1708   23.1717  -25.1178 C   0  0  0  0  0  0  0  0  0  0  0  0
   -1.8706   22.8358  -24.8729 N   0  0  0  0  0  0  0  0  0  0  0  0
   -1.1984   22.7819  -26.0278 C   0  0  0  0  0  0  0  0  0  0  0  0
    0.1066   22.5004  -26.3774 C   0  0  0  0  0  0  0  0  0  0  0  0
    0.4852   22.5287  -27.6553 N   0  0  0  0  0  0  0  0  0  0  0  0
   -1.2934   22.5755  -23.5737 C   0  0  0  0  0  0  0  0  0  0  0  0
    0.1879   22.3052  -23.6315 C   0  0  0  0  0  0  0  0  0  0  0  0
    0.4808   21.2607  -22.5920 C   0  0  0  0  0  0  0  0  0  0  0  0
   -0.8237   20.7093  -22.1095 C   0  0  0  0  0  0  0  0  0  0  0  0
   -1.9247   21.4249  -22.8563 C   0  0  0  0  0  0  0  0  0  0  0  0
   -6.5478   23.8696  -23.8891 N   0  0  0  0  0  0  0  0  0  0  0  0
   -7.3468   24.4442  -24.2340 H   0  0  0  0  0  0  0  0  0  0  0  0
   -6.6006   23.3017  -22.5946 C   0  0  0  0  0  0  0  0  0  0  0  0
   -7.1700   22.0780  -22.3262 C   0  0  0  0  0  0  0  0  0  0  0  0
   -7.2050   21.5499  -21.0443 C   0  0  0  0  0  0  0  0  0  0  0  0
   -6.6550   22.2661  -20.0024 C   0  0  0  0  0  0  0  0  0  0  0  0
   -6.1058   23.4656  -20.3150 N   0  0  0  0  0  0  0  0  0  0  0  0
   -6.0809   23.9544  -21.5433 N   0  0  0  0  0  0  0  0  0  0  0  0
   -6.6559   21.7852  -18.6641 N   0  0  0  0  0  0  0  0  0  0  0  0
   -7.5251   21.4201  -18.2510 H   0  0  0  0  0  0  0  0  0  0  0  0
   -5.4391   21.8082  -17.8842 C   0  0  0  0  0  0  0  0  0  0  0  0
   -4.9934   20.4138  -17.5008 C   0  0  0  0  0  0  0  0  0  0  0  0
   -5.4319   19.3810  -18.5150 C   0  0  0  0  0  0  0  0  0  0  0  0
   -4.1095   18.7637  -18.4405 N   0  0  0  0  0  0  0  0  0  0  0  0
   -3.6056   20.0537  -17.9680 C   0  0  0  0  0  0  0  0  0  0  0  0
   -3.7295   18.5853  -19.4060 H   0  0  0  0  0  0  0  0  0  0  0  0
  1  2  2  0  0  0
  2  3  1  0  0  0
  3  4  1  0  0  0
  4  5  2  0  0  0
  5  6  1  0  0  0
  6  7  2  0  0  0
  7 19  1  0  0  0
 19 21  1  0  0  0
 21 22  2  0  0  0
 22 23  1  0  0  0
 23 24  2  0  0  0
 24 27  1  0  0  0
 27 29  1  0  0  0
 29 30  1  0  0  0
 30 31  1  0  0  0
 31 32  1  0  0  0
 32 33  1  0  0  0
 24 25  1  0  0  0
 25 26  2  0  0  0
  7  8  1  0  0  0
  8  9  2  0  0  0
  9 10  1  0  0  0
 10 14  1  0  0  0
 14 15  1  0  0  0
 15 16  1  0  0  0
 16 17  1  0  0  0
 17 18  1  0  0  0
 10 11  1  0  0  0
 11 12  1  0  0  0
 12 13  2  0  0  0
 13  1  1  0  0  0
 11  3  2  0  0  0
  9  4  1  0  0  0
 18 14  1  0  0  0
 26 21  1  0  0  0
 33 30  1  0  0  0
 19 20  1  0  0  0
 27 28  1  0  0  0
 32 34  1  0  0  0
M  END
> <minimizedAffinity>
-7.42172

> <CNNscore>
0.4119665921

> <CNNaffinity>
6.9244360924

> <CNN_VS>
2.8526363373

> <CNNaffinity_variance>
0.5267211795

$$$$
[H]c1nc([H])c2c(c1[H])c1c([H])nc(N([H])c3nnc(N([H])C([H])([H])C4([H])C([H])([H])N([H])C4([H])[H])c([H])c3[H])nc1n2C1([H])C([H])([H])C([H])([H])C([H])([H])C1([H])[H]


 34 39  0  0  0  0  0  0  0  0999 V2000
    0.0284   22.7661  -28.5287 C   0  0  0  0  0  0  0  0  0  0  0  0
   -1.3273   22.9845  -28.3616 C   0  0  0  0  0  0  0  0  0  0  0  0
   -1.8685   22.9800  -27.0942 C   0  0  0  0  0  0  0  0  0  0  0  0
   -3.1510   23.1655  -26.6598 C   0  0  0  0  0  0  0  0  0  0  0  0
   -4.3722   23.4209  -27.2793 C   0  0  0  0  0  0  0  0  0  0  0  0
   -5.4714   23.5504  -26.5203 N   0  0  0  0  0  0  0  0  0  0  0  0
   -5.4671   23.4470  -25.1742 C   0  0  0  0  0  0  0  0  0  0  0  0
   -4.3031   23.2012  -24.5528 N   0  0  0  0  0  0  0  0  0  0  0  0
   -3.1726   23.0645  -25.2861 C   0  0  0  0  0  0  0  0  0  0  0  0
   -1.8882   22.8158  -24.8967 N   0  0  0  0  0  0  0  0  0  0  0  0
   -1.0974   22.7632  -25.9740 C   0  0  0  0  0  0  0  0  0  0  0  0
    0.2506   22.5489  -26.1773 C   0  0  0  0  0  0  0  0  0  0  0  0
    0.7580   22.5565  -27.4100 N   0  0  0  0  0  0  0  0  0  0  0  0
   -1.4356   22.6349  -23.5361 C   0  0  0  0  0  0  0  0  0  0  0  0
   -1.9789   21.3831  -22.8969 C   0  0  0  0  0  0  0  0  0  0  0  0
   -2.2343   21.7073  -21.4523 C   0  0  0  0  0  0  0  0  0  0  0  0
   -2.1145   23.1890  -21.2823 C   0  0  0  0  0  0  0  0  0  0  0  0
   -1.7788   23.7767  -22.6329 C   0  0  0  0  0  0  0  0  0  0  0  0
   -6.6930   23.5997  -24.4369 N   0  0  0  0  0  0  0  0  0  0  0  0
   -7.5105   24.0370  -24.9143 H   0  0  0  0  0  0  0  0  0  0  0  0
   -6.8119   23.1740  -23.0931 C   0  0  0  0  0  0  0  0  0  0  0  0
   -6.7893   24.0353  -22.0202 C   0  0  0  0  0  0  0  0  0  0  0  0
   -6.9084   23.5843  -20.7141 C   0  0  0  0  0  0  0  0  0  0  0  0
   -7.0539   22.2342  -20.4753 C   0  0  0  0  0  0  0  0  0  0  0  0
   -7.0705   21.4248  -21.5628 N   0  0  0  0  0  0  0  0  0  0  0  0
   -6.9557   21.8717  -22.8019 N   0  0  0  0  0  0  0  0  0  0  0  0
   -7.1813   21.7028  -19.1623 N   0  0  0  0  0  0  0  0  0  0  0  0
   -6.8497   20.7495  -18.9606 H   0  0  0  0  0  0  0  0  0  0  0  0
   -7.7748   22.4990  -18.1120 C   0  0  0  0  0  0  0  0  0  0  0  0
   -8.9474   21.7917  -17.4680 C   0  0  0  0  0  0  0  0  0  0  0  0
  -10.1523   21.7477  -18.3811 C   0  0  0  0  0  0  0  0  0  0  0  0
  -10.3672   20.3506  -18.0108 N   0  0  0  0  0  0  0  0  0  0  0  0
   -8.9493   20.2951  -17.6531 C   0  0  0  0  0  0  0  0  0  0  0  0
  -10.5229   19.7601  -18.8684 H   0  0  0  0  0  0  0  0  0  0  0  0
  1  2  2  0  0  0
  2  3  1  0  0  0
  3  4  1  0  0  0
  4  5  2  0  0  0
  5  6  1  0  0  0
  6  7  2  0  0  0
  7 19  1  0  0  0
 19 21  1  0  0  0
 21 22  2  0  0  0
 22 23  1  0  0  0
 23 24  2  0  0  0
 24 27  1  0  0  0
 27 29  1  0  0  0
 29 30  1  0  0  0
 30 31  1  0  0  0
 31 32  1  0  0  0
 32 33  1  0  0  0
 24 25  1  0  0  0
 25 26  2  0  0  0
  7  8  1  0  0  0
  8  9  2  0  0  0
  9 10  1  0  0  0
 10 14  1  0  0  0
 14 15  1  0  0  0
 15 16  1  0  0  0
 16 17  1  0  0  0
 17 18  1  0  0  0
 10 11  1  0  0  0
 11 12  1  0  0  0
 12 13  2  0  0  0
 13  1  1  0  0  0
 11  3  2  0  0  0
  9  4  1  0  0  0
 18 14  1  0  0  0
 26 21  1  0  0  0
 33 30  1  0  0  0
 19 20  1  0  0  0
 27 28  1  0  0  0
 32 34  1  0  0  0
M  END
> <minimizedAffinity>
-7.73937

> <CNNscore>
0.4092685580

> <CNNaffinity>
6.7231354713

> <CNN_VS>
2.7515678406

> <CNNaffinity_variance>
0.4093855321

$$$$
[H]c1nc([H])c2c(c1[H])c1c([H])nc(N([H])c3nnc(N([H])C([H])([H])C4([H])C([H])([H])N([H])C4([H])[H])c([H])c3[H])nc1n2C1([H])C([H])([H])C([H])([H])C([H])([H])C1([H])[H]


 34 39  0  0  0  0  0  0  0  0999 V2000
    3.0025   20.7062  -22.8064 C   0  0  0  0  0  0  0  0  0  0  0  0
    2.4020   21.1456  -23.9726 C   0  0  0  0  0  0  0  0  0  0  0  0
    1.0711   21.5030  -23.9624 C   0  0  0  0  0  0  0  0  0  0  0  0
    0.2518   21.9606  -24.9561 C   0  0  0  0  0  0  0  0  0  0  0  0
    0.4106   22.2397  -26.3116 C   0  0  0  0  0  0  0  0  0  0  0  0
   -0.6429   22.6904  -27.0100 N   0  0  0  0  0  0  0  0  0  0  0  0
   -1.8648   22.8932  -26.4729 C   0  0  0  0  0  0  0  0  0  0  0  0
   -2.0444   22.6319  -25.1686 N   0  0  0  0  0  0  0  0  0  0  0  0
   -1.0038   22.1755  -24.4316 C   0  0  0  0  0  0  0  0  0  0  0  0
   -0.9326   21.8421  -23.1098 N   0  0  0  0  0  0  0  0  0  0  0  0
    0.3081   21.4373  -22.8178 C   0  0  0  0  0  0  0  0  0  0  0  0
    0.9390   20.9948  -21.6730 C   0  0  0  0  0  0  0  0  0  0  0  0
    2.2273   20.6530  -21.7001 N   0  0  0  0  0  0  0  0  0  0  0  0
   -2.0194   21.9102  -22.1595 C   0  0  0  0  0  0  0  0  0  0  0  0
   -3.3254   21.4123  -22.7227 C   0  0  0  0  0  0  0  0  0  0  0  0
   -4.4084   22.2740  -22.1379 C   0  0  0  0  0  0  0  0  0  0  0  0
   -3.7580   23.4378  -21.4590 C   0  0  0  0  0  0  0  0  0  0  0  0
   -2.2643   23.2857  -21.6257 C   0  0  0  0  0  0  0  0  0  0  0  0
   -2.9407   23.3794  -27.2952 N   0  0  0  0  0  0  0  0  0  0  0  0
   -2.8548   23.2924  -28.3308 H   0  0  0  0  0  0  0  0  0  0  0  0
   -4.0996   23.9662  -26.7350 C   0  0  0  0  0  0  0  0  0  0  0  0
   -4.1304   25.2422  -26.2209 C   0  0  0  0  0  0  0  0  0  0  0  0
   -5.2844   25.7876  -25.6785 C   0  0  0  0  0  0  0  0  0  0  0  0
   -6.4393   25.0351  -25.6498 C   0  0  0  0  0  0  0  0  0  0  0  0
   -6.3608   23.7844  -26.1674 N   0  0  0  0  0  0  0  0  0  0  0  0
   -5.2518   23.2799  -26.6809 N   0  0  0  0  0  0  0  0  0  0  0  0
   -7.6576   25.5308  -25.1089 N   0  0  0  0  0  0  0  0  0  0  0  0
   -8.0473   26.4193  -25.4528 H   0  0  0  0  0  0  0  0  0  0  0  0
   -8.3486   24.7893  -24.0784 C   0  0  0  0  0  0  0  0  0  0  0  0
   -7.4114   24.3690  -22.9672 C   0  0  0  0  0  0  0  0  0  0  0  0
   -7.0046   25.5378  -22.0978 C   0  0  0  0  0  0  0  0  0  0  0  0
   -7.2057   24.7098  -20.9108 N   0  0  0  0  0  0  0  0  0  0  0  0
   -8.1044   23.8845  -21.7186 C   0  0  0  0  0  0  0  0  0  0  0  0
   -7.7756   25.2260  -20.1916 H   0  0  0  0  0  0  0  0  0  0  0  0
  1  2  2  0  0  0
  2  3  1  0  0  0
  3  4  1  0  0  0
  4  5  2  0  0  0
  5  6  1  0  0  0
  6  7  2  0  0  0
  7 19  1  0  0  0
 19 21  1  0  0  0
 21 22  2  0  0  0
 22 23  1  0  0  0
 23 24  2  0  0  0
 24 27  1  0  0  0
 27 29  1  0  0  0
 29 30  1  0  0  0
 30 31  1  0  0  0
 31 32  1  0  0  0
 32 33  1  0  0  0
 24 25  1  0  0  0
 25 26  2  0  0  0
  7  8  1  0  0  0
  8  9  2  0  0  0
  9 10  1  0  0  0
 10 14  1  0  0  0
 14 15  1  0  0  0
 15 16  1  0  0  0
 16 17  1  0  0  0
 17 18  1  0  0  0
 10 11  1  0  0  0
 11 12  1  0  0  0
 12 13  2  0  0  0
 13  1  1  0  0  0
 11  3  2  0  0  0
  9  4  1  0  0  0
 18 14  1  0  0  0
 26 21  1  0  0  0
 33 30  1  0  0  0
 19 20  1  0  0  0
 27 28  1  0  0  0
 32 34  1  0  0  0
M  END
> <minimizedAffinity>
-7.93095

> <CNNscore>
0.4088348448

> <CNNaffinity>
7.1660699844

> <CNN_VS>
2.9297389984

> <CNNaffinity_variance>
0.3186537325

$$$$
[H]c1nc([H])c2c(c1[H])c1c([H])nc(N([H])c3nnc(N([H])C([H])([H])C4([H])C([H])([H])N([H])C4([H])[H])c([H])c3[H])nc1n2C1([H])C([H])([H])C([H])([H])C([H])([H])C1([H])[H]


 34 39  0  0  0  0  0  0  0  0999 V2000
   -5.2244   25.5893  -29.9839 C   0  0  0  0  0  0  0  0  0  0  0  0
   -4.1856   24.7957  -29.5315 C   0  0  0  0  0  0  0  0  0  0  0  0
   -4.1410   24.4193  -28.2066 C   0  0  0  0  0  0  0  0  0  0  0  0
   -3.2434   23.6549  -27.5152 C   0  0  0  0  0  0  0  0  0  0  0  0
   -2.0703   22.9783  -27.8416 C   0  0  0  0  0  0  0  0  0  0  0  0
   -1.4202   22.3040  -26.8805 N   0  0  0  0  0  0  0  0  0  0  0  0
   -1.8385   22.2396  -25.5985 C   0  0  0  0  0  0  0  0  0  0  0  0
   -2.9662   22.8829  -25.2579 N   0  0  0  0  0  0  0  0  0  0  0  0
   -3.6493   23.5741  -26.2013 C   0  0  0  0  0  0  0  0  0  0  0  0
   -4.8023   24.2988  -26.1078 N   0  0  0  0  0  0  0  0  0  0  0  0
   -5.1063   24.8103  -27.3055 C   0  0  0  0  0  0  0  0  0  0  0  0
   -6.1278   25.6012  -27.7908 C   0  0  0  0  0  0  0  0  0  0  0  0
   -6.1560   25.9563  -29.0754 N   0  0  0  0  0  0  0  0  0  0  0  0
   -5.5856   24.4934  -24.9089 C   0  0  0  0  0  0  0  0  0  0  0  0
   -4.7816   25.0576  -23.7661 C   0  0  0  0  0  0  0  0  0  0  0  0
   -5.3039   24.4203  -22.5098 C   0  0  0  0  0  0  0  0  0  0  0  0
   -6.2079   23.2948  -22.9031 C   0  0  0  0  0  0  0  0  0  0  0  0
   -6.2428   23.2449  -24.4125 C   0  0  0  0  0  0  0  0  0  0  0  0
   -1.0797   21.4930  -24.6306 N   0  0  0  0  0  0  0  0  0  0  0  0
   -0.5314   20.6679  -24.9563 H   0  0  0  0  0  0  0  0  0  0  0  0
   -1.0619   21.8502  -23.2620 C   0  0  0  0  0  0  0  0  0  0  0  0
   -0.8779   20.9428  -22.2440 C   0  0  0  0  0  0  0  0  0  0  0  0
   -0.8659   21.3268  -20.9114 C   0  0  0  0  0  0  0  0  0  0  0  0
   -1.0429   22.6556  -20.5889 C   0  0  0  0  0  0  0  0  0  0  0  0
   -1.2203   23.5122  -21.6247 N   0  0  0  0  0  0  0  0  0  0  0  0
   -1.2291   23.1289  -22.8900 N   0  0  0  0  0  0  0  0  0  0  0  0
   -1.0417   23.1192  -19.2444 N   0  0  0  0  0  0  0  0  0  0  0  0
   -1.8567   23.6296  -18.8774 H   0  0  0  0  0  0  0  0  0  0  0  0
    0.1010   22.8746  -18.3937 C   0  0  0  0  0  0  0  0  0  0  0  0
    1.4003   23.2187  -19.0889 C   0  0  0  0  0  0  0  0  0  0  0  0
    2.3611   23.9380  -18.1685 C   0  0  0  0  0  0  0  0  0  0  0  0
    3.4500   23.1043  -18.6729 N   0  0  0  0  0  0  0  0  0  0  0  0
    2.4344   22.1217  -19.0534 C   0  0  0  0  0  0  0  0  0  0  0  0
    4.0166   22.7137  -17.8761 H   0  0  0  0  0  0  0  0  0  0  0  0
  1  2  2  0  0  0
  2  3  1  0  0  0
  3  4  1  0  0  0
  4  5  2  0  0  0
  5  6  1  0  0  0
  6  7  2  0  0  0
  7 19  1  0  0  0
 19 21  1  0  0  0
 21 22  2  0  0  0
 22 23  1  0  0  0
 23 24  2  0  0  0
 24 27  1  0  0  0
 27 29  1  0  0  0
 29 30  1  0  0  0
 30 31  1  0  0  0
 31 32  1  0  0  0
 32 33  1  0  0  0
 24 25  1  0  0  0
 25 26  2  0  0  0
  7  8  1  0  0  0
  8  9  2  0  0  0
  9 10  1  0  0  0
 10 14  1  0  0  0
 14 15  1  0  0  0
 15 16  1  0  0  0
 16 17  1  0  0  0
 17 18  1  0  0  0
 10 11  1  0  0  0
 11 12  1  0  0  0
 12 13  2  0  0  0
 13  1  1  0  0  0
 11  3  2  0  0  0
  9  4  1  0  0  0
 18 14  1  0  0  0
 26 21  1  0  0  0
 33 30  1  0  0  0
 19 20  1  0  0  0
 27 28  1  0  0  0
 32 34  1  0  0  0
M  END
> <minimizedAffinity>
-8.68295

> <CNNscore>
0.3947745264

> <CNNaffinity>
7.1107230186

> <CNN_VS>
2.8071322441

> <CNNaffinity_variance>
0.6222527623

$$$$
[H]c1nc([H])c2c(c1[H])c1c([H])nc(N([H])c3nnc(N([H])C([H])([H])C4([H])C([H])([H])N([H])C4([H])[H])c([H])c3[H])nc1n2C1([H])C([H])([H])C([H])([H])C([H])([H])C1([H])[H]


 34 39  0  0  0  0  0  0  0  0999 V2000
   -0.0026   22.7245  -28.4199 C   0  0  0  0  0  0  0  0  0  0  0  0
   -1.3532   23.0045  -28.3143 C   0  0  0  0  0  0  0  0  0  0  0  0
   -1.9594   22.9867  -27.0768 C   0  0  0  0  0  0  0  0  0  0  0  0
   -3.2525   23.2217  -26.7018 C   0  0  0  0  0  0  0  0  0  0  0  0
   -4.4261   23.5569  -27.3732 C   0  0  0  0  0  0  0  0  0  0  0  0
   -5.5560   23.7166  -26.6669 N   0  0  0  0  0  0  0  0  0  0  0  0
   -5.6269   23.5705  -25.3266 C   0  0  0  0  0  0  0  0  0  0  0  0
   -4.5101   23.2478  -24.6558 N   0  0  0  0  0  0  0  0  0  0  0  0
   -3.3507   23.0785  -25.3352 C   0  0  0  0  0  0  0  0  0  0  0  0
   -2.1017   22.7542  -24.8899 N   0  0  0  0  0  0  0  0  0  0  0  0
   -1.2593   22.6965  -25.9270 C   0  0  0  0  0  0  0  0  0  0  0  0
    0.0858   22.4222  -26.0690 C   0  0  0  0  0  0  0  0  0  0  0  0
    0.6566   22.4436  -27.2735 N   0  0  0  0  0  0  0  0  0  0  0  0
   -1.7301   22.5081  -23.5152 C   0  0  0  0  0  0  0  0  0  0  0  0
   -2.5490   21.4200  -22.8701 C   0  0  0  0  0  0  0  0  0  0  0  0
   -2.7587   21.8236  -21.4382 C   0  0  0  0  0  0  0  0  0  0  0  0
   -2.3201   23.2463  -21.2894 C   0  0  0  0  0  0  0  0  0  0  0  0
   -1.8339   23.7166  -22.6401 C   0  0  0  0  0  0  0  0  0  0  0  0
   -6.8810   23.7604  -24.6475 N   0  0  0  0  0  0  0  0  0  0  0  0
   -7.7581   23.7607  -25.2115 H   0  0  0  0  0  0  0  0  0  0  0  0
   -6.9489   23.9446  -23.2465 C   0  0  0  0  0  0  0  0  0  0  0  0
   -6.7447   25.1581  -22.6307 C   0  0  0  0  0  0  0  0  0  0  0  0
   -6.8186   25.3041  -21.2534 C   0  0  0  0  0  0  0  0  0  0  0  0
   -7.1046   24.2054  -20.4712 C   0  0  0  0  0  0  0  0  0  0  0  0
   -7.2979   23.0318  -21.1221 N   0  0  0  0  0  0  0  0  0  0  0  0
   -7.2237   22.9103  -22.4366 N   0  0  0  0  0  0  0  0  0  0  0  0
   -7.1958   24.2828  -19.0541 N   0  0  0  0  0  0  0  0  0  0  0  0
   -7.2948   25.1992  -18.5960 H   0  0  0  0  0  0  0  0  0  0  0  0
   -7.1499   23.0777  -18.2573 C   0  0  0  0  0  0  0  0  0  0  0  0
   -6.0331   23.1233  -17.2372 C   0  0  0  0  0  0  0  0  0  0  0  0
   -4.6728   22.9711  -17.8805 C   0  0  0  0  0  0  0  0  0  0  0  0
   -4.1653   24.0493  -17.0348 N   0  0  0  0  0  0  0  0  0  0  0  0
   -5.5476   24.5124  -16.9078 C   0  0  0  0  0  0  0  0  0  0  0  0
   -3.6261   24.7476  -17.6092 H   0  0  0  0  0  0  0  0  0  0  0  0
  1  2  2  0  0  0
  2  3  1  0  0  0
  3  4  1  0  0  0
  4  5  2  0  0  0
  5  6  1  0  0  0
  6  7  2  0  0  0
  7 19  1  0  0  0
 19 21  1  0  0  0
 21 22  2  0  0  0
 22 23  1  0  0  0
 23 24  2  0  0  0
 24 27  1  0  0  0
 27 29  1  0  0  0
 29 30  1  0  0  0
 30 31  1  0  0  0
 31 32  1  0  0  0
 32 33  1  0  0  0
 24 25  1  0  0  0
 25 26  2  0  0  0
  7  8  1  0  0  0
  8  9  2  0  0  0
  9 10  1  0  0  0
 10 14  1  0  0  0
 14 15  1  0  0  0
 15 16  1  0  0  0
 16 17  1  0  0  0
 17 18  1  0  0  0
 10 11  1  0  0  0
 11 12  1  0  0  0
 12 13  2  0  0  0
 13  1  1  0  0  0
 11  3  2  0  0  0
  9  4  1  0  0  0
 18 14  1  0  0  0
 26 21  1  0  0  0
 33 30  1  0  0  0
 19 20  1  0  0  0
 27 28  1  0  0  0
 32 34  1  0  0  0
M  END
> <minimizedAffinity>
-7.82569

> <CNNscore>
0.3105368614

> <CNNaffinity>
6.6310911179

> <CNN_VS>
2.0591981411

> <CNNaffinity_variance>
0.2903009951

$$$$
[H]c1nc([H])c2c(c1[H])c1c([H])nc(N([H])c3nnc(N([H])C([H])([H])C4([H])C([H])([H])N([H])C4([H])[H])c([H])c3[H])nc1n2C1([H])C([H])([H])C([H])([H])C([H])([H])C1([H])[H]


 34 39  0  0  0  0  0  0  0  0999 V2000
   -5.1771   23.3733  -29.5262 C   0  0  0  0  0  0  0  0  0  0  0  0
   -3.9799   22.9889  -28.9494 C   0  0  0  0  0  0  0  0  0  0  0  0
   -3.8065   23.1147  -27.5880 C   0  0  0  0  0  0  0  0  0  0  0  0
   -2.7440   22.8153  -26.7821 C   0  0  0  0  0  0  0  0  0  0  0  0
   -1.4705   22.2899  -26.9879 C   0  0  0  0  0  0  0  0  0  0  0  0
   -0.6579   22.1233  -25.9329 N   0  0  0  0  0  0  0  0  0  0  0  0
   -1.0031   22.4377  -24.6661 C   0  0  0  0  0  0  0  0  0  0  0  0
   -2.2249   22.9457  -24.4407 N   0  0  0  0  0  0  0  0  0  0  0  0
   -3.0725   23.1280  -25.4813 C   0  0  0  0  0  0  0  0  0  0  0  0
   -4.3456   23.6197  -25.5117 N   0  0  0  0  0  0  0  0  0  0  0  0
   -4.7954   23.6160  -26.7712 C   0  0  0  0  0  0  0  0  0  0  0  0
   -5.9763   23.9896  -27.3797 C   0  0  0  0  0  0  0  0  0  0  0  0
   -6.1277   23.8613  -28.6979 N   0  0  0  0  0  0  0  0  0  0  0  0
   -5.1042   24.0775  -24.3700 C   0  0  0  0  0  0  0  0  0  0  0  0
   -6.3994   23.3294  -24.1860 C   0  0  0  0  0  0  0  0  0  0  0  0
   -7.4092   24.3234  -23.6866 C   0  0  0  0  0  0  0  0  0  0  0  0
   -6.8214   25.6918  -23.8293 C   0  0  0  0  0  0  0  0  0  0  0  0
   -5.4387   25.5345  -24.4169 C   0  0  0  0  0  0  0  0  0  0  0  0
   -0.0692   22.2265  -23.5923 N   0  0  0  0  0  0  0  0  0  0  0  0
    0.9484   22.3458  -23.7862 H   0  0  0  0  0  0  0  0  0  0  0  0
   -0.4972   21.8645  -22.2935 C   0  0  0  0  0  0  0  0  0  0  0  0
   -1.1351   22.7315  -21.4363 C   0  0  0  0  0  0  0  0  0  0  0  0
   -1.5418   22.3439  -20.1683 C   0  0  0  0  0  0  0  0  0  0  0  0
   -1.3035   21.0531  -19.7467 C   0  0  0  0  0  0  0  0  0  0  0  0
   -0.6725   20.2354  -20.6251 N   0  0  0  0  0  0  0  0  0  0  0  0
   -0.2914   20.6215  -21.8308 N   0  0  0  0  0  0  0  0  0  0  0  0
   -1.6931   20.5883  -18.4604 N   0  0  0  0  0  0  0  0  0  0  0  0
   -2.6331   20.1926  -18.3212 H   0  0  0  0  0  0  0  0  0  0  0  0
   -0.7719   20.6704  -17.3496 C   0  0  0  0  0  0  0  0  0  0  0  0
   -1.4781   20.4969  -16.0225 C   0  0  0  0  0  0  0  0  0  0  0  0
   -0.9001   19.3529  -15.2195 C   0  0  0  0  0  0  0  0  0  0  0  0
   -0.9459   20.1870  -14.0206 N   0  0  0  0  0  0  0  0  0  0  0  0
   -0.9269   21.3503  -14.9082 C   0  0  0  0  0  0  0  0  0  0  0  0
   -0.0301   20.1416  -13.5030 H   0  0  0  0  0  0  0  0  0  0  0  0
  1  2  2  0  0  0
  2  3  1  0  0  0
  3  4  1  0  0  0
  4  5  2  0  0  0
  5  6  1  0  0  0
  6  7  2  0  0  0
  7 19  1  0  0  0
 19 21  1  0  0  0
 21 22  2  0  0  0
 22 23  1  0  0  0
 23 24  2  0  0  0
 24 27  1  0  0  0
 27 29  1  0  0  0
 29 30  1  0  0  0
 30 31  1  0  0  0
 31 32  1  0  0  0
 32 33  1  0  0  0
 24 25  1  0  0  0
 25 26  2  0  0  0
  7  8  1  0  0  0
  8  9  2  0  0  0
  9 10  1  0  0  0
 10 14  1  0  0  0
 14 15  1  0  0  0
 15 16  1  0  0  0
 16 17  1  0  0  0
 17 18  1  0  0  0
 10 11  1  0  0  0
 11 12  1  0  0  0
 12 13  2  0  0  0
 13  1  1  0  0  0
 11  3  2  0  0  0
  9  4  1  0  0  0
 18 14  1  0  0  0
 26 21  1  0  0  0
 33 30  1  0  0  0
 19 20  1  0  0  0
 27 28  1  0  0  0
 32 34  1  0  0  0
M  END
> <minimizedAffinity>
-7.31214

> <CNNscore>
0.2561079860

> <CNNaffinity>
6.8611578941

> <CNN_VS>
1.7571973801

> <CNNaffinity_variance>
1.0006828308

$$$$
[H]Oc1c([H])c([H])c(C([H])([H])[C@@]2([H])C(=O)N(C([H])([H])c3c([H])c([H])c([H])c4c(C(=O)N([H])c5c([H])nc(N6C([H])([H])C([H])([H])C([H])(N7C([H])([H])C([H])([H])C7([H])[H])C([H])([H])C6([H])[H])c([H])c5[H])c([H])n(C([H])([H])[H])c34)C([H])([H])[C@]3([H])N(C(=O)N([H])C([H])([H])c4c([H])c([H])c([H])c([H])c4[H])N(C([H])([H])C([H])=C([H])[H])C([H])([H])C(=O)N23)c([H])c1[H]


 66 74  0  0  0  0  0  0  0  0999 V2000
   -4.8047   22.3670  -18.8257 N   0  0  0  0  0  0  0  0  0  0  0  0
   -5.2914   23.5491  -18.1374 C   0  0  0  0  0  0  0  0  0  0  0  0
   -6.7981   23.3701  -18.2174 C   0  0  0  0  0  0  0  0  0  0  0  0
   -7.4570   24.3300  -18.6565 O   0  0  0  0  0  0  0  0  0  0  0  0
   -7.3632   22.1654  -17.7993 N   0  0  0  0  0  0  0  0  0  0  0  0
   -8.7233   22.1130  -17.3442 C   0  0  0  0  0  0  0  0  0  0  0  0
   -8.5590   21.9659  -15.8497 C   0  0  0  0  0  0  0  0  0  0  0  0
   -9.2581   22.5942  -15.0734 O   0  0  0  0  0  0  0  0  0  0  0  0
   -7.5673   21.0730  -15.3977 N   0  0  0  0  0  0  0  0  0  0  0  0
   -6.6547   20.3688  -16.3311 C   0  0  0  0  0  0  0  0  0  0  0  0
   -6.5860   20.9585  -17.7004 C   0  0  0  0  0  0  0  0  0  0  0  0
   -5.2707   21.1575  -18.2647 N   0  0  0  0  0  0  0  0  0  0  0  0
   -4.3237   20.0882  -18.3188 C   0  0  0  0  0  0  0  0  0  0  0  0
   -3.1660   20.3705  -18.7782 O   0  0  0  0  0  0  0  0  0  0  0  0
   -4.5191   18.7579  -17.9278 N   0  0  0  0  0  0  0  0  0  0  0  0
   -5.4149   18.4405  -17.5568 H   0  0  0  0  0  0  0  0  0  0  0  0
   -5.2499   22.5506  -20.1988 C   0  0  0  0  0  0  0  0  0  0  0  0
   -4.3260   24.0024  -21.9109 C   0  0  0  0  0  0  0  0  0  0  0  0
   -4.2213   22.9672  -21.1217 C   0  0  0  0  0  0  0  0  0  0  0  0
   -9.6224   21.0864  -17.8904 C   0  0  0  0  0  0  0  0  0  0  0  0
  -11.0511   21.3768  -18.0338 C   0  0  0  0  0  0  0  0  0  0  0  0
  -12.0062   20.4265  -17.6680 C   0  0  0  0  0  0  0  0  0  0  0  0
  -13.3498   20.6664  -17.8615 C   0  0  0  0  0  0  0  0  0  0  0  0
  -13.8236   21.8369  -18.4198 C   0  0  0  0  0  0  0  0  0  0  0  0
  -15.1842   22.0156  -18.5840 O   0  0  0  0  0  0  0  0  0  0  0  0
  -12.8918   22.7696  -18.7808 C   0  0  0  0  0  0  0  0  0  0  0  0
  -11.5290   22.5414  -18.5912 C   0  0  0  0  0  0  0  0  0  0  0  0
  -15.8663   21.3169  -18.3100 H   0  0  0  0  0  0  0  0  0  0  0  0
   -7.3141   20.7790  -13.9861 C   0  0  0  0  0  0  0  0  0  0  0  0
   -6.1469   21.5433  -13.5355 C   0  0  0  0  0  0  0  0  0  0  0  0
   -6.1466   22.9135  -13.5138 C   0  0  0  0  0  0  0  0  0  0  0  0
   -5.0301   23.6437  -13.1441 C   0  0  0  0  0  0  0  0  0  0  0  0
   -3.8681   22.9882  -12.7803 C   0  0  0  0  0  0  0  0  0  0  0  0
   -3.8576   21.5877  -12.7970 C   0  0  0  0  0  0  0  0  0  0  0  0
   -2.8945   20.6902  -12.4776 C   0  0  0  0  0  0  0  0  0  0  0  0
   -3.4382   19.4499  -12.6527 C   0  0  0  0  0  0  0  0  0  0  0  0
   -4.7120   19.5356  -13.0749 N   0  0  0  0  0  0  0  0  0  0  0  0
   -5.5966   18.4339  -13.3621 C   0  0  0  0  0  0  0  0  0  0  0  0
   -4.9859   20.8680  -13.1714 C   0  0  0  0  0  0  0  0  0  0  0  0
   -1.4741   20.9229  -12.0435 C   0  0  0  0  0  0  0  0  0  0  0  0
   -1.1532   20.6949  -10.8576 O   0  0  0  0  0  0  0  0  0  0  0  0
   -0.5921   21.3837  -13.0382 N   0  0  0  0  0  0  0  0  0  0  0  0
    0.4413   21.0990  -12.1683 H   0  0  0  0  0  0  0  0  0  0  0  0
    0.2399   21.8108  -13.9475 C   0  0  0  0  0  0  0  0  0  0  0  0
    0.0692   21.4329  -15.2954 C   0  0  0  0  0  0  0  0  0  0  0  0
    0.8817   21.8193  -16.2956 C   0  0  0  0  0  0  0  0  0  0  0  0
    1.9531   22.6293  -15.9960 C   0  0  0  0  0  0  0  0  0  0  0  0
    2.1847   23.0338  -14.7264 N   0  0  0  0  0  0  0  0  0  0  0  0
    1.3578   22.6448  -13.7286 C   0  0  0  0  0  0  0  0  0  0  0  0
    2.8873   23.0330  -17.0016 N   0  0  0  0  0  0  0  0  0  0  0  0
    3.4873   24.3409  -16.9074 C   0  0  0  0  0  0  0  0  0  0  0  0
    4.9128   24.4352  -17.3094 C   0  0  0  0  0  0  0  0  0  0  0  0
    5.4763   23.2346  -17.9842 C   0  0  0  0  0  0  0  0  0  0  0  0
    4.4439   22.4735  -18.8095 C   0  0  0  0  0  0  0  0  0  0  0  0
    3.1899   22.1533  -18.0956 C   0  0  0  0  0  0  0  0  0  0  0  0
    6.5889   23.4664  -18.8353 N   0  0  0  0  0  0  0  0  0  0  0  0
    7.1137   22.3477  -19.5503 C   0  0  0  0  0  0  0  0  0  0  0  0
    8.4595   23.0443  -19.5299 C   0  0  0  0  0  0  0  0  0  0  0  0
    7.8712   23.7736  -18.3236 C   0  0  0  0  0  0  0  0  0  0  0  0
   -3.4532   17.7669  -18.0466 C   0  0  0  0  0  0  0  0  0  0  0  0
   -3.9656   16.5224  -18.7295 C   0  0  0  0  0  0  0  0  0  0  0  0
   -5.2825   16.4105  -19.0310 C   0  0  0  0  0  0  0  0  0  0  0  0
   -5.7550   15.2183  -19.6349 C   0  0  0  0  0  0  0  0  0  0  0  0
   -4.8622   14.1826  -19.9077 C   0  0  0  0  0  0  0  0  0  0  0  0
   -3.5183   14.4090  -19.5487 C   0  0  0  0  0  0  0  0  0  0  0  0
   -3.0639   15.5220  -18.9867 C   0  0  0  0  0  0  0  0  0  0  0  0
 18 19  2  0  0  0
 19 17  1  0  0  0
 17  1  1  0  0  0
  1  2  1  0  0  0
  2  3  1  0  0  0
  3  4  2  0  0  0
  3  5  1  0  0  0
  5  6  1  0  0  0
  6 20  1  0  0  0
 20 21  1  0  0  0
 21 22  2  0  0  0
 22 23  1  0  0  0
 23 24  2  0  0  0
 24 25  1  0  0  0
 24 26  1  0  0  0
 26 27  2  0  0  0
  6  7  1  0  0  0
  7  8  2  0  0  0
  7  9  1  0  0  0
  9 29  1  0  0  0
 29 30  1  0  0  0
 30 31  2  0  0  0
 31 32  1  0  0  0
 32 33  2  0  0  0
 33 34  1  0  0  0
 34 35  1  0  0  0
 35 40  1  0  0  0
 40 41  2  0  0  0
 40 42  1  0  0  0
 42 44  1  0  0  0
 44 45  2  0  0  0
 45 46  1  0  0  0
 46 47  2  0  0  0
 47 50  1  0  0  0
 50 51  1  0  0  0
 51 52  1  0  0  0
 52 53  1  0  0  0
 53 56  1  0  0  0
 56 57  1  0  0  0
 57 58  1  0  0  0
 58 59  1  0  0  0
 53 54  1  0  0  0
 54 55  1  0  0  0
 47 48  1  0  0  0
 48 49  2  0  0  0
 35 36  2  0  0  0
 36 37  1  0  0  0
 37 38  1  0  0  0
 37 39  1  0  0  0
  9 10  1  0  0  0
 10 11  1  0  0  0
 11 12  1  0  0  0
 12 13  1  0  0  0
 13 14  2  0  0  0
 13 15  1  0  0  0
 15 60  1  0  0  0
 60 61  1  0  0  0
 61 62  2  0  0  0
 62 63  1  0  0  0
 63 64  2  0  0  0
 64 65  1  0  0  0
 65 66  2  0  0  0
 12  1  1  0  0  0
 66 61  1  0  0  0
 11  5  1  0  0  0
 27 21  1  0  0  0
 39 30  1  0  0  0
 39 34  2  0  0  0
 49 44  1  0  0  0
 55 50  1  0  0  0
 59 56  1  0  0  0
 25 28  1  0  0  0
 42 43  1  0  0  0
 15 16  1  0  0  0
M  END
> <minimizedAffinity>
-7.76014

> <CNNscore>
0.2966804504

> <CNNaffinity>
7.0707273483

> <CNN_VS>
2.0977466106

> <CNNaffinity_variance>
0.2724476457

$$$$
[H]Oc1c([H])c([H])c(C([H])([H])[C@@]2([H])C(=O)N(C([H])([H])c3c([H])c([H])c([H])c4c(C(=O)N([H])c5c([H])nc(N6C([H])([H])C([H])([H])C([H])(N7C([H])([H])C([H])([H])C7([H])[H])C([H])([H])C6([H])[H])c([H])c5[H])c([H])n(C([H])([H])[H])c34)C([H])([H])[C@]3([H])N(C(=O)N([H])C([H])([H])c4c([H])c([H])c([H])c([H])c4[H])N(C([H])([H])C([H])=C([H])[H])C([H])([H])C(=O)N23)c([H])c1[H]


 66 74  0  0  0  0  0  0  0  0999 V2000
   -6.3454   23.2420  -13.8827 N   0  0  0  0  0  0  0  0  0  0  0  0
   -7.4334   22.7407  -13.0625 C   0  0  0  0  0  0  0  0  0  0  0  0
   -8.5623   22.6096  -14.0710 C   0  0  0  0  0  0  0  0  0  0  0  0
   -9.6463   23.1448  -13.7761 O   0  0  0  0  0  0  0  0  0  0  0  0
   -8.3389   21.9062  -15.2546 N   0  0  0  0  0  0  0  0  0  0  0  0
   -9.4286   21.2949  -15.9605 C   0  0  0  0  0  0  0  0  0  0  0  0
   -9.2326   19.8292  -15.6516 C   0  0  0  0  0  0  0  0  0  0  0  0
  -10.1776   19.1115  -15.3720 O   0  0  0  0  0  0  0  0  0  0  0  0
   -7.9150   19.3330  -15.7030 N   0  0  0  0  0  0  0  0  0  0  0  0
   -6.7492   20.2140  -15.9579 C   0  0  0  0  0  0  0  0  0  0  0  0
   -7.0109   21.6693  -15.7554 C   0  0  0  0  0  0  0  0  0  0  0  0
   -6.0403   22.4100  -14.9825 N   0  0  0  0  0  0  0  0  0  0  0  0
   -4.6501   22.3681  -15.3124 C   0  0  0  0  0  0  0  0  0  0  0  0
   -3.8580   23.0041  -14.5384 O   0  0  0  0  0  0  0  0  0  0  0  0
   -4.0516   21.7099  -16.3937 N   0  0  0  0  0  0  0  0  0  0  0  0
   -4.6080   21.1837  -17.0678 H   0  0  0  0  0  0  0  0  0  0  0  0
   -6.7942   24.5638  -14.2936 C   0  0  0  0  0  0  0  0  0  0  0  0
   -5.7925   26.0725  -12.6771 C   0  0  0  0  0  0  0  0  0  0  0  0
   -6.8482   25.5444  -13.2359 C   0  0  0  0  0  0  0  0  0  0  0  0
   -9.5661   21.5266  -17.4055 C   0  0  0  0  0  0  0  0  0  0  0  0
  -10.8467   21.9889  -17.9464 C   0  0  0  0  0  0  0  0  0  0  0  0
  -12.0283   21.3091  -17.6453 C   0  0  0  0  0  0  0  0  0  0  0  0
  -13.2273   21.6981  -18.2032 C   0  0  0  0  0  0  0  0  0  0  0  0
  -13.3307   22.7610  -19.0782 C   0  0  0  0  0  0  0  0  0  0  0  0
  -14.5643   23.1008  -19.6004 O   0  0  0  0  0  0  0  0  0  0  0  0
  -12.1759   23.4286  -19.3770 C   0  0  0  0  0  0  0  0  0  0  0  0
  -10.9552   23.0470  -18.8204 C   0  0  0  0  0  0  0  0  0  0  0  0
  -15.4149   22.5992  -19.3692 H   0  0  0  0  0  0  0  0  0  0  0  0
   -7.5605   17.9303  -15.4795 C   0  0  0  0  0  0  0  0  0  0  0  0
   -6.9454   17.3880  -16.6949 C   0  0  0  0  0  0  0  0  0  0  0  0
   -7.6817   17.1259  -17.8205 C   0  0  0  0  0  0  0  0  0  0  0  0
   -7.1200   16.5611  -18.9527 C   0  0  0  0  0  0  0  0  0  0  0  0
   -5.7739   16.2448  -18.9690 C   0  0  0  0  0  0  0  0  0  0  0  0
   -5.0112   16.5101  -17.8245 C   0  0  0  0  0  0  0  0  0  0  0  0
   -3.6947   16.3334  -17.5585 C   0  0  0  0  0  0  0  0  0  0  0  0
   -3.4843   16.7919  -16.2896 C   0  0  0  0  0  0  0  0  0  0  0  0
   -4.6257   17.2494  -15.7454 N   0  0  0  0  0  0  0  0  0  0  0  0
   -4.7833   17.8076  -14.4254 C   0  0  0  0  0  0  0  0  0  0  0  0
   -5.5891   17.0766  -16.6949 C   0  0  0  0  0  0  0  0  0  0  0  0
   -2.6170   15.7289  -18.4147 C   0  0  0  0  0  0  0  0  0  0  0  0
   -2.7306   14.5432  -18.7923 O   0  0  0  0  0  0  0  0  0  0  0  0
   -1.5396   16.5737  -18.7391 N   0  0  0  0  0  0  0  0  0  0  0  0
   -1.1592   15.6299  -19.6719 H   0  0  0  0  0  0  0  0  0  0  0  0
   -0.5329   17.3427  -19.0502 C   0  0  0  0  0  0  0  0  0  0  0  0
   -0.2970   18.5276  -18.3226 C   0  0  0  0  0  0  0  0  0  0  0  0
    0.7103   19.3817  -18.5783 C   0  0  0  0  0  0  0  0  0  0  0  0
    1.5673   19.0948  -19.6162 C   0  0  0  0  0  0  0  0  0  0  0  0
    1.4066   17.9779  -20.3616 N   0  0  0  0  0  0  0  0  0  0  0  0
    0.3939   17.1220  -20.0919 C   0  0  0  0  0  0  0  0  0  0  0  0
    2.6265   19.9864  -19.9772 N   0  0  0  0  0  0  0  0  0  0  0  0
    2.4185   21.4062  -19.8340 C   0  0  0  0  0  0  0  0  0  0  0  0
    3.5884   22.1935  -19.3715 C   0  0  0  0  0  0  0  0  0  0  0  0
    4.8876   21.4686  -19.3453 C   0  0  0  0  0  0  0  0  0  0  0  0
    4.9986   20.4020  -20.4300 C   0  0  0  0  0  0  0  0  0  0  0  0
    3.8581   19.4644  -20.4997 C   0  0  0  0  0  0  0  0  0  0  0  0
    6.0508   22.2764  -19.4467 N   0  0  0  0  0  0  0  0  0  0  0  0
    7.2781   21.7242  -18.9704 C   0  0  0  0  0  0  0  0  0  0  0  0
    7.7308   23.1407  -18.6784 C   0  0  0  0  0  0  0  0  0  0  0  0
    6.2316   23.4313  -18.6503 C   0  0  0  0  0  0  0  0  0  0  0  0
   -2.6081   21.7599  -16.6088 C   0  0  0  0  0  0  0  0  0  0  0  0
   -2.3018   22.1542  -18.0329 C   0  0  0  0  0  0  0  0  0  0  0  0
   -1.0987   22.6983  -18.3398 C   0  0  0  0  0  0  0  0  0  0  0  0
   -0.8418   23.1012  -19.6743 C   0  0  0  0  0  0  0  0  0  0  0  0
   -1.8266   22.9335  -20.6471 C   0  0  0  0  0  0  0  0  0  0  0  0
   -3.0386   22.3601  -20.2130 C   0  0  0  0  0  0  0  0  0  0  0  0
   -3.2889   21.9756  -18.9678 C   0  0  0  0  0  0  0  0  0  0  0  0
 18 19  2  0  0  0
 19 17  1  0  0  0
 17  1  1  0  0  0
  1  2  1  0  0  0
  2  3  1  0  0  0
  3  4  2  0  0  0
  3  5  1  0  0  0
  5  6  1  0  0  0
  6 20  1  0  0  0
 20 21  1  0  0  0
 21 22  2  0  0  0
 22 23  1  0  0  0
 23 24  2  0  0  0
 24 25  1  0  0  0
 24 26  1  0  0  0
 26 27  2  0  0  0
  6  7  1  0  0  0
  7  8  2  0  0  0
  7  9  1  0  0  0
  9 29  1  0  0  0
 29 30  1  0  0  0
 30 31  2  0  0  0
 31 32  1  0  0  0
 32 33  2  0  0  0
 33 34  1  0  0  0
 34 35  1  0  0  0
 35 40  1  0  0  0
 40 41  2  0  0  0
 40 42  1  0  0  0
 42 44  1  0  0  0
 44 45  2  0  0  0
 45 46  1  0  0  0
 46 47  2  0  0  0
 47 50  1  0  0  0
 50 51  1  0  0  0
 51 52  1  0  0  0
 52 53  1  0  0  0
 53 56  1  0  0  0
 56 57  1  0  0  0
 57 58  1  0  0  0
 58 59  1  0  0  0
 53 54  1  0  0  0
 54 55  1  0  0  0
 47 48  1  0  0  0
 48 49  2  0  0  0
 35 36  2  0  0  0
 36 37  1  0  0  0
 37 38  1  0  0  0
 37 39  1  0  0  0
  9 10  1  0  0  0
 10 11  1  0  0  0
 11 12  1  0  0  0
 12 13  1  0  0  0
 13 14  2  0  0  0
 13 15  1  0  0  0
 15 60  1  0  0  0
 60 61  1  0  0  0
 61 62  2  0  0  0
 62 63  1  0  0  0
 63 64  2  0  0  0
 64 65  1  0  0  0
 65 66  2  0  0  0
 12  1  1  0  0  0
 66 61  1  0  0  0
 11  5  1  0  0  0
 27 21  1  0  0  0
 39 30  1  0  0  0
 39 34  2  0  0  0
 49 44  1  0  0  0
 55 50  1  0  0  0
 59 56  1  0  0  0
 25 28  1  0  0  0
 42 43  1  0  0  0
 15 16  1  0  0  0
M  END
> <minimizedAffinity>
-6.67596

> <CNNscore>
0.1578082740

> <CNNaffinity>
6.6209516525

> <CNN_VS>
1.0448409319

> <CNNaffinity_variance>
0.2610212862

$$$$
[H]Oc1c([H])c([H])c(C([H])([H])[C@@]2([H])C(=O)N(C([H])([H])c3c([H])c([H])c([H])c4c(C(=O)N([H])c5c([H])nc(N6C([H])([H])C([H])([H])C([H])(N7C([H])([H])C([H])([H])C7([H])[H])C([H])([H])C6([H])[H])c([H])c5[H])c([H])n(C([H])([H])[H])c34)C([H])([H])[C@]3([H])N(C(=O)N([H])C([H])([H])c4c([H])c([H])c([H])c([H])c4[H])N(C([H])([H])C([H])=C([H])[H])C([H])([H])C(=O)N23)c([H])c1[H]


 66 74  0  0  0  0  0  0  0  0999 V2000
    2.1694   19.0121  -20.5831 N   0  0  0  0  0  0  0  0  0  0  0  0
    2.6033   20.3944  -20.4889 C   0  0  0  0  0  0  0  0  0  0  0  0
    1.9369   21.0238  -21.7008 C   0  0  0  0  0  0  0  0  0  0  0  0
    2.6650   21.6815  -22.4660 O   0  0  0  0  0  0  0  0  0  0  0  0
    0.5673   20.8437  -21.8941 N   0  0  0  0  0  0  0  0  0  0  0  0
   -0.1977   21.7957  -22.6478 C   0  0  0  0  0  0  0  0  0  0  0  0
   -0.9636   22.5230  -21.5678 C   0  0  0  0  0  0  0  0  0  0  0  0
   -1.0923   23.7351  -21.5928 O   0  0  0  0  0  0  0  0  0  0  0  0
   -1.5204   21.7399  -20.5373 N   0  0  0  0  0  0  0  0  0  0  0  0
   -1.2980   20.2760  -20.4507 C   0  0  0  0  0  0  0  0  0  0  0  0
   -0.1519   19.7698  -21.2616 C   0  0  0  0  0  0  0  0  0  0  0  0
    0.7651   18.8637  -20.6090 N   0  0  0  0  0  0  0  0  0  0  0  0
    0.2915   17.6920  -19.9411 C   0  0  0  0  0  0  0  0  0  0  0  0
    1.1664   16.9817  -19.3403 O   0  0  0  0  0  0  0  0  0  0  0  0
   -1.0275   17.2271  -19.8708 N   0  0  0  0  0  0  0  0  0  0  0  0
   -1.7906   17.7265  -20.3280 H   0  0  0  0  0  0  0  0  0  0  0  0
    2.8021   18.5265  -21.8002 C   0  0  0  0  0  0  0  0  0  0  0  0
    3.2727   16.1662  -22.1161 C   0  0  0  0  0  0  0  0  0  0  0  0
    3.6015   17.3359  -21.6374 C   0  0  0  0  0  0  0  0  0  0  0  0
   -1.0918   21.3155  -23.7111 C   0  0  0  0  0  0  0  0  0  0  0  0
   -0.8983   21.7825  -25.0861 C   0  0  0  0  0  0  0  0  0  0  0  0
    0.3817   22.0762  -25.5598 C   0  0  0  0  0  0  0  0  0  0  0  0
    0.5653   22.5789  -26.8301 C   0  0  0  0  0  0  0  0  0  0  0  0
   -0.4845   22.8200  -27.6938 C   0  0  0  0  0  0  0  0  0  0  0  0
   -0.2314   23.3228  -28.9559 O   0  0  0  0  0  0  0  0  0  0  0  0
   -1.7398   22.5353  -27.2336 C   0  0  0  0  0  0  0  0  0  0  0  0
   -1.9415   22.0261  -25.9508 C   0  0  0  0  0  0  0  0  0  0  0  0
    0.7049   23.5280  -29.2871 H   0  0  0  0  0  0  0  0  0  0  0  0
   -2.3309   22.2822  -19.4455 C   0  0  0  0  0  0  0  0  0  0  0  0
   -3.7478   22.0285  -19.7237 C   0  0  0  0  0  0  0  0  0  0  0  0
   -4.2200   21.9022  -21.0041 C   0  0  0  0  0  0  0  0  0  0  0  0
   -5.5645   21.7194  -21.2782 C   0  0  0  0  0  0  0  0  0  0  0  0
   -6.4767   21.6581  -20.2406 C   0  0  0  0  0  0  0  0  0  0  0  0
   -6.0050   21.7841  -18.9278 C   0  0  0  0  0  0  0  0  0  0  0  0
   -6.6431   21.7431  -17.7335 C   0  0  0  0  0  0  0  0  0  0  0  0
   -5.6869   21.8952  -16.7707 C   0  0  0  0  0  0  0  0  0  0  0  0
   -4.4668   22.0337  -17.3186 N   0  0  0  0  0  0  0  0  0  0  0  0
   -3.2237   22.2131  -16.6105 C   0  0  0  0  0  0  0  0  0  0  0  0
   -4.6523   21.9683  -18.6680 C   0  0  0  0  0  0  0  0  0  0  0  0
   -8.1095   21.5992  -17.4353 C   0  0  0  0  0  0  0  0  0  0  0  0
   -8.4695   20.8936  -16.4690 O   0  0  0  0  0  0  0  0  0  0  0  0
   -8.9843   22.2979  -18.2874 N   0  0  0  0  0  0  0  0  0  0  0  0
   -9.9862   22.0348  -17.3750 H   0  0  0  0  0  0  0  0  0  0  0  0
   -9.8104   22.9391  -19.0673 C   0  0  0  0  0  0  0  0  0  0  0  0
   -9.3137   23.7856  -20.0801 C   0  0  0  0  0  0  0  0  0  0  0  0
  -10.0907   24.4895  -20.9229 C   0  0  0  0  0  0  0  0  0  0  0  0
  -11.4573   24.3900  -20.7947 C   0  0  0  0  0  0  0  0  0  0  0  0
  -12.0105   23.5996  -19.8469 N   0  0  0  0  0  0  0  0  0  0  0  0
  -11.2200   22.8907  -19.0082 C   0  0  0  0  0  0  0  0  0  0  0  0
  -12.3416   25.1522  -21.6217 N   0  0  0  0  0  0  0  0  0  0  0  0
  -11.9401   26.4743  -22.0342 C   0  0  0  0  0  0  0  0  0  0  0  0
  -12.3149   26.8689  -23.4150 C   0  0  0  0  0  0  0  0  0  0  0  0
  -13.2602   25.9576  -24.1150 C   0  0  0  0  0  0  0  0  0  0  0  0
  -14.2387   25.2698  -23.1684 C   0  0  0  0  0  0  0  0  0  0  0  0
  -13.6159   24.6098  -22.0016 C   0  0  0  0  0  0  0  0  0  0  0  0
  -14.0366   26.5442  -25.1489 N   0  0  0  0  0  0  0  0  0  0  0  0
  -13.5577   26.4105  -26.4871 C   0  0  0  0  0  0  0  0  0  0  0  0
  -14.2645   27.7130  -26.8047 C   0  0  0  0  0  0  0  0  0  0  0  0
  -14.1441   27.9465  -25.3000 C   0  0  0  0  0  0  0  0  0  0  0  0
   -1.3636   16.0016  -19.1513 C   0  0  0  0  0  0  0  0  0  0  0  0
   -2.8608   15.8248  -19.0843 C   0  0  0  0  0  0  0  0  0  0  0  0
   -3.5662   16.4077  -18.0841 C   0  0  0  0  0  0  0  0  0  0  0  0
   -4.9662   16.1980  -18.0116 C   0  0  0  0  0  0  0  0  0  0  0  0
   -5.5941   15.3980  -18.9656 C   0  0  0  0  0  0  0  0  0  0  0  0
   -4.7609   14.8419  -19.9569 C   0  0  0  0  0  0  0  0  0  0  0  0
   -3.4503   15.0343  -20.0370 C   0  0  0  0  0  0  0  0  0  0  0  0
 18 19  2  0  0  0
 19 17  1  0  0  0
 17  1  1  0  0  0
  1  2  1  0  0  0
  2  3  1  0  0  0
  3  4  2  0  0  0
  3  5  1  0  0  0
  5  6  1  0  0  0
  6 20  1  0  0  0
 20 21  1  0  0  0
 21 22  2  0  0  0
 22 23  1  0  0  0
 23 24  2  0  0  0
 24 25  1  0  0  0
 24 26  1  0  0  0
 26 27  2  0  0  0
  6  7  1  0  0  0
  7  8  2  0  0  0
  7  9  1  0  0  0
  9 29  1  0  0  0
 29 30  1  0  0  0
 30 31  2  0  0  0
 31 32  1  0  0  0
 32 33  2  0  0  0
 33 34  1  0  0  0
 34 35  1  0  0  0
 35 40  1  0  0  0
 40 41  2  0  0  0
 40 42  1  0  0  0
 42 44  1  0  0  0
 44 45  2  0  0  0
 45 46  1  0  0  0
 46 47  2  0  0  0
 47 50  1  0  0  0
 50 51  1  0  0  0
 51 52  1  0  0  0
 52 53  1  0  0  0
 53 56  1  0  0  0
 56 57  1  0  0  0
 57 58  1  0  0  0
 58 59  1  0  0  0
 53 54  1  0  0  0
 54 55  1  0  0  0
 47 48  1  0  0  0
 48 49  2  0  0  0
 35 36  2  0  0  0
 36 37  1  0  0  0
 37 38  1  0  0  0
 37 39  1  0  0  0
  9 10  1  0  0  0
 10 11  1  0  0  0
 11 12  1  0  0  0
 12 13  1  0  0  0
 13 14  2  0  0  0
 13 15  1  0  0  0
 15 60  1  0  0  0
 60 61  1  0  0  0
 61 62  2  0  0  0
 62 63  1  0  0  0
 63 64  2  0  0  0
 64 65  1  0  0  0
 65 66  2  0  0  0
 12  1  1  0  0  0
 66 61  1  0  0  0
 11  5  1  0  0  0
 27 21  1  0  0  0
 39 30  1  0  0  0
 39 34  2  0  0  0
 49 44  1  0  0  0
 55 50  1  0  0  0
 59 56  1  0  0  0
 25 28  1  0  0  0
 42 43  1  0  0  0
 15 16  1  0  0  0
M  END
> <minimizedAffinity>
-10.11742

> <CNNscore>
0.1449771971

> <CNNaffinity>
7.3231382370

> <CNN_VS>
1.0616880655

> <CNNaffinity_variance>
0.3016658425

$$$$
[H]Oc1c([H])c([H])c(C([H])([H])[C@@]2([H])C(=O)N(C([H])([H])c3c([H])c([H])c([H])c4c(C(=O)N([H])c5c([H])nc(N6C([H])([H])C([H])([H])C([H])(N7C([H])([H])C([H])([H])C7([H])[H])C([H])([H])C6([H])[H])c([H])c5[H])c([H])n(C([H])([H])[H])c34)C([H])([H])[C@]3([H])N(C(=O)N([H])C([H])([H])c4c([H])c([H])c([H])c([H])c4[H])N(C([H])([H])C([H])=C([H])[H])C([H])([H])C(=O)N23)c([H])c1[H]


 66 74  0  0  0  0  0  0  0  0999 V2000
   -6.1419   22.2540  -14.6822 N   0  0  0  0  0  0  0  0  0  0  0  0
   -7.3531   21.6622  -14.1429 C   0  0  0  0  0  0  0  0  0  0  0  0
   -8.2024   21.4763  -15.3890 C   0  0  0  0  0  0  0  0  0  0  0  0
   -9.3607   21.9298  -15.3541 O   0  0  0  0  0  0  0  0  0  0  0  0
   -7.6589   20.8155  -16.4905 N   0  0  0  0  0  0  0  0  0  0  0  0
   -8.5069   20.1468  -17.4356 C   0  0  0  0  0  0  0  0  0  0  0  0
   -8.2845   18.6915  -17.0967 C   0  0  0  0  0  0  0  0  0  0  0  0
   -9.2151   17.9052  -17.0504 O   0  0  0  0  0  0  0  0  0  0  0  0
   -6.9595   18.2874  -16.8398 N   0  0  0  0  0  0  0  0  0  0  0  0
   -5.8324   19.2511  -16.8093 C   0  0  0  0  0  0  0  0  0  0  0  0
   -6.2372   20.6805  -16.6667 C   0  0  0  0  0  0  0  0  0  0  0  0
   -5.5296   21.4687  -15.6838 N   0  0  0  0  0  0  0  0  0  0  0  0
   -4.1015   21.5288  -15.6782 C   0  0  0  0  0  0  0  0  0  0  0  0
   -3.5598   22.2004  -14.7367 O   0  0  0  0  0  0  0  0  0  0  0  0
   -3.2213   20.9365  -16.5921 N   0  0  0  0  0  0  0  0  0  0  0  0
   -3.5657   20.3883  -17.3806 H   0  0  0  0  0  0  0  0  0  0  0  0
   -6.5753   23.5508  -15.1804 C   0  0  0  0  0  0  0  0  0  0  0  0
   -6.8728   25.5591  -13.8497 C   0  0  0  0  0  0  0  0  0  0  0  0
   -6.0941   24.6840  -14.4271 C   0  0  0  0  0  0  0  0  0  0  0  0
   -8.3188   20.3997  -18.8713 C   0  0  0  0  0  0  0  0  0  0  0  0
   -8.8951   21.6030  -19.4764 C   0  0  0  0  0  0  0  0  0  0  0  0
   -8.2631   22.2244  -20.5551 C   0  0  0  0  0  0  0  0  0  0  0  0
   -8.7631   23.3936  -21.0871 C   0  0  0  0  0  0  0  0  0  0  0  0
   -9.8956   24.0106  -20.5944 C   0  0  0  0  0  0  0  0  0  0  0  0
  -10.3459   25.1808  -21.1757 O   0  0  0  0  0  0  0  0  0  0  0  0
  -10.5169   23.4064  -19.5373 C   0  0  0  0  0  0  0  0  0  0  0  0
  -10.0231   22.2232  -18.9882 C   0  0  0  0  0  0  0  0  0  0  0  0
   -9.8775   25.6186  -21.9615 H   0  0  0  0  0  0  0  0  0  0  0  0
   -6.5680   16.9076  -16.5463 C   0  0  0  0  0  0  0  0  0  0  0  0
   -5.8210   16.3649  -17.6851 C   0  0  0  0  0  0  0  0  0  0  0  0
   -6.4395   16.0381  -18.8635 C   0  0  0  0  0  0  0  0  0  0  0  0
   -5.7521   15.4724  -19.9236 C   0  0  0  0  0  0  0  0  0  0  0  0
   -4.3968   15.2222  -19.8104 C   0  0  0  0  0  0  0  0  0  0  0  0
   -3.7538   15.5540  -18.6110 C   0  0  0  0  0  0  0  0  0  0  0  0
   -2.4600   15.4489  -18.2235 C   0  0  0  0  0  0  0  0  0  0  0  0
   -2.3868   15.9498  -16.9553 C   0  0  0  0  0  0  0  0  0  0  0  0
   -3.5927   16.3648  -16.5290 N   0  0  0  0  0  0  0  0  0  0  0  0
   -3.8949   16.9485  -15.2458 C   0  0  0  0  0  0  0  0  0  0  0  0
   -4.4573   16.1205  -17.5550 C   0  0  0  0  0  0  0  0  0  0  0  0
   -1.2824   14.8761  -18.9617 C   0  0  0  0  0  0  0  0  0  0  0  0
   -1.3046   13.6760  -19.3090 O   0  0  0  0  0  0  0  0  0  0  0  0
   -0.2222   15.7650  -19.2176 N   0  0  0  0  0  0  0  0  0  0  0  0
    0.2849   14.8159  -20.0822 H   0  0  0  0  0  0  0  0  0  0  0  0
    0.7702   16.5751  -19.4639 C   0  0  0  0  0  0  0  0  0  0  0  0
    0.6695   17.9402  -19.1244 C   0  0  0  0  0  0  0  0  0  0  0  0
    1.6382   18.8464  -19.3482 C   0  0  0  0  0  0  0  0  0  0  0  0
    2.8025   18.4281  -19.9509 C   0  0  0  0  0  0  0  0  0  0  0  0
    2.9747   17.1349  -20.3074 N   0  0  0  0  0  0  0  0  0  0  0  0
    1.9966   16.2301  -20.0720 C   0  0  0  0  0  0  0  0  0  0  0  0
    3.8512   19.3485  -20.2673 N   0  0  0  0  0  0  0  0  0  0  0  0
    3.5104   20.7231  -20.5391 C   0  0  0  0  0  0  0  0  0  0  0  0
    4.4601   21.7436  -20.0298 C   0  0  0  0  0  0  0  0  0  0  0  0
    5.7574   21.2236  -19.5193 C   0  0  0  0  0  0  0  0  0  0  0  0
    6.2228   19.9645  -20.2434 C   0  0  0  0  0  0  0  0  0  0  0  0
    5.2107   18.8915  -20.3390 C   0  0  0  0  0  0  0  0  0  0  0  0
    6.8451   22.1357  -19.5465 N   0  0  0  0  0  0  0  0  0  0  0  0
    8.1457   21.6006  -19.7920 C   0  0  0  0  0  0  0  0  0  0  0  0
    8.7057   22.7561  -18.9870 C   0  0  0  0  0  0  0  0  0  0  0  0
    7.3053   22.7865  -18.3780 C   0  0  0  0  0  0  0  0  0  0  0  0
   -1.7749   21.0893  -16.4619 C   0  0  0  0  0  0  0  0  0  0  0  0
   -1.1551   21.3923  -17.8042 C   0  0  0  0  0  0  0  0  0  0  0  0
   -0.0241   22.1364  -17.8739 C   0  0  0  0  0  0  0  0  0  0  0  0
    0.5226   22.4468  -19.1444 C   0  0  0  0  0  0  0  0  0  0  0  0
   -0.1091   21.9850  -20.2985 C   0  0  0  0  0  0  0  0  0  0  0  0
   -1.2790   21.2234  -20.1050 C   0  0  0  0  0  0  0  0  0  0  0  0
   -1.7977   20.9233  -18.9210 C   0  0  0  0  0  0  0  0  0  0  0  0
 18 19  2  0  0  0
 19 17  1  0  0  0
 17  1  1  0  0  0
  1  2  1  0  0  0
  2  3  1  0  0  0
  3  4  2  0  0  0
  3  5  1  0  0  0
  5  6  1  0  0  0
  6 20  1  0  0  0
 20 21  1  0  0  0
 21 22  2  0  0  0
 22 23  1  0  0  0
 23 24  2  0  0  0
 24 25  1  0  0  0
 24 26  1  0  0  0
 26 27  2  0  0  0
  6  7  1  0  0  0
  7  8  2  0  0  0
  7  9  1  0  0  0
  9 29  1  0  0  0
 29 30  1  0  0  0
 30 31  2  0  0  0
 31 32  1  0  0  0
 32 33  2  0  0  0
 33 34  1  0  0  0
 34 35  1  0  0  0
 35 40  1  0  0  0
 40 41  2  0  0  0
 40 42  1  0  0  0
 42 44  1  0  0  0
 44 45  2  0  0  0
 45 46  1  0  0  0
 46 47  2  0  0  0
 47 50  1  0  0  0
 50 51  1  0  0  0
 51 52  1  0  0  0
 52 53  1  0  0  0
 53 56  1  0  0  0
 56 57  1  0  0  0
 57 58  1  0  0  0
 58 59  1  0  0  0
 53 54  1  0  0  0
 54 55  1  0  0  0
 47 48  1  0  0  0
 48 49  2  0  0  0
 35 36  2  0  0  0
 36 37  1  0  0  0
 37 38  1  0  0  0
 37 39  1  0  0  0
  9 10  1  0  0  0
 10 11  1  0  0  0
 11 12  1  0  0  0
 12 13  1  0  0  0
 13 14  2  0  0  0
 13 15  1  0  0  0
 15 60  1  0  0  0
 60 61  1  0  0  0
 61 62  2  0  0  0
 62 63  1  0  0  0
 63 64  2  0  0  0
 64 65  1  0  0  0
 65 66  2  0  0  0
 12  1  1  0  0  0
 66 61  1  0  0  0
 11  5  1  0  0  0
 27 21  1  0  0  0
 39 30  1  0  0  0
 39 34  2  0  0  0
 49 44  1  0  0  0
 55 50  1  0  0  0
 59 56  1  0  0  0
 25 28  1  0  0  0
 42 43  1  0  0  0
 15 16  1  0  0  0
M  END
> <minimizedAffinity>
-6.36902

> <CNNscore>
0.1377322972

> <CNNaffinity>
6.7222137451

> <CNN_VS>
0.9258659482

> <CNNaffinity_variance>
0.2996627688

$$$$
[H]Oc1c([H])c([H])c(C([H])([H])[C@@]2([H])C(=O)N(C([H])([H])c3c([H])c([H])c([H])c4c(C(=O)N([H])c5c([H])nc(N6C([H])([H])C([H])([H])C([H])(N7C([H])([H])C([H])([H])C7([H])[H])C([H])([H])C6([H])[H])c([H])c5[H])c([H])n(C([H])([H])[H])c34)C([H])([H])[C@]3([H])N(C(=O)N([H])C([H])([H])c4c([H])c([H])c([H])c([H])c4[H])N(C([H])([H])C([H])=C([H])[H])C([H])([H])C(=O)N23)c([H])c1[H]


 66 74  0  0  0  0  0  0  0  0999 V2000
   -1.3626   21.2994  -18.0684 N   0  0  0  0  0  0  0  0  0  0  0  0
   -1.4366   22.7488  -18.1109 C   0  0  0  0  0  0  0  0  0  0  0  0
   -1.5458   23.0214  -19.6017 C   0  0  0  0  0  0  0  0  0  0  0  0
   -0.7461   23.8438  -20.0841 O   0  0  0  0  0  0  0  0  0  0  0  0
   -2.5199   22.3556  -20.3456 N   0  0  0  0  0  0  0  0  0  0  0  0
   -3.0296   22.9239  -21.5608 C   0  0  0  0  0  0  0  0  0  0  0  0
   -4.4013   23.4006  -21.1446 C   0  0  0  0  0  0  0  0  0  0  0  0
   -4.8288   24.4840  -21.5046 O   0  0  0  0  0  0  0  0  0  0  0  0
   -5.1596   22.5392  -20.3273 N   0  0  0  0  0  0  0  0  0  0  0  0
   -4.6169   21.2579  -19.8136 C   0  0  0  0  0  0  0  0  0  0  0  0
   -3.1305   21.1397  -19.8773 C   0  0  0  0  0  0  0  0  0  0  0  0
   -2.4581   20.6615  -18.6910 N   0  0  0  0  0  0  0  0  0  0  0  0
   -2.8586   19.4437  -18.0586 C   0  0  0  0  0  0  0  0  0  0  0  0
   -2.2487   19.1300  -16.9813 O   0  0  0  0  0  0  0  0  0  0  0  0
   -3.8452   18.5471  -18.4866 N   0  0  0  0  0  0  0  0  0  0  0  0
   -4.3777   18.7130  -19.3409 H   0  0  0  0  0  0  0  0  0  0  0  0
   -0.0977   20.9922  -18.7188 C   0  0  0  0  0  0  0  0  0  0  0  0
    2.1844   20.8283  -17.9077 C   0  0  0  0  0  0  0  0  0  0  0  0
    0.9280   20.4780  -17.8431 C   0  0  0  0  0  0  0  0  0  0  0  0
   -3.0934   22.0904  -22.7699 C   0  0  0  0  0  0  0  0  0  0  0  0
   -2.0254   22.1800  -23.7687 C   0  0  0  0  0  0  0  0  0  0  0  0
   -2.3238   22.4868  -25.0975 C   0  0  0  0  0  0  0  0  0  0  0  0
   -1.3331   22.5079  -26.0559 C   0  0  0  0  0  0  0  0  0  0  0  0
   -0.0120   22.2303  -25.7665 C   0  0  0  0  0  0  0  0  0  0  0  0
    0.9330   22.2712  -26.7740 O   0  0  0  0  0  0  0  0  0  0  0  0
    0.2844   21.9279  -24.4668 C   0  0  0  0  0  0  0  0  0  0  0  0
   -0.7069   21.9027  -23.4859 C   0  0  0  0  0  0  0  0  0  0  0  0
    0.7012   22.4993  -27.7347 H   0  0  0  0  0  0  0  0  0  0  0  0
   -6.5227   22.8282  -19.8783 C   0  0  0  0  0  0  0  0  0  0  0  0
   -6.4926   23.2240  -18.4669 C   0  0  0  0  0  0  0  0  0  0  0  0
   -5.8830   24.3802  -18.0551 C   0  0  0  0  0  0  0  0  0  0  0  0
   -5.8002   24.7332  -16.7191 C   0  0  0  0  0  0  0  0  0  0  0  0
   -6.3449   23.9067  -15.7534 C   0  0  0  0  0  0  0  0  0  0  0  0
   -6.9721   22.7232  -16.1632 C   0  0  0  0  0  0  0  0  0  0  0  0
   -7.6020   21.7488  -15.4639 C   0  0  0  0  0  0  0  0  0  0  0  0
   -8.0527   20.8381  -16.3761 C   0  0  0  0  0  0  0  0  0  0  0  0
   -7.7252   21.2046  -17.6277 N   0  0  0  0  0  0  0  0  0  0  0  0
   -8.0360   20.4892  -18.8402 C   0  0  0  0  0  0  0  0  0  0  0  0
   -7.0467   22.3815  -17.5081 C   0  0  0  0  0  0  0  0  0  0  0  0
   -7.7841   21.6001  -13.9791 C   0  0  0  0  0  0  0  0  0  0  0  0
   -8.8727   21.1749  -13.5372 O   0  0  0  0  0  0  0  0  0  0  0  0
   -6.6791   21.9537  -13.1831 N   0  0  0  0  0  0  0  0  0  0  0  0
   -7.3235   21.3452  -12.1248 H   0  0  0  0  0  0  0  0  0  0  0  0
   -5.6645   22.2767  -12.4294 C   0  0  0  0  0  0  0  0  0  0  0  0
   -5.1268   23.5791  -12.4877 C   0  0  0  0  0  0  0  0  0  0  0  0
   -4.0793   23.9960  -11.7537 C   0  0  0  0  0  0  0  0  0  0  0  0
   -3.4833   23.1029  -10.8929 C   0  0  0  0  0  0  0  0  0  0  0  0
   -3.9405   21.8350  -10.7810 N   0  0  0  0  0  0  0  0  0  0  0  0
   -4.9988   21.4276  -11.5190 C   0  0  0  0  0  0  0  0  0  0  0  0
   -2.3325   23.4633  -10.1231 N   0  0  0  0  0  0  0  0  0  0  0  0
   -1.1161   22.7086  -10.2973 C   0  0  0  0  0  0  0  0  0  0  0  0
    0.1471   23.4859  -10.2451 C   0  0  0  0  0  0  0  0  0  0  0  0
    0.0222   24.8945   -9.7821 C   0  0  0  0  0  0  0  0  0  0  0  0
   -1.1011   25.0932   -8.7697 C   0  0  0  0  0  0  0  0  0  0  0  0
   -2.4102   24.5400   -9.1760 C   0  0  0  0  0  0  0  0  0  0  0  0
    1.1905   25.4663   -9.2130 N   0  0  0  0  0  0  0  0  0  0  0  0
    2.4062   25.3507   -9.9525 C   0  0  0  0  0  0  0  0  0  0  0  0
    3.1435   25.3973   -8.6293 C   0  0  0  0  0  0  0  0  0  0  0  0
    1.8076   24.9195   -8.0637 C   0  0  0  0  0  0  0  0  0  0  0  0
   -4.1442   17.3312  -17.7351 C   0  0  0  0  0  0  0  0  0  0  0  0
   -4.8462   16.3273  -18.6165 C   0  0  0  0  0  0  0  0  0  0  0  0
   -4.1358   15.6057  -19.5177 C   0  0  0  0  0  0  0  0  0  0  0  0
   -4.8158   14.6967  -20.3667 C   0  0  0  0  0  0  0  0  0  0  0  0
   -6.1996   14.5598  -20.2631 C   0  0  0  0  0  0  0  0  0  0  0  0
   -6.8333   15.3623  -19.2933 C   0  0  0  0  0  0  0  0  0  0  0  0
   -6.2069   16.2134  -18.4907 C   0  0  0  0  0  0  0  0  0  0  0  0
 18 19  2  0  0  0
 19 17  1  0  0  0
 17  1  1  0  0  0
  1  2  1  0  0  0
  2  3  1  0  0  0
  3  4  2  0  0  0
  3  5  1  0  0  0
  5  6  1  0  0  0
  6 20  1  0  0  0
 20 21  1  0  0  0
 21 22  2  0  0  0
 22 23  1  0  0  0
 23 24  2  0  0  0
 24 25  1  0  0  0
 24 26  1  0  0  0
 26 27  2  0  0  0
  6  7  1  0  0  0
  7  8  2  0  0  0
  7  9  1  0  0  0
  9 29  1  0  0  0
 29 30  1  0  0  0
 30 31  2  0  0  0
 31 32  1  0  0  0
 32 33  2  0  0  0
 33 34  1  0  0  0
 34 35  1  0  0  0
 35 40  1  0  0  0
 40 41  2  0  0  0
 40 42  1  0  0  0
 42 44  1  0  0  0
 44 45  2  0  0  0
 45 46  1  0  0  0
 46 47  2  0  0  0
 47 50  1  0  0  0
 50 51  1  0  0  0
 51 52  1  0  0  0
 52 53  1  0  0  0
 53 56  1  0  0  0
 56 57  1  0  0  0
 57 58  1  0  0  0
 58 59  1  0  0  0
 53 54  1  0  0  0
 54 55  1  0  0  0
 47 48  1  0  0  0
 48 49  2  0  0  0
 35 36  2  0  0  0
 36 37  1  0  0  0
 37 38  1  0  0  0
 37 39  1  0  0  0
  9 10  1  0  0  0
 10 11  1  0  0  0
 11 12  1  0  0  0
 12 13  1  0  0  0
 13 14  2  0  0  0
 13 15  1  0  0  0
 15 60  1  0  0  0
 60 61  1  0  0  0
 61 62  2  0  0  0
 62 63  1  0  0  0
 63 64  2  0  0  0
 64 65  1  0  0  0
 65 66  2  0  0  0
 12  1  1  0  0  0
 66 61  1  0  0  0
 11  5  1  0  0  0
 27 21  1  0  0  0
 39 30  1  0  0  0
 39 34  2  0  0  0
 49 44  1  0  0  0
 55 50  1  0  0  0
 59 56  1  0  0  0
 25 28  1  0  0  0
 42 43  1  0  0  0
 15 16  1  0  0  0
M  END
> <minimizedAffinity>
-8.47873

> <CNNscore>
0.1225543469

> <CNNaffinity>
6.9384126663

> <CNN_VS>
0.8503326178

> <CNNaffinity_variance>
0.5268657804

$$$$
[H]Oc1c([H])c([H])c(C([H])([H])[C@@]2([H])C(=O)N(C([H])([H])c3c([H])c([H])c([H])c4c(C(=O)N([H])c5c([H])nc(N6C([H])([H])C([H])([H])C([H])(N7C([H])([H])C([H])([H])C7([H])[H])C([H])([H])C6([H])[H])c([H])c5[H])c([H])n(C([H])([H])[H])c34)C([H])([H])[C@]3([H])N(C(=O)N([H])C([H])([H])c4c([H])c([H])c([H])c([H])c4[H])N(C([H])([H])C([H])=C([H])[H])C([H])([H])C(=O)N23)c([H])c1[H]


 66 74  0  0  0  0  0  0  0  0999 V2000
    0.0659   22.5091  -18.4472 N   0  0  0  0  0  0  0  0  0  0  0  0
    1.3474   23.0069  -18.9137 C   0  0  0  0  0  0  0  0  0  0  0  0
    2.0406   21.7337  -19.3686 C   0  0  0  0  0  0  0  0  0  0  0  0
    3.1837   21.5246  -18.9235 O   0  0  0  0  0  0  0  0  0  0  0  0
    1.3806   20.8772  -20.2496 N   0  0  0  0  0  0  0  0  0  0  0  0
    2.1205   19.9995  -21.1108 C   0  0  0  0  0  0  0  0  0  0  0  0
    1.9749   20.6688  -22.4573 C   0  0  0  0  0  0  0  0  0  0  0  0
    2.9217   20.7662  -23.2191 O   0  0  0  0  0  0  0  0  0  0  0  0
    0.7012   21.1707  -22.7903 N   0  0  0  0  0  0  0  0  0  0  0  0
   -0.4352   21.1340  -21.8378 C   0  0  0  0  0  0  0  0  0  0  0  0
   -0.0486   20.9139  -20.4132 C   0  0  0  0  0  0  0  0  0  0  0  0
   -0.6473   21.7849  -19.4279 N   0  0  0  0  0  0  0  0  0  0  0  0
   -2.0648   21.9563  -19.3616 C   0  0  0  0  0  0  0  0  0  0  0  0
   -2.5014   22.7915  -18.4998 O   0  0  0  0  0  0  0  0  0  0  0  0
   -3.0373   21.3090  -20.1337 N   0  0  0  0  0  0  0  0  0  0  0  0
   -2.7804   20.6202  -20.8410 H   0  0  0  0  0  0  0  0  0  0  0  0
    0.4048   21.6932  -17.2909 C   0  0  0  0  0  0  0  0  0  0  0  0
    1.2485   21.9818  -15.0332 C   0  0  0  0  0  0  0  0  0  0  0  0
    1.1863   22.3646  -16.2802 C   0  0  0  0  0  0  0  0  0  0  0  0
    1.7510   18.5782  -21.1736 C   0  0  0  0  0  0  0  0  0  0  0  0
    2.8008   17.5563  -21.1770 C   0  0  0  0  0  0  0  0  0  0  0  0
    3.6616   17.4301  -22.2688 C   0  0  0  0  0  0  0  0  0  0  0  0
    4.6084   16.4291  -22.3083 C   0  0  0  0  0  0  0  0  0  0  0  0
    4.7591   15.5071  -21.2918 C   0  0  0  0  0  0  0  0  0  0  0  0
    5.7306   14.5293  -21.3925 O   0  0  0  0  0  0  0  0  0  0  0  0
    3.9173   15.6259  -20.2213 C   0  0  0  0  0  0  0  0  0  0  0  0
    2.9544   16.6335  -20.1669 C   0  0  0  0  0  0  0  0  0  0  0  0
    6.3510   14.4526  -22.1910 H   0  0  0  0  0  0  0  0  0  0  0  0
    0.3805   21.8009  -24.0721 C   0  0  0  0  0  0  0  0  0  0  0  0
   -0.7522   22.7142  -23.8912 C   0  0  0  0  0  0  0  0  0  0  0  0
   -1.0609   23.2465  -22.6667 C   0  0  0  0  0  0  0  0  0  0  0  0
   -2.1617   24.0639  -22.4758 C   0  0  0  0  0  0  0  0  0  0  0  0
   -2.9882   24.3662  -23.5424 C   0  0  0  0  0  0  0  0  0  0  0  0
   -2.6812   23.8291  -24.7990 C   0  0  0  0  0  0  0  0  0  0  0  0
   -3.2798   23.9633  -26.0068 C   0  0  0  0  0  0  0  0  0  0  0  0
   -2.5391   23.2388  -26.8962 C   0  0  0  0  0  0  0  0  0  0  0  0
   -1.4944   22.6495  -26.2884 N   0  0  0  0  0  0  0  0  0  0  0  0
   -0.5005   21.8114  -26.9116 C   0  0  0  0  0  0  0  0  0  0  0  0
   -1.5732   23.0091  -24.9753 C   0  0  0  0  0  0  0  0  0  0  0  0
   -4.5306   24.7100  -26.3783 C   0  0  0  0  0  0  0  0  0  0  0  0
   -4.6478   25.1668  -27.5354 O   0  0  0  0  0  0  0  0  0  0  0  0
   -5.5010   24.8307  -25.3668 N   0  0  0  0  0  0  0  0  0  0  0  0
   -6.3781   25.2585  -26.3432 H   0  0  0  0  0  0  0  0  0  0  0  0
   -6.4122   24.9522  -24.4412 C   0  0  0  0  0  0  0  0  0  0  0  0
   -6.0336   25.1797  -23.1019 C   0  0  0  0  0  0  0  0  0  0  0  0
   -6.9034   25.3097  -22.0840 C   0  0  0  0  0  0  0  0  0  0  0  0
   -8.2493   25.2104  -22.3533 C   0  0  0  0  0  0  0  0  0  0  0  0
   -8.6918   24.9918  -23.6125 N   0  0  0  0  0  0  0  0  0  0  0  0
   -7.8087   24.8690  -24.6303 C   0  0  0  0  0  0  0  0  0  0  0  0
   -9.2262   25.2847  -21.3106 N   0  0  0  0  0  0  0  0  0  0  0  0
   -9.5953   26.5800  -20.7955 C   0  0  0  0  0  0  0  0  0  0  0  0
  -11.0269   26.7603  -20.4481 C   0  0  0  0  0  0  0  0  0  0  0  0
  -11.8530   25.5227  -20.4431 C   0  0  0  0  0  0  0  0  0  0  0  0
  -11.0653   24.2802  -20.0403 C   0  0  0  0  0  0  0  0  0  0  0  0
   -9.7984   24.0812  -20.7753 C   0  0  0  0  0  0  0  0  0  0  0  0
  -13.0124   25.5541  -19.6242 N   0  0  0  0  0  0  0  0  0  0  0  0
  -13.4753   24.3128  -19.0923 C   0  0  0  0  0  0  0  0  0  0  0  0
  -14.8697   24.9064  -19.0852 C   0  0  0  0  0  0  0  0  0  0  0  0
  -14.2941   25.8353  -20.1523 C   0  0  0  0  0  0  0  0  0  0  0  0
   -4.4597   21.5835  -19.9498 C   0  0  0  0  0  0  0  0  0  0  0  0
   -5.1712   21.5864  -21.2807 C   0  0  0  0  0  0  0  0  0  0  0  0
   -6.5195   21.7190  -21.3260 C   0  0  0  0  0  0  0  0  0  0  0  0
   -7.1769   21.6784  -22.5812 C   0  0  0  0  0  0  0  0  0  0  0  0
   -6.4300   21.5024  -23.7455 C   0  0  0  0  0  0  0  0  0  0  0  0
   -5.0368   21.3731  -23.5772 C   0  0  0  0  0  0  0  0  0  0  0  0
   -4.4102   21.4134  -22.4081 C   0  0  0  0  0  0  0  0  0  0  0  0
 18 19  2  0  0  0
 19 17  1  0  0  0
 17  1  1  0  0  0
  1  2  1  0  0  0
  2  3  1  0  0  0
  3  4  2  0  0  0
  3  5  1  0  0  0
  5  6  1  0  0  0
  6 20  1  0  0  0
 20 21  1  0  0  0
 21 22  2  0  0  0
 22 23  1  0  0  0
 23 24  2  0  0  0
 24 25  1  0  0  0
 24 26  1  0  0  0
 26 27  2  0  0  0
  6  7  1  0  0  0
  7  8  2  0  0  0
  7  9  1  0  0  0
  9 29  1  0  0  0
 29 30  1  0  0  0
 30 31  2  0  0  0
 31 32  1  0  0  0
 32 33  2  0  0  0
 33 34  1  0  0  0
 34 35  1  0  0  0
 35 40  1  0  0  0
 40 41  2  0  0  0
 40 42  1  0  0  0
 42 44  1  0  0  0
 44 45  2  0  0  0
 45 46  1  0  0  0
 46 47  2  0  0  0
 47 50  1  0  0  0
 50 51  1  0  0  0
 51 52  1  0  0  0
 52 53  1  0  0  0
 53 56  1  0  0  0
 56 57  1  0  0  0
 57 58  1  0  0  0
 58 59  1  0  0  0
 53 54  1  0  0  0
 54 55  1  0  0  0
 47 48  1  0  0  0
 48 49  2  0  0  0
 35 36  2  0  0  0
 36 37  1  0  0  0
 37 38  1  0  0  0
 37 39  1  0  0  0
  9 10  1  0  0  0
 10 11  1  0  0  0
 11 12  1  0  0  0
 12 13  1  0  0  0
 13 14  2  0  0  0
 13 15  1  0  0  0
 15 60  1  0  0  0
 60 61  1  0  0  0
 61 62  2  0  0  0
 62 63  1  0  0  0
 63 64  2  0  0  0
 64 65  1  0  0  0
 65 66  2  0  0  0
 12  1  1  0  0  0
 66 61  1  0  0  0
 11  5  1  0  0  0
 27 21  1  0  0  0
 39 30  1  0  0  0
 39 34  2  0  0  0
 49 44  1  0  0  0
 55 50  1  0  0  0
 59 56  1  0  0  0
 25 28  1  0  0  0
 42 43  1  0  0  0
 15 16  1  0  0  0
M  END
> <minimizedAffinity>
-9.70011

> <CNNscore>
0.1094545722

> <CNNaffinity>
7.5851616859

> <CNN_VS>
0.8302306533

> <CNNaffinity_variance>
0.6166149378

$$$$
[H]Oc1c([H])c([H])c(C([H])([H])[C@@]2([H])C(=O)N(C([H])([H])c3c([H])c([H])c([H])c4c(C(=O)N([H])c5c([H])nc(N6C([H])([H])C([H])([H])C([H])(N7C([H])([H])C([H])([H])C7([H])[H])C([H])([H])C6([H])[H])c([H])c5[H])c([H])n(C([H])([H])[H])c34)C([H])([H])[C@]3([H])N(C(=O)N([H])C([H])([H])c4c([H])c([H])c([H])c([H])c4[H])N(C([H])([H])C([H])=C([H])[H])C([H])([H])C(=O)N23)c([H])c1[H]


 66 74  0  0  0  0  0  0  0  0999 V2000
   -3.4415   21.7307  -18.7449 N   0  0  0  0  0  0  0  0  0  0  0  0
   -3.7830   22.9874  -18.1028 C   0  0  0  0  0  0  0  0  0  0  0  0
   -5.2741   23.0925  -18.3749 C   0  0  0  0  0  0  0  0  0  0  0  0
   -5.6818   24.1557  -18.8766 O   0  0  0  0  0  0  0  0  0  0  0  0
   -6.1020   22.0172  -18.0523 N   0  0  0  0  0  0  0  0  0  0  0  0
   -7.4946   22.2227  -17.7730 C   0  0  0  0  0  0  0  0  0  0  0  0
   -7.5515   22.0571  -16.2725 C   0  0  0  0  0  0  0  0  0  0  0  0
   -8.2142   22.8099  -15.5794 O   0  0  0  0  0  0  0  0  0  0  0  0
   -6.8089   20.9976  -15.7149 N   0  0  0  0  0  0  0  0  0  0  0  0
   -5.9323   20.1293  -16.5382 C   0  0  0  0  0  0  0  0  0  0  0  0
   -5.5819   20.6870  -17.8775 C   0  0  0  0  0  0  0  0  0  0  0  0
   -4.1918   20.6332  -18.2683 N   0  0  0  0  0  0  0  0  0  0  0  0
   -3.4613   19.4054  -18.2214 C   0  0  0  0  0  0  0  0  0  0  0  0
   -2.2225   19.4636  -18.5265 O   0  0  0  0  0  0  0  0  0  0  0  0
   -3.9488   18.1376  -17.8814 N   0  0  0  0  0  0  0  0  0  0  0  0
   -4.9277   17.9956  -17.6316 H   0  0  0  0  0  0  0  0  0  0  0  0
   -3.6669   21.9855  -20.1597 C   0  0  0  0  0  0  0  0  0  0  0  0
   -1.2609   22.1227  -20.4510 C   0  0  0  0  0  0  0  0  0  0  0  0
   -2.4702   22.1981  -20.9381 C   0  0  0  0  0  0  0  0  0  0  0  0
   -8.4924   21.3786  -18.4457 C   0  0  0  0  0  0  0  0  0  0  0  0
   -9.8318   21.2405  -17.8686 C   0  0  0  0  0  0  0  0  0  0  0  0
  -10.7654   22.2709  -17.9933 C   0  0  0  0  0  0  0  0  0  0  0  0
  -12.0044   22.1759  -17.3967 C   0  0  0  0  0  0  0  0  0  0  0  0
  -12.3895   21.0787  -16.6523 C   0  0  0  0  0  0  0  0  0  0  0  0
  -13.6481   21.0453  -16.0823 O   0  0  0  0  0  0  0  0  0  0  0  0
  -11.4779   20.0679  -16.5262 C   0  0  0  0  0  0  0  0  0  0  0  0
  -10.2204   20.1495  -17.1242 C   0  0  0  0  0  0  0  0  0  0  0  0
  -14.3169   21.8007  -16.1848 H   0  0  0  0  0  0  0  0  0  0  0  0
   -6.7959   20.6705  -14.2881 C   0  0  0  0  0  0  0  0  0  0  0  0
   -5.4527   20.2230  -13.9073 C   0  0  0  0  0  0  0  0  0  0  0  0
   -5.0620   18.9166  -14.0444 C   0  0  0  0  0  0  0  0  0  0  0  0
   -3.8159   18.4741  -13.6349 C   0  0  0  0  0  0  0  0  0  0  0  0
   -2.9214   19.3633  -13.0679 C   0  0  0  0  0  0  0  0  0  0  0  0
   -3.3095   20.7015  -12.9245 C   0  0  0  0  0  0  0  0  0  0  0  0
   -2.6544   21.7820  -12.4364 C   0  0  0  0  0  0  0  0  0  0  0  0
   -3.5015   22.8457  -12.5612 C   0  0  0  0  0  0  0  0  0  0  0  0
   -4.6707   22.4710  -13.1094 N   0  0  0  0  0  0  0  0  0  0  0  0
   -5.7983   23.3239  -13.3919 C   0  0  0  0  0  0  0  0  0  0  0  0
   -4.5643   21.1310  -13.3394 C   0  0  0  0  0  0  0  0  0  0  0  0
   -1.2833   21.8766  -11.8271 C   0  0  0  0  0  0  0  0  0  0  0  0
   -1.1481   21.6985  -10.5977 O   0  0  0  0  0  0  0  0  0  0  0  0
   -0.2303   22.1575  -12.7169 N   0  0  0  0  0  0  0  0  0  0  0  0
    0.6391   21.8165  -11.7003 H   0  0  0  0  0  0  0  0  0  0  0  0
    0.7585   22.4171  -13.5273 C   0  0  0  0  0  0  0  0  0  0  0  0
    0.7880   21.8407  -14.8140 C   0  0  0  0  0  0  0  0  0  0  0  0
    1.7699   22.0465  -15.7102 C   0  0  0  0  0  0  0  0  0  0  0  0
    2.8195   22.8641  -15.3585 C   0  0  0  0  0  0  0  0  0  0  0  0
    2.8641   23.4531  -14.1419 N   0  0  0  0  0  0  0  0  0  0  0  0
    1.8681   23.2447  -13.2501 C   0  0  0  0  0  0  0  0  0  0  0  0
    3.9232   23.0830  -16.2421 N   0  0  0  0  0  0  0  0  0  0  0  0
    3.9819   24.3156  -16.9883 C   0  0  0  0  0  0  0  0  0  0  0  0
    5.3311   24.9083  -17.1639 C   0  0  0  0  0  0  0  0  0  0  0  0
    6.4750   24.0448  -16.7641 C   0  0  0  0  0  0  0  0  0  0  0  0
    6.2029   22.5585  -16.9722 C   0  0  0  0  0  0  0  0  0  0  0  0
    4.9315   22.0720  -16.3961 C   0  0  0  0  0  0  0  0  0  0  0  0
    7.7147   24.3252  -17.3968 N   0  0  0  0  0  0  0  0  0  0  0  0
    7.8598   23.9324  -18.7617 C   0  0  0  0  0  0  0  0  0  0  0  0
    9.3468   23.7992  -18.5011 C   0  0  0  0  0  0  0  0  0  0  0  0
    8.9041   23.6439  -17.0476 C   0  0  0  0  0  0  0  0  0  0  0  0
   -3.0796   16.9642  -17.8824 C   0  0  0  0  0  0  0  0  0  0  0  0
   -3.7756   15.7946  -18.5346 C   0  0  0  0  0  0  0  0  0  0  0  0
   -4.9183   15.9936  -19.2361 C   0  0  0  0  0  0  0  0  0  0  0  0
   -5.5822   14.8792  -19.8077 C   0  0  0  0  0  0  0  0  0  0  0  0
   -5.0526   13.6003  -19.6397 C   0  0  0  0  0  0  0  0  0  0  0  0
   -3.8625   13.5134  -18.8899 C   0  0  0  0  0  0  0  0  0  0  0  0
   -3.2303   14.5496  -18.3535 C   0  0  0  0  0  0  0  0  0  0  0  0
 18 19  2  0  0  0
 19 17  1  0  0  0
 17  1  1  0  0  0
  1  2  1  0  0  0
  2  3  1  0  0  0
  3  4  2  0  0  0
  3  5  1  0  0  0
  5  6  1  0  0  0
  6 20  1  0  0  0
 20 21  1  0  0  0
 21 22  2  0  0  0
 22 23  1  0  0  0
 23 24  2  0  0  0
 24 25  1  0  0  0
 24 26  1  0  0  0
 26 27  2  0  0  0
  6  7  1  0  0  0
  7  8  2  0  0  0
  7  9  1  0  0  0
  9 29  1  0  0  0
 29 30  1  0  0  0
 30 31  2  0  0  0
 31 32  1  0  0  0
 32 33  2  0  0  0
 33 34  1  0  0  0
 34 35  1  0  0  0
 35 40  1  0  0  0
 40 41  2  0  0  0
 40 42  1  0  0  0
 42 44  1  0  0  0
 44 45  2  0  0  0
 45 46  1  0  0  0
 46 47  2  0  0  0
 47 50  1  0  0  0
 50 51  1  0  0  0
 51 52  1  0  0  0
 52 53  1  0  0  0
 53 56  1  0  0  0
 56 57  1  0  0  0
 57 58  1  0  0  0
 58 59  1  0  0  0
 53 54  1  0  0  0
 54 55  1  0  0  0
 47 48  1  0  0  0
 48 49  2  0  0  0
 35 36  2  0  0  0
 36 37  1  0  0  0
 37 38  1  0  0  0
 37 39  1  0  0  0
  9 10  1  0  0  0
 10 11  1  0  0  0
 11 12  1  0  0  0
 12 13  1  0  0  0
 13 14  2  0  0  0
 13 15  1  0  0  0
 15 60  1  0  0  0
 60 61  1  0  0  0
 61 62  2  0  0  0
 62 63  1  0  0  0
 63 64  2  0  0  0
 64 65  1  0  0  0
 65 66  2  0  0  0
 12  1  1  0  0  0
 66 61  1  0  0  0
 11  5  1  0  0  0
 27 21  1  0  0  0
 39 30  1  0  0  0
 39 34  2  0  0  0
 49 44  1  0  0  0
 55 50  1  0  0  0
 59 56  1  0  0  0
 25 28  1  0  0  0
 42 43  1  0  0  0
 15 16  1  0  0  0
M  END
> <minimizedAffinity>
-7.62500

> <CNNscore>
0.0725230426

> <CNNaffinity>
6.5465850830

> <CNN_VS>
0.4747782648

> <CNNaffinity_variance>
0.4033825994

$$$$
[H]Oc1c([H])c([H])c(C([H])([H])[C@@]2([H])C(=O)N(C([H])([H])c3c([H])c([H])c([H])c4c(C(=O)N([H])c5c([H])nc(N6C([H])([H])C([H])([H])C([H])(N7C([H])([H])C([H])([H])C7([H])[H])C([H])([H])C6([H])[H])c([H])c5[H])c([H])n(C([H])([H])[H])c34)C([H])([H])[C@]3([H])N(C(=O)N([H])C([H])([H])c4c([H])c([H])c([H])c([H])c4[H])N(C([H])([H])C([H])=C([H])[H])C([H])([H])C(=O)N23)c([H])c1[H]


 66 74  0  0  0  0  0  0  0  0999 V2000
    0.4056   20.3607  -21.3628 N   0  0  0  0  0  0  0  0  0  0  0  0
    0.5663   19.1009  -20.6592 C   0  0  0  0  0  0  0  0  0  0  0  0
    0.5739   19.5433  -19.2056 C   0  0  0  0  0  0  0  0  0  0  0  0
    1.5170   19.1426  -18.4997 O   0  0  0  0  0  0  0  0  0  0  0  0
   -0.4572   20.3573  -18.7368 N   0  0  0  0  0  0  0  0  0  0  0  0
   -0.8105   20.3643  -17.3459 C   0  0  0  0  0  0  0  0  0  0  0  0
   -2.1068   19.5887  -17.3374 C   0  0  0  0  0  0  0  0  0  0  0  0
   -2.3378   18.7554  -16.4780 O   0  0  0  0  0  0  0  0  0  0  0  0
   -3.0315   19.8726  -18.3618 N   0  0  0  0  0  0  0  0  0  0  0  0
   -2.7258   20.8215  -19.4601 C   0  0  0  0  0  0  0  0  0  0  0  0
   -1.2761   21.1323  -19.6309 C   0  0  0  0  0  0  0  0  0  0  0  0
   -0.7466   21.0792  -20.9743 N   0  0  0  0  0  0  0  0  0  0  0  0
   -1.3665   21.8045  -22.0387 C   0  0  0  0  0  0  0  0  0  0  0  0
   -0.8671   21.6506  -23.2040 O   0  0  0  0  0  0  0  0  0  0  0  0
   -2.4621   22.6722  -21.9522 N   0  0  0  0  0  0  0  0  0  0  0  0
   -2.9195   22.8611  -21.0601 H   0  0  0  0  0  0  0  0  0  0  0  0
    1.6349   21.0842  -21.0750 C   0  0  0  0  0  0  0  0  0  0  0  0
    2.6602   20.8094  -23.2581 C   0  0  0  0  0  0  0  0  0  0  0  0
    2.7387   20.7828  -21.9547 C   0  0  0  0  0  0  0  0  0  0  0  0
   -0.9485   21.6507  -16.6482 C   0  0  0  0  0  0  0  0  0  0  0  0
   -1.2790   21.6689  -15.2211 C   0  0  0  0  0  0  0  0  0  0  0  0
   -2.5829   21.9370  -14.8004 C   0  0  0  0  0  0  0  0  0  0  0  0
   -2.8877   22.0213  -13.4587 C   0  0  0  0  0  0  0  0  0  0  0  0
   -1.9406   21.8514  -12.4686 C   0  0  0  0  0  0  0  0  0  0  0  0
   -2.3131   21.9462  -11.1411 O   0  0  0  0  0  0  0  0  0  0  0  0
   -0.6622   21.5902  -12.8759 C   0  0  0  0  0  0  0  0  0  0  0  0
   -0.3384   21.5018  -14.2297 C   0  0  0  0  0  0  0  0  0  0  0  0
   -3.2657   22.1382  -10.8509 H   0  0  0  0  0  0  0  0  0  0  0  0
   -4.3508   19.2472  -18.4685 C   0  0  0  0  0  0  0  0  0  0  0  0
   -5.3703   20.1860  -17.9900 C   0  0  0  0  0  0  0  0  0  0  0  0
   -5.0570   21.4724  -17.6365 C   0  0  0  0  0  0  0  0  0  0  0  0
   -6.0024   22.3477  -17.1302 C   0  0  0  0  0  0  0  0  0  0  0  0
   -7.3109   21.9305  -16.9694 C   0  0  0  0  0  0  0  0  0  0  0  0
   -7.6429   20.6181  -17.3292 C   0  0  0  0  0  0  0  0  0  0  0  0
   -8.8200   19.9481  -17.3060 C   0  0  0  0  0  0  0  0  0  0  0  0
   -8.5714   18.6980  -17.7958 C   0  0  0  0  0  0  0  0  0  0  0  0
   -7.2752   18.5566  -18.1246 N   0  0  0  0  0  0  0  0  0  0  0  0
   -6.6527   17.3768  -18.6720 C   0  0  0  0  0  0  0  0  0  0  0  0
   -6.6828   19.7503  -17.8353 C   0  0  0  0  0  0  0  0  0  0  0  0
  -10.1697   20.3991  -16.8214 C   0  0  0  0  0  0  0  0  0  0  0  0
  -10.5838   20.0019  -15.7114 O   0  0  0  0  0  0  0  0  0  0  0  0
  -10.8755   21.2646  -17.6773 N   0  0  0  0  0  0  0  0  0  0  0  0
  -11.7345   21.5074  -16.6243 H   0  0  0  0  0  0  0  0  0  0  0  0
  -11.5442   22.0678  -18.4580 C   0  0  0  0  0  0  0  0  0  0  0  0
  -10.8595   22.9191  -19.3498 C   0  0  0  0  0  0  0  0  0  0  0  0
  -11.4665   23.7828  -20.1837 C   0  0  0  0  0  0  0  0  0  0  0  0
  -12.8408   23.8531  -20.1704 C   0  0  0  0  0  0  0  0  0  0  0  0
  -13.5686   23.0697  -19.3425 N   0  0  0  0  0  0  0  0  0  0  0  0
  -12.9487   22.1996  -18.5122 C   0  0  0  0  0  0  0  0  0  0  0  0
  -13.5480   24.7871  -20.9917 N   0  0  0  0  0  0  0  0  0  0  0  0
  -13.1949   26.1834  -20.9178 C   0  0  0  0  0  0  0  0  0  0  0  0
  -13.2266   26.9329  -22.1983 C   0  0  0  0  0  0  0  0  0  0  0  0
  -13.8465   26.2226  -23.3495 C   0  0  0  0  0  0  0  0  0  0  0  0
  -14.9630   25.2705  -22.9330 C   0  0  0  0  0  0  0  0  0  0  0  0
  -14.6082   24.3326  -21.8470 C   0  0  0  0  0  0  0  0  0  0  0  0
  -14.3761   27.0486  -24.3757 N   0  0  0  0  0  0  0  0  0  0  0  0
  -15.5879   27.7494  -24.0956 C   0  0  0  0  0  0  0  0  0  0  0  0
  -15.8876   27.6996  -25.5804 C   0  0  0  0  0  0  0  0  0  0  0  0
  -14.9318   26.5084  -25.5590 C   0  0  0  0  0  0  0  0  0  0  0  0
   -2.9873   23.3525  -23.1328 C   0  0  0  0  0  0  0  0  0  0  0  0
   -4.3633   23.9053  -22.8527 C   0  0  0  0  0  0  0  0  0  0  0  0
   -4.8166   23.9760  -21.5771 C   0  0  0  0  0  0  0  0  0  0  0  0
   -6.1269   24.4591  -21.3343 C   0  0  0  0  0  0  0  0  0  0  0  0
   -6.9269   24.8518  -22.4067 C   0  0  0  0  0  0  0  0  0  0  0  0
   -6.3524   24.7322  -23.6880 C   0  0  0  0  0  0  0  0  0  0  0  0
   -5.1260   24.2851  -23.9271 C   0  0  0  0  0  0  0  0  0  0  0  0
 18 19  2  0  0  0
 19 17  1  0  0  0
 17  1  1  0  0  0
  1  2  1  0  0  0
  2  3  1  0  0  0
  3  4  2  0  0  0
  3  5  1  0  0  0
  5  6  1  0  0  0
  6 20  1  0  0  0
 20 21  1  0  0  0
 21 22  2  0  0  0
 22 23  1  0  0  0
 23 24  2  0  0  0
 24 25  1  0  0  0
 24 26  1  0  0  0
 26 27  2  0  0  0
  6  7  1  0  0  0
  7  8  2  0  0  0
  7  9  1  0  0  0
  9 29  1  0  0  0
 29 30  1  0  0  0
 30 31  2  0  0  0
 31 32  1  0  0  0
 32 33  2  0  0  0
 33 34  1  0  0  0
 34 35  1  0  0  0
 35 40  1  0  0  0
 40 41  2  0  0  0
 40 42  1  0  0  0
 42 44  1  0  0  0
 44 45  2  0  0  0
 45 46  1  0  0  0
 46 47  2  0  0  0
 47 50  1  0  0  0
 50 51  1  0  0  0
 51 52  1  0  0  0
 52 53  1  0  0  0
 53 56  1  0  0  0
 56 57  1  0  0  0
 57 58  1  0  0  0
 58 59  1  0  0  0
 53 54  1  0  0  0
 54 55  1  0  0  0
 47 48  1  0  0  0
 48 49  2  0  0  0
 35 36  2  0  0  0
 36 37  1  0  0  0
 37 38  1  0  0  0
 37 39  1  0  0  0
  9 10  1  0  0  0
 10 11  1  0  0  0
 11 12  1  0  0  0
 12 13  1  0  0  0
 13 14  2  0  0  0
 13 15  1  0  0  0
 15 60  1  0  0  0
 60 61  1  0  0  0
 61 62  2  0  0  0
 62 63  1  0  0  0
 63 64  2  0  0  0
 64 65  1  0  0  0
 65 66  2  0  0  0
 12  1  1  0  0  0
 66 61  1  0  0  0
 11  5  1  0  0  0
 27 21  1  0  0  0
 39 30  1  0  0  0
 39 34  2  0  0  0
 49 44  1  0  0  0
 55 50  1  0  0  0
 59 56  1  0  0  0
 25 28  1  0  0  0
 42 43  1  0  0  0
 15 16  1  0  0  0
M  END
> <minimizedAffinity>
-7.80267

> <CNNscore>
0.0670975819

> <CNNaffinity>
6.7277479172

> <CNN_VS>
0.4514156282

> <CNNaffinity_variance>
0.4373738170

$$$$
[H]Oc1c([H])c([H])c(C([H])([H])[C@@]2([H])C(=O)N(C([H])([H])c3c([H])c([H])c([H])c4c(C(=O)N([H])c5c([H])nc(N6C([H])([H])C([H])([H])C([H])(N7C([H])([H])C([H])([H])C7([H])[H])C([H])([H])C6([H])[H])c([H])c5[H])c([H])n(C([H])([H])[H])c34)C([H])([H])[C@]3([H])N(C(=O)N([H])C([H])([H])c4c([H])c([H])c([H])c([H])c4[H])N(C([H])([H])C([H])=C([H])[H])C([H])([H])C(=O)N23)c([H])c1[H]


 66 74  0  0  0  0  0  0  0  0999 V2000
    3.8798   19.2729  -20.2896 N   0  0  0  0  0  0  0  0  0  0  0  0
    3.7547   18.2643  -19.2528 C   0  0  0  0  0  0  0  0  0  0  0  0
    3.3154   19.0882  -18.0541 C   0  0  0  0  0  0  0  0  0  0  0  0
    3.9658   18.9448  -17.0030 O   0  0  0  0  0  0  0  0  0  0  0  0
    2.2232   19.9463  -18.1819 N   0  0  0  0  0  0  0  0  0  0  0  0
    1.4443   20.3167  -17.0348 C   0  0  0  0  0  0  0  0  0  0  0  0
    0.1823   19.5085  -17.2260 C   0  0  0  0  0  0  0  0  0  0  0  0
   -0.3456   18.9323  -16.2904 O   0  0  0  0  0  0  0  0  0  0  0  0
   -0.3535   19.4533  -18.5279 N   0  0  0  0  0  0  0  0  0  0  0  0
    0.3263   20.0787  -19.6884 C   0  0  0  0  0  0  0  0  0  0  0  0
    1.7661   20.4038  -19.4673 C   0  0  0  0  0  0  0  0  0  0  0  0
    2.6947   20.0111  -20.5024 N   0  0  0  0  0  0  0  0  0  0  0  0
    2.4784   20.3842  -21.8652 C   0  0  0  0  0  0  0  0  0  0  0  0
    3.3173   19.9421  -22.7205 O   0  0  0  0  0  0  0  0  0  0  0  0
    1.4496   21.1857  -22.3750 N   0  0  0  0  0  0  0  0  0  0  0  0
    0.7391   21.5887  -21.7637 H   0  0  0  0  0  0  0  0  0  0  0  0
    4.9814   20.1089  -19.8366 C   0  0  0  0  0  0  0  0  0  0  0  0
    7.4020   20.2690  -19.9235 C   0  0  0  0  0  0  0  0  0  0  0  0
    6.2893   19.6806  -20.2716 C   0  0  0  0  0  0  0  0  0  0  0  0
    1.1438   21.7364  -16.8009 C   0  0  0  0  0  0  0  0  0  0  0  0
    2.2416   22.6991  -16.6820 C   0  0  0  0  0  0  0  0  0  0  0  0
    2.5055   23.6019  -17.7137 C   0  0  0  0  0  0  0  0  0  0  0  0
    3.5770   24.4658  -17.6379 C   0  0  0  0  0  0  0  0  0  0  0  0
    4.4389   24.4892  -16.5596 C   0  0  0  0  0  0  0  0  0  0  0  0
    5.4932   25.3826  -16.5448 O   0  0  0  0  0  0  0  0  0  0  0  0
    4.1851   23.6059  -15.5477 C   0  0  0  0  0  0  0  0  0  0  0  0
    3.1049   22.7258  -15.6099 C   0  0  0  0  0  0  0  0  0  0  0  0
    5.6700   26.0351  -17.3008 H   0  0  0  0  0  0  0  0  0  0  0  0
   -1.5942   18.7567  -18.8723 C   0  0  0  0  0  0  0  0  0  0  0  0
   -2.7382   19.5686  -18.4461 C   0  0  0  0  0  0  0  0  0  0  0  0
   -2.7235   20.9363  -18.5311 C   0  0  0  0  0  0  0  0  0  0  0  0
   -3.7760   21.7134  -18.0786 C   0  0  0  0  0  0  0  0  0  0  0  0
   -4.8878   21.1093  -17.5207 C   0  0  0  0  0  0  0  0  0  0  0  0
   -4.9144   19.7118  -17.4304 C   0  0  0  0  0  0  0  0  0  0  0  0
   -5.8558   18.8571  -16.9630 C   0  0  0  0  0  0  0  0  0  0  0  0
   -5.3659   17.5952  -17.1423 C   0  0  0  0  0  0  0  0  0  0  0  0
   -4.1449   17.6260  -17.7048 N   0  0  0  0  0  0  0  0  0  0  0  0
   -3.3263   16.4878  -18.0411 C   0  0  0  0  0  0  0  0  0  0  0  0
   -3.8499   18.9448  -17.8880 C   0  0  0  0  0  0  0  0  0  0  0  0
   -7.1852   19.1514  -16.3257 C   0  0  0  0  0  0  0  0  0  0  0  0
   -8.1246   18.3404  -16.4710 O   0  0  0  0  0  0  0  0  0  0  0  0
   -7.2650   20.3467  -15.5878 N   0  0  0  0  0  0  0  0  0  0  0  0
   -8.4640   19.8843  -15.0835 H   0  0  0  0  0  0  0  0  0  0  0  0
   -7.3573   21.4509  -14.8993 C   0  0  0  0  0  0  0  0  0  0  0  0
   -8.6217   22.0204  -14.6427 C   0  0  0  0  0  0  0  0  0  0  0  0
   -8.8097   23.1581  -13.9498 C   0  0  0  0  0  0  0  0  0  0  0  0
   -7.7063   23.8194  -13.4609 C   0  0  0  0  0  0  0  0  0  0  0  0
   -6.4596   23.3372  -13.6663 N   0  0  0  0  0  0  0  0  0  0  0  0
   -6.2818   22.1886  -14.3590 C   0  0  0  0  0  0  0  0  0  0  0  0
   -7.8301   25.0620  -12.7626 N   0  0  0  0  0  0  0  0  0  0  0  0
   -8.8560   25.9894  -13.1714 C   0  0  0  0  0  0  0  0  0  0  0  0
   -9.5310   26.7375  -12.0818 C   0  0  0  0  0  0  0  0  0  0  0  0
   -8.9088   26.6224  -10.7351 C   0  0  0  0  0  0  0  0  0  0  0  0
   -7.3945   26.4483  -10.7895 C   0  0  0  0  0  0  0  0  0  0  0  0
   -6.9231   25.3798  -11.6955 C   0  0  0  0  0  0  0  0  0  0  0  0
   -9.1645   27.6944   -9.8399 N   0  0  0  0  0  0  0  0  0  0  0  0
  -10.4926   28.2167   -9.8023 C   0  0  0  0  0  0  0  0  0  0  0  0
   -9.8923   29.5454   -9.3885 C   0  0  0  0  0  0  0  0  0  0  0  0
   -8.6339   28.9884  -10.0513 C   0  0  0  0  0  0  0  0  0  0  0  0
    1.3581   21.4885  -23.8006 C   0  0  0  0  0  0  0  0  0  0  0  0
   -0.0835   21.6697  -24.2085 C   0  0  0  0  0  0  0  0  0  0  0  0
   -0.3859   22.0358  -25.4782 C   0  0  0  0  0  0  0  0  0  0  0  0
   -1.7424   22.2419  -25.8344 C   0  0  0  0  0  0  0  0  0  0  0  0
   -2.7410   22.0667  -24.8771 C   0  0  0  0  0  0  0  0  0  0  0  0
   -2.3095   21.6882  -23.5900 C   0  0  0  0  0  0  0  0  0  0  0  0
   -1.0434   21.4886  -23.2462 C   0  0  0  0  0  0  0  0  0  0  0  0
 18 19  2  0  0  0
 19 17  1  0  0  0
 17  1  1  0  0  0
  1  2  1  0  0  0
  2  3  1  0  0  0
  3  4  2  0  0  0
  3  5  1  0  0  0
  5  6  1  0  0  0
  6 20  1  0  0  0
 20 21  1  0  0  0
 21 22  2  0  0  0
 22 23  1  0  0  0
 23 24  2  0  0  0
 24 25  1  0  0  0
 24 26  1  0  0  0
 26 27  2  0  0  0
  6  7  1  0  0  0
  7  8  2  0  0  0
  7  9  1  0  0  0
  9 29  1  0  0  0
 29 30  1  0  0  0
 30 31  2  0  0  0
 31 32  1  0  0  0
 32 33  2  0  0  0
 33 34  1  0  0  0
 34 35  1  0  0  0
 35 40  1  0  0  0
 40 41  2  0  0  0
 40 42  1  0  0  0
 42 44  1  0  0  0
 44 45  2  0  0  0
 45 46  1  0  0  0
 46 47  2  0  0  0
 47 50  1  0  0  0
 50 51  1  0  0  0
 51 52  1  0  0  0
 52 53  1  0  0  0
 53 56  1  0  0  0
 56 57  1  0  0  0
 57 58  1  0  0  0
 58 59  1  0  0  0
 53 54  1  0  0  0
 54 55  1  0  0  0
 47 48  1  0  0  0
 48 49  2  0  0  0
 35 36  2  0  0  0
 36 37  1  0  0  0
 37 38  1  0  0  0
 37 39  1  0  0  0
  9 10  1  0  0  0
 10 11  1  0  0  0
 11 12  1  0  0  0
 12 13  1  0  0  0
 13 14  2  0  0  0
 13 15  1  0  0  0
 15 60  1  0  0  0
 60 61  1  0  0  0
 61 62  2  0  0  0
 62 63  1  0  0  0
 63 64  2  0  0  0
 64 65  1  0  0  0
 65 66  2  0  0  0
 12  1  1  0  0  0
 66 61  1  0  0  0
 11  5  1  0  0  0
 27 21  1  0  0  0
 39 30  1  0  0  0
 39 34  2  0  0  0
 49 44  1  0  0  0
 55 50  1  0  0  0
 59 56  1  0  0  0
 25 28  1  0  0  0
 42 43  1  0  0  0
 15 16  1  0  0  0
M  END
> <minimizedAffinity>
-7.61234

> <CNNscore>
0.0649150684

> <CNNaffinity>
6.5632414818

> <CNN_VS>
0.4260532558

> <CNNaffinity_variance>
0.2244219780

$$$$
[H]c1nc(Oc2c([H])c([H])c(C(=O)N([H])C([H])([H])C([H])([H])N3C([H])([H])C([H])([H])C([H])([H])C3([H])[H])c([H])c2[H])c(N([H])S(=O)(=O)c2c([H])c([H])c(Cl)c(Cl)c2[H])c([H])c1Cl


 38 41  0  0  0  0  0  0  0  0999 V2000
   -5.0351   23.3774  -27.4937 C   0  0  0  0  0  0  0  0  0  0  0  0
   -5.9741   23.4177  -28.4562 N   0  0  0  0  0  0  0  0  0  0  0  0
   -5.8073   24.1404  -29.5675 C   0  0  0  0  0  0  0  0  0  0  0  0
   -4.6578   24.8511  -29.7250 C   0  0  0  0  0  0  0  0  0  0  0  0
   -4.4487   25.7976  -31.1883 Cl  0  0  0  0  0  0  0  0  0  0  0  0
   -3.6650   24.8232  -28.7339 C   0  0  0  0  0  0  0  0  0  0  0  0
   -3.8558   24.0747  -27.5985 C   0  0  0  0  0  0  0  0  0  0  0  0
   -2.9051   23.9660  -26.5577 N   0  0  0  0  0  0  0  0  0  0  0  0
   -2.9236   24.6368  -25.7340 H   0  0  0  0  0  0  0  0  0  0  0  0
   -1.7071   22.7408  -26.6197 S   0  0  0  0  0  0  0  0  0  0  0  0
   -2.2588   21.5683  -27.4205 O   0  0  0  0  0  0  0  0  0  0  0  0
   -0.5073   23.3190  -27.3665 O   0  0  0  0  0  0  0  0  0  0  0  0
   -1.1662   22.1601  -25.0897 C   0  0  0  0  0  0  0  0  0  0  0  0
   -2.0723   21.9134  -24.0525 C   0  0  0  0  0  0  0  0  0  0  0  0
   -1.5930   21.4568  -22.8586 C   0  0  0  0  0  0  0  0  0  0  0  0
   -0.2387   21.2393  -22.6684 C   0  0  0  0  0  0  0  0  0  0  0  0
    0.3581   20.6570  -21.1362 Cl  0  0  0  0  0  0  0  0  0  0  0  0
    0.6641   21.4830  -23.6952 C   0  0  0  0  0  0  0  0  0  0  0  0
    2.3610   21.1957  -23.4135 Cl  0  0  0  0  0  0  0  0  0  0  0  0
    0.1786   21.9473  -24.9106 C   0  0  0  0  0  0  0  0  0  0  0  0
   -5.2846   22.5969  -26.3600 O   0  0  0  0  0  0  0  0  0  0  0  0
   -7.2552   24.1356  -22.9906 C   0  0  0  0  0  0  0  0  0  0  0  0
   -7.1618   24.8856  -24.1725 C   0  0  0  0  0  0  0  0  0  0  0  0
   -6.5092   24.3690  -25.2777 C   0  0  0  0  0  0  0  0  0  0  0  0
   -5.9371   23.1194  -25.2574 C   0  0  0  0  0  0  0  0  0  0  0  0
   -6.0417   22.4058  -24.0891 C   0  0  0  0  0  0  0  0  0  0  0  0
   -6.6891   22.8996  -22.9694 C   0  0  0  0  0  0  0  0  0  0  0  0
   -8.3566   23.9080  -20.9076 O   0  0  0  0  0  0  0  0  0  0  0  0
   -7.9574   24.6917  -21.8443 C   0  0  0  0  0  0  0  0  0  0  0  0
   -8.2268   26.0680  -21.7052 N   0  0  0  0  0  0  0  0  0  0  0  0
   -7.8923   26.6873  -22.4839 H   0  0  0  0  0  0  0  0  0  0  0  0
   -8.9119   26.6994  -20.6135 C   0  0  0  0  0  0  0  0  0  0  0  0
  -10.3684   26.8508  -20.9565 C   0  0  0  0  0  0  0  0  0  0  0  0
  -10.9388   27.9470  -20.2280 N   0  0  0  0  0  0  0  0  0  0  0  0
  -12.1682   28.4541  -20.7336 C   0  0  0  0  0  0  0  0  0  0  0  0
  -11.8711   29.7923  -21.3897 C   0  0  0  0  0  0  0  0  0  0  0  0
  -10.6470   30.2509  -20.6497 C   0  0  0  0  0  0  0  0  0  0  0  0
  -10.0524   29.0394  -19.9806 C   0  0  0  0  0  0  0  0  0  0  0  0
 28 29  2  0  0  0
 29 30  1  0  0  0
 30 32  1  0  0  0
 32 33  1  0  0  0
 33 34  1  0  0  0
 34 35  1  0  0  0
 35 36  1  0  0  0
 36 37  1  0  0  0
 37 38  1  0  0  0
 29 22  1  0  0  0
 22 23  2  0  0  0
 23 24  1  0  0  0
 24 25  2  0  0  0
 25 21  1  0  0  0
 21  1  1  0  0  0
  1  2  2  0  0  0
  2  3  1  0  0  0
  3  4  2  0  0  0
  4  5  1  0  0  0
  4  6  1  0  0  0
  6  7  2  0  0  0
  7  8  1  0  0  0
  8 10  1  0  0  0
 10 11  2  0  0  0
 10 12  2  0  0  0
 10 13  1  0  0  0
 13 14  2  0  0  0
 14 15  1  0  0  0
 15 16  2  0  0  0
 16 17  1  0  0  0
 16 18  1  0  0  0
 18 19  1  0  0  0
 18 20  2  0  0  0
 25 26  1  0  0  0
 26 27  2  0  0  0
 38 34  1  0  0  0
 27 22  1  0  0  0
  7  1  1  0  0  0
 20 13  1  0  0  0
 30 31  1  0  0  0
  8  9  1  0  0  0
M  END
> <minimizedAffinity>
-8.75641

> <CNNscore>
0.4373481274

> <CNNaffinity>
7.0387620926

> <CNN_VS>
3.0783894062

> <CNNaffinity_variance>
0.1172276735

$$$$
[H]c1nc(Oc2c([H])c([H])c(C(=O)N([H])C([H])([H])C([H])([H])N3C([H])([H])C([H])([H])C([H])([H])C3([H])[H])c([H])c2[H])c(N([H])S(=O)(=O)c2c([H])c([H])c(Cl)c(Cl)c2[H])c([H])c1Cl


 38 41  0  0  0  0  0  0  0  0999 V2000
   -4.6721   23.2084  -27.4480 C   0  0  0  0  0  0  0  0  0  0  0  0
   -5.7589   23.1260  -28.2364 N   0  0  0  0  0  0  0  0  0  0  0  0
   -5.8685   23.8474  -29.3557 C   0  0  0  0  0  0  0  0  0  0  0  0
   -4.8532   24.6841  -29.7024 C   0  0  0  0  0  0  0  0  0  0  0  0
   -5.0071   25.6276  -31.1744 Cl  0  0  0  0  0  0  0  0  0  0  0  0
   -3.7103   24.7854  -28.8948 C   0  0  0  0  0  0  0  0  0  0  0  0
   -3.6171   24.0360  -27.7478 C   0  0  0  0  0  0  0  0  0  0  0  0
   -2.4975   24.0530  -26.8846 N   0  0  0  0  0  0  0  0  0  0  0  0
   -2.3502   24.8547  -26.2032 H   0  0  0  0  0  0  0  0  0  0  0  0
   -1.3620   22.7691  -26.9332 S   0  0  0  0  0  0  0  0  0  0  0  0
   -2.0088   21.5807  -27.6333 O   0  0  0  0  0  0  0  0  0  0  0  0
   -0.1784   23.2438  -27.7729 O   0  0  0  0  0  0  0  0  0  0  0  0
   -0.7678   22.2517  -25.4002 C   0  0  0  0  0  0  0  0  0  0  0  0
    0.5848   21.9427  -25.2198 C   0  0  0  0  0  0  0  0  0  0  0  0
    1.0048   21.5345  -23.9867 C   0  0  0  0  0  0  0  0  0  0  0  0
    0.1171   21.4255  -22.9294 C   0  0  0  0  0  0  0  0  0  0  0  0
    0.6693   20.9011  -21.3600 Cl  0  0  0  0  0  0  0  0  0  0  0  0
   -1.2263   21.7311  -23.1041 C   0  0  0  0  0  0  0  0  0  0  0  0
   -2.3101   21.5803  -21.7462 Cl  0  0  0  0  0  0  0  0  0  0  0  0
   -1.6556   22.1467  -24.3578 C   0  0  0  0  0  0  0  0  0  0  0  0
   -4.6329   22.4204  -26.2929 O   0  0  0  0  0  0  0  0  0  0  0  0
   -6.4950   23.7063  -22.7598 C   0  0  0  0  0  0  0  0  0  0  0  0
   -6.3974   22.3402  -23.0637 C   0  0  0  0  0  0  0  0  0  0  0  0
   -5.7819   21.9270  -24.2318 C   0  0  0  0  0  0  0  0  0  0  0  0
   -5.2510   22.8279  -25.1239 C   0  0  0  0  0  0  0  0  0  0  0  0
   -5.3597   24.1586  -24.8038 C   0  0  0  0  0  0  0  0  0  0  0  0
   -5.9707   24.5983  -23.6419 C   0  0  0  0  0  0  0  0  0  0  0  0
   -6.4333   24.6952  -20.6099 O   0  0  0  0  0  0  0  0  0  0  0  0
   -7.1340   24.1192  -21.5199 C   0  0  0  0  0  0  0  0  0  0  0  0
   -8.5045   23.9173  -21.2605 N   0  0  0  0  0  0  0  0  0  0  0  0
   -9.0552   23.4435  -22.0182 H   0  0  0  0  0  0  0  0  0  0  0  0
   -9.2136   24.2897  -20.0696 C   0  0  0  0  0  0  0  0  0  0  0  0
  -10.0684   25.4946  -20.3516 C   0  0  0  0  0  0  0  0  0  0  0  0
  -10.8784   25.2678  -21.5135 N   0  0  0  0  0  0  0  0  0  0  0  0
  -10.6017   26.1001  -22.6338 C   0  0  0  0  0  0  0  0  0  0  0  0
  -11.7369   27.1045  -22.7437 C   0  0  0  0  0  0  0  0  0  0  0  0
  -12.8799   26.3729  -22.0999 C   0  0  0  0  0  0  0  0  0  0  0  0
  -12.2875   25.2569  -21.2797 C   0  0  0  0  0  0  0  0  0  0  0  0
 28 29  2  0  0  0
 29 30  1  0  0  0
 30 32  1  0  0  0
 32 33  1  0  0  0
 33 34  1  0  0  0
 34 35  1  0  0  0
 35 36  1  0  0  0
 36 37  1  0  0  0
 37 38  1  0  0  0
 29 22  1  0  0  0
 22 23  2  0  0  0
 23 24  1  0  0  0
 24 25  2  0  0  0
 25 21  1  0  0  0
 21  1  1  0  0  0
  1  2  2  0  0  0
  2  3  1  0  0  0
  3  4  2  0  0  0
  4  5  1  0  0  0
  4  6  1  0  0  0
  6  7  2  0  0  0
  7  8  1  0  0  0
  8 10  1  0  0  0
 10 11  2  0  0  0
 10 12  2  0  0  0
 10 13  1  0  0  0
 13 14  2  0  0  0
 14 15  1  0  0  0
 15 16  2  0  0  0
 16 17  1  0  0  0
 16 18  1  0  0  0
 18 19  1  0  0  0
 18 20  2  0  0  0
 25 26  1  0  0  0
 26 27  2  0  0  0
 38 34  1  0  0  0
 27 22  1  0  0  0
  7  1  1  0  0  0
 20 13  1  0  0  0
 30 31  1  0  0  0
  8  9  1  0  0  0
M  END
> <minimizedAffinity>
-7.71615

> <CNNscore>
0.3846397698

> <CNNaffinity>
7.2215561867

> <CNN_VS>
2.7776978016

> <CNNaffinity_variance>
0.1163175330

$$$$
[H]c1nc(Oc2c([H])c([H])c(C(=O)N([H])C([H])([H])C([H])([H])N3C([H])([H])C([H])([H])C([H])([H])C3([H])[H])c([H])c2[H])c(N([H])S(=O)(=O)c2c([H])c([H])c(Cl)c(Cl)c2[H])c([H])c1Cl


 38 41  0  0  0  0  0  0  0  0999 V2000
   -1.4680   21.7631  -23.6179 C   0  0  0  0  0  0  0  0  0  0  0  0
   -0.1319   21.8967  -23.6995 N   0  0  0  0  0  0  0  0  0  0  0  0
    0.4765   22.1559  -24.8605 C   0  0  0  0  0  0  0  0  0  0  0  0
   -0.2783   22.2875  -25.9849 C   0  0  0  0  0  0  0  0  0  0  0  0
    0.5305   22.6276  -27.5050 Cl  0  0  0  0  0  0  0  0  0  0  0  0
   -1.6735   22.1523  -25.9227 C   0  0  0  0  0  0  0  0  0  0  0  0
   -2.2797   21.8851  -24.7198 C   0  0  0  0  0  0  0  0  0  0  0  0
   -3.6778   21.7553  -24.5540 N   0  0  0  0  0  0  0  0  0  0  0  0
   -4.1235   20.7980  -24.4373 H   0  0  0  0  0  0  0  0  0  0  0  0
   -4.6697   23.1539  -24.5401 S   0  0  0  0  0  0  0  0  0  0  0  0
   -6.0720   22.7452  -24.1077 O   0  0  0  0  0  0  0  0  0  0  0  0
   -4.0952   24.1054  -23.4931 O   0  0  0  0  0  0  0  0  0  0  0  0
   -4.7769   23.9969  -26.0396 C   0  0  0  0  0  0  0  0  0  0  0  0
   -4.6533   25.3895  -26.0926 C   0  0  0  0  0  0  0  0  0  0  0  0
   -4.7487   26.0101  -27.3048 C   0  0  0  0  0  0  0  0  0  0  0  0
   -4.9634   25.2841  -28.4643 C   0  0  0  0  0  0  0  0  0  0  0  0
   -5.0845   26.0922  -30.0055 Cl  0  0  0  0  0  0  0  0  0  0  0  0
   -5.0869   23.9017  -28.4162 C   0  0  0  0  0  0  0  0  0  0  0  0
   -5.3566   23.0259  -29.9000 Cl  0  0  0  0  0  0  0  0  0  0  0  0
   -4.9900   23.2684  -27.1841 C   0  0  0  0  0  0  0  0  0  0  0  0
   -2.0293   21.4922  -22.3656 O   0  0  0  0  0  0  0  0  0  0  0  0
    0.1440   22.1055  -18.8295 C   0  0  0  0  0  0  0  0  0  0  0  0
    0.1574   20.8591  -19.4735 C   0  0  0  0  0  0  0  0  0  0  0  0
   -0.5633   20.6674  -20.6387 C   0  0  0  0  0  0  0  0  0  0  0  0
   -1.3078   21.6775  -21.1996 C   0  0  0  0  0  0  0  0  0  0  0  0
   -1.3049   22.8873  -20.5502 C   0  0  0  0  0  0  0  0  0  0  0  0
   -0.5926   23.1051  -19.3832 C   0  0  0  0  0  0  0  0  0  0  0  0
    0.3840   22.0215  -16.4760 O   0  0  0  0  0  0  0  0  0  0  0  0
    0.9195   22.2901  -17.6126 C   0  0  0  0  0  0  0  0  0  0  0  0
    2.2497   22.7557  -17.6155 N   0  0  0  0  0  0  0  0  0  0  0  0
    2.6642   22.9697  -18.5558 H   0  0  0  0  0  0  0  0  0  0  0  0
    3.0842   22.9677  -16.4673 C   0  0  0  0  0  0  0  0  0  0  0  0
    4.5124   22.6571  -16.8217 C   0  0  0  0  0  0  0  0  0  0  0  0
    4.9078   23.3977  -17.9848 N   0  0  0  0  0  0  0  0  0  0  0  0
    5.6318   22.6673  -18.9680 C   0  0  0  0  0  0  0  0  0  0  0  0
    7.0809   23.1188  -18.8923 C   0  0  0  0  0  0  0  0  0  0  0  0
    6.9578   24.5114  -18.3428 C   0  0  0  0  0  0  0  0  0  0  0  0
    5.5903   24.6245  -17.7213 C   0  0  0  0  0  0  0  0  0  0  0  0
 28 29  2  0  0  0
 29 30  1  0  0  0
 30 32  1  0  0  0
 32 33  1  0  0  0
 33 34  1  0  0  0
 34 35  1  0  0  0
 35 36  1  0  0  0
 36 37  1  0  0  0
 37 38  1  0  0  0
 29 22  1  0  0  0
 22 23  2  0  0  0
 23 24  1  0  0  0
 24 25  2  0  0  0
 25 21  1  0  0  0
 21  1  1  0  0  0
  1  2  2  0  0  0
  2  3  1  0  0  0
  3  4  2  0  0  0
  4  5  1  0  0  0
  4  6  1  0  0  0
  6  7  2  0  0  0
  7  8  1  0  0  0
  8 10  1  0  0  0
 10 11  2  0  0  0
 10 12  2  0  0  0
 10 13  1  0  0  0
 13 14  2  0  0  0
 14 15  1  0  0  0
 15 16  2  0  0  0
 16 17  1  0  0  0
 16 18  1  0  0  0
 18 19  1  0  0  0
 18 20  2  0  0  0
 25 26  1  0  0  0
 26 27  2  0  0  0
 38 34  1  0  0  0
 27 22  1  0  0  0
  7  1  1  0  0  0
 20 13  1  0  0  0
 30 31  1  0  0  0
  8  9  1  0  0  0
M  END
> <minimizedAffinity>
-8.53491

> <CNNscore>
0.2944439054

> <CNNaffinity>
6.9017333984

> <CNN_VS>
2.0321733952

> <CNNaffinity_variance>
0.1404244453

$$$$
[H]c1nc(Oc2c([H])c([H])c(C(=O)N([H])C([H])([H])C([H])([H])N3C([H])([H])C([H])([H])C([H])([H])C3([H])[H])c([H])c2[H])c(N([H])S(=O)(=O)c2c([H])c([H])c(Cl)c(Cl)c2[H])c([H])c1Cl


 38 41  0  0  0  0  0  0  0  0999 V2000
   -4.8227   23.3910  -27.8325 C   0  0  0  0  0  0  0  0  0  0  0  0
   -5.8848   23.3713  -28.6578 N   0  0  0  0  0  0  0  0  0  0  0  0
   -5.9279   24.1224  -29.7620 C   0  0  0  0  0  0  0  0  0  0  0  0
   -4.8688   24.9249  -30.0547 C   0  0  0  0  0  0  0  0  0  0  0  0
   -4.9354   25.9079  -31.5072 Cl  0  0  0  0  0  0  0  0  0  0  0  0
   -3.7506   24.9608  -29.2079 C   0  0  0  0  0  0  0  0  0  0  0  0
   -3.7260   24.1818  -28.0773 C   0  0  0  0  0  0  0  0  0  0  0  0
   -2.6363   24.1331  -27.1778 N   0  0  0  0  0  0  0  0  0  0  0  0
   -2.4788   24.9132  -26.4740 H   0  0  0  0  0  0  0  0  0  0  0  0
   -1.5542   22.8036  -27.2182 S   0  0  0  0  0  0  0  0  0  0  0  0
   -2.2650   21.6241  -27.8697 O   0  0  0  0  0  0  0  0  0  0  0  0
   -0.3740   23.2077  -28.0987 O   0  0  0  0  0  0  0  0  0  0  0  0
   -0.9429   22.3035  -25.6862 C   0  0  0  0  0  0  0  0  0  0  0  0
    0.4233   22.0668  -25.4992 C   0  0  0  0  0  0  0  0  0  0  0  0
    0.8568   21.6694  -24.2672 C   0  0  0  0  0  0  0  0  0  0  0  0
   -0.0306   21.5011  -23.2175 C   0  0  0  0  0  0  0  0  0  0  0  0
    0.5389   20.9914  -21.6495 Cl  0  0  0  0  0  0  0  0  0  0  0  0
   -1.3875   21.7348  -23.3989 C   0  0  0  0  0  0  0  0  0  0  0  0
   -2.4705   21.5111  -22.0504 Cl  0  0  0  0  0  0  0  0  0  0  0  0
   -1.8305   22.1394  -24.6513 C   0  0  0  0  0  0  0  0  0  0  0  0
   -4.8539   22.5755  -26.6965 O   0  0  0  0  0  0  0  0  0  0  0  0
   -6.5251   23.9699  -23.1095 C   0  0  0  0  0  0  0  0  0  0  0  0
   -6.4029   22.5945  -23.3577 C   0  0  0  0  0  0  0  0  0  0  0  0
   -5.8509   22.1454  -24.5441 C   0  0  0  0  0  0  0  0  0  0  0  0
   -5.4082   23.0188  -25.5087 C   0  0  0  0  0  0  0  0  0  0  0  0
   -5.5393   24.3593  -25.2422 C   0  0  0  0  0  0  0  0  0  0  0  0
   -6.0881   24.8347  -24.0633 C   0  0  0  0  0  0  0  0  0  0  0  0
   -8.3721   24.4273  -21.7014 O   0  0  0  0  0  0  0  0  0  0  0  0
   -7.0959   24.4214  -21.8499 C   0  0  0  0  0  0  0  0  0  0  0  0
   -6.3090   24.8598  -20.7660 N   0  0  0  0  0  0  0  0  0  0  0  0
   -5.2697   24.8472  -20.9123 H   0  0  0  0  0  0  0  0  0  0  0  0
   -6.7866   25.3214  -19.4938 C   0  0  0  0  0  0  0  0  0  0  0  0
   -6.6634   24.2162  -18.4813 C   0  0  0  0  0  0  0  0  0  0  0  0
   -5.3376   24.1892  -17.9344 N   0  0  0  0  0  0  0  0  0  0  0  0
   -4.6444   22.9522  -18.0510 C   0  0  0  0  0  0  0  0  0  0  0  0
   -4.6090   22.3203  -16.6694 C   0  0  0  0  0  0  0  0  0  0  0  0
   -4.6988   23.5158  -15.7644 C   0  0  0  0  0  0  0  0  0  0  0  0
   -5.2245   24.6602  -16.5908 C   0  0  0  0  0  0  0  0  0  0  0  0
 28 29  2  0  0  0
 29 30  1  0  0  0
 30 32  1  0  0  0
 32 33  1  0  0  0
 33 34  1  0  0  0
 34 35  1  0  0  0
 35 36  1  0  0  0
 36 37  1  0  0  0
 37 38  1  0  0  0
 29 22  1  0  0  0
 22 23  2  0  0  0
 23 24  1  0  0  0
 24 25  2  0  0  0
 25 21  1  0  0  0
 21  1  1  0  0  0
  1  2  2  0  0  0
  2  3  1  0  0  0
  3  4  2  0  0  0
  4  5  1  0  0  0
  4  6  1  0  0  0
  6  7  2  0  0  0
  7  8  1  0  0  0
  8 10  1  0  0  0
 10 11  2  0  0  0
 10 12  2  0  0  0
 10 13  1  0  0  0
 13 14  2  0  0  0
 14 15  1  0  0  0
 15 16  2  0  0  0
 16 17  1  0  0  0
 16 18  1  0  0  0
 18 19  1  0  0  0
 18 20  2  0  0  0
 25 26  1  0  0  0
 26 27  2  0  0  0
 38 34  1  0  0  0
 27 22  1  0  0  0
  7  1  1  0  0  0
 20 13  1  0  0  0
 30 31  1  0  0  0
  8  9  1  0  0  0
M  END
> <minimizedAffinity>
-8.02808

> <CNNscore>
0.2397525758

> <CNNaffinity>
7.0327634811

> <CNN_VS>
1.6861231327

> <CNNaffinity_variance>
0.1991367340

$$$$
[H]c1nc(Oc2c([H])c([H])c(C(=O)N([H])C([H])([H])C([H])([H])N3C([H])([H])C([H])([H])C([H])([H])C3([H])[H])c([H])c2[H])c(N([H])S(=O)(=O)c2c([H])c([H])c(Cl)c(Cl)c2[H])c([H])c1Cl


 38 41  0  0  0  0  0  0  0  0999 V2000
   -3.3774   22.9086  -20.6724 C   0  0  0  0  0  0  0  0  0  0  0  0
   -4.4738   23.3967  -20.0645 N   0  0  0  0  0  0  0  0  0  0  0  0
   -5.7029   23.0224  -20.4310 C   0  0  0  0  0  0  0  0  0  0  0  0
   -5.8439   22.1251  -21.4440 C   0  0  0  0  0  0  0  0  0  0  0  0
   -7.4628   21.6403  -21.9181 Cl  0  0  0  0  0  0  0  0  0  0  0  0
   -4.7140   21.6031  -22.0917 C   0  0  0  0  0  0  0  0  0  0  0  0
   -3.4592   22.0010  -21.7007 C   0  0  0  0  0  0  0  0  0  0  0  0
   -2.2633   21.5139  -22.2764 N   0  0  0  0  0  0  0  0  0  0  0  0
   -1.8841   20.5575  -22.0113 H   0  0  0  0  0  0  0  0  0  0  0  0
   -1.4115   22.4719  -23.4151 S   0  0  0  0  0  0  0  0  0  0  0  0
   -1.2510   23.8736  -22.8406 O   0  0  0  0  0  0  0  0  0  0  0  0
   -0.0259   21.8520  -23.5810 O   0  0  0  0  0  0  0  0  0  0  0  0
   -2.1426   22.5922  -24.9713 C   0  0  0  0  0  0  0  0  0  0  0  0
   -1.4456   22.2163  -26.1247 C   0  0  0  0  0  0  0  0  0  0  0  0
   -2.0683   22.3335  -27.3339 C   0  0  0  0  0  0  0  0  0  0  0  0
   -3.3638   22.8138  -27.4270 C   0  0  0  0  0  0  0  0  0  0  0  0
   -4.1451   22.9590  -28.9798 Cl  0  0  0  0  0  0  0  0  0  0  0  0
   -4.0592   23.1882  -26.2846 C   0  0  0  0  0  0  0  0  0  0  0  0
   -5.6888   23.7879  -26.4466 Cl  0  0  0  0  0  0  0  0  0  0  0  0
   -3.4277   23.0696  -25.0535 C   0  0  0  0  0  0  0  0  0  0  0  0
   -2.1257   23.3499  -20.2305 O   0  0  0  0  0  0  0  0  0  0  0  0
   -0.1925   21.6011  -16.9430 C   0  0  0  0  0  0  0  0  0  0  0  0
   -1.5931   21.6337  -17.0183 C   0  0  0  0  0  0  0  0  0  0  0  0
   -2.2205   22.2134  -18.1066 C   0  0  0  0  0  0  0  0  0  0  0  0
   -1.5038   22.7702  -19.1389 C   0  0  0  0  0  0  0  0  0  0  0  0
   -0.1349   22.7260  -19.0412 C   0  0  0  0  0  0  0  0  0  0  0  0
    0.5173   22.1521  -17.9633 C   0  0  0  0  0  0  0  0  0  0  0  0
   -0.0451   19.8914  -15.3123 O   0  0  0  0  0  0  0  0  0  0  0  0
    0.4476   20.9748  -15.7966 C   0  0  0  0  0  0  0  0  0  0  0  0
    1.5992   21.5030  -15.1793 N   0  0  0  0  0  0  0  0  0  0  0  0
    1.9817   22.3891  -15.5918 H   0  0  0  0  0  0  0  0  0  0  0  0
    2.2917   20.9539  -14.0485 C   0  0  0  0  0  0  0  0  0  0  0  0
    1.9119   21.7171  -12.8095 C   0  0  0  0  0  0  0  0  0  0  0  0
    2.7390   22.8807  -12.6699 N   0  0  0  0  0  0  0  0  0  0  0  0
    3.4674   22.9808  -11.4518 C   0  0  0  0  0  0  0  0  0  0  0  0
    2.8010   24.0581  -10.6123 C   0  0  0  0  0  0  0  0  0  0  0  0
    2.1629   24.9319  -11.6542 C   0  0  0  0  0  0  0  0  0  0  0  0
    2.0856   24.1252  -12.9240 C   0  0  0  0  0  0  0  0  0  0  0  0
 28 29  2  0  0  0
 29 30  1  0  0  0
 30 32  1  0  0  0
 32 33  1  0  0  0
 33 34  1  0  0  0
 34 35  1  0  0  0
 35 36  1  0  0  0
 36 37  1  0  0  0
 37 38  1  0  0  0
 29 22  1  0  0  0
 22 23  2  0  0  0
 23 24  1  0  0  0
 24 25  2  0  0  0
 25 21  1  0  0  0
 21  1  1  0  0  0
  1  2  2  0  0  0
  2  3  1  0  0  0
  3  4  2  0  0  0
  4  5  1  0  0  0
  4  6  1  0  0  0
  6  7  2  0  0  0
  7  8  1  0  0  0
  8 10  1  0  0  0
 10 11  2  0  0  0
 10 12  2  0  0  0
 10 13  1  0  0  0
 13 14  2  0  0  0
 14 15  1  0  0  0
 15 16  2  0  0  0
 16 17  1  0  0  0
 16 18  1  0  0  0
 18 19  1  0  0  0
 18 20  2  0  0  0
 25 26  1  0  0  0
 26 27  2  0  0  0
 38 34  1  0  0  0
 27 22  1  0  0  0
  7  1  1  0  0  0
 20 13  1  0  0  0
 30 31  1  0  0  0
  8  9  1  0  0  0
M  END
> <minimizedAffinity>
-7.24654

> <CNNscore>
0.2337461412

> <CNNaffinity>
6.2665853500

> <CNN_VS>
1.4647901058

> <CNNaffinity_variance>
0.0712726563

$$$$
[H]c1nc(Oc2c([H])c([H])c(C(=O)N([H])C([H])([H])C([H])([H])N3C([H])([H])C([H])([H])C([H])([H])C3([H])[H])c([H])c2[H])c(N([H])S(=O)(=O)c2c([H])c([H])c(Cl)c(Cl)c2[H])c([H])c1Cl


 38 41  0  0  0  0  0  0  0  0999 V2000
   -3.3416   21.8033  -24.4775 C   0  0  0  0  0  0  0  0  0  0  0  0
   -3.4441   22.2664  -25.7364 N   0  0  0  0  0  0  0  0  0  0  0  0
   -2.3646   22.5965  -26.4512 C   0  0  0  0  0  0  0  0  0  0  0  0
   -1.1338   22.4588  -25.8877 C   0  0  0  0  0  0  0  0  0  0  0  0
    0.2778   22.8956  -26.8349 Cl  0  0  0  0  0  0  0  0  0  0  0  0
   -1.0038   21.9775  -24.5762 C   0  0  0  0  0  0  0  0  0  0  0  0
   -2.1258   21.6443  -23.8577 C   0  0  0  0  0  0  0  0  0  0  0  0
   -2.0941   21.1302  -22.5411 N   0  0  0  0  0  0  0  0  0  0  0  0
   -2.4604   20.1554  -22.3305 H   0  0  0  0  0  0  0  0  0  0  0  0
   -1.4587   22.0851  -21.2664 S   0  0  0  0  0  0  0  0  0  0  0  0
   -1.5032   23.5471  -21.6920 O   0  0  0  0  0  0  0  0  0  0  0  0
   -2.3781   21.9004  -20.0615 O   0  0  0  0  0  0  0  0  0  0  0  0
    0.1507   21.6975  -20.7862 C   0  0  0  0  0  0  0  0  0  0  0  0
    0.6665   22.1501  -19.5670 C   0  0  0  0  0  0  0  0  0  0  0  0
    1.9482   21.8182  -19.2342 C   0  0  0  0  0  0  0  0  0  0  0  0
    2.7298   21.0493  -20.0800 C   0  0  0  0  0  0  0  0  0  0  0  0
    4.3663   20.6349  -19.6409 Cl  0  0  0  0  0  0  0  0  0  0  0  0
    2.2218   20.5981  -21.2912 C   0  0  0  0  0  0  0  0  0  0  0  0
    3.2399   19.6322  -22.3266 Cl  0  0  0  0  0  0  0  0  0  0  0  0
    0.9181   20.9344  -21.6317 C   0  0  0  0  0  0  0  0  0  0  0  0
   -4.5191   21.4794  -23.7953 O   0  0  0  0  0  0  0  0  0  0  0  0
   -6.5713   24.2851  -21.4459 C   0  0  0  0  0  0  0  0  0  0  0  0
   -5.3355   24.6035  -22.0288 C   0  0  0  0  0  0  0  0  0  0  0  0
   -4.6668   23.6706  -22.8013 C   0  0  0  0  0  0  0  0  0  0  0  0
   -5.1825   22.4159  -23.0224 C   0  0  0  0  0  0  0  0  0  0  0  0
   -6.3927   22.1288  -22.4407 C   0  0  0  0  0  0  0  0  0  0  0  0
   -7.0819   23.0440  -21.6635 C   0  0  0  0  0  0  0  0  0  0  0  0
   -6.8089   25.5932  -19.4873 O   0  0  0  0  0  0  0  0  0  0  0  0
   -7.2646   25.2849  -20.6484 C   0  0  0  0  0  0  0  0  0  0  0  0
   -8.4292   25.9442  -21.0903 N   0  0  0  0  0  0  0  0  0  0  0  0
   -8.7827   25.6741  -22.0410 H   0  0  0  0  0  0  0  0  0  0  0  0
   -9.1748   26.9376  -20.3713 C   0  0  0  0  0  0  0  0  0  0  0  0
  -10.3715   27.3508  -21.1832 C   0  0  0  0  0  0  0  0  0  0  0  0
  -10.4184   28.7791  -21.3070 N   0  0  0  0  0  0  0  0  0  0  0  0
   -9.8723   29.5138  -20.2178 C   0  0  0  0  0  0  0  0  0  0  0  0
  -11.0362   30.1161  -19.4483 C   0  0  0  0  0  0  0  0  0  0  0  0
  -12.0981   30.2302  -20.5046 C   0  0  0  0  0  0  0  0  0  0  0  0
  -11.6991   29.3191  -21.6360 C   0  0  0  0  0  0  0  0  0  0  0  0
 28 29  2  0  0  0
 29 30  1  0  0  0
 30 32  1  0  0  0
 32 33  1  0  0  0
 33 34  1  0  0  0
 34 35  1  0  0  0
 35 36  1  0  0  0
 36 37  1  0  0  0
 37 38  1  0  0  0
 29 22  1  0  0  0
 22 23  2  0  0  0
 23 24  1  0  0  0
 24 25  2  0  0  0
 25 21  1  0  0  0
 21  1  1  0  0  0
  1  2  2  0  0  0
  2  3  1  0  0  0
  3  4  2  0  0  0
  4  5  1  0  0  0
  4  6  1  0  0  0
  6  7  2  0  0  0
  7  8  1  0  0  0
  8 10  1  0  0  0
 10 11  2  0  0  0
 10 12  2  0  0  0
 10 13  1  0  0  0
 13 14  2  0  0  0
 14 15  1  0  0  0
 15 16  2  0  0  0
 16 17  1  0  0  0
 16 18  1  0  0  0
 18 19  1  0  0  0
 18 20  2  0  0  0
 25 26  1  0  0  0
 26 27  2  0  0  0
 38 34  1  0  0  0
 27 22  1  0  0  0
  7  1  1  0  0  0
 20 13  1  0  0  0
 30 31  1  0  0  0
  8  9  1  0  0  0
M  END
> <minimizedAffinity>
-8.09089

> <CNNscore>
0.2139191329

> <CNNaffinity>
6.2389574051

> <CNN_VS>
1.3346323967

> <CNNaffinity_variance>
0.5330574512

$$$$
[H]c1nc(Oc2c([H])c([H])c(C(=O)N([H])C([H])([H])C([H])([H])N3C([H])([H])C([H])([H])C([H])([H])C3([H])[H])c([H])c2[H])c(N([H])S(=O)(=O)c2c([H])c([H])c(Cl)c(Cl)c2[H])c([H])c1Cl


 38 41  0  0  0  0  0  0  0  0999 V2000
   -5.0127   24.0349  -21.4488 C   0  0  0  0  0  0  0  0  0  0  0  0
   -6.1975   24.6447  -21.6334 N   0  0  0  0  0  0  0  0  0  0  0  0
   -6.4587   25.3474  -22.7394 C   0  0  0  0  0  0  0  0  0  0  0  0
   -5.4998   25.4452  -23.6997 C   0  0  0  0  0  0  0  0  0  0  0  0
   -5.8528   26.3708  -25.1486 Cl  0  0  0  0  0  0  0  0  0  0  0  0
   -4.2571   24.8169  -23.5280 C   0  0  0  0  0  0  0  0  0  0  0  0
   -4.0078   24.0998  -22.3836 C   0  0  0  0  0  0  0  0  0  0  0  0
   -2.7973   23.4142  -22.1317 N   0  0  0  0  0  0  0  0  0  0  0  0
   -2.1130   23.7721  -21.4021 H   0  0  0  0  0  0  0  0  0  0  0  0
   -2.4241   21.9893  -23.0095 S   0  0  0  0  0  0  0  0  0  0  0  0
   -1.4862   21.1357  -22.1656 O   0  0  0  0  0  0  0  0  0  0  0  0
   -3.7312   21.2255  -23.2086 O   0  0  0  0  0  0  0  0  0  0  0  0
   -1.7023   22.2425  -24.5541 C   0  0  0  0  0  0  0  0  0  0  0  0
   -0.3114   22.2706  -24.7024 C   0  0  0  0  0  0  0  0  0  0  0  0
    0.2108   22.4774  -25.9466 C   0  0  0  0  0  0  0  0  0  0  0  0
   -0.6118   22.6568  -27.0461 C   0  0  0  0  0  0  0  0  0  0  0  0
    0.0711   22.9216  -28.6292 Cl  0  0  0  0  0  0  0  0  0  0  0  0
   -1.9929   22.6299  -26.9033 C   0  0  0  0  0  0  0  0  0  0  0  0
   -2.9923   22.8601  -28.3139 Cl  0  0  0  0  0  0  0  0  0  0  0  0
   -2.5263   22.4194  -25.6385 C   0  0  0  0  0  0  0  0  0  0  0  0
   -4.8165   23.3180  -20.2638 O   0  0  0  0  0  0  0  0  0  0  0  0
   -8.0719   21.8348  -18.0715 C   0  0  0  0  0  0  0  0  0  0  0  0
   -7.2985   22.8965  -17.5788 C   0  0  0  0  0  0  0  0  0  0  0  0
   -6.2267   23.3776  -18.3095 C   0  0  0  0  0  0  0  0  0  0  0  0
   -5.8863   22.8400  -19.5278 C   0  0  0  0  0  0  0  0  0  0  0  0
   -6.6583   21.8018  -19.9878 C   0  0  0  0  0  0  0  0  0  0  0  0
   -7.7356   21.3019  -19.2763 C   0  0  0  0  0  0  0  0  0  0  0  0
   -9.3341   21.7271  -16.0718 O   0  0  0  0  0  0  0  0  0  0  0  0
   -9.2029   21.3527  -17.2938 C   0  0  0  0  0  0  0  0  0  0  0  0
  -10.1785   20.4822  -17.8198 N   0  0  0  0  0  0  0  0  0  0  0  0
  -10.0486   20.1894  -18.8193 H   0  0  0  0  0  0  0  0  0  0  0  0
  -11.3206   19.9584  -17.1262 C   0  0  0  0  0  0  0  0  0  0  0  0
  -10.9864   18.6052  -16.5612 C   0  0  0  0  0  0  0  0  0  0  0  0
  -10.8033   18.6913  -15.1411 N   0  0  0  0  0  0  0  0  0  0  0  0
   -9.4871   18.4282  -14.6690 C   0  0  0  0  0  0  0  0  0  0  0  0
   -9.5082   17.0608  -14.0063 C   0  0  0  0  0  0  0  0  0  0  0  0
  -10.9405   16.9336  -13.5719 C   0  0  0  0  0  0  0  0  0  0  0  0
  -11.7352   17.9408  -14.3613 C   0  0  0  0  0  0  0  0  0  0  0  0
 28 29  2  0  0  0
 29 30  1  0  0  0
 30 32  1  0  0  0
 32 33  1  0  0  0
 33 34  1  0  0  0
 34 35  1  0  0  0
 35 36  1  0  0  0
 36 37  1  0  0  0
 37 38  1  0  0  0
 29 22  1  0  0  0
 22 23  2  0  0  0
 23 24  1  0  0  0
 24 25  2  0  0  0
 25 21  1  0  0  0
 21  1  1  0  0  0
  1  2  2  0  0  0
  2  3  1  0  0  0
  3  4  2  0  0  0
  4  5  1  0  0  0
  4  6  1  0  0  0
  6  7  2  0  0  0
  7  8  1  0  0  0
  8 10  1  0  0  0
 10 11  2  0  0  0
 10 12  2  0  0  0
 10 13  1  0  0  0
 13 14  2  0  0  0
 14 15  1  0  0  0
 15 16  2  0  0  0
 16 17  1  0  0  0
 16 18  1  0  0  0
 18 19  1  0  0  0
 18 20  2  0  0  0
 25 26  1  0  0  0
 26 27  2  0  0  0
 38 34  1  0  0  0
 27 22  1  0  0  0
  7  1  1  0  0  0
 20 13  1  0  0  0
 30 31  1  0  0  0
  8  9  1  0  0  0
M  END
> <minimizedAffinity>
-7.22157

> <CNNscore>
0.1751342565

> <CNNaffinity>
6.2747688293

> <CNN_VS>
1.0989270210

> <CNNaffinity_variance>
0.1180257052

$$$$
[H]c1nc(Oc2c([H])c([H])c(C(=O)N([H])C([H])([H])C([H])([H])N3C([H])([H])C([H])([H])C([H])([H])C3([H])[H])c([H])c2[H])c(N([H])S(=O)(=O)c2c([H])c([H])c(Cl)c(Cl)c2[H])c([H])c1Cl


 38 41  0  0  0  0  0  0  0  0999 V2000
   -3.1021   21.5867  -23.9640 C   0  0  0  0  0  0  0  0  0  0  0  0
   -3.3781   22.0853  -25.1826 N   0  0  0  0  0  0  0  0  0  0  0  0
   -2.4097   22.4911  -26.0089 C   0  0  0  0  0  0  0  0  0  0  0  0
   -1.1144   22.3952  -25.6035 C   0  0  0  0  0  0  0  0  0  0  0  0
    0.1501   22.9313  -26.6963 Cl  0  0  0  0  0  0  0  0  0  0  0  0
   -0.8040   21.8780  -24.3367 C   0  0  0  0  0  0  0  0  0  0  0  0
   -1.8138   21.4670  -23.5018 C   0  0  0  0  0  0  0  0  0  0  0  0
   -1.5987   20.9120  -22.2193 N   0  0  0  0  0  0  0  0  0  0  0  0
   -1.8461   19.8985  -22.0185 H   0  0  0  0  0  0  0  0  0  0  0  0
   -0.9317   21.8798  -20.9709 S   0  0  0  0  0  0  0  0  0  0  0  0
    0.5780   21.6775  -20.9595 O   0  0  0  0  0  0  0  0  0  0  0  0
   -1.2253   23.3365  -21.3222 O   0  0  0  0  0  0  0  0  0  0  0  0
   -1.5435   21.5685  -19.3898 C   0  0  0  0  0  0  0  0  0  0  0  0
   -1.9155   22.6180  -18.5427 C   0  0  0  0  0  0  0  0  0  0  0  0
   -2.3916   22.3186  -17.2988 C   0  0  0  0  0  0  0  0  0  0  0  0
   -2.5076   21.0053  -16.8750 C   0  0  0  0  0  0  0  0  0  0  0  0
   -3.1164   20.6393  -15.2819 Cl  0  0  0  0  0  0  0  0  0  0  0  0
   -2.1393   19.9606  -17.7127 C   0  0  0  0  0  0  0  0  0  0  0  0
   -2.3015   18.3215  -17.1396 Cl  0  0  0  0  0  0  0  0  0  0  0  0
   -1.6549   20.2629  -18.9786 C   0  0  0  0  0  0  0  0  0  0  0  0
   -4.1718   21.1834  -23.1579 O   0  0  0  0  0  0  0  0  0  0  0  0
   -5.4358   23.4516  -19.8623 C   0  0  0  0  0  0  0  0  0  0  0  0
   -5.1835   24.0623  -21.0999 C   0  0  0  0  0  0  0  0  0  0  0  0
   -4.7664   23.3051  -22.1801 C   0  0  0  0  0  0  0  0  0  0  0  0
   -4.5872   21.9460  -22.0807 C   0  0  0  0  0  0  0  0  0  0  0  0
   -4.8402   21.3724  -20.8591 C   0  0  0  0  0  0  0  0  0  0  0  0
   -5.2582   22.1074  -19.7628 C   0  0  0  0  0  0  0  0  0  0  0  0
   -6.7743   25.1717  -18.9386 O   0  0  0  0  0  0  0  0  0  0  0  0
   -5.8865   24.2638  -18.7428 C   0  0  0  0  0  0  0  0  0  0  0  0
   -5.3922   24.1039  -17.4326 N   0  0  0  0  0  0  0  0  0  0  0  0
   -4.6668   23.3572  -17.2984 H   0  0  0  0  0  0  0  0  0  0  0  0
   -5.7780   24.8591  -16.2748 C   0  0  0  0  0  0  0  0  0  0  0  0
   -6.4560   23.9501  -15.2869 C   0  0  0  0  0  0  0  0  0  0  0  0
   -7.2820   24.7128  -14.3960 N   0  0  0  0  0  0  0  0  0  0  0  0
   -6.6582   25.8328  -13.7789 C   0  0  0  0  0  0  0  0  0  0  0  0
   -6.4145   25.4709  -12.3232 C   0  0  0  0  0  0  0  0  0  0  0  0
   -7.4863   24.4522  -12.0591 C   0  0  0  0  0  0  0  0  0  0  0  0
   -7.9634   23.9521  -13.3975 C   0  0  0  0  0  0  0  0  0  0  0  0
 28 29  2  0  0  0
 29 30  1  0  0  0
 30 32  1  0  0  0
 32 33  1  0  0  0
 33 34  1  0  0  0
 34 35  1  0  0  0
 35 36  1  0  0  0
 36 37  1  0  0  0
 37 38  1  0  0  0
 29 22  1  0  0  0
 22 23  2  0  0  0
 23 24  1  0  0  0
 24 25  2  0  0  0
 25 21  1  0  0  0
 21  1  1  0  0  0
  1  2  2  0  0  0
  2  3  1  0  0  0
  3  4  2  0  0  0
  4  5  1  0  0  0
  4  6  1  0  0  0
  6  7  2  0  0  0
  7  8  1  0  0  0
  8 10  1  0  0  0
 10 11  2  0  0  0
 10 12  2  0  0  0
 10 13  1  0  0  0
 13 14  2  0  0  0
 14 15  1  0  0  0
 15 16  2  0  0  0
 16 17  1  0  0  0
 16 18  1  0  0  0
 18 19  1  0  0  0
 18 20  2  0  0  0
 25 26  1  0  0  0
 26 27  2  0  0  0
 38 34  1  0  0  0
 27 22  1  0  0  0
  7  1  1  0  0  0
 20 13  1  0  0  0
 30 31  1  0  0  0
  8  9  1  0  0  0
M  END
> <minimizedAffinity>
-6.24877

> <CNNscore>
0.1552852094

> <CNNaffinity>
6.2197651863

> <CNN_VS>
0.9658375382

> <CNNaffinity_variance>
0.0956829637

$$$$
[H]c1nc(Oc2c([H])c([H])c(C(=O)N([H])C([H])([H])C([H])([H])N3C([H])([H])C([H])([H])C([H])([H])C3([H])[H])c([H])c2[H])c(N([H])S(=O)(=O)c2c([H])c([H])c(Cl)c(Cl)c2[H])c([H])c1Cl


 38 41  0  0  0  0  0  0  0  0999 V2000
   -3.5091   21.8331  -24.4847 C   0  0  0  0  0  0  0  0  0  0  0  0
   -3.6948   22.2708  -25.7431 N   0  0  0  0  0  0  0  0  0  0  0  0
   -2.6659   22.6036  -26.5278 C   0  0  0  0  0  0  0  0  0  0  0  0
   -1.4013   22.4951  -26.0376 C   0  0  0  0  0  0  0  0  0  0  0  0
   -0.0566   22.9351  -27.0763 Cl  0  0  0  0  0  0  0  0  0  0  0  0
   -1.1847   22.0406  -24.7280 C   0  0  0  0  0  0  0  0  0  0  0  0
   -2.2557   21.7041  -23.9370 C   0  0  0  0  0  0  0  0  0  0  0  0
   -2.1363   21.2155  -22.6157 N   0  0  0  0  0  0  0  0  0  0  0  0
   -2.5202   20.2600  -22.3540 H   0  0  0  0  0  0  0  0  0  0  0  0
   -1.3646   22.1701  -21.4185 S   0  0  0  0  0  0  0  0  0  0  0  0
    0.0803   21.7054  -21.2898 O   0  0  0  0  0  0  0  0  0  0  0  0
   -1.3695   23.6129  -21.9182 O   0  0  0  0  0  0  0  0  0  0  0  0
   -2.0986   22.1328  -19.8594 C   0  0  0  0  0  0  0  0  0  0  0  0
   -3.4636   22.3955  -19.7003 C   0  0  0  0  0  0  0  0  0  0  0  0
   -3.9962   22.3564  -18.4439 C   0  0  0  0  0  0  0  0  0  0  0  0
   -3.2091   22.0633  -17.3429 C   0  0  0  0  0  0  0  0  0  0  0  0
   -3.9046   22.0186  -15.7438 Cl  0  0  0  0  0  0  0  0  0  0  0  0
   -1.8538   21.8021  -17.4964 C   0  0  0  0  0  0  0  0  0  0  0  0
   -0.8989   21.4373  -16.0834 Cl  0  0  0  0  0  0  0  0  0  0  0  0
   -1.3100   21.8412  -18.7736 C   0  0  0  0  0  0  0  0  0  0  0  0
   -4.6379   21.5044  -23.7266 O   0  0  0  0  0  0  0  0  0  0  0  0
   -6.6809   24.3594  -21.4292 C   0  0  0  0  0  0  0  0  0  0  0  0
   -5.4306   24.6533  -21.9937 C   0  0  0  0  0  0  0  0  0  0  0  0
   -4.7651   23.7043  -22.7491 C   0  0  0  0  0  0  0  0  0  0  0  0
   -5.2980   22.4569  -22.9707 C   0  0  0  0  0  0  0  0  0  0  0  0
   -6.5222   22.1938  -22.4073 C   0  0  0  0  0  0  0  0  0  0  0  0
   -7.2087   23.1255  -21.6473 C   0  0  0  0  0  0  0  0  0  0  0  0
   -6.8817   25.7439  -19.5196 O   0  0  0  0  0  0  0  0  0  0  0  0
   -7.3702   25.3758  -20.6495 C   0  0  0  0  0  0  0  0  0  0  0  0
   -8.5658   25.9883  -21.0761 N   0  0  0  0  0  0  0  0  0  0  0  0
   -8.9458   25.6697  -22.0012 H   0  0  0  0  0  0  0  0  0  0  0  0
   -9.3100   26.9938  -20.3726 C   0  0  0  0  0  0  0  0  0  0  0  0
  -10.4537   27.4619  -21.2297 C   0  0  0  0  0  0  0  0  0  0  0  0
  -10.4747   28.8949  -21.2906 N   0  0  0  0  0  0  0  0  0  0  0  0
   -9.8329   29.5702  -20.2152 C   0  0  0  0  0  0  0  0  0  0  0  0
  -10.9225   30.1634  -19.3376 C   0  0  0  0  0  0  0  0  0  0  0  0
  -12.0554   30.3455  -20.3069 C   0  0  0  0  0  0  0  0  0  0  0  0
  -11.7624   29.4758  -21.5014 C   0  0  0  0  0  0  0  0  0  0  0  0
 28 29  2  0  0  0
 29 30  1  0  0  0
 30 32  1  0  0  0
 32 33  1  0  0  0
 33 34  1  0  0  0
 34 35  1  0  0  0
 35 36  1  0  0  0
 36 37  1  0  0  0
 37 38  1  0  0  0
 29 22  1  0  0  0
 22 23  2  0  0  0
 23 24  1  0  0  0
 24 25  2  0  0  0
 25 21  1  0  0  0
 21  1  1  0  0  0
  1  2  2  0  0  0
  2  3  1  0  0  0
  3  4  2  0  0  0
  4  5  1  0  0  0
  4  6  1  0  0  0
  6  7  2  0  0  0
  7  8  1  0  0  0
  8 10  1  0  0  0
 10 11  2  0  0  0
 10 12  2  0  0  0
 10 13  1  0  0  0
 13 14  2  0  0  0
 14 15  1  0  0  0
 15 16  2  0  0  0
 16 17  1  0  0  0
 16 18  1  0  0  0
 18 19  1  0  0  0
 18 20  2  0  0  0
 25 26  1  0  0  0
 26 27  2  0  0  0
 38 34  1  0  0  0
 27 22  1  0  0  0
  7  1  1  0  0  0
 20 13  1  0  0  0
 30 31  1  0  0  0
  8  9  1  0  0  0
M  END
> <minimizedAffinity>
-7.89812

> <CNNscore>
0.1492736191

> <CNNaffinity>
6.1380453110

> <CNN_VS>
0.9162482619

> <CNNaffinity_variance>
0.5930508375

$$$$
[H]c1c([H])c(N([H])c2nc(N([H])[H])nc(C([H])([H])Cl)n2)c([H])c([H])c1OC([H])([H])[H]


 21 22  0  0  0  0  0  0  0  0999 V2000
   -3.9065   24.0285  -28.5594 C   0  0  0  0  0  0  0  0  0  0  0  0
   -4.4862   24.5214  -29.6593 N   0  0  0  0  0  0  0  0  0  0  0  0
   -5.3789   25.5123  -29.7035 C   0  0  0  0  0  0  0  0  0  0  0  0
   -5.9528   25.9832  -30.9153 N   0  0  0  0  0  0  0  0  0  0  0  0
   -5.7463   26.0887  -28.5231 N   0  0  0  0  0  0  0  0  0  0  0  0
   -5.2000   25.6404  -27.3712 C   0  0  0  0  0  0  0  0  0  0  0  0
   -4.3121   24.6447  -27.3988 N   0  0  0  0  0  0  0  0  0  0  0  0
   -5.4790   25.7925  -31.8233 H   0  0  0  0  0  0  0  0  0  0  0  0
   -6.8446   26.5178  -30.8999 H   0  0  0  0  0  0  0  0  0  0  0  0
   -2.9635   22.9829  -28.5054 N   0  0  0  0  0  0  0  0  0  0  0  0
   -2.8950   22.3973  -29.3839 H   0  0  0  0  0  0  0  0  0  0  0  0
   -0.2660   22.1420  -25.4172 C   0  0  0  0  0  0  0  0  0  0  0  0
   -1.6028   21.9343  -25.1885 C   0  0  0  0  0  0  0  0  0  0  0  0
   -2.5487   22.1923  -26.1903 C   0  0  0  0  0  0  0  0  0  0  0  0
   -2.1442   22.6602  -27.4212 C   0  0  0  0  0  0  0  0  0  0  0  0
   -0.7616   22.8646  -27.6288 C   0  0  0  0  0  0  0  0  0  0  0  0
    0.1586   22.6079  -26.6390 C   0  0  0  0  0  0  0  0  0  0  0  0
    0.2069   21.5498  -23.1397 C   0  0  0  0  0  0  0  0  0  0  0  0
    0.6426   21.8818  -24.4198 O   0  0  0  0  0  0  0  0  0  0  0  0
   -5.5742   26.2432  -26.0558 C   0  0  0  0  0  0  0  0  0  0  0  0
   -4.2303   27.2482  -25.4690 Cl  0  0  0  0  0  0  0  0  0  0  0  0
 18 19  1  0  0  0
 19 12  1  0  0  0
 12 13  2  0  0  0
 13 14  1  0  0  0
 14 15  2  0  0  0
 15 10  1  0  0  0
 10  1  1  0  0  0
  1  2  2  0  0  0
  2  3  1  0  0  0
  3  4  1  0  0  0
  3  5  2  0  0  0
  5  6  1  0  0  0
  6 20  1  0  0  0
 20 21  1  0  0  0
  6  7  2  0  0  0
 15 16  1  0  0  0
 16 17  2  0  0  0
 17 12  1  0  0  0
  7  1  1  0  0  0
 10 11  1  0  0  0
  4  8  1  0  0  0
  4  9  1  0  0  0
M  END
> <minimizedAffinity>
-7.25751

> <CNNscore>
0.7551478148

> <CNNaffinity>
6.0969209671

> <CNN_VS>
4.6040763855

> <CNNaffinity_variance>
0.1478068084

$$$$
[H]c1c([H])c(N([H])c2nc(N([H])[H])nc(C([H])([H])Cl)n2)c([H])c([H])c1OC([H])([H])[H]


 21 22  0  0  0  0  0  0  0  0999 V2000
   -4.4813   23.8810  -27.6695 C   0  0  0  0  0  0  0  0  0  0  0  0
   -4.9509   24.3294  -28.8388 N   0  0  0  0  0  0  0  0  0  0  0  0
   -5.6028   25.4764  -29.0391 C   0  0  0  0  0  0  0  0  0  0  0  0
   -6.0731   25.8863  -30.3160 N   0  0  0  0  0  0  0  0  0  0  0  0
   -5.8194   26.2804  -27.9587 N   0  0  0  0  0  0  0  0  0  0  0  0
   -5.3718   25.8898  -26.7447 C   0  0  0  0  0  0  0  0  0  0  0  0
   -4.7265   24.7290  -26.6150 N   0  0  0  0  0  0  0  0  0  0  0  0
   -5.6642   25.4696  -31.1787 H   0  0  0  0  0  0  0  0  0  0  0  0
   -6.8243   26.6012  -30.3932 H   0  0  0  0  0  0  0  0  0  0  0  0
   -3.7923   22.6715  -27.4509 N   0  0  0  0  0  0  0  0  0  0  0  0
   -4.3038   21.8020  -27.7699 H   0  0  0  0  0  0  0  0  0  0  0  0
   -0.1653   22.0802  -25.4470 C   0  0  0  0  0  0  0  0  0  0  0  0
   -0.1335   22.6400  -26.6992 C   0  0  0  0  0  0  0  0  0  0  0  0
   -1.3191   22.8671  -27.4118 C   0  0  0  0  0  0  0  0  0  0  0  0
   -2.5350   22.5285  -26.8598 C   0  0  0  0  0  0  0  0  0  0  0  0
   -2.5377   21.9541  -25.5689 C   0  0  0  0  0  0  0  0  0  0  0  0
   -1.3684   21.7356  -24.8779 C   0  0  0  0  0  0  0  0  0  0  0  0
    0.9940   21.5854  -23.4043 C   0  0  0  0  0  0  0  0  0  0  0  0
    1.0100   21.8672  -24.7678 O   0  0  0  0  0  0  0  0  0  0  0  0
   -5.5874   26.7398  -25.5346 C   0  0  0  0  0  0  0  0  0  0  0  0
   -4.0223   27.3721  -24.9769 Cl  0  0  0  0  0  0  0  0  0  0  0  0
 18 19  1  0  0  0
 19 12  1  0  0  0
 12 13  2  0  0  0
 13 14  1  0  0  0
 14 15  2  0  0  0
 15 10  1  0  0  0
 10  1  1  0  0  0
  1  2  2  0  0  0
  2  3  1  0  0  0
  3  4  1  0  0  0
  3  5  2  0  0  0
  5  6  1  0  0  0
  6 20  1  0  0  0
 20 21  1  0  0  0
  6  7  2  0  0  0
 15 16  1  0  0  0
 16 17  2  0  0  0
 17 12  1  0  0  0
  7  1  1  0  0  0
 10 11  1  0  0  0
  4  8  1  0  0  0
  4  9  1  0  0  0
M  END
> <minimizedAffinity>
-6.70101

> <CNNscore>
0.6089633703

> <CNNaffinity>
5.9175558090

> <CNN_VS>
3.6035747528

> <CNNaffinity_variance>
0.3105645180

$$$$
[H]c1c([H])c(N([H])c2nc(N([H])[H])nc(C([H])([H])Cl)n2)c([H])c([H])c1OC([H])([H])[H]


 21 22  0  0  0  0  0  0  0  0999 V2000
   -2.8087   22.3225  -25.8206 C   0  0  0  0  0  0  0  0  0  0  0  0
   -1.6904   22.5321  -26.5236 N   0  0  0  0  0  0  0  0  0  0  0  0
   -0.4408   22.3688  -26.0848 C   0  0  0  0  0  0  0  0  0  0  0  0
    0.7016   22.6125  -26.8942 N   0  0  0  0  0  0  0  0  0  0  0  0
   -0.2697   21.9485  -24.7985 N   0  0  0  0  0  0  0  0  0  0  0  0
   -1.3567   21.7170  -24.0294 C   0  0  0  0  0  0  0  0  0  0  0  0
   -2.5791   21.9004  -24.5320 N   0  0  0  0  0  0  0  0  0  0  0  0
    0.6102   22.6252  -27.9318 H   0  0  0  0  0  0  0  0  0  0  0  0
    1.6295   22.7783  -26.4549 H   0  0  0  0  0  0  0  0  0  0  0  0
   -4.1307   22.4926  -26.2775 N   0  0  0  0  0  0  0  0  0  0  0  0
   -4.8464   21.8626  -25.8190 H   0  0  0  0  0  0  0  0  0  0  0  0
   -5.3542   25.4122  -29.0160 C   0  0  0  0  0  0  0  0  0  0  0  0
   -5.2608   24.1131  -29.4476 C   0  0  0  0  0  0  0  0  0  0  0  0
   -4.8632   23.0946  -28.5705 C   0  0  0  0  0  0  0  0  0  0  0  0
   -4.5599   23.3886  -27.2592 C   0  0  0  0  0  0  0  0  0  0  0  0
   -4.6652   24.7345  -26.8423 C   0  0  0  0  0  0  0  0  0  0  0  0
   -5.0567   25.7266  -27.7112 C   0  0  0  0  0  0  0  0  0  0  0  0
   -5.3848   26.3219  -31.2370 C   0  0  0  0  0  0  0  0  0  0  0  0
   -5.7462   26.3935  -29.8943 O   0  0  0  0  0  0  0  0  0  0  0  0
   -1.2149   21.2556  -22.6150 C   0  0  0  0  0  0  0  0  0  0  0  0
    0.5100   21.0554  -22.2345 Cl  0  0  0  0  0  0  0  0  0  0  0  0
 18 19  1  0  0  0
 19 12  1  0  0  0
 12 13  2  0  0  0
 13 14  1  0  0  0
 14 15  2  0  0  0
 15 10  1  0  0  0
 10  1  1  0  0  0
  1  2  2  0  0  0
  2  3  1  0  0  0
  3  4  1  0  0  0
  3  5  2  0  0  0
  5  6  1  0  0  0
  6 20  1  0  0  0
 20 21  1  0  0  0
  6  7  2  0  0  0
 15 16  1  0  0  0
 16 17  2  0  0  0
 17 12  1  0  0  0
  7  1  1  0  0  0
 10 11  1  0  0  0
  4  8  1  0  0  0
  4  9  1  0  0  0
M  END
> <minimizedAffinity>
-6.60922

> <CNNscore>
0.5704108477

> <CNNaffinity>
5.9663891792

> <CNN_VS>
3.4032931328

> <CNNaffinity_variance>
0.3763378263

$$$$
[H]c1c([H])c(N([H])c2nc(N([H])[H])nc(C([H])([H])Cl)n2)c([H])c([H])c1OC([H])([H])[H]


 21 22  0  0  0  0  0  0  0  0999 V2000
   -2.5827   21.9921  -24.9305 C   0  0  0  0  0  0  0  0  0  0  0  0
   -1.2728   21.8345  -24.7110 N   0  0  0  0  0  0  0  0  0  0  0  0
   -0.2937   22.0563  -25.5901 C   0  0  0  0  0  0  0  0  0  0  0  0
    1.0805   21.8657  -25.2821 N   0  0  0  0  0  0  0  0  0  0  0  0
   -0.6448   22.4851  -26.8365 N   0  0  0  0  0  0  0  0  0  0  0  0
   -1.9519   22.6661  -27.1285 C   0  0  0  0  0  0  0  0  0  0  0  0
   -2.8808   22.4253  -26.2012 N   0  0  0  0  0  0  0  0  0  0  0  0
    1.3928   21.8480  -24.2885 H   0  0  0  0  0  0  0  0  0  0  0  0
    1.7766   21.7438  -26.0450 H   0  0  0  0  0  0  0  0  0  0  0  0
   -3.6215   21.7600  -24.0072 N   0  0  0  0  0  0  0  0  0  0  0  0
   -3.6541   20.7807  -23.6083 H   0  0  0  0  0  0  0  0  0  0  0  0
   -6.2743   24.7024  -22.6561 C   0  0  0  0  0  0  0  0  0  0  0  0
   -6.7714   23.6821  -23.4270 C   0  0  0  0  0  0  0  0  0  0  0  0
   -5.9287   22.6666  -23.8998 C   0  0  0  0  0  0  0  0  0  0  0  0
   -4.5855   22.6825  -23.5943 C   0  0  0  0  0  0  0  0  0  0  0  0
   -4.1013   23.7449  -22.7985 C   0  0  0  0  0  0  0  0  0  0  0  0
   -4.9370   24.7365  -22.3393 C   0  0  0  0  0  0  0  0  0  0  0  0
   -7.3780   25.8224  -20.8426 C   0  0  0  0  0  0  0  0  0  0  0  0
   -7.1198   25.6866  -22.2041 O   0  0  0  0  0  0  0  0  0  0  0  0
   -2.3809   23.1346  -28.4813 C   0  0  0  0  0  0  0  0  0  0  0  0
   -4.1558   23.1023  -28.5764 Cl  0  0  0  0  0  0  0  0  0  0  0  0
 18 19  1  0  0  0
 19 12  1  0  0  0
 12 13  2  0  0  0
 13 14  1  0  0  0
 14 15  2  0  0  0
 15 10  1  0  0  0
 10  1  1  0  0  0
  1  2  2  0  0  0
  2  3  1  0  0  0
  3  4  1  0  0  0
  3  5  2  0  0  0
  5  6  1  0  0  0
  6 20  1  0  0  0
 20 21  1  0  0  0
  6  7  2  0  0  0
 15 16  1  0  0  0
 16 17  2  0  0  0
 17 12  1  0  0  0
  7  1  1  0  0  0
 10 11  1  0  0  0
  4  8  1  0  0  0
  4  9  1  0  0  0
M  END
> <minimizedAffinity>
-5.63186

> <CNNscore>
0.4238414466

> <CNNaffinity>
5.4812679291

> <CNN_VS>
2.3231885433

> <CNNaffinity_variance>
0.3892485499

$$$$
[H]c1c([H])c(N([H])c2nc(N([H])[H])nc(C([H])([H])Cl)n2)c([H])c([H])c1OC([H])([H])[H]


 21 22  0  0  0  0  0  0  0  0999 V2000
    0.8446   21.8408  -24.3265 C   0  0  0  0  0  0  0  0  0  0  0  0
    1.7419   21.1834  -23.5840 N   0  0  0  0  0  0  0  0  0  0  0  0
    1.6219   20.8757  -22.2910 C   0  0  0  0  0  0  0  0  0  0  0  0
    2.6221   20.1722  -21.5670 N   0  0  0  0  0  0  0  0  0  0  0  0
    0.4811   21.2611  -21.6502 N   0  0  0  0  0  0  0  0  0  0  0  0
   -0.4696   21.9301  -22.3395 C   0  0  0  0  0  0  0  0  0  0  0  0
   -0.2850   22.2055  -23.6321 N   0  0  0  0  0  0  0  0  0  0  0  0
    3.3326   19.6070  -22.0776 H   0  0  0  0  0  0  0  0  0  0  0  0
    2.6480   20.2191  -20.5284 H   0  0  0  0  0  0  0  0  0  0  0  0
    0.9648   22.1688  -25.6916 N   0  0  0  0  0  0  0  0  0  0  0  0
    1.9576   22.2141  -26.0544 H   0  0  0  0  0  0  0  0  0  0  0  0
   -2.3753   22.9106  -28.1029 C   0  0  0  0  0  0  0  0  0  0  0  0
   -1.1329   23.2130  -28.6006 C   0  0  0  0  0  0  0  0  0  0  0  0
    0.0198   22.9779  -27.8385 C   0  0  0  0  0  0  0  0  0  0  0  0
   -0.0829   22.4385  -26.5750 C   0  0  0  0  0  0  0  0  0  0  0  0
   -1.3745   22.1367  -26.0883 C   0  0  0  0  0  0  0  0  0  0  0  0
   -2.4995   22.3710  -26.8445 C   0  0  0  0  0  0  0  0  0  0  0  0
   -4.7491   23.2203  -28.2767 C   0  0  0  0  0  0  0  0  0  0  0  0
   -3.4908   23.1500  -28.8686 O   0  0  0  0  0  0  0  0  0  0  0  0
   -1.7344   22.3710  -21.6767 C   0  0  0  0  0  0  0  0  0  0  0  0
   -2.1969   23.9694  -22.3025 Cl  0  0  0  0  0  0  0  0  0  0  0  0
 18 19  1  0  0  0
 19 12  1  0  0  0
 12 13  2  0  0  0
 13 14  1  0  0  0
 14 15  2  0  0  0
 15 10  1  0  0  0
 10  1  1  0  0  0
  1  2  2  0  0  0
  2  3  1  0  0  0
  3  4  1  0  0  0
  3  5  2  0  0  0
  5  6  1  0  0  0
  6 20  1  0  0  0
 20 21  1  0  0  0
  6  7  2  0  0  0
 15 16  1  0  0  0
 16 17  2  0  0  0
 17 12  1  0  0  0
  7  1  1  0  0  0
 10 11  1  0  0  0
  4  8  1  0  0  0
  4  9  1  0  0  0
M  END
> <minimizedAffinity>
-6.01946

> <CNNscore>
0.4203052819

> <CNNaffinity>
5.1197457314

> <CNN_VS>
2.1518561840

> <CNNaffinity_variance>
0.1568850875

$$$$
[H]c1c([H])c(N([H])c2nc(N([H])[H])nc(C([H])([H])Cl)n2)c([H])c([H])c1OC([H])([H])[H]


 21 22  0  0  0  0  0  0  0  0999 V2000
   -3.1293   22.8622  -26.7701 C   0  0  0  0  0  0  0  0  0  0  0  0
   -2.2563   23.0804  -27.7595 N   0  0  0  0  0  0  0  0  0  0  0  0
   -0.9368   22.8891  -27.7033 C   0  0  0  0  0  0  0  0  0  0  0  0
   -0.0705   23.1443  -28.8005 N   0  0  0  0  0  0  0  0  0  0  0  0
   -0.4118   22.4272  -26.5321 N   0  0  0  0  0  0  0  0  0  0  0  0
   -1.2363   22.1847  -25.4891 C   0  0  0  0  0  0  0  0  0  0  0  0
   -2.5477   22.3979  -25.6137 N   0  0  0  0  0  0  0  0  0  0  0  0
   -0.4559   23.1902  -29.7672 H   0  0  0  0  0  0  0  0  0  0  0  0
    0.9476   23.2856  -28.6427 H   0  0  0  0  0  0  0  0  0  0  0  0
   -4.5232   23.0618  -26.8225 N   0  0  0  0  0  0  0  0  0  0  0  0
   -5.0316   22.4764  -27.5424 H   0  0  0  0  0  0  0  0  0  0  0  0
   -6.8581   25.4579  -24.3071 C   0  0  0  0  0  0  0  0  0  0  0  0
   -5.9682   26.0735  -25.1508 C   0  0  0  0  0  0  0  0  0  0  0  0
   -5.1669   25.3195  -26.0194 C   0  0  0  0  0  0  0  0  0  0  0  0
   -5.2646   23.9455  -26.0350 C   0  0  0  0  0  0  0  0  0  0  0  0
   -6.1895   23.3386  -25.1560 C   0  0  0  0  0  0  0  0  0  0  0  0
   -6.9714   24.0879  -24.3077 C   0  0  0  0  0  0  0  0  0  0  0  0
   -8.6361   25.6242  -22.7032 C   0  0  0  0  0  0  0  0  0  0  0  0
   -7.6329   26.2181  -23.4647 O   0  0  0  0  0  0  0  0  0  0  0  0
   -0.7035   21.6781  -24.1880 C   0  0  0  0  0  0  0  0  0  0  0  0
    1.0734   21.7104  -24.2307 Cl  0  0  0  0  0  0  0  0  0  0  0  0
 18 19  1  0  0  0
 19 12  1  0  0  0
 12 13  2  0  0  0
 13 14  1  0  0  0
 14 15  2  0  0  0
 15 10  1  0  0  0
 10  1  1  0  0  0
  1  2  2  0  0  0
  2  3  1  0  0  0
  3  4  1  0  0  0
  3  5  2  0  0  0
  5  6  1  0  0  0
  6 20  1  0  0  0
 20 21  1  0  0  0
  6  7  2  0  0  0
 15 16  1  0  0  0
 16 17  2  0  0  0
 17 12  1  0  0  0
  7  1  1  0  0  0
 10 11  1  0  0  0
  4  8  1  0  0  0
  4  9  1  0  0  0
M  END
> <minimizedAffinity>
-6.14037

> <CNNscore>
0.4075491428

> <CNNaffinity>
5.5224571228

> <CNN_VS>
2.2506725788

> <CNNaffinity_variance>
0.2828404903

$$$$
[H]c1c([H])c(N([H])c2nc(N([H])[H])nc(C([H])([H])Cl)n2)c([H])c([H])c1OC([H])([H])[H]


 21 22  0  0  0  0  0  0  0  0999 V2000
   -3.5061   23.0324  -26.4431 C   0  0  0  0  0  0  0  0  0  0  0  0
   -3.5101   23.4167  -27.7242 N   0  0  0  0  0  0  0  0  0  0  0  0
   -4.0602   24.5305  -28.2116 C   0  0  0  0  0  0  0  0  0  0  0  0
   -4.0236   24.8722  -29.5906 N   0  0  0  0  0  0  0  0  0  0  0  0
   -4.6820   25.3683  -27.3330 N   0  0  0  0  0  0  0  0  0  0  0  0
   -4.7163   25.0426  -26.0217 C   0  0  0  0  0  0  0  0  0  0  0  0
   -4.1455   23.9121  -25.6014 N   0  0  0  0  0  0  0  0  0  0  0  0
   -3.3127   24.4367  -30.2152 H   0  0  0  0  0  0  0  0  0  0  0  0
   -4.7040   25.5557  -29.9794 H   0  0  0  0  0  0  0  0  0  0  0  0
   -2.9273   21.8583  -25.9217 N   0  0  0  0  0  0  0  0  0  0  0  0
   -3.4189   20.9606  -26.1901 H   0  0  0  0  0  0  0  0  0  0  0  0
    0.6236   21.7201  -23.7099 C   0  0  0  0  0  0  0  0  0  0  0  0
   -0.5658   21.5738  -23.0416 C   0  0  0  0  0  0  0  0  0  0  0  0
   -1.7841   21.6046  -23.7342 C   0  0  0  0  0  0  0  0  0  0  0  0
   -1.8004   21.7835  -25.1000 C   0  0  0  0  0  0  0  0  0  0  0  0
   -0.5609   21.9310  -25.7621 C   0  0  0  0  0  0  0  0  0  0  0  0
    0.6293   21.8990  -25.0729 C   0  0  0  0  0  0  0  0  0  0  0  0
    2.8417   20.8507  -23.4170 C   0  0  0  0  0  0  0  0  0  0  0  0
    1.8052   21.6864  -23.0094 O   0  0  0  0  0  0  0  0  0  0  0  0
   -5.3869   25.9316  -25.0249 C   0  0  0  0  0  0  0  0  0  0  0  0
   -5.1321   27.6286  -25.4892 Cl  0  0  0  0  0  0  0  0  0  0  0  0
 18 19  1  0  0  0
 19 12  1  0  0  0
 12 13  2  0  0  0
 13 14  1  0  0  0
 14 15  2  0  0  0
 15 10  1  0  0  0
 10  1  1  0  0  0
  1  2  2  0  0  0
  2  3  1  0  0  0
  3  4  1  0  0  0
  3  5  2  0  0  0
  5  6  1  0  0  0
  6 20  1  0  0  0
 20 21  1  0  0  0
  6  7  2  0  0  0
 15 16  1  0  0  0
 16 17  2  0  0  0
 17 12  1  0  0  0
  7  1  1  0  0  0
 10 11  1  0  0  0
  4  8  1  0  0  0
  4  9  1  0  0  0
M  END
> <minimizedAffinity>
-5.84639

> <CNNscore>
0.3685647249

> <CNNaffinity>
5.5779514313

> <CNN_VS>
2.0558362007

> <CNNaffinity_variance>
0.2569908500

$$$$
[H]c1c([H])c(N([H])c2nc(N([H])[H])nc(C([H])([H])Cl)n2)c([H])c([H])c1OC([H])([H])[H]


 21 22  0  0  0  0  0  0  0  0999 V2000
    1.9262   21.2126  -23.5782 C   0  0  0  0  0  0  0  0  0  0  0  0
    3.1248   20.6351  -23.4411 N   0  0  0  0  0  0  0  0  0  0  0  0
    3.5834   20.0200  -22.3492 C   0  0  0  0  0  0  0  0  0  0  0  0
    4.8733   19.4278  -22.2790 N   0  0  0  0  0  0  0  0  0  0  0  0
    2.7643   19.9660  -21.2599 N   0  0  0  0  0  0  0  0  0  0  0  0
    1.5377   20.5294  -21.3276 C   0  0  0  0  0  0  0  0  0  0  0  0
    1.1417   21.1294  -22.4518 N   0  0  0  0  0  0  0  0  0  0  0  0
    5.3798   19.1800  -23.1549 H   0  0  0  0  0  0  0  0  0  0  0  0
    5.3145   19.2403  -21.3561 H   0  0  0  0  0  0  0  0  0  0  0  0
    1.4357   21.8634  -24.7276 N   0  0  0  0  0  0  0  0  0  0  0  0
    2.1774   22.2872  -25.3519 H   0  0  0  0  0  0  0  0  0  0  0  0
   -2.4822   22.3330  -26.1241 C   0  0  0  0  0  0  0  0  0  0  0  0
   -2.2977   21.8625  -24.8485 C   0  0  0  0  0  0  0  0  0  0  0  0
   -1.0072   21.6934  -24.3279 C   0  0  0  0  0  0  0  0  0  0  0  0
    0.0951   21.9988  -25.0955 C   0  0  0  0  0  0  0  0  0  0  0  0
   -0.1246   22.4817  -26.4051 C   0  0  0  0  0  0  0  0  0  0  0  0
   -1.3954   22.6443  -26.9063 C   0  0  0  0  0  0  0  0  0  0  0  0
   -4.3349   23.7557  -26.6763 C   0  0  0  0  0  0  0  0  0  0  0  0
   -3.7568   22.4906  -26.6125 O   0  0  0  0  0  0  0  0  0  0  0  0
    0.6082   20.4932  -20.1578 C   0  0  0  0  0  0  0  0  0  0  0  0
   -0.9534   21.2002  -20.6288 Cl  0  0  0  0  0  0  0  0  0  0  0  0
 18 19  1  0  0  0
 19 12  1  0  0  0
 12 13  2  0  0  0
 13 14  1  0  0  0
 14 15  2  0  0  0
 15 10  1  0  0  0
 10  1  1  0  0  0
  1  2  2  0  0  0
  2  3  1  0  0  0
  3  4  1  0  0  0
  3  5  2  0  0  0
  5  6  1  0  0  0
  6 20  1  0  0  0
 20 21  1  0  0  0
  6  7  2  0  0  0
 15 16  1  0  0  0
 16 17  2  0  0  0
 17 12  1  0  0  0
  7  1  1  0  0  0
 10 11  1  0  0  0
  4  8  1  0  0  0
  4  9  1  0  0  0
M  END
> <minimizedAffinity>
-6.10701

> <CNNscore>
0.3684254885

> <CNNaffinity>
4.9048004150

> <CNN_VS>
1.8070534468

> <CNNaffinity_variance>
0.0559583530

$$$$
[H]c1c([H])c(N([H])c2nc(N([H])[H])nc(C([H])([H])Cl)n2)c([H])c([H])c1OC([H])([H])[H]


 21 22  0  0  0  0  0  0  0  0999 V2000
   -2.1758   22.2953  -26.1436 C   0  0  0  0  0  0  0  0  0  0  0  0
   -1.1586   22.5604  -26.9706 N   0  0  0  0  0  0  0  0  0  0  0  0
   -1.2556   23.0506  -28.2080 C   0  0  0  0  0  0  0  0  0  0  0  0
   -0.1247   23.3071  -29.0295 N   0  0  0  0  0  0  0  0  0  0  0  0
   -2.5041   23.3119  -28.6911 N   0  0  0  0  0  0  0  0  0  0  0  0
   -3.5791   23.0677  -27.9092 C   0  0  0  0  0  0  0  0  0  0  0  0
   -3.4104   22.5766  -26.6800 N   0  0  0  0  0  0  0  0  0  0  0  0
    0.8171   23.4167  -28.5978 H   0  0  0  0  0  0  0  0  0  0  0  0
   -0.2330   23.3860  -30.0607 H   0  0  0  0  0  0  0  0  0  0  0  0
   -2.0807   21.7779  -24.8364 N   0  0  0  0  0  0  0  0  0  0  0  0
   -1.3600   21.0137  -24.7098 H   0  0  0  0  0  0  0  0  0  0  0  0
   -4.2403   23.2490  -21.5665 C   0  0  0  0  0  0  0  0  0  0  0  0
   -4.4862   21.9656  -21.9849 C   0  0  0  0  0  0  0  0  0  0  0  0
   -3.7861   21.4203  -23.0700 C   0  0  0  0  0  0  0  0  0  0  0  0
   -2.8394   22.1711  -23.7317 C   0  0  0  0  0  0  0  0  0  0  0  0
   -2.6067   23.4892  -23.2790 C   0  0  0  0  0  0  0  0  0  0  0  0
   -3.2990   24.0147  -22.2128 C   0  0  0  0  0  0  0  0  0  0  0  0
   -6.0196   24.6143  -20.7113 C   0  0  0  0  0  0  0  0  0  0  0  0
   -4.9391   23.7618  -20.5004 O   0  0  0  0  0  0  0  0  0  0  0  0
   -4.9648   23.3394  -28.3986 C   0  0  0  0  0  0  0  0  0  0  0  0
   -6.0289   23.6401  -27.0066 Cl  0  0  0  0  0  0  0  0  0  0  0  0
 18 19  1  0  0  0
 19 12  1  0  0  0
 12 13  2  0  0  0
 13 14  1  0  0  0
 14 15  2  0  0  0
 15 10  1  0  0  0
 10  1  1  0  0  0
  1  2  2  0  0  0
  2  3  1  0  0  0
  3  4  1  0  0  0
  3  5  2  0  0  0
  5  6  1  0  0  0
  6 20  1  0  0  0
 20 21  1  0  0  0
  6  7  2  0  0  0
 15 16  1  0  0  0
 16 17  2  0  0  0
 17 12  1  0  0  0
  7  1  1  0  0  0
 10 11  1  0  0  0
  4  8  1  0  0  0
  4  9  1  0  0  0
M  END
> <minimizedAffinity>
-5.49566

> <CNNscore>
0.3447834253

> <CNNaffinity>
5.4135551453

> <CNN_VS>
1.8665040731

> <CNNaffinity_variance>
0.3013449013

$$$$
[H]c1nc2sc3c(=O)n(C4([H])C([H])([H])C([H])([H])C([H])([H])C([H])([H])C4([H])[H])c([H])nc3c2c(N(C([H])([H])[H])C([H])([H])[H])c1[H]


 23 26  0  0  0  0  0  0  0  0999 V2000
   -1.3744   22.0863  -23.4001 C   0  0  0  0  0  0  0  0  0  0  0  0
   -0.3889   21.5966  -22.5668 C   0  0  0  0  0  0  0  0  0  0  0  0
    0.8935   21.2921  -22.9606 C   0  0  0  0  0  0  0  0  0  0  0  0
    1.1555   21.5044  -24.2612 N   0  0  0  0  0  0  0  0  0  0  0  0
    0.2138   21.9886  -25.1332 C   0  0  0  0  0  0  0  0  0  0  0  0
    0.2394   22.3443  -26.8019 S   0  0  0  0  0  0  0  0  0  0  0  0
   -1.3683   22.8737  -26.9962 C   0  0  0  0  0  0  0  0  0  0  0  0
   -2.1421   23.3366  -28.0782 C   0  0  0  0  0  0  0  0  0  0  0  0
   -1.5407   23.3926  -29.1680 O   0  0  0  0  0  0  0  0  0  0  0  0
   -3.4275   23.6849  -27.9221 N   0  0  0  0  0  0  0  0  0  0  0  0
   -3.9232   23.5650  -26.6811 C   0  0  0  0  0  0  0  0  0  0  0  0
   -3.2085   23.1308  -25.6497 N   0  0  0  0  0  0  0  0  0  0  0  0
   -1.8907   22.7588  -25.7386 C   0  0  0  0  0  0  0  0  0  0  0  0
   -1.0676   22.2979  -24.7641 C   0  0  0  0  0  0  0  0  0  0  0  0
   -4.1852   24.1537  -29.0541 C   0  0  0  0  0  0  0  0  0  0  0  0
   -5.1508   23.1162  -29.5705 C   0  0  0  0  0  0  0  0  0  0  0  0
   -5.7874   23.6593  -30.8168 C   0  0  0  0  0  0  0  0  0  0  0  0
   -5.4338   25.0689  -31.1272 C   0  0  0  0  0  0  0  0  0  0  0  0
   -5.4771   26.0042  -29.9610 C   0  0  0  0  0  0  0  0  0  0  0  0
   -5.0544   25.3566  -28.6627 C   0  0  0  0  0  0  0  0  0  0  0  0
   -3.7655   21.4788  -22.7773 C   0  0  0  0  0  0  0  0  0  0  0  0
   -2.6341   22.3801  -22.8238 N   0  0  0  0  0  0  0  0  0  0  0  0
   -2.8005   23.6941  -22.2319 C   0  0  0  0  0  0  0  0  0  0  0  0
 21 22  1  0  0  0
 22 23  1  0  0  0
 22  1  1  0  0  0
  1  2  2  0  0  0
  2  3  1  0  0  0
  3  4  2  0  0  0
  4  5  1  0  0  0
  5  6  1  0  0  0
  6  7  1  0  0  0
  7  8  1  0  0  0
  8  9  2  0  0  0
  8 10  1  0  0  0
 10 15  1  0  0  0
 15 16  1  0  0  0
 16 17  1  0  0  0
 17 18  1  0  0  0
 18 19  1  0  0  0
 19 20  1  0  0  0
 10 11  1  0  0  0
 11 12  2  0  0  0
 12 13  1  0  0  0
 13 14  1  0  0  0
 14  1  1  0  0  0
 14  5  2  0  0  0
 13  7  2  0  0  0
 20 15  1  0  0  0
M  END
> <minimizedAffinity>
-8.59283

> <CNNscore>
0.7818633914

> <CNNaffinity>
6.8921418190

> <CNN_VS>
5.3887133598

> <CNNaffinity_variance>
0.1307234019

$$$$
[H]c1nc2sc3c(=O)n(C4([H])C([H])([H])C([H])([H])C([H])([H])C([H])([H])C4([H])[H])c([H])nc3c2c(N(C([H])([H])[H])C([H])([H])[H])c1[H]


 23 26  0  0  0  0  0  0  0  0999 V2000
   -1.4349   22.1054  -23.1285 C   0  0  0  0  0  0  0  0  0  0  0  0
   -0.4450   21.6009  -22.3093 C   0  0  0  0  0  0  0  0  0  0  0  0
    0.8207   21.2584  -22.7255 C   0  0  0  0  0  0  0  0  0  0  0  0
    1.0607   21.4475  -24.0339 N   0  0  0  0  0  0  0  0  0  0  0  0
    0.1137   21.9449  -24.8925 C   0  0  0  0  0  0  0  0  0  0  0  0
    0.1133   22.2788  -26.5660 S   0  0  0  0  0  0  0  0  0  0  0  0
   -1.4839   22.8471  -26.7339 C   0  0  0  0  0  0  0  0  0  0  0  0
   -2.2682   23.3162  -27.8058 C   0  0  0  0  0  0  0  0  0  0  0  0
   -1.6885   23.3429  -28.9084 O   0  0  0  0  0  0  0  0  0  0  0  0
   -3.5407   23.6996  -27.6277 N   0  0  0  0  0  0  0  0  0  0  0  0
   -4.0132   23.6082  -26.3753 C   0  0  0  0  0  0  0  0  0  0  0  0
   -3.2883   23.1686  -25.3533 N   0  0  0  0  0  0  0  0  0  0  0  0
   -1.9826   22.7616  -25.4645 C   0  0  0  0  0  0  0  0  0  0  0  0
   -1.1513   22.2918  -24.5012 C   0  0  0  0  0  0  0  0  0  0  0  0
   -4.3096   24.1736  -28.7499 C   0  0  0  0  0  0  0  0  0  0  0  0
   -3.5495   25.1704  -29.5891 C   0  0  0  0  0  0  0  0  0  0  0  0
   -4.4819   25.6898  -30.6447 C   0  0  0  0  0  0  0  0  0  0  0  0
   -5.8053   25.0152  -30.6862 C   0  0  0  0  0  0  0  0  0  0  0  0
   -5.7588   23.5233  -30.5918 C   0  0  0  0  0  0  0  0  0  0  0  0
   -4.6476   23.0177  -29.7013 C   0  0  0  0  0  0  0  0  0  0  0  0
   -3.8246   21.5652  -22.4416 C   0  0  0  0  0  0  0  0  0  0  0  0
   -2.6743   22.4390  -22.5302 N   0  0  0  0  0  0  0  0  0  0  0  0
   -2.7973   23.7671  -21.9598 C   0  0  0  0  0  0  0  0  0  0  0  0
 21 22  1  0  0  0
 22 23  1  0  0  0
 22  1  1  0  0  0
  1  2  2  0  0  0
  2  3  1  0  0  0
  3  4  2  0  0  0
  4  5  1  0  0  0
  5  6  1  0  0  0
  6  7  1  0  0  0
  7  8  1  0  0  0
  8  9  2  0  0  0
  8 10  1  0  0  0
 10 15  1  0  0  0
 15 16  1  0  0  0
 16 17  1  0  0  0
 17 18  1  0  0  0
 18 19  1  0  0  0
 19 20  1  0  0  0
 10 11  1  0  0  0
 11 12  2  0  0  0
 12 13  1  0  0  0
 13 14  1  0  0  0
 14  1  1  0  0  0
 14  5  2  0  0  0
 13  7  2  0  0  0
 20 15  1  0  0  0
M  END
> <minimizedAffinity>
-8.50003

> <CNNscore>
0.7036520243

> <CNNaffinity>
6.7901334763

> <CNN_VS>
4.7778911591

> <CNNaffinity_variance>
0.1179186478

$$$$
[H]c1nc2sc3c(=O)n(C4([H])C([H])([H])C([H])([H])C([H])([H])C([H])([H])C4([H])[H])c([H])nc3c2c(N(C([H])([H])[H])C([H])([H])[H])c1[H]


 23 26  0  0  0  0  0  0  0  0999 V2000
   -2.1703   22.7670  -25.6185 C   0  0  0  0  0  0  0  0  0  0  0  0
   -1.9309   22.9954  -26.9587 C   0  0  0  0  0  0  0  0  0  0  0  0
   -0.7252   22.7889  -27.5880 C   0  0  0  0  0  0  0  0  0  0  0  0
    0.2593   22.3309  -26.7966 N   0  0  0  0  0  0  0  0  0  0  0  0
    0.0766   22.0877  -25.4591 C   0  0  0  0  0  0  0  0  0  0  0  0
    1.1095   21.5289  -24.2210 S   0  0  0  0  0  0  0  0  0  0  0  0
    0.0167   21.5601  -22.9144 C   0  0  0  0  0  0  0  0  0  0  0  0
    0.0935   21.2516  -21.5422 C   0  0  0  0  0  0  0  0  0  0  0  0
    1.2081   20.8509  -21.1556 O   0  0  0  0  0  0  0  0  0  0  0  0
   -0.9672   21.3873  -20.7331 N   0  0  0  0  0  0  0  0  0  0  0  0
   -2.0943   21.8312  -21.3097 C   0  0  0  0  0  0  0  0  0  0  0  0
   -2.1848   22.1264  -22.6011 N   0  0  0  0  0  0  0  0  0  0  0  0
   -1.1409   22.0105  -23.4841 C   0  0  0  0  0  0  0  0  0  0  0  0
   -1.1132   22.2862  -24.8119 C   0  0  0  0  0  0  0  0  0  0  0  0
   -0.8478   21.0612  -19.3350 C   0  0  0  0  0  0  0  0  0  0  0  0
   -0.4763   22.2574  -18.4942 C   0  0  0  0  0  0  0  0  0  0  0  0
   -0.2542   21.7810  -17.0881 C   0  0  0  0  0  0  0  0  0  0  0  0
   -0.5847   20.3501  -16.8612 C   0  0  0  0  0  0  0  0  0  0  0  0
   -1.8754   19.8949  -17.4643 C   0  0  0  0  0  0  0  0  0  0  0  0
   -2.1920   20.5751  -18.7760 C   0  0  0  0  0  0  0  0  0  0  0  0
   -3.9824   24.2658  -24.6467 C   0  0  0  0  0  0  0  0  0  0  0  0
   -3.4818   22.9997  -25.1377 N   0  0  0  0  0  0  0  0  0  0  0  0
   -4.3964   21.8737  -25.1392 C   0  0  0  0  0  0  0  0  0  0  0  0
 21 22  1  0  0  0
 22 23  1  0  0  0
 22  1  1  0  0  0
  1  2  2  0  0  0
  2  3  1  0  0  0
  3  4  2  0  0  0
  4  5  1  0  0  0
  5  6  1  0  0  0
  6  7  1  0  0  0
  7  8  1  0  0  0
  8  9  2  0  0  0
  8 10  1  0  0  0
 10 15  1  0  0  0
 15 16  1  0  0  0
 16 17  1  0  0  0
 17 18  1  0  0  0
 18 19  1  0  0  0
 19 20  1  0  0  0
 10 11  1  0  0  0
 11 12  2  0  0  0
 12 13  1  0  0  0
 13 14  1  0  0  0
 14  1  1  0  0  0
 14  5  2  0  0  0
 13  7  2  0  0  0
 20 15  1  0  0  0
M  END
> <minimizedAffinity>
-6.07975

> <CNNscore>
0.5703083277

> <CNNaffinity>
6.1043481827

> <CNN_VS>
3.4813606739

> <CNNaffinity_variance>
0.0701043010

$$$$
[H]c1nc2sc3c(=O)n(C4([H])C([H])([H])C([H])([H])C([H])([H])C([H])([H])C4([H])[H])c([H])nc3c2c(N(C([H])([H])[H])C([H])([H])[H])c1[H]


 23 26  0  0  0  0  0  0  0  0999 V2000
   -4.2545   23.2680  -26.3342 C   0  0  0  0  0  0  0  0  0  0  0  0
   -4.7144   23.5562  -27.6033 C   0  0  0  0  0  0  0  0  0  0  0  0
   -3.9546   23.4903  -28.7483 C   0  0  0  0  0  0  0  0  0  0  0  0
   -2.6784   23.1128  -28.5640 N   0  0  0  0  0  0  0  0  0  0  0  0
   -2.1693   22.8155  -27.3255 C   0  0  0  0  0  0  0  0  0  0  0  0
   -0.6263   22.3303  -26.7817 S   0  0  0  0  0  0  0  0  0  0  0  0
   -0.9456   22.2146  -25.1122 C   0  0  0  0  0  0  0  0  0  0  0  0
   -0.1888   21.8779  -23.9730 C   0  0  0  0  0  0  0  0  0  0  0  0
    0.9998   21.5816  -24.2008 O   0  0  0  0  0  0  0  0  0  0  0  0
   -0.7295   21.8830  -22.7459 N   0  0  0  0  0  0  0  0  0  0  0  0
   -2.0246   22.2262  -22.6749 C   0  0  0  0  0  0  0  0  0  0  0  0
   -2.7530   22.5462  -23.7380 N   0  0  0  0  0  0  0  0  0  0  0  0
   -2.2643   22.5611  -25.0201 C   0  0  0  0  0  0  0  0  0  0  0  0
   -2.9059   22.8746  -26.1732 C   0  0  0  0  0  0  0  0  0  0  0  0
    0.0782   21.5323  -21.6059 C   0  0  0  0  0  0  0  0  0  0  0  0
   -0.3565   22.2467  -20.3503 C   0  0  0  0  0  0  0  0  0  0  0  0
    0.6245   21.9094  -19.2653 C   0  0  0  0  0  0  0  0  0  0  0  0
    1.6386   20.8913  -19.6440 C   0  0  0  0  0  0  0  0  0  0  0  0
    1.1000   19.7016  -20.3729 C   0  0  0  0  0  0  0  0  0  0  0  0
   -0.0552   20.0369  -21.2876 C   0  0  0  0  0  0  0  0  0  0  0  0
   -5.9594   22.2519  -24.7419 C   0  0  0  0  0  0  0  0  0  0  0  0
   -5.1805   23.3533  -25.2662 N   0  0  0  0  0  0  0  0  0  0  0  0
   -5.3606   24.6537  -24.6490 C   0  0  0  0  0  0  0  0  0  0  0  0
 21 22  1  0  0  0
 22 23  1  0  0  0
 22  1  1  0  0  0
  1  2  2  0  0  0
  2  3  1  0  0  0
  3  4  2  0  0  0
  4  5  1  0  0  0
  5  6  1  0  0  0
  6  7  1  0  0  0
  7  8  1  0  0  0
  8  9  2  0  0  0
  8 10  1  0  0  0
 10 15  1  0  0  0
 15 16  1  0  0  0
 16 17  1  0  0  0
 17 18  1  0  0  0
 18 19  1  0  0  0
 19 20  1  0  0  0
 10 11  1  0  0  0
 11 12  2  0  0  0
 12 13  1  0  0  0
 13 14  1  0  0  0
 14  1  1  0  0  0
 14  5  2  0  0  0
 13  7  2  0  0  0
 20 15  1  0  0  0
M  END
> <minimizedAffinity>
-6.92363

> <CNNscore>
0.5617818236

> <CNNaffinity>
6.3130965233

> <CNN_VS>
3.5465829372

> <CNNaffinity_variance>
0.0920556411

$$$$
[H]c1nc2sc3c(=O)n(C4([H])C([H])([H])C([H])([H])C([H])([H])C([H])([H])C4([H])[H])c([H])nc3c2c(N(C([H])([H])[H])C([H])([H])[H])c1[H]


 23 26  0  0  0  0  0  0  0  0999 V2000
    1.2327   20.8639  -21.4435 C   0  0  0  0  0  0  0  0  0  0  0  0
    2.5318   20.4023  -21.3754 C   0  0  0  0  0  0  0  0  0  0  0  0
    3.4037   20.3494  -22.4382 C   0  0  0  0  0  0  0  0  0  0  0  0
    2.9062   20.7908  -23.6056 N   0  0  0  0  0  0  0  0  0  0  0  0
    1.6230   21.2592  -23.7298 C   0  0  0  0  0  0  0  0  0  0  0  0
    0.7211   21.8619  -25.0470 S   0  0  0  0  0  0  0  0  0  0  0  0
   -0.7526   22.1762  -24.2521 C   0  0  0  0  0  0  0  0  0  0  0  0
   -2.0089   22.6797  -24.6424 C   0  0  0  0  0  0  0  0  0  0  0  0
   -2.1010   22.9856  -25.8467 O   0  0  0  0  0  0  0  0  0  0  0  0
   -3.0145   22.8108  -23.7652 N   0  0  0  0  0  0  0  0  0  0  0  0
   -2.7489   22.4349  -22.5049 C   0  0  0  0  0  0  0  0  0  0  0  0
   -1.5710   21.9585  -22.1194 N   0  0  0  0  0  0  0  0  0  0  0  0
   -0.5006   21.7990  -22.9630 C   0  0  0  0  0  0  0  0  0  0  0  0
    0.7382   21.3206  -22.6870 C   0  0  0  0  0  0  0  0  0  0  0  0
   -4.2846   23.3300  -24.2039 C   0  0  0  0  0  0  0  0  0  0  0  0
   -5.2702   22.2371  -24.5354 C   0  0  0  0  0  0  0  0  0  0  0  0
   -6.5022   22.8834  -25.0992 C   0  0  0  0  0  0  0  0  0  0  0  0
   -6.4974   24.3687  -25.0519 C   0  0  0  0  0  0  0  0  0  0  0  0
   -6.0344   24.9596  -23.7584 C   0  0  0  0  0  0  0  0  0  0  0  0
   -4.9486   24.1495  -23.0889 C   0  0  0  0  0  0  0  0  0  0  0  0
   -0.3510   19.8007  -19.7594 C   0  0  0  0  0  0  0  0  0  0  0  0
    0.4796   20.8822  -20.2443 N   0  0  0  0  0  0  0  0  0  0  0  0
    0.5491   22.0860  -19.4379 C   0  0  0  0  0  0  0  0  0  0  0  0
 21 22  1  0  0  0
 22 23  1  0  0  0
 22  1  1  0  0  0
  1  2  2  0  0  0
  2  3  1  0  0  0
  3  4  2  0  0  0
  4  5  1  0  0  0
  5  6  1  0  0  0
  6  7  1  0  0  0
  7  8  1  0  0  0
  8  9  2  0  0  0
  8 10  1  0  0  0
 10 15  1  0  0  0
 15 16  1  0  0  0
 16 17  1  0  0  0
 17 18  1  0  0  0
 18 19  1  0  0  0
 19 20  1  0  0  0
 10 11  1  0  0  0
 11 12  2  0  0  0
 12 13  1  0  0  0
 13 14  1  0  0  0
 14  1  1  0  0  0
 14  5  2  0  0  0
 13  7  2  0  0  0
 20 15  1  0  0  0
M  END
> <minimizedAffinity>
-6.20891

> <CNNscore>
0.4124659300

> <CNNaffinity>
5.9016447067

> <CNN_VS>
2.4342274666

> <CNNaffinity_variance>
0.0372341648

$$$$
[H]c1nc2sc3c(=O)n(C4([H])C([H])([H])C([H])([H])C([H])([H])C([H])([H])C4([H])[H])c([H])nc3c2c(N(C([H])([H])[H])C([H])([H])[H])c1[H]


 23 26  0  0  0  0  0  0  0  0999 V2000
    0.0621   21.5801  -21.4647 C   0  0  0  0  0  0  0  0  0  0  0  0
    1.2574   21.0388  -21.0364 C   0  0  0  0  0  0  0  0  0  0  0  0
    2.3128   20.7155  -21.8575 C   0  0  0  0  0  0  0  0  0  0  0  0
    2.1155   20.9641  -23.1631 N   0  0  0  0  0  0  0  0  0  0  0  0
    0.9477   21.5000  -23.6430 C   0  0  0  0  0  0  0  0  0  0  0  0
    0.4063   21.9098  -25.2085 S   0  0  0  0  0  0  0  0  0  0  0  0
   -1.1497   22.4853  -24.8209 C   0  0  0  0  0  0  0  0  0  0  0  0
   -2.2336   23.0028  -25.5566 C   0  0  0  0  0  0  0  0  0  0  0  0
   -2.0451   23.0797  -26.7858 O   0  0  0  0  0  0  0  0  0  0  0  0
   -3.3725   23.3777  -24.9563 N   0  0  0  0  0  0  0  0  0  0  0  0
   -3.4118   23.2293  -23.6235 C   0  0  0  0  0  0  0  0  0  0  0  0
   -2.3998   22.7437  -22.9142 N   0  0  0  0  0  0  0  0  0  0  0  0
   -1.2081   22.3421  -23.4631 C   0  0  0  0  0  0  0  0  0  0  0  0
   -0.1151   21.8289  -22.8454 C   0  0  0  0  0  0  0  0  0  0  0  0
   -4.4583   23.9024  -25.7443 C   0  0  0  0  0  0  0  0  0  0  0  0
   -5.8038   23.4126  -25.2694 C   0  0  0  0  0  0  0  0  0  0  0  0
   -6.8419   23.9127  -26.2315 C   0  0  0  0  0  0  0  0  0  0  0  0
   -6.3248   24.8401  -27.2712 C   0  0  0  0  0  0  0  0  0  0  0  0
   -5.3955   25.8990  -26.7695 C   0  0  0  0  0  0  0  0  0  0  0  0
   -4.5206   25.4316  -25.6295 C   0  0  0  0  0  0  0  0  0  0  0  0
   -1.9775   21.0074  -20.0554 C   0  0  0  0  0  0  0  0  0  0  0  0
   -0.9091   21.8862  -20.4806 N   0  0  0  0  0  0  0  0  0  0  0  0
   -0.8228   23.1890  -19.8486 C   0  0  0  0  0  0  0  0  0  0  0  0
 21 22  1  0  0  0
 22 23  1  0  0  0
 22  1  1  0  0  0
  1  2  2  0  0  0
  2  3  1  0  0  0
  3  4  2  0  0  0
  4  5  1  0  0  0
  5  6  1  0  0  0
  6  7  1  0  0  0
  7  8  1  0  0  0
  8  9  2  0  0  0
  8 10  1  0  0  0
 10 15  1  0  0  0
 15 16  1  0  0  0
 16 17  1  0  0  0
 17 18  1  0  0  0
 18 19  1  0  0  0
 19 20  1  0  0  0
 10 11  1  0  0  0
 11 12  2  0  0  0
 12 13  1  0  0  0
 13 14  1  0  0  0
 14  1  1  0  0  0
 14  5  2  0  0  0
 13  7  2  0  0  0
 20 15  1  0  0  0
M  END
> <minimizedAffinity>
-6.59171

> <CNNscore>
0.3661547601

> <CNNaffinity>
6.1143980026

> <CNN_VS>
2.2388160229

> <CNNaffinity_variance>
0.0789842457

$$$$
[H]c1nc2sc3c(=O)n(C4([H])C([H])([H])C([H])([H])C([H])([H])C([H])([H])C4([H])[H])c([H])nc3c2c(N(C([H])([H])[H])C([H])([H])[H])c1[H]


 23 26  0  0  0  0  0  0  0  0999 V2000
   -6.3200   23.9403  -23.9257 C   0  0  0  0  0  0  0  0  0  0  0  0
   -7.3967   24.4498  -24.6232 C   0  0  0  0  0  0  0  0  0  0  0  0
   -7.4699   24.5485  -25.9934 C   0  0  0  0  0  0  0  0  0  0  0  0
   -6.3886   24.1029  -26.6551 N   0  0  0  0  0  0  0  0  0  0  0  0
   -5.2917   23.5881  -26.0124 C   0  0  0  0  0  0  0  0  0  0  0  0
   -3.7997   22.9679  -26.5612 S   0  0  0  0  0  0  0  0  0  0  0  0
   -3.0891   22.5887  -25.0599 C   0  0  0  0  0  0  0  0  0  0  0  0
   -1.8574   22.0430  -24.6489 C   0  0  0  0  0  0  0  0  0  0  0  0
   -1.0780   21.7486  -25.5753 O   0  0  0  0  0  0  0  0  0  0  0  0
   -1.5685   21.8634  -23.3518 N   0  0  0  0  0  0  0  0  0  0  0  0
   -2.5192   22.2336  -22.4804 C   0  0  0  0  0  0  0  0  0  0  0  0
   -3.6856   22.7493  -22.8500 N   0  0  0  0  0  0  0  0  0  0  0  0
   -4.0459   22.9593  -24.1573 C   0  0  0  0  0  0  0  0  0  0  0  0
   -5.1966   23.4806  -24.6510 C   0  0  0  0  0  0  0  0  0  0  0  0
   -0.2973   21.3021  -22.9722 C   0  0  0  0  0  0  0  0  0  0  0  0
    0.8544   21.9260  -23.7205 C   0  0  0  0  0  0  0  0  0  0  0  0
    2.1040   21.1838  -23.3448 C   0  0  0  0  0  0  0  0  0  0  0  0
    1.9221   20.1709  -22.2728 C   0  0  0  0  0  0  0  0  0  0  0  0
    1.1060   20.6249  -21.1046 C   0  0  0  0  0  0  0  0  0  0  0  0
   -0.0088   21.5700  -21.4887 C   0  0  0  0  0  0  0  0  0  0  0  0
   -5.9658   24.8997  -21.5958 C   0  0  0  0  0  0  0  0  0  0  0  0
   -6.4225   23.8791  -22.5146 N   0  0  0  0  0  0  0  0  0  0  0  0
   -7.0368   22.6939  -21.9468 C   0  0  0  0  0  0  0  0  0  0  0  0
 21 22  1  0  0  0
 22 23  1  0  0  0
 22  1  1  0  0  0
  1  2  2  0  0  0
  2  3  1  0  0  0
  3  4  2  0  0  0
  4  5  1  0  0  0
  5  6  1  0  0  0
  6  7  1  0  0  0
  7  8  1  0  0  0
  8  9  2  0  0  0
  8 10  1  0  0  0
 10 15  1  0  0  0
 15 16  1  0  0  0
 16 17  1  0  0  0
 17 18  1  0  0  0
 18 19  1  0  0  0
 19 20  1  0  0  0
 10 11  1  0  0  0
 11 12  2  0  0  0
 12 13  1  0  0  0
 13 14  1  0  0  0
 14  1  1  0  0  0
 14  5  2  0  0  0
 13  7  2  0  0  0
 20 15  1  0  0  0
M  END
> <minimizedAffinity>
-6.28014

> <CNNscore>
0.3163201213

> <CNNaffinity>
6.0751233101

> <CNN_VS>
1.9216837883

> <CNNaffinity_variance>
0.2379630357

$$$$
[H]c1nc2sc3c(=O)n(C4([H])C([H])([H])C([H])([H])C([H])([H])C([H])([H])C4([H])[H])c([H])nc3c2c(N(C([H])([H])[H])C([H])([H])[H])c1[H]


 23 26  0  0  0  0  0  0  0  0999 V2000
   -2.7060   23.4511  -28.1453 C   0  0  0  0  0  0  0  0  0  0  0  0
   -1.5672   23.3681  -28.9209 C   0  0  0  0  0  0  0  0  0  0  0  0
   -0.3284   22.9872  -28.4597 C   0  0  0  0  0  0  0  0  0  0  0  0
   -0.2759   22.6841  -27.1518 N   0  0  0  0  0  0  0  0  0  0  0  0
   -1.3762   22.7502  -26.3354 C   0  0  0  0  0  0  0  0  0  0  0  0
   -1.6186   22.4464  -24.6738 S   0  0  0  0  0  0  0  0  0  0  0  0
   -3.2811   22.8031  -24.5674 C   0  0  0  0  0  0  0  0  0  0  0  0
   -4.2366   22.8048  -23.5326 C   0  0  0  0  0  0  0  0  0  0  0  0
   -3.8021   22.4633  -22.4159 O   0  0  0  0  0  0  0  0  0  0  0  0
   -5.5123   23.1517  -23.7573 N   0  0  0  0  0  0  0  0  0  0  0  0
   -5.8158   23.4936  -25.0186 C   0  0  0  0  0  0  0  0  0  0  0  0
   -4.9282   23.4974  -26.0063 N   0  0  0  0  0  0  0  0  0  0  0  0
   -3.6093   23.1539  -25.8468 C   0  0  0  0  0  0  0  0  0  0  0  0
   -2.6178   23.1267  -26.7718 C   0  0  0  0  0  0  0  0  0  0  0  0
   -6.4594   23.1406  -22.6719 C   0  0  0  0  0  0  0  0  0  0  0  0
   -7.6102   24.0884  -22.9019 C   0  0  0  0  0  0  0  0  0  0  0  0
   -8.4590   24.0914  -21.6637 C   0  0  0  0  0  0  0  0  0  0  0  0
   -8.0540   23.0986  -20.6348 C   0  0  0  0  0  0  0  0  0  0  0  0
   -7.7435   21.7332  -21.1599 C   0  0  0  0  0  0  0  0  0  0  0  0
   -7.1002   21.7535  -22.5271 C   0  0  0  0  0  0  0  0  0  0  0  0
   -4.8981   22.9140  -29.3203 C   0  0  0  0  0  0  0  0  0  0  0  0
   -3.9106   23.8280  -28.7874 N   0  0  0  0  0  0  0  0  0  0  0  0
   -4.1731   25.2485  -28.9201 C   0  0  0  0  0  0  0  0  0  0  0  0
 21 22  1  0  0  0
 22 23  1  0  0  0
 22  1  1  0  0  0
  1  2  2  0  0  0
  2  3  1  0  0  0
  3  4  2  0  0  0
  4  5  1  0  0  0
  5  6  1  0  0  0
  6  7  1  0  0  0
  7  8  1  0  0  0
  8  9  2  0  0  0
  8 10  1  0  0  0
 10 15  1  0  0  0
 15 16  1  0  0  0
 16 17  1  0  0  0
 17 18  1  0  0  0
 18 19  1  0  0  0
 19 20  1  0  0  0
 10 11  1  0  0  0
 11 12  2  0  0  0
 12 13  1  0  0  0
 13 14  1  0  0  0
 14  1  1  0  0  0
 14  5  2  0  0  0
 13  7  2  0  0  0
 20 15  1  0  0  0
M  END
> <minimizedAffinity>
-7.30849

> <CNNscore>
0.3032502234

> <CNNaffinity>
6.2766370773

> <CNN_VS>
1.9033915997

> <CNNaffinity_variance>
0.1998739541

$$$$
[H]c1nc2sc3c(=O)n(C4([H])C([H])([H])C([H])([H])C([H])([H])C([H])([H])C4([H])[H])c([H])nc3c2c(N(C([H])([H])[H])C([H])([H])[H])c1[H]


 23 26  0  0  0  0  0  0  0  0999 V2000
   -2.3764   22.0204  -23.6459 C   0  0  0  0  0  0  0  0  0  0  0  0
   -1.8036   22.1919  -24.8900 C   0  0  0  0  0  0  0  0  0  0  0  0
   -2.5030   22.2855  -26.0710 C   0  0  0  0  0  0  0  0  0  0  0  0
   -3.8383   22.1976  -25.9507 N   0  0  0  0  0  0  0  0  0  0  0  0
   -4.4594   22.0263  -24.7397 C   0  0  0  0  0  0  0  0  0  0  0  0
   -6.0944   21.8718  -24.2762 S   0  0  0  0  0  0  0  0  0  0  0  0
   -5.8888   21.6878  -22.5951 C   0  0  0  0  0  0  0  0  0  0  0  0
   -6.7533   21.4998  -21.4991 C   0  0  0  0  0  0  0  0  0  0  0  0
   -7.9650   21.4600  -21.7867 O   0  0  0  0  0  0  0  0  0  0  0  0
   -6.2836   21.3757  -20.2493 N   0  0  0  0  0  0  0  0  0  0  0  0
   -4.9506   21.4416  -20.1123 C   0  0  0  0  0  0  0  0  0  0  0  0
   -4.1209   21.6186  -21.1338 N   0  0  0  0  0  0  0  0  0  0  0  0
   -4.5331   21.7531  -22.4357 C   0  0  0  0  0  0  0  0  0  0  0  0
   -3.7844   21.9303  -23.5527 C   0  0  0  0  0  0  0  0  0  0  0  0
   -7.2009   21.1847  -19.1551 C   0  0  0  0  0  0  0  0  0  0  0  0
   -7.2565   19.7494  -18.6939 C   0  0  0  0  0  0  0  0  0  0  0  0
   -8.3279   19.6428  -17.6479 C   0  0  0  0  0  0  0  0  0  0  0  0
   -8.9296   20.9407  -17.2455 C   0  0  0  0  0  0  0  0  0  0  0  0
   -7.9505   22.0458  -17.0074 C   0  0  0  0  0  0  0  0  0  0  0  0
   -6.7523   21.9876  -17.9264 C   0  0  0  0  0  0  0  0  0  0  0  0
   -0.7891   20.8103  -22.0677 C   0  0  0  0  0  0  0  0  0  0  0  0
   -1.5109   21.9781  -22.5258 N   0  0  0  0  0  0  0  0  0  0  0  0
   -1.3356   23.2090  -21.7784 C   0  0  0  0  0  0  0  0  0  0  0  0
 21 22  1  0  0  0
 22 23  1  0  0  0
 22  1  1  0  0  0
  1  2  2  0  0  0
  2  3  1  0  0  0
  3  4  2  0  0  0
  4  5  1  0  0  0
  5  6  1  0  0  0
  6  7  1  0  0  0
  7  8  1  0  0  0
  8  9  2  0  0  0
  8 10  1  0  0  0
 10 15  1  0  0  0
 15 16  1  0  0  0
 16 17  1  0  0  0
 17 18  1  0  0  0
 18 19  1  0  0  0
 19 20  1  0  0  0
 10 11  1  0  0  0
 11 12  2  0  0  0
 12 13  1  0  0  0
 13 14  1  0  0  0
 14  1  1  0  0  0
 14  5  2  0  0  0
 13  7  2  0  0  0
 20 15  1  0  0  0
M  END
> <minimizedAffinity>
-5.59664

> <CNNscore>
0.2992489040

> <CNNaffinity>
5.4236426353

> <CNN_VS>
1.6230190992

> <CNNaffinity_variance>
0.0546369925

$$$$
[H]c1c([H])c(-c2c(C([H])([H])C([H])([H])[H])c(C3=NC4(C(=O)N3[H])C([H])([H])C([H])([H])C4([H])[H])nn2-c2c([H])c([H])c(Cl)c([H])c2Cl)c([H])c([H])c1Cl


 32 36  0  0  0  0  0  0  0  0999 V2000
   -0.9996   22.7706  -25.2654 C   0  0  0  0  0  0  0  0  0  0  0  0
   -0.6628   22.2841  -24.0389 C   0  0  0  0  0  0  0  0  0  0  0  0
   -1.8176   22.4236  -23.3131 N   0  0  0  0  0  0  0  0  0  0  0  0
   -2.7909   22.9492  -24.0335 N   0  0  0  0  0  0  0  0  0  0  0  0
   -2.3474   23.1855  -25.2637 C   0  0  0  0  0  0  0  0  0  0  0  0
    0.5436   21.6862  -23.4925 C   0  0  0  0  0  0  0  0  0  0  0  0
    0.5730   21.2141  -22.2459 N   0  0  0  0  0  0  0  0  0  0  0  0
    1.8374   20.6751  -21.9089 C   0  0  0  0  0  0  0  0  0  0  0  0
    1.8408   19.2808  -21.3240 C   0  0  0  0  0  0  0  0  0  0  0  0
    2.1250   19.8781  -19.9783 C   0  0  0  0  0  0  0  0  0  0  0  0
    2.4813   21.1863  -20.6436 C   0  0  0  0  0  0  0  0  0  0  0  0
    2.6743   20.7939  -23.1125 C   0  0  0  0  0  0  0  0  0  0  0  0
    3.8533   20.4352  -23.3259 O   0  0  0  0  0  0  0  0  0  0  0  0
    1.7973   21.4560  -24.0672 N   0  0  0  0  0  0  0  0  0  0  0  0
    2.1492   21.6771  -25.0216 H   0  0  0  0  0  0  0  0  0  0  0  0
   -4.1064   23.1991  -23.5366 C   0  0  0  0  0  0  0  0  0  0  0  0
   -4.4774   24.3844  -22.9073 C   0  0  0  0  0  0  0  0  0  0  0  0
   -5.7453   24.5736  -22.4200 C   0  0  0  0  0  0  0  0  0  0  0  0
   -6.6884   23.5912  -22.5412 C   0  0  0  0  0  0  0  0  0  0  0  0
   -8.3260   23.7666  -21.9423 Cl  0  0  0  0  0  0  0  0  0  0  0  0
   -6.3582   22.4095  -23.1550 C   0  0  0  0  0  0  0  0  0  0  0  0
   -5.0567   22.2231  -23.6512 C   0  0  0  0  0  0  0  0  0  0  0  0
   -4.6896   20.6651  -24.3886 Cl  0  0  0  0  0  0  0  0  0  0  0  0
   -3.0857   23.5891  -26.4432 C   0  0  0  0  0  0  0  0  0  0  0  0
   -3.7637   24.7779  -26.4819 C   0  0  0  0  0  0  0  0  0  0  0  0
   -4.5720   25.1100  -27.5616 C   0  0  0  0  0  0  0  0  0  0  0  0
   -4.7322   24.2704  -28.6398 C   0  0  0  0  0  0  0  0  0  0  0  0
   -5.7466   24.6750  -30.0090 Cl  0  0  0  0  0  0  0  0  0  0  0  0
   -4.0549   23.0697  -28.6130 C   0  0  0  0  0  0  0  0  0  0  0  0
   -3.2561   22.7535  -27.5313 C   0  0  0  0  0  0  0  0  0  0  0  0
    0.0385   21.5962  -27.1671 C   0  0  0  0  0  0  0  0  0  0  0  0
   -0.0087   22.9390  -26.3778 C   0  0  0  0  0  0  0  0  0  0  0  0
 31 32  1  0  0  0
 32  1  1  0  0  0
  1  2  1  0  0  0
  2  6  1  0  0  0
  6  7  2  0  0  0
  7  8  1  0  0  0
  8  9  1  0  0  0
  9 10  1  0  0  0
 10 11  1  0  0  0
  8 12  1  0  0  0
 12 13  2  0  0  0
 12 14  1  0  0  0
  2  3  2  0  0  0
  3  4  1  0  0  0
  4 16  1  0  0  0
 16 17  2  0  0  0
 17 18  1  0  0  0
 18 19  2  0  0  0
 19 20  1  0  0  0
 19 21  1  0  0  0
 21 22  2  0  0  0
 22 23  1  0  0  0
  4  5  1  0  0  0
  5 24  1  0  0  0
 24 25  2  0  0  0
 25 26  1  0  0  0
 26 27  2  0  0  0
 27 28  1  0  0  0
 27 29  1  0  0  0
 29 30  2  0  0  0
  5  1  2  0  0  0
 30 24  1  0  0  0
 14  6  1  0  0  0
 22 16  1  0  0  0
 11  8  1  0  0  0
 14 15  1  0  0  0
M  END
> <minimizedAffinity>
-9.27748

> <CNNscore>
0.3820380867

> <CNNaffinity>
7.3523573875

> <CNN_VS>
2.8088805676

> <CNNaffinity_variance>
0.1989886463

$$$$
[H]c1c([H])c(-c2c(C([H])([H])C([H])([H])[H])c(C3=NC4(C(=O)N3[H])C([H])([H])C([H])([H])C4([H])[H])nn2-c2c([H])c([H])c(Cl)c([H])c2Cl)c([H])c([H])c1Cl


 32 36  0  0  0  0  0  0  0  0999 V2000
   -0.9304   22.6593  -25.1957 C   0  0  0  0  0  0  0  0  0  0  0  0
   -0.5858   22.0853  -24.0098 C   0  0  0  0  0  0  0  0  0  0  0  0
   -1.7666   22.0599  -23.3135 N   0  0  0  0  0  0  0  0  0  0  0  0
   -2.7617   22.5720  -24.0136 N   0  0  0  0  0  0  0  0  0  0  0  0
   -2.3078   22.9614  -25.2003 C   0  0  0  0  0  0  0  0  0  0  0  0
    0.6520   21.5372  -23.4817 C   0  0  0  0  0  0  0  0  0  0  0  0
    0.7270   21.0931  -22.2268 N   0  0  0  0  0  0  0  0  0  0  0  0
    2.0157   20.6011  -21.9108 C   0  0  0  0  0  0  0  0  0  0  0  0
    2.0777   19.2205  -21.2974 C   0  0  0  0  0  0  0  0  0  0  0  0
    2.3758   19.8551  -19.9720 C   0  0  0  0  0  0  0  0  0  0  0  0
    2.6739   21.1592  -20.6729 C   0  0  0  0  0  0  0  0  0  0  0  0
    2.8187   20.7202  -23.1373 C   0  0  0  0  0  0  0  0  0  0  0  0
    4.0029   20.3940  -23.3728 O   0  0  0  0  0  0  0  0  0  0  0  0
    1.8979   21.3340  -24.0830 N   0  0  0  0  0  0  0  0  0  0  0  0
    2.2191   21.5455  -25.0503 H   0  0  0  0  0  0  0  0  0  0  0  0
   -4.1059   22.6651  -23.5400 C   0  0  0  0  0  0  0  0  0  0  0  0
   -5.0519   21.6579  -23.7110 C   0  0  0  0  0  0  0  0  0  0  0  0
   -6.3408   21.7986  -23.2642 C   0  0  0  0  0  0  0  0  0  0  0  0
   -6.7342   22.9453  -22.6320 C   0  0  0  0  0  0  0  0  0  0  0  0
   -8.3638   23.1909  -22.0359 Cl  0  0  0  0  0  0  0  0  0  0  0  0
   -5.8290   23.9593  -22.4467 C   0  0  0  0  0  0  0  0  0  0  0  0
   -4.5102   23.8078  -22.9079 C   0  0  0  0  0  0  0  0  0  0  0  0
   -3.4126   25.1668  -22.6752 Cl  0  0  0  0  0  0  0  0  0  0  0  0
   -3.0467   23.4159  -26.3609 C   0  0  0  0  0  0  0  0  0  0  0  0
   -3.7648   24.5813  -26.3314 C   0  0  0  0  0  0  0  0  0  0  0  0
   -4.5722   24.9557  -27.3978 C   0  0  0  0  0  0  0  0  0  0  0  0
   -4.6916   24.1833  -28.5301 C   0  0  0  0  0  0  0  0  0  0  0  0
   -5.7043   24.6419  -29.8834 Cl  0  0  0  0  0  0  0  0  0  0  0  0
   -3.9737   23.0068  -28.5723 C   0  0  0  0  0  0  0  0  0  0  0  0
   -3.1763   22.6478  -27.5029 C   0  0  0  0  0  0  0  0  0  0  0  0
    0.1971   21.7879  -27.2063 C   0  0  0  0  0  0  0  0  0  0  0  0
    0.0713   23.0142  -26.2531 C   0  0  0  0  0  0  0  0  0  0  0  0
 31 32  1  0  0  0
 32  1  1  0  0  0
  1  2  1  0  0  0
  2  6  1  0  0  0
  6  7  2  0  0  0
  7  8  1  0  0  0
  8  9  1  0  0  0
  9 10  1  0  0  0
 10 11  1  0  0  0
  8 12  1  0  0  0
 12 13  2  0  0  0
 12 14  1  0  0  0
  2  3  2  0  0  0
  3  4  1  0  0  0
  4 16  1  0  0  0
 16 17  2  0  0  0
 17 18  1  0  0  0
 18 19  2  0  0  0
 19 20  1  0  0  0
 19 21  1  0  0  0
 21 22  2  0  0  0
 22 23  1  0  0  0
  4  5  1  0  0  0
  5 24  1  0  0  0
 24 25  2  0  0  0
 25 26  1  0  0  0
 26 27  2  0  0  0
 27 28  1  0  0  0
 27 29  1  0  0  0
 29 30  2  0  0  0
  5  1  2  0  0  0
 30 24  1  0  0  0
 14  6  1  0  0  0
 22 16  1  0  0  0
 11  8  1  0  0  0
 14 15  1  0  0  0
M  END
> <minimizedAffinity>
-9.18281

> <CNNscore>
0.3134603202

> <CNNaffinity>
7.2241883278

> <CNN_VS>
2.2644963264

> <CNNaffinity_variance>
0.1530927420

$$$$
[H]c1c([H])c(-c2c(C([H])([H])C([H])([H])[H])c(C3=NC4(C(=O)N3[H])C([H])([H])C([H])([H])C4([H])[H])nn2-c2c([H])c([H])c(Cl)c([H])c2Cl)c([H])c([H])c1Cl


 32 36  0  0  0  0  0  0  0  0999 V2000
   -1.1339   21.2968  -21.6989 C   0  0  0  0  0  0  0  0  0  0  0  0
   -1.9064   21.3974  -20.5819 C   0  0  0  0  0  0  0  0  0  0  0  0
   -2.8776   22.2938  -20.9462 N   0  0  0  0  0  0  0  0  0  0  0  0
   -2.7215   22.7101  -22.1892 N   0  0  0  0  0  0  0  0  0  0  0  0
   -1.6532   22.1224  -22.7174 C   0  0  0  0  0  0  0  0  0  0  0  0
   -1.8786   20.7519  -19.2803 C   0  0  0  0  0  0  0  0  0  0  0  0
   -1.1334   21.2384  -18.2874 N   0  0  0  0  0  0  0  0  0  0  0  0
   -1.2465   20.4658  -17.1072 C   0  0  0  0  0  0  0  0  0  0  0  0
   -1.5692   21.2198  -15.8370 C   0  0  0  0  0  0  0  0  0  0  0  0
   -0.1454   21.0391  -15.4031 C   0  0  0  0  0  0  0  0  0  0  0  0
    0.0400   19.9927  -16.4761 C   0  0  0  0  0  0  0  0  0  0  0  0
   -2.2133   19.3969  -17.4008 C   0  0  0  0  0  0  0  0  0  0  0  0
   -2.6668   18.4844  -16.6757 O   0  0  0  0  0  0  0  0  0  0  0  0
   -2.5581   19.6301  -18.7957 N   0  0  0  0  0  0  0  0  0  0  0  0
   -3.2325   18.9960  -19.2718 H   0  0  0  0  0  0  0  0  0  0  0  0
   -3.5929   23.6393  -22.8352 C   0  0  0  0  0  0  0  0  0  0  0  0
   -3.3101   24.9968  -22.9620 C   0  0  0  0  0  0  0  0  0  0  0  0
   -4.1872   25.8606  -23.5664 C   0  0  0  0  0  0  0  0  0  0  0  0
   -5.3758   25.4053  -24.0656 C   0  0  0  0  0  0  0  0  0  0  0  0
   -6.5413   26.4531  -24.8497 Cl  0  0  0  0  0  0  0  0  0  0  0  0
   -5.6883   24.0738  -23.9577 C   0  0  0  0  0  0  0  0  0  0  0  0
   -4.7845   23.1950  -23.3366 C   0  0  0  0  0  0  0  0  0  0  0  0
   -5.2692   21.5067  -23.1937 Cl  0  0  0  0  0  0  0  0  0  0  0  0
   -1.1873   22.1283  -24.0894 C   0  0  0  0  0  0  0  0  0  0  0  0
    0.0794   22.5409  -24.4052 C   0  0  0  0  0  0  0  0  0  0  0  0
    0.4865   22.6654  -25.7274 C   0  0  0  0  0  0  0  0  0  0  0  0
   -0.3532   22.3828  -26.7801 C   0  0  0  0  0  0  0  0  0  0  0  0
    0.1452   22.5336  -28.4522 Cl  0  0  0  0  0  0  0  0  0  0  0  0
   -1.6320   21.9665  -26.4755 C   0  0  0  0  0  0  0  0  0  0  0  0
   -2.0220   21.8492  -25.1554 C   0  0  0  0  0  0  0  0  0  0  0  0
    1.2319   21.3530  -21.0113 C   0  0  0  0  0  0  0  0  0  0  0  0
    0.1424   20.5115  -21.7415 C   0  0  0  0  0  0  0  0  0  0  0  0
 31 32  1  0  0  0
 32  1  1  0  0  0
  1  2  1  0  0  0
  2  6  1  0  0  0
  6  7  2  0  0  0
  7  8  1  0  0  0
  8  9  1  0  0  0
  9 10  1  0  0  0
 10 11  1  0  0  0
  8 12  1  0  0  0
 12 13  2  0  0  0
 12 14  1  0  0  0
  2  3  2  0  0  0
  3  4  1  0  0  0
  4 16  1  0  0  0
 16 17  2  0  0  0
 17 18  1  0  0  0
 18 19  2  0  0  0
 19 20  1  0  0  0
 19 21  1  0  0  0
 21 22  2  0  0  0
 22 23  1  0  0  0
  4  5  1  0  0  0
  5 24  1  0  0  0
 24 25  2  0  0  0
 25 26  1  0  0  0
 26 27  2  0  0  0
 27 28  1  0  0  0
 27 29  1  0  0  0
 29 30  2  0  0  0
  5  1  2  0  0  0
 30 24  1  0  0  0
 14  6  1  0  0  0
 22 16  1  0  0  0
 11  8  1  0  0  0
 14 15  1  0  0  0
M  END
> <minimizedAffinity>
-7.33833

> <CNNscore>
0.2089959085

> <CNNaffinity>
6.4981245995

> <CNN_VS>
1.3580814600

> <CNNaffinity_variance>
0.1076604128

$$$$
[H]c1c([H])c(-c2c(C([H])([H])C([H])([H])[H])c(C3=NC4(C(=O)N3[H])C([H])([H])C([H])([H])C4([H])[H])nn2-c2c([H])c([H])c(Cl)c([H])c2Cl)c([H])c([H])c1Cl


 32 36  0  0  0  0  0  0  0  0999 V2000
   -2.8396   22.2005  -20.8831 C   0  0  0  0  0  0  0  0  0  0  0  0
   -1.7809   21.3783  -20.6431 C   0  0  0  0  0  0  0  0  0  0  0  0
   -1.1289   21.3389  -21.8485 N   0  0  0  0  0  0  0  0  0  0  0  0
   -1.7326   22.0802  -22.7588 N   0  0  0  0  0  0  0  0  0  0  0  0
   -2.8055   22.6493  -22.2195 C   0  0  0  0  0  0  0  0  0  0  0  0
   -1.2945   20.6863  -19.4615 C   0  0  0  0  0  0  0  0  0  0  0  0
   -0.5506   21.3174  -18.5527 N   0  0  0  0  0  0  0  0  0  0  0  0
   -0.1807   20.4683  -17.4826 C   0  0  0  0  0  0  0  0  0  0  0  0
   -0.4563   20.9834  -16.0880 C   0  0  0  0  0  0  0  0  0  0  0  0
    1.0110   21.2469  -15.9275 C   0  0  0  0  0  0  0  0  0  0  0  0
    1.2883   20.3974  -17.1449 C   0  0  0  0  0  0  0  0  0  0  0  0
   -0.8112   19.1663  -17.7479 C   0  0  0  0  0  0  0  0  0  0  0  0
   -0.8069   18.1065  -17.0837 O   0  0  0  0  0  0  0  0  0  0  0  0
   -1.4847   19.3727  -19.0218 N   0  0  0  0  0  0  0  0  0  0  0  0
   -2.0134   18.5888  -19.4572 H   0  0  0  0  0  0  0  0  0  0  0  0
   -1.2680   22.2320  -24.1008 C   0  0  0  0  0  0  0  0  0  0  0  0
   -0.0684   22.8562  -24.4323 C   0  0  0  0  0  0  0  0  0  0  0  0
    0.3282   23.0052  -25.7367 C   0  0  0  0  0  0  0  0  0  0  0  0
   -0.4537   22.5390  -26.7567 C   0  0  0  0  0  0  0  0  0  0  0  0
   -0.0074   22.6952  -28.4442 Cl  0  0  0  0  0  0  0  0  0  0  0  0
   -1.6429   21.9192  -26.4675 C   0  0  0  0  0  0  0  0  0  0  0  0
   -2.0427   21.7708  -25.1284 C   0  0  0  0  0  0  0  0  0  0  0  0
   -3.6016   21.0043  -24.8317 Cl  0  0  0  0  0  0  0  0  0  0  0  0
   -3.6746   23.6712  -22.7668 C   0  0  0  0  0  0  0  0  0  0  0  0
   -4.9844   23.4030  -23.0622 C   0  0  0  0  0  0  0  0  0  0  0  0
   -5.7844   24.3420  -23.7008 C   0  0  0  0  0  0  0  0  0  0  0  0
   -5.3081   25.5800  -24.0662 C   0  0  0  0  0  0  0  0  0  0  0  0
   -6.3042   26.7750  -24.8706 Cl  0  0  0  0  0  0  0  0  0  0  0  0
   -3.9904   25.8625  -23.7746 C   0  0  0  0  0  0  0  0  0  0  0  0
   -3.2074   24.9175  -23.1405 C   0  0  0  0  0  0  0  0  0  0  0  0
   -4.9357   21.2721  -19.9787 C   0  0  0  0  0  0  0  0  0  0  0  0
   -3.9230   22.4521  -19.8777 C   0  0  0  0  0  0  0  0  0  0  0  0
 31 32  1  0  0  0
 32  1  1  0  0  0
  1  2  1  0  0  0
  2  6  1  0  0  0
  6  7  2  0  0  0
  7  8  1  0  0  0
  8  9  1  0  0  0
  9 10  1  0  0  0
 10 11  1  0  0  0
  8 12  1  0  0  0
 12 13  2  0  0  0
 12 14  1  0  0  0
  2  3  2  0  0  0
  3  4  1  0  0  0
  4 16  1  0  0  0
 16 17  2  0  0  0
 17 18  1  0  0  0
 18 19  2  0  0  0
 19 20  1  0  0  0
 19 21  1  0  0  0
 21 22  2  0  0  0
 22 23  1  0  0  0
  4  5  1  0  0  0
  5 24  1  0  0  0
 24 25  2  0  0  0
 25 26  1  0  0  0
 26 27  2  0  0  0
 27 28  1  0  0  0
 27 29  1  0  0  0
 29 30  2  0  0  0
  5  1  2  0  0  0
 30 24  1  0  0  0
 14  6  1  0  0  0
 22 16  1  0  0  0
 11  8  1  0  0  0
 14 15  1  0  0  0
M  END
> <minimizedAffinity>
-7.12596

> <CNNscore>
0.1986992210

> <CNNaffinity>
6.5227942467

> <CNN_VS>
1.2960741520

> <CNNaffinity_variance>
0.1187538281

$$$$
[H]c1c([H])c(-c2c(C([H])([H])C([H])([H])[H])c(C3=NC4(C(=O)N3[H])C([H])([H])C([H])([H])C4([H])[H])nn2-c2c([H])c([H])c(Cl)c([H])c2Cl)c([H])c([H])c1Cl


 32 36  0  0  0  0  0  0  0  0999 V2000
   -1.5308   22.1494  -24.2341 C   0  0  0  0  0  0  0  0  0  0  0  0
   -1.4406   21.7193  -22.9451 C   0  0  0  0  0  0  0  0  0  0  0  0
   -2.6079   22.1628  -22.3792 N   0  0  0  0  0  0  0  0  0  0  0  0
   -3.3612   22.8104  -23.2486 N   0  0  0  0  0  0  0  0  0  0  0  0
   -2.7483   22.8341  -24.4274 C   0  0  0  0  0  0  0  0  0  0  0  0
   -0.4584   20.9367  -22.2141 C   0  0  0  0  0  0  0  0  0  0  0  0
    0.8172   21.3197  -22.1514 N   0  0  0  0  0  0  0  0  0  0  0  0
    1.6073   20.4225  -21.3940 C   0  0  0  0  0  0  0  0  0  0  0  0
    2.4585   21.0312  -20.3027 C   0  0  0  0  0  0  0  0  0  0  0  0
    3.6656   20.8181  -21.1664 C   0  0  0  0  0  0  0  0  0  0  0  0
    2.8599   19.8961  -22.0504 C   0  0  0  0  0  0  0  0  0  0  0  0
    0.6941   19.3827  -20.8960 C   0  0  0  0  0  0  0  0  0  0  0  0
    0.9067   18.3926  -20.1621 O   0  0  0  0  0  0  0  0  0  0  0  0
   -0.5902   19.7625  -21.4665 N   0  0  0  0  0  0  0  0  0  0  0  0
   -1.4302   19.1773  -21.2778 H   0  0  0  0  0  0  0  0  0  0  0  0
   -4.6361   23.3735  -22.9365 C   0  0  0  0  0  0  0  0  0  0  0  0
   -4.7980   24.5844  -22.2684 C   0  0  0  0  0  0  0  0  0  0  0  0
   -6.0412   25.0769  -21.9641 C   0  0  0  0  0  0  0  0  0  0  0  0
   -7.1665   24.3833  -22.3131 C   0  0  0  0  0  0  0  0  0  0  0  0
   -8.7843   24.9545  -21.9561 Cl  0  0  0  0  0  0  0  0  0  0  0  0
   -7.0450   23.1860  -22.9718 C   0  0  0  0  0  0  0  0  0  0  0  0
   -5.7676   22.6876  -23.2797 C   0  0  0  0  0  0  0  0  0  0  0  0
   -5.6847   21.1237  -24.0878 Cl  0  0  0  0  0  0  0  0  0  0  0  0
   -3.2511   23.2714  -25.7140 C   0  0  0  0  0  0  0  0  0  0  0  0
   -3.0634   22.5172  -26.8412 C   0  0  0  0  0  0  0  0  0  0  0  0
   -3.4340   22.9907  -28.0933 C   0  0  0  0  0  0  0  0  0  0  0  0
   -4.0047   24.2308  -28.2659 C   0  0  0  0  0  0  0  0  0  0  0  0
   -4.4784   24.8417  -29.8374 Cl  0  0  0  0  0  0  0  0  0  0  0  0
   -4.1989   25.0005  -27.1385 C   0  0  0  0  0  0  0  0  0  0  0  0
   -3.8236   24.5158  -25.9005 C   0  0  0  0  0  0  0  0  0  0  0  0
    0.5301   23.2306  -25.0447 C   0  0  0  0  0  0  0  0  0  0  0  0
   -0.4142   22.0040  -25.2239 C   0  0  0  0  0  0  0  0  0  0  0  0
 31 32  1  0  0  0
 32  1  1  0  0  0
  1  2  1  0  0  0
  2  6  1  0  0  0
  6  7  2  0  0  0
  7  8  1  0  0  0
  8  9  1  0  0  0
  9 10  1  0  0  0
 10 11  1  0  0  0
  8 12  1  0  0  0
 12 13  2  0  0  0
 12 14  1  0  0  0
  2  3  2  0  0  0
  3  4  1  0  0  0
  4 16  1  0  0  0
 16 17  2  0  0  0
 17 18  1  0  0  0
 18 19  2  0  0  0
 19 20  1  0  0  0
 19 21  1  0  0  0
 21 22  2  0  0  0
 22 23  1  0  0  0
  4  5  1  0  0  0
  5 24  1  0  0  0
 24 25  2  0  0  0
 25 26  1  0  0  0
 26 27  2  0  0  0
 27 28  1  0  0  0
 27 29  1  0  0  0
 29 30  2  0  0  0
  5  1  2  0  0  0
 30 24  1  0  0  0
 14  6  1  0  0  0
 22 16  1  0  0  0
 11  8  1  0  0  0
 14 15  1  0  0  0
M  END
> <minimizedAffinity>
-8.94386

> <CNNscore>
0.1853429973

> <CNNaffinity>
6.7047400475

> <CNN_VS>
1.2426766157

> <CNNaffinity_variance>
0.2313114852

$$$$
[H]c1c([H])c(-c2c(C([H])([H])C([H])([H])[H])c(C3=NC4(C(=O)N3[H])C([H])([H])C([H])([H])C4([H])[H])nn2-c2c([H])c([H])c(Cl)c([H])c2Cl)c([H])c([H])c1Cl


 32 36  0  0  0  0  0  0  0  0999 V2000
   -5.1104   23.2549  -23.8256 C   0  0  0  0  0  0  0  0  0  0  0  0
   -6.4189   23.6259  -23.7568 C   0  0  0  0  0  0  0  0  0  0  0  0
   -6.7051   24.0218  -25.0378 N   0  0  0  0  0  0  0  0  0  0  0  0
   -5.6601   23.9010  -25.8352 N   0  0  0  0  0  0  0  0  0  0  0  0
   -4.6324   23.4231  -25.1416 C   0  0  0  0  0  0  0  0  0  0  0  0
   -7.4111   23.6154  -22.6953 C   0  0  0  0  0  0  0  0  0  0  0  0
   -8.1204   24.7068  -22.4064 N   0  0  0  0  0  0  0  0  0  0  0  0
   -9.0292   24.4870  -21.3440 C   0  0  0  0  0  0  0  0  0  0  0  0
  -10.4650   24.8908  -21.5919 C   0  0  0  0  0  0  0  0  0  0  0  0
  -10.2531   26.0794  -20.7027 C   0  0  0  0  0  0  0  0  0  0  0  0
   -8.9761   25.4575  -20.1897 C   0  0  0  0  0  0  0  0  0  0  0  0
   -8.8888   23.0736  -20.9622 C   0  0  0  0  0  0  0  0  0  0  0  0
   -9.4919   22.3969  -20.1006 O   0  0  0  0  0  0  0  0  0  0  0  0
   -7.8383   22.5899  -21.8462 N   0  0  0  0  0  0  0  0  0  0  0  0
   -7.5257   21.5992  -21.7797 H   0  0  0  0  0  0  0  0  0  0  0  0
   -5.6738   24.2314  -27.2247 C   0  0  0  0  0  0  0  0  0  0  0  0
   -5.8402   23.2894  -28.2365 C   0  0  0  0  0  0  0  0  0  0  0  0
   -5.8202   23.6455  -29.5607 C   0  0  0  0  0  0  0  0  0  0  0  0
   -5.6341   24.9500  -29.9253 C   0  0  0  0  0  0  0  0  0  0  0  0
   -5.5985   25.4739  -31.5973 Cl  0  0  0  0  0  0  0  0  0  0  0  0
   -5.4660   25.9053  -28.9551 C   0  0  0  0  0  0  0  0  0  0  0  0
   -5.4872   25.5325  -27.6003 C   0  0  0  0  0  0  0  0  0  0  0  0
   -5.2216   26.8038  -26.4091 Cl  0  0  0  0  0  0  0  0  0  0  0  0
   -3.3415   22.9640  -25.6131 C   0  0  0  0  0  0  0  0  0  0  0  0
   -2.5121   22.2323  -24.8061 C   0  0  0  0  0  0  0  0  0  0  0  0
   -1.2262   21.8978  -25.2110 C   0  0  0  0  0  0  0  0  0  0  0  0
   -0.7225   22.2796  -26.4331 C   0  0  0  0  0  0  0  0  0  0  0  0
    0.8959   21.8650  -26.9585 Cl  0  0  0  0  0  0  0  0  0  0  0  0
   -1.5477   23.0174  -27.2553 C   0  0  0  0  0  0  0  0  0  0  0  0
   -2.8235   23.3432  -26.8375 C   0  0  0  0  0  0  0  0  0  0  0  0
   -3.7294   24.1635  -21.9979 C   0  0  0  0  0  0  0  0  0  0  0  0
   -4.3092   22.8587  -22.6220 C   0  0  0  0  0  0  0  0  0  0  0  0
 31 32  1  0  0  0
 32  1  1  0  0  0
  1  2  1  0  0  0
  2  6  1  0  0  0
  6  7  2  0  0  0
  7  8  1  0  0  0
  8  9  1  0  0  0
  9 10  1  0  0  0
 10 11  1  0  0  0
  8 12  1  0  0  0
 12 13  2  0  0  0
 12 14  1  0  0  0
  2  3  2  0  0  0
  3  4  1  0  0  0
  4 16  1  0  0  0
 16 17  2  0  0  0
 17 18  1  0  0  0
 18 19  2  0  0  0
 19 20  1  0  0  0
 19 21  1  0  0  0
 21 22  2  0  0  0
 22 23  1  0  0  0
  4  5  1  0  0  0
  5 24  1  0  0  0
 24 25  2  0  0  0
 25 26  1  0  0  0
 26 27  2  0  0  0
 27 28  1  0  0  0
 27 29  1  0  0  0
 29 30  2  0  0  0
  5  1  2  0  0  0
 30 24  1  0  0  0
 14  6  1  0  0  0
 22 16  1  0  0  0
 11  8  1  0  0  0
 14 15  1  0  0  0
M  END
> <minimizedAffinity>
-9.68943

> <CNNscore>
0.1718472838

> <CNNaffinity>
6.9955835342

> <CNN_VS>
1.2021720409

> <CNNaffinity_variance>
0.1188911572

$$$$
[H]c1c([H])c(-c2c(C([H])([H])C([H])([H])[H])c(C3=NC4(C(=O)N3[H])C([H])([H])C([H])([H])C4([H])[H])nn2-c2c([H])c([H])c(Cl)c([H])c2Cl)c([H])c([H])c1Cl


 32 36  0  0  0  0  0  0  0  0999 V2000
   -4.8932   22.7176  -23.1810 C   0  0  0  0  0  0  0  0  0  0  0  0
   -6.1888   23.0939  -22.9957 C   0  0  0  0  0  0  0  0  0  0  0  0
   -6.5144   23.7070  -24.1779 N   0  0  0  0  0  0  0  0  0  0  0  0
   -5.5039   23.7058  -25.0274 N   0  0  0  0  0  0  0  0  0  0  0  0
   -4.4621   23.0991  -24.4683 C   0  0  0  0  0  0  0  0  0  0  0  0
   -7.1396   22.9199  -21.9107 C   0  0  0  0  0  0  0  0  0  0  0  0
   -6.8254   22.2062  -20.8292 N   0  0  0  0  0  0  0  0  0  0  0  0
   -7.8864   22.1593  -19.8938 C   0  0  0  0  0  0  0  0  0  0  0  0
   -7.5437   22.5271  -18.4678 C   0  0  0  0  0  0  0  0  0  0  0  0
   -7.6227   21.0742  -18.1055 C   0  0  0  0  0  0  0  0  0  0  0  0
   -8.3156   20.7933  -19.4177 C   0  0  0  0  0  0  0  0  0  0  0  0
   -8.9705   22.9809  -20.4531 C   0  0  0  0  0  0  0  0  0  0  0  0
  -10.0960   23.2716  -19.9916 O   0  0  0  0  0  0  0  0  0  0  0  0
   -8.4351   23.4158  -21.7350 N   0  0  0  0  0  0  0  0  0  0  0  0
   -9.0144   24.0162  -22.3575 H   0  0  0  0  0  0  0  0  0  0  0  0
   -5.5629   24.2681  -26.3389 C   0  0  0  0  0  0  0  0  0  0  0  0
   -6.0159   23.5691  -27.4546 C   0  0  0  0  0  0  0  0  0  0  0  0
   -6.0310   24.1380  -28.7023 C   0  0  0  0  0  0  0  0  0  0  0  0
   -5.5964   25.4214  -28.8845 C   0  0  0  0  0  0  0  0  0  0  0  0
   -5.5891   26.2094  -30.4498 Cl  0  0  0  0  0  0  0  0  0  0  0  0
   -5.1423   26.1403  -27.8079 C   0  0  0  0  0  0  0  0  0  0  0  0
   -5.1294   25.5501  -26.5325 C   0  0  0  0  0  0  0  0  0  0  0  0
   -4.4928   26.5156  -25.2027 Cl  0  0  0  0  0  0  0  0  0  0  0  0
   -3.2017   22.7050  -25.0645 C   0  0  0  0  0  0  0  0  0  0  0  0
   -2.0152   22.9103  -24.4127 C   0  0  0  0  0  0  0  0  0  0  0  0
   -0.7998   22.6482  -25.0320 C   0  0  0  0  0  0  0  0  0  0  0  0
   -0.7242   22.1720  -26.3206 C   0  0  0  0  0  0  0  0  0  0  0  0
    0.8000   21.8355  -27.1149 Cl  0  0  0  0  0  0  0  0  0  0  0  0
   -1.9121   21.9612  -26.9883 C   0  0  0  0  0  0  0  0  0  0  0  0
   -3.1125   22.2282  -26.3590 C   0  0  0  0  0  0  0  0  0  0  0  0
   -3.4517   23.2776  -21.2623 C   0  0  0  0  0  0  0  0  0  0  0  0
   -4.0563   22.1085  -22.0965 C   0  0  0  0  0  0  0  0  0  0  0  0
 31 32  1  0  0  0
 32  1  1  0  0  0
  1  2  1  0  0  0
  2  6  1  0  0  0
  6  7  2  0  0  0
  7  8  1  0  0  0
  8  9  1  0  0  0
  9 10  1  0  0  0
 10 11  1  0  0  0
  8 12  1  0  0  0
 12 13  2  0  0  0
 12 14  1  0  0  0
  2  3  2  0  0  0
  3  4  1  0  0  0
  4 16  1  0  0  0
 16 17  2  0  0  0
 17 18  1  0  0  0
 18 19  2  0  0  0
 19 20  1  0  0  0
 19 21  1  0  0  0
 21 22  2  0  0  0
 22 23  1  0  0  0
  4  5  1  0  0  0
  5 24  1  0  0  0
 24 25  2  0  0  0
 25 26  1  0  0  0
 26 27  2  0  0  0
 27 28  1  0  0  0
 27 29  1  0  0  0
 29 30  2  0  0  0
  5  1  2  0  0  0
 30 24  1  0  0  0
 14  6  1  0  0  0
 22 16  1  0  0  0
 11  8  1  0  0  0
 14 15  1  0  0  0
M  END
> <minimizedAffinity>
-8.33062

> <CNNscore>
0.1592152566

> <CNNaffinity>
6.8489427567

> <CNN_VS>
1.0904561281

> <CNNaffinity_variance>
0.1314151585

$$$$
[H]c1c([H])c(-c2c(C([H])([H])C([H])([H])[H])c(C3=NC4(C(=O)N3[H])C([H])([H])C([H])([H])C4([H])[H])nn2-c2c([H])c([H])c(Cl)c([H])c2Cl)c([H])c([H])c1Cl


 32 36  0  0  0  0  0  0  0  0999 V2000
   -5.9157   22.7619  -20.8893 C   0  0  0  0  0  0  0  0  0  0  0  0
   -5.4443   21.7244  -20.1436 C   0  0  0  0  0  0  0  0  0  0  0  0
   -4.2725   21.3882  -20.7709 N   0  0  0  0  0  0  0  0  0  0  0  0
   -4.0359   22.1583  -21.8167 N   0  0  0  0  0  0  0  0  0  0  0  0
   -5.0217   23.0402  -21.9437 C   0  0  0  0  0  0  0  0  0  0  0  0
   -5.9105   21.0613  -18.9376 C   0  0  0  0  0  0  0  0  0  0  0  0
   -6.7013   19.9898  -19.0041 N   0  0  0  0  0  0  0  0  0  0  0  0
   -7.0410   19.4967  -17.7219 C   0  0  0  0  0  0  0  0  0  0  0  0
   -6.8150   18.0203  -17.4866 C   0  0  0  0  0  0  0  0  0  0  0  0
   -8.2968   17.8093  -17.5776 C   0  0  0  0  0  0  0  0  0  0  0  0
   -8.5091   19.2977  -17.4349 C   0  0  0  0  0  0  0  0  0  0  0  0
   -6.3371   20.3466  -16.7495 C   0  0  0  0  0  0  0  0  0  0  0  0
   -6.2943   20.2952  -15.5007 O   0  0  0  0  0  0  0  0  0  0  0  0
   -5.6564   21.3227  -17.5878 N   0  0  0  0  0  0  0  0  0  0  0  0
   -5.0795   22.0677  -17.1452 H   0  0  0  0  0  0  0  0  0  0  0  0
   -2.8826   22.0394  -22.6509 C   0  0  0  0  0  0  0  0  0  0  0  0
   -1.5978   22.3829  -22.2385 C   0  0  0  0  0  0  0  0  0  0  0  0
   -0.5205   22.2790  -23.0806 C   0  0  0  0  0  0  0  0  0  0  0  0
   -0.6826   21.8300  -24.3618 C   0  0  0  0  0  0  0  0  0  0  0  0
    0.6496   21.6722  -25.4895 Cl  0  0  0  0  0  0  0  0  0  0  0  0
   -1.9345   21.4831  -24.8029 C   0  0  0  0  0  0  0  0  0  0  0  0
   -3.0336   21.5930  -23.9341 C   0  0  0  0  0  0  0  0  0  0  0  0
   -4.6183   21.1719  -24.5800 Cl  0  0  0  0  0  0  0  0  0  0  0  0
   -5.1186   24.1873  -22.8235 C   0  0  0  0  0  0  0  0  0  0  0  0
   -6.1572   24.3171  -23.7061 C   0  0  0  0  0  0  0  0  0  0  0  0
   -6.1871   25.3497  -24.6347 C   0  0  0  0  0  0  0  0  0  0  0  0
   -5.1846   26.2886  -24.7158 C   0  0  0  0  0  0  0  0  0  0  0  0
   -5.2082   27.5969  -25.8799 Cl  0  0  0  0  0  0  0  0  0  0  0  0
   -4.1325   26.1689  -23.8326 C   0  0  0  0  0  0  0  0  0  0  0  0
   -4.1168   25.1355  -22.9160 C   0  0  0  0  0  0  0  0  0  0  0  0
   -8.3294   22.4435  -21.2714 C   0  0  0  0  0  0  0  0  0  0  0  0
   -7.2562   23.3919  -20.6573 C   0  0  0  0  0  0  0  0  0  0  0  0
 31 32  1  0  0  0
 32  1  1  0  0  0
  1  2  1  0  0  0
  2  6  1  0  0  0
  6  7  2  0  0  0
  7  8  1  0  0  0
  8  9  1  0  0  0
  9 10  1  0  0  0
 10 11  1  0  0  0
  8 12  1  0  0  0
 12 13  2  0  0  0
 12 14  1  0  0  0
  2  3  2  0  0  0
  3  4  1  0  0  0
  4 16  1  0  0  0
 16 17  2  0  0  0
 17 18  1  0  0  0
 18 19  2  0  0  0
 19 20  1  0  0  0
 19 21  1  0  0  0
 21 22  2  0  0  0
 22 23  1  0  0  0
  4  5  1  0  0  0
  5 24  1  0  0  0
 24 25  2  0  0  0
 25 26  1  0  0  0
 26 27  2  0  0  0
 27 28  1  0  0  0
 27 29  1  0  0  0
 29 30  2  0  0  0
  5  1  2  0  0  0
 30 24  1  0  0  0
 14  6  1  0  0  0
 22 16  1  0  0  0
 11  8  1  0  0  0
 14 15  1  0  0  0
M  END
> <minimizedAffinity>
-6.86763

> <CNNscore>
0.1496728063

> <CNNaffinity>
6.2780261040

> <CNN_VS>
0.9396497607

> <CNNaffinity_variance>
0.1128522381

$$$$
[H]c1c([H])c(-c2c(C([H])([H])C([H])([H])[H])c(C3=NC4(C(=O)N3[H])C([H])([H])C([H])([H])C4([H])[H])nn2-c2c([H])c([H])c(Cl)c([H])c2Cl)c([H])c([H])c1Cl


 32 36  0  0  0  0  0  0  0  0999 V2000
   -2.8013   22.1986  -20.0996 C   0  0  0  0  0  0  0  0  0  0  0  0
   -3.8680   22.7700  -20.7244 C   0  0  0  0  0  0  0  0  0  0  0  0
   -3.4627   22.8560  -22.0313 N   0  0  0  0  0  0  0  0  0  0  0  0
   -2.2462   22.3727  -22.2020 N   0  0  0  0  0  0  0  0  0  0  0  0
   -1.7781   21.9417  -21.0354 C   0  0  0  0  0  0  0  0  0  0  0  0
   -5.1862   23.1891  -20.2792 C   0  0  0  0  0  0  0  0  0  0  0  0
   -5.9207   24.0328  -21.0046 N   0  0  0  0  0  0  0  0  0  0  0  0
   -7.1679   24.3128  -20.3973 C   0  0  0  0  0  0  0  0  0  0  0  0
   -8.3934   24.1431  -21.2665 C   0  0  0  0  0  0  0  0  0  0  0  0
   -8.4973   25.6360  -21.3600 C   0  0  0  0  0  0  0  0  0  0  0  0
   -7.5248   25.7672  -20.2120 C   0  0  0  0  0  0  0  0  0  0  0  0
   -7.2215   23.5081  -19.1673 C   0  0  0  0  0  0  0  0  0  0  0  0
   -8.1231   23.3878  -18.3090 O   0  0  0  0  0  0  0  0  0  0  0  0
   -5.9301   22.8366  -19.1490 N   0  0  0  0  0  0  0  0  0  0  0  0
   -5.6936   22.1975  -18.3620 H   0  0  0  0  0  0  0  0  0  0  0  0
   -1.5752   22.3263  -23.4620 C   0  0  0  0  0  0  0  0  0  0  0  0
   -0.2794   22.7958  -23.6597 C   0  0  0  0  0  0  0  0  0  0  0  0
    0.3189   22.7572  -24.8931 C   0  0  0  0  0  0  0  0  0  0  0  0
   -0.3498   22.2508  -25.9727 C   0  0  0  0  0  0  0  0  0  0  0  0
    0.3546   22.1709  -27.5754 Cl  0  0  0  0  0  0  0  0  0  0  0  0
   -1.6286   21.7798  -25.8153 C   0  0  0  0  0  0  0  0  0  0  0  0
   -2.2352   21.8232  -24.5483 C   0  0  0  0  0  0  0  0  0  0  0  0
   -3.8944   21.2419  -24.4274 Cl  0  0  0  0  0  0  0  0  0  0  0  0
   -0.5760   21.1838  -20.7529 C   0  0  0  0  0  0  0  0  0  0  0  0
    0.5237   21.7812  -20.1977 C   0  0  0  0  0  0  0  0  0  0  0  0
    1.7169   21.0875  -20.0409 C   0  0  0  0  0  0  0  0  0  0  0  0
    1.8556   19.7752  -20.4306 C   0  0  0  0  0  0  0  0  0  0  0  0
    3.3524   18.8865  -20.2386 Cl  0  0  0  0  0  0  0  0  0  0  0  0
    0.7554   19.1619  -20.9916 C   0  0  0  0  0  0  0  0  0  0  0  0
   -0.4236   19.8660  -21.1420 C   0  0  0  0  0  0  0  0  0  0  0  0
   -3.1855   20.5567  -18.3024 C   0  0  0  0  0  0  0  0  0  0  0  0
   -2.7278   22.0134  -18.6137 C   0  0  0  0  0  0  0  0  0  0  0  0
 31 32  1  0  0  0
 32  1  1  0  0  0
  1  2  1  0  0  0
  2  6  1  0  0  0
  6  7  2  0  0  0
  7  8  1  0  0  0
  8  9  1  0  0  0
  9 10  1  0  0  0
 10 11  1  0  0  0
  8 12  1  0  0  0
 12 13  2  0  0  0
 12 14  1  0  0  0
  2  3  2  0  0  0
  3  4  1  0  0  0
  4 16  1  0  0  0
 16 17  2  0  0  0
 17 18  1  0  0  0
 18 19  2  0  0  0
 19 20  1  0  0  0
 19 21  1  0  0  0
 21 22  2  0  0  0
 22 23  1  0  0  0
  4  5  1  0  0  0
  5 24  1  0  0  0
 24 25  2  0  0  0
 25 26  1  0  0  0
 26 27  2  0  0  0
 27 28  1  0  0  0
 27 29  1  0  0  0
 29 30  2  0  0  0
  5  1  2  0  0  0
 30 24  1  0  0  0
 14  6  1  0  0  0
 22 16  1  0  0  0
 11  8  1  0  0  0
 14 15  1  0  0  0
M  END
> <minimizedAffinity>
-7.16562

> <CNNscore>
0.1445683092

> <CNNaffinity>
6.2102208138

> <CNN_VS>
0.8978011012

> <CNNaffinity_variance>
0.1215786487

$$$$
[H]c1nc(OC([H])([H])C([H])([H])Oc2nc([H])c(Br)c([H])n2)c(-c2c([H])c([H])c(C([H])([H])[H])c([H])c2[H])c(N([H])S(=O)(=O)c2c([H])c([H])c(Cl)c([H])c2[H])n1


 36 39  0  0  0  0  0  0  0  0999 V2000
   -0.9862   22.5213  -24.6689 C   0  0  0  0  0  0  0  0  0  0  0  0
   -1.7439   23.0050  -25.6783 C   0  0  0  0  0  0  0  0  0  0  0  0
   -1.2144   22.8791  -27.0308 N   0  0  0  0  0  0  0  0  0  0  0  0
   -0.0637   22.3249  -27.2762 C   0  0  0  0  0  0  0  0  0  0  0  0
    0.6956   21.8415  -26.2857 N   0  0  0  0  0  0  0  0  0  0  0  0
    0.2988   21.9281  -25.0751 C   0  0  0  0  0  0  0  0  0  0  0  0
   -3.7105   22.6392  -19.6911 C   0  0  0  0  0  0  0  0  0  0  0  0
   -2.7839   22.5652  -20.8387 C   0  0  0  0  0  0  0  0  0  0  0  0
   -2.1678   23.6222  -21.3932 C   0  0  0  0  0  0  0  0  0  0  0  0
   -1.4540   23.6361  -22.5549 C   0  0  0  0  0  0  0  0  0  0  0  0
   -1.3092   22.4312  -23.2858 C   0  0  0  0  0  0  0  0  0  0  0  0
   -1.9062   21.3167  -22.7161 C   0  0  0  0  0  0  0  0  0  0  0  0
   -2.6370   21.2996  -21.5241 C   0  0  0  0  0  0  0  0  0  0  0  0
   -2.9380   23.6730  -25.5111 N   0  0  0  0  0  0  0  0  0  0  0  0
   -3.1240   24.6311  -25.4966 H   0  0  0  0  0  0  0  0  0  0  0  0
   -4.3520   22.6201  -25.1939 S   0  0  0  0  0  0  0  0  0  0  0  0
   -5.2290   22.9142  -26.4695 O   0  0  0  0  0  0  0  0  0  0  0  0
   -3.9820   21.1889  -25.3263 O   0  0  0  0  0  0  0  0  0  0  0  0
   -5.2833   23.0123  -23.8454 C   0  0  0  0  0  0  0  0  0  0  0  0
   -5.2371   24.2343  -23.2981 C   0  0  0  0  0  0  0  0  0  0  0  0
   -5.8213   24.6930  -22.1890 C   0  0  0  0  0  0  0  0  0  0  0  0
   -6.5789   23.7962  -21.4672 C   0  0  0  0  0  0  0  0  0  0  0  0
   -7.3938   24.2673  -19.9772 Cl  0  0  0  0  0  0  0  0  0  0  0  0
   -6.7178   22.4449  -21.8890 C   0  0  0  0  0  0  0  0  0  0  0  0
   -6.0600   22.0789  -23.0899 C   0  0  0  0  0  0  0  0  0  0  0  0
    0.9974   21.5410  -23.9704 O   0  0  0  0  0  0  0  0  0  0  0  0
    2.0468   20.9331  -23.6391 C   0  0  0  0  0  0  0  0  0  0  0  0
    3.1776   20.9518  -22.7294 C   0  0  0  0  0  0  0  0  0  0  0  0
    3.3649   21.3110  -21.5107 O   0  0  0  0  0  0  0  0  0  0  0  0
    3.5428   21.6700  -20.3062 C   0  0  0  0  0  0  0  0  0  0  0  0
    4.9148   21.9288  -19.8449 N   0  0  0  0  0  0  0  0  0  0  0  0
    5.1976   22.3441  -18.6116 C   0  0  0  0  0  0  0  0  0  0  0  0
    4.1574   22.5502  -17.6964 C   0  0  0  0  0  0  0  0  0  0  0  0
    4.5697   23.0978  -15.9232 Br  0  0  0  0  0  0  0  0  0  0  0  0
    2.8699   22.3036  -18.0942 C   0  0  0  0  0  0  0  0  0  0  0  0
    2.6741   21.9003  -19.2816 N   0  0  0  0  0  0  0  0  0  0  0  0
  7  8  1  0  0  0
  8  9  2  0  0  0
  9 10  1  0  0  0
 10 11  2  0  0  0
 11  1  1  0  0  0
  1  2  1  0  0  0
  2 14  1  0  0  0
 14 16  1  0  0  0
 16 17  2  0  0  0
 16 18  2  0  0  0
 16 19  1  0  0  0
 19 20  2  0  0  0
 20 21  1  0  0  0
 21 22  2  0  0  0
 22 23  1  0  0  0
 22 24  1  0  0  0
 24 25  2  0  0  0
  2  3  2  0  0  0
  3  4  1  0  0  0
  4  5  2  0  0  0
  5  6  1  0  0  0
  6 26  1  0  0  0
 26 27  1  0  0  0
 27 28  1  0  0  0
 28 29  1  0  0  0
 29 30  1  0  0  0
 30 31  2  0  0  0
 31 32  1  0  0  0
 32 33  2  0  0  0
 33 34  1  0  0  0
 33 35  1  0  0  0
 35 36  2  0  0  0
 11 12  1  0  0  0
 12 13  2  0  0  0
 13  8  1  0  0  0
  6  1  2  0  0  0
 36 30  1  0  0  0
 25 19  1  0  0  0
 14 15  1  0  0  0
M  END
> <minimizedAffinity>
-6.77702

> <CNNscore>
0.3141341805

> <CNNaffinity>
6.7998609543

> <CNN_VS>
2.1360688210

> <CNNaffinity_variance>
0.1098105162

$$$$
[H]c1nc(OC([H])([H])C([H])([H])Oc2nc([H])c(Br)c([H])n2)c(-c2c([H])c([H])c(C([H])([H])[H])c([H])c2[H])c(N([H])S(=O)(=O)c2c([H])c([H])c(Cl)c([H])c2[H])n1


 36 39  0  0  0  0  0  0  0  0999 V2000
   -1.4134   21.7092  -22.6705 C   0  0  0  0  0  0  0  0  0  0  0  0
   -0.8261   21.3369  -21.5114 C   0  0  0  0  0  0  0  0  0  0  0  0
    0.6131   21.1054  -21.5359 N   0  0  0  0  0  0  0  0  0  0  0  0
    1.3203   21.2487  -22.6179 C   0  0  0  0  0  0  0  0  0  0  0  0
    0.7508   21.6175  -23.7716 N   0  0  0  0  0  0  0  0  0  0  0  0
   -0.5077   21.8263  -23.8256 C   0  0  0  0  0  0  0  0  0  0  0  0
   -6.2650   23.4366  -25.0565 C   0  0  0  0  0  0  0  0  0  0  0  0
   -5.1377   23.0034  -24.2064 C   0  0  0  0  0  0  0  0  0  0  0  0
   -4.2097   23.8258  -23.6898 C   0  0  0  0  0  0  0  0  0  0  0  0
   -3.0570   23.4640  -23.0576 C   0  0  0  0  0  0  0  0  0  0  0  0
   -2.7671   22.0869  -22.8942 C   0  0  0  0  0  0  0  0  0  0  0  0
   -3.7273   21.2162  -23.3875 C   0  0  0  0  0  0  0  0  0  0  0  0
   -4.9108   21.5849  -24.0344 C   0  0  0  0  0  0  0  0  0  0  0  0
   -1.5011   21.0881  -20.3356 N   0  0  0  0  0  0  0  0  0  0  0  0
   -2.0966   20.3521  -20.0978 H   0  0  0  0  0  0  0  0  0  0  0  0
   -1.3173   22.3521  -19.0797 S   0  0  0  0  0  0  0  0  0  0  0  0
   -1.3331   23.6533  -19.9684 O   0  0  0  0  0  0  0  0  0  0  0  0
   -2.5471   22.4570  -18.2555 O   0  0  0  0  0  0  0  0  0  0  0  0
    0.1359   22.3467  -18.2266 C   0  0  0  0  0  0  0  0  0  0  0  0
    0.2518   21.7135  -17.0517 C   0  0  0  0  0  0  0  0  0  0  0  0
    1.2791   21.6810  -16.1999 C   0  0  0  0  0  0  0  0  0  0  0  0
    2.3965   22.4108  -16.5431 C   0  0  0  0  0  0  0  0  0  0  0  0
    3.8177   22.4650  -15.5022 Cl  0  0  0  0  0  0  0  0  0  0  0  0
    2.4390   23.1670  -17.7470 C   0  0  0  0  0  0  0  0  0  0  0  0
    1.2912   23.1135  -18.5769 C   0  0  0  0  0  0  0  0  0  0  0  0
   -1.2236   22.1386  -24.9427 O   0  0  0  0  0  0  0  0  0  0  0  0
   -1.1317   22.1372  -26.1966 C   0  0  0  0  0  0  0  0  0  0  0  0
   -1.8934   22.0690  -27.4302 C   0  0  0  0  0  0  0  0  0  0  0  0
   -2.5711   22.9028  -28.1336 O   0  0  0  0  0  0  0  0  0  0  0  0
   -3.2464   23.7211  -28.8304 C   0  0  0  0  0  0  0  0  0  0  0  0
   -4.6555   23.4093  -29.1122 N   0  0  0  0  0  0  0  0  0  0  0  0
   -5.4530   24.2227  -29.8021 C   0  0  0  0  0  0  0  0  0  0  0  0
   -4.9481   25.4347  -30.2905 C   0  0  0  0  0  0  0  0  0  0  0  0
   -6.0773   26.5705  -31.3148 Br  0  0  0  0  0  0  0  0  0  0  0  0
   -3.6347   25.7451  -30.0551 C   0  0  0  0  0  0  0  0  0  0  0  0
   -2.9298   24.9189  -29.3986 N   0  0  0  0  0  0  0  0  0  0  0  0
  7  8  1  0  0  0
  8  9  2  0  0  0
  9 10  1  0  0  0
 10 11  2  0  0  0
 11  1  1  0  0  0
  1  2  1  0  0  0
  2 14  1  0  0  0
 14 16  1  0  0  0
 16 17  2  0  0  0
 16 18  2  0  0  0
 16 19  1  0  0  0
 19 20  2  0  0  0
 20 21  1  0  0  0
 21 22  2  0  0  0
 22 23  1  0  0  0
 22 24  1  0  0  0
 24 25  2  0  0  0
  2  3  2  0  0  0
  3  4  1  0  0  0
  4  5  2  0  0  0
  5  6  1  0  0  0
  6 26  1  0  0  0
 26 27  1  0  0  0
 27 28  1  0  0  0
 28 29  1  0  0  0
 29 30  1  0  0  0
 30 31  2  0  0  0
 31 32  1  0  0  0
 32 33  2  0  0  0
 33 34  1  0  0  0
 33 35  1  0  0  0
 35 36  2  0  0  0
 11 12  1  0  0  0
 12 13  2  0  0  0
 13  8  1  0  0  0
  6  1  2  0  0  0
 36 30  1  0  0  0
 25 19  1  0  0  0
 14 15  1  0  0  0
M  END
> <minimizedAffinity>
-7.58157

> <CNNscore>
0.2458745837

> <CNNaffinity>
6.7292251587

> <CNN_VS>
1.6545454264

> <CNNaffinity_variance>
0.3509239554

$$$$
[H]c1nc(OC([H])([H])C([H])([H])Oc2nc([H])c(Br)c([H])n2)c(-c2c([H])c([H])c(C([H])([H])[H])c([H])c2[H])c(N([H])S(=O)(=O)c2c([H])c([H])c(Cl)c([H])c2[H])n1


 36 39  0  0  0  0  0  0  0  0999 V2000
   -6.0401   23.3032  -19.6573 C   0  0  0  0  0  0  0  0  0  0  0  0
   -6.3384   24.2822  -18.7744 C   0  0  0  0  0  0  0  0  0  0  0  0
   -7.3454   25.2580  -19.1739 N   0  0  0  0  0  0  0  0  0  0  0  0
   -7.9447   25.2037  -20.3269 C   0  0  0  0  0  0  0  0  0  0  0  0
   -7.6587   24.2389  -21.2094 N   0  0  0  0  0  0  0  0  0  0  0  0
   -6.7786   23.3571  -20.9301 C   0  0  0  0  0  0  0  0  0  0  0  0
   -2.3749   19.5355  -17.5160 C   0  0  0  0  0  0  0  0  0  0  0  0
   -3.2988   20.3795  -18.3003 C   0  0  0  0  0  0  0  0  0  0  0  0
   -2.9440   21.4983  -18.9537 C   0  0  0  0  0  0  0  0  0  0  0  0
   -3.7795   22.4059  -19.5347 C   0  0  0  0  0  0  0  0  0  0  0  0
   -5.1778   22.1851  -19.4794 C   0  0  0  0  0  0  0  0  0  0  0  0
   -5.5690   21.0178  -18.8409 C   0  0  0  0  0  0  0  0  0  0  0  0
   -4.7141   20.0848  -18.2461 C   0  0  0  0  0  0  0  0  0  0  0  0
   -5.7056   24.4649  -17.5636 N   0  0  0  0  0  0  0  0  0  0  0  0
   -4.9101   24.9862  -17.3440 H   0  0  0  0  0  0  0  0  0  0  0  0
   -6.4076   23.5398  -16.1998 S   0  0  0  0  0  0  0  0  0  0  0  0
   -6.7609   24.7083  -15.2035 O   0  0  0  0  0  0  0  0  0  0  0  0
   -7.7248   22.9681  -16.5751 O   0  0  0  0  0  0  0  0  0  0  0  0
   -5.3603   22.4945  -15.3934 C   0  0  0  0  0  0  0  0  0  0  0  0
   -4.0449   22.7396  -15.3280 C   0  0  0  0  0  0  0  0  0  0  0  0
   -3.0631   21.9889  -14.8234 C   0  0  0  0  0  0  0  0  0  0  0  0
   -3.4208   20.7660  -14.2984 C   0  0  0  0  0  0  0  0  0  0  0  0
   -2.2221   19.6712  -13.6121 Cl  0  0  0  0  0  0  0  0  0  0  0  0
   -4.7747   20.3303  -14.3070 C   0  0  0  0  0  0  0  0  0  0  0  0
   -5.7296   21.2203  -14.8591 C   0  0  0  0  0  0  0  0  0  0  0  0
   -6.3435   22.3651  -21.7576 O   0  0  0  0  0  0  0  0  0  0  0  0
   -6.5779   21.8559  -22.8830 C   0  0  0  0  0  0  0  0  0  0  0  0
   -6.0856   21.7347  -24.2430 C   0  0  0  0  0  0  0  0  0  0  0  0
   -4.9501   21.8926  -24.8218 O   0  0  0  0  0  0  0  0  0  0  0  0
   -3.8245   22.0506  -25.3868 C   0  0  0  0  0  0  0  0  0  0  0  0
   -3.7905   22.6336  -26.7363 N   0  0  0  0  0  0  0  0  0  0  0  0
   -2.6571   22.8713  -27.3939 C   0  0  0  0  0  0  0  0  0  0  0  0
   -1.4309   22.5599  -26.7923 C   0  0  0  0  0  0  0  0  0  0  0  0
    0.1820   22.8575  -27.7536 Br  0  0  0  0  0  0  0  0  0  0  0  0
   -1.4325   22.0026  -25.5408 C   0  0  0  0  0  0  0  0  0  0  0  0
   -2.5501   21.7947  -24.9765 N   0  0  0  0  0  0  0  0  0  0  0  0
  7  8  1  0  0  0
  8  9  2  0  0  0
  9 10  1  0  0  0
 10 11  2  0  0  0
 11  1  1  0  0  0
  1  2  1  0  0  0
  2 14  1  0  0  0
 14 16  1  0  0  0
 16 17  2  0  0  0
 16 18  2  0  0  0
 16 19  1  0  0  0
 19 20  2  0  0  0
 20 21  1  0  0  0
 21 22  2  0  0  0
 22 23  1  0  0  0
 22 24  1  0  0  0
 24 25  2  0  0  0
  2  3  2  0  0  0
  3  4  1  0  0  0
  4  5  2  0  0  0
  5  6  1  0  0  0
  6 26  1  0  0  0
 26 27  1  0  0  0
 27 28  1  0  0  0
 28 29  1  0  0  0
 29 30  1  0  0  0
 30 31  2  0  0  0
 31 32  1  0  0  0
 32 33  2  0  0  0
 33 34  1  0  0  0
 33 35  1  0  0  0
 35 36  2  0  0  0
 11 12  1  0  0  0
 12 13  2  0  0  0
 13  8  1  0  0  0
  6  1  2  0  0  0
 36 30  1  0  0  0
 25 19  1  0  0  0
 14 15  1  0  0  0
M  END
> <minimizedAffinity>
-6.11126

> <CNNscore>
0.1851079315

> <CNNaffinity>
6.1625771523

> <CNN_VS>
1.1407419443

> <CNNaffinity_variance>
0.1104941741

$$$$
[H]c1nc(OC([H])([H])C([H])([H])Oc2nc([H])c(Br)c([H])n2)c(-c2c([H])c([H])c(C([H])([H])[H])c([H])c2[H])c(N([H])S(=O)(=O)c2c([H])c([H])c(Cl)c([H])c2[H])n1


 36 39  0  0  0  0  0  0  0  0999 V2000
   -1.3266   21.6075  -23.0054 C   0  0  0  0  0  0  0  0  0  0  0  0
   -0.7148   21.2499  -21.8544 C   0  0  0  0  0  0  0  0  0  0  0  0
    0.7301   21.0597  -21.8970 N   0  0  0  0  0  0  0  0  0  0  0  0
    1.4195   21.2252  -22.9873 C   0  0  0  0  0  0  0  0  0  0  0  0
    0.8256   21.5799  -24.1331 N   0  0  0  0  0  0  0  0  0  0  0  0
   -0.4389   21.7527  -24.1712 C   0  0  0  0  0  0  0  0  0  0  0  0
   -6.2779   23.0929  -25.3490 C   0  0  0  0  0  0  0  0  0  0  0  0
   -5.1182   22.7353  -24.5075 C   0  0  0  0  0  0  0  0  0  0  0  0
   -4.1912   23.6053  -24.0737 C   0  0  0  0  0  0  0  0  0  0  0  0
   -3.0138   23.3051  -23.4549 C   0  0  0  0  0  0  0  0  0  0  0  0
   -2.6933   21.9468  -23.2117 C   0  0  0  0  0  0  0  0  0  0  0  0
   -3.6508   21.0296  -23.6181 C   0  0  0  0  0  0  0  0  0  0  0  0
   -4.8595   21.3352  -24.2511 C   0  0  0  0  0  0  0  0  0  0  0  0
   -1.3679   20.9796  -20.6710 N   0  0  0  0  0  0  0  0  0  0  0  0
   -1.5955   20.1233  -20.2616 H   0  0  0  0  0  0  0  0  0  0  0  0
   -1.9574   22.4232  -19.7895 S   0  0  0  0  0  0  0  0  0  0  0  0
   -1.1992   22.2594  -18.4179 O   0  0  0  0  0  0  0  0  0  0  0  0
   -1.3911   23.6641  -20.3746 O   0  0  0  0  0  0  0  0  0  0  0  0
   -3.6070   22.4633  -19.4474 C   0  0  0  0  0  0  0  0  0  0  0  0
   -4.5021   22.8297  -20.3745 C   0  0  0  0  0  0  0  0  0  0  0  0
   -5.8197   23.0106  -20.2608 C   0  0  0  0  0  0  0  0  0  0  0  0
   -6.3702   22.8153  -19.0127 C   0  0  0  0  0  0  0  0  0  0  0  0
   -8.0947   23.0332  -18.7213 Cl  0  0  0  0  0  0  0  0  0  0  0  0
   -5.5613   22.4467  -17.9023 C   0  0  0  0  0  0  0  0  0  0  0  0
   -4.1766   22.2720  -18.1497 C   0  0  0  0  0  0  0  0  0  0  0  0
   -1.1772   22.0465  -25.2788 O   0  0  0  0  0  0  0  0  0  0  0  0
   -1.0482   22.4498  -26.4626 C   0  0  0  0  0  0  0  0  0  0  0  0
   -1.6665   22.4551  -27.7757 C   0  0  0  0  0  0  0  0  0  0  0  0
   -2.4352   23.2562  -28.4212 O   0  0  0  0  0  0  0  0  0  0  0  0
   -3.1981   24.0418  -29.0631 C   0  0  0  0  0  0  0  0  0  0  0  0
   -4.6473   23.7948  -29.0338 N   0  0  0  0  0  0  0  0  0  0  0  0
   -5.5287   24.5841  -29.6450 C   0  0  0  0  0  0  0  0  0  0  0  0
   -5.0775   25.7053  -30.3533 C   0  0  0  0  0  0  0  0  0  0  0  0
   -6.3356   26.8022  -31.2633 Br  0  0  0  0  0  0  0  0  0  0  0  0
   -3.7312   25.9524  -30.4095 C   0  0  0  0  0  0  0  0  0  0  0  0
   -2.9475   25.1530  -29.8116 N   0  0  0  0  0  0  0  0  0  0  0  0
  7  8  1  0  0  0
  8  9  2  0  0  0
  9 10  1  0  0  0
 10 11  2  0  0  0
 11  1  1  0  0  0
  1  2  1  0  0  0
  2 14  1  0  0  0
 14 16  1  0  0  0
 16 17  2  0  0  0
 16 18  2  0  0  0
 16 19  1  0  0  0
 19 20  2  0  0  0
 20 21  1  0  0  0
 21 22  2  0  0  0
 22 23  1  0  0  0
 22 24  1  0  0  0
 24 25  2  0  0  0
  2  3  2  0  0  0
  3  4  1  0  0  0
  4  5  2  0  0  0
  5  6  1  0  0  0
  6 26  1  0  0  0
 26 27  1  0  0  0
 27 28  1  0  0  0
 28 29  1  0  0  0
 29 30  1  0  0  0
 30 31  2  0  0  0
 31 32  1  0  0  0
 32 33  2  0  0  0
 33 34  1  0  0  0
 33 35  1  0  0  0
 35 36  2  0  0  0
 11 12  1  0  0  0
 12 13  2  0  0  0
 13  8  1  0  0  0
  6  1  2  0  0  0
 36 30  1  0  0  0
 25 19  1  0  0  0
 14 15  1  0  0  0
M  END
> <minimizedAffinity>
-7.17160

> <CNNscore>
0.1591769457

> <CNNaffinity>
6.6895246506

> <CNN_VS>
1.0648181438

> <CNNaffinity_variance>
0.5522839427

$$$$
[H]c1nc(OC([H])([H])C([H])([H])Oc2nc([H])c(Br)c([H])n2)c(-c2c([H])c([H])c(C([H])([H])[H])c([H])c2[H])c(N([H])S(=O)(=O)c2c([H])c([H])c(Cl)c([H])c2[H])n1


 36 39  0  0  0  0  0  0  0  0999 V2000
   -1.9494   21.6941  -22.8527 C   0  0  0  0  0  0  0  0  0  0  0  0
   -3.2775   21.4454  -22.8900 C   0  0  0  0  0  0  0  0  0  0  0  0
   -3.8932   21.2999  -24.2035 N   0  0  0  0  0  0  0  0  0  0  0  0
   -3.2091   21.3993  -25.3050 C   0  0  0  0  0  0  0  0  0  0  0  0
   -1.8935   21.6445  -25.2814 N   0  0  0  0  0  0  0  0  0  0  0  0
   -1.2908   21.7943  -24.1658 C   0  0  0  0  0  0  0  0  0  0  0  0
    0.0508   21.8634  -17.5437 C   0  0  0  0  0  0  0  0  0  0  0  0
   -0.2211   21.8858  -18.9951 C   0  0  0  0  0  0  0  0  0  0  0  0
   -0.6720   22.9549  -19.6720 C   0  0  0  0  0  0  0  0  0  0  0  0
   -1.1097   22.9806  -20.9631 C   0  0  0  0  0  0  0  0  0  0  0  0
   -1.0978   21.7804  -21.7157 C   0  0  0  0  0  0  0  0  0  0  0  0
   -0.6031   20.6685  -21.0508 C   0  0  0  0  0  0  0  0  0  0  0  0
   -0.1519   20.6402  -19.7277 C   0  0  0  0  0  0  0  0  0  0  0  0
   -4.0970   21.3971  -21.7828 N   0  0  0  0  0  0  0  0  0  0  0  0
   -4.3268   20.6448  -21.2048 H   0  0  0  0  0  0  0  0  0  0  0  0
   -4.9282   22.9353  -21.3933 S   0  0  0  0  0  0  0  0  0  0  0  0
   -6.3896   22.4166  -21.1134 O   0  0  0  0  0  0  0  0  0  0  0  0
   -4.4704   23.4634  -20.0839 O   0  0  0  0  0  0  0  0  0  0  0  0
   -5.0283   24.0630  -22.6414 C   0  0  0  0  0  0  0  0  0  0  0  0
   -3.9945   24.8588  -22.9460 C   0  0  0  0  0  0  0  0  0  0  0  0
   -3.9219   25.8613  -23.8245 C   0  0  0  0  0  0  0  0  0  0  0  0
   -5.0693   26.1580  -24.5277 C   0  0  0  0  0  0  0  0  0  0  0  0
   -5.1147   27.4655  -25.7086 Cl  0  0  0  0  0  0  0  0  0  0  0  0
   -6.2718   25.4294  -24.3129 C   0  0  0  0  0  0  0  0  0  0  0  0
   -6.2222   24.3789  -23.3627 C   0  0  0  0  0  0  0  0  0  0  0  0
    0.0240   22.1131  -23.9988 O   0  0  0  0  0  0  0  0  0  0  0  0
    1.1740   21.6199  -24.1204 C   0  0  0  0  0  0  0  0  0  0  0  0
    2.3925   21.2902  -23.4040 C   0  0  0  0  0  0  0  0  0  0  0  0
    2.8678   20.2361  -22.8452 O   0  0  0  0  0  0  0  0  0  0  0  0
    3.3438   19.1986  -22.2900 C   0  0  0  0  0  0  0  0  0  0  0  0
    2.6068   18.6010  -21.1667 N   0  0  0  0  0  0  0  0  0  0  0  0
    3.0072   17.4932  -20.5456 C   0  0  0  0  0  0  0  0  0  0  0  0
    4.1800   16.8517  -20.9644 C   0  0  0  0  0  0  0  0  0  0  0  0
    4.7726   15.2972  -20.0444 Br  0  0  0  0  0  0  0  0  0  0  0  0
    4.8949   17.3938  -21.9997 C   0  0  0  0  0  0  0  0  0  0  0  0
    4.4598   18.4569  -22.5394 N   0  0  0  0  0  0  0  0  0  0  0  0
  7  8  1  0  0  0
  8  9  2  0  0  0
  9 10  1  0  0  0
 10 11  2  0  0  0
 11  1  1  0  0  0
  1  2  1  0  0  0
  2 14  1  0  0  0
 14 16  1  0  0  0
 16 17  2  0  0  0
 16 18  2  0  0  0
 16 19  1  0  0  0
 19 20  2  0  0  0
 20 21  1  0  0  0
 21 22  2  0  0  0
 22 23  1  0  0  0
 22 24  1  0  0  0
 24 25  2  0  0  0
  2  3  2  0  0  0
  3  4  1  0  0  0
  4  5  2  0  0  0
  5  6  1  0  0  0
  6 26  1  0  0  0
 26 27  1  0  0  0
 27 28  1  0  0  0
 28 29  1  0  0  0
 29 30  1  0  0  0
 30 31  2  0  0  0
 31 32  1  0  0  0
 32 33  2  0  0  0
 33 34  1  0  0  0
 33 35  1  0  0  0
 35 36  2  0  0  0
 11 12  1  0  0  0
 12 13  2  0  0  0
 13  8  1  0  0  0
  6  1  2  0  0  0
 36 30  1  0  0  0
 25 19  1  0  0  0
 14 15  1  0  0  0
M  END
> <minimizedAffinity>
-7.04450

> <CNNscore>
0.1312273741

> <CNNaffinity>
6.3545441628

> <CNN_VS>
0.8338901401

> <CNNaffinity_variance>
0.2411240339

$$$$
[H]c1nc(OC([H])([H])C([H])([H])Oc2nc([H])c(Br)c([H])n2)c(-c2c([H])c([H])c(C([H])([H])[H])c([H])c2[H])c(N([H])S(=O)(=O)c2c([H])c([H])c(Cl)c([H])c2[H])n1


 36 39  0  0  0  0  0  0  0  0999 V2000
   -2.7529   22.2890  -20.4230 C   0  0  0  0  0  0  0  0  0  0  0  0
   -4.0153   21.8469  -20.6179 C   0  0  0  0  0  0  0  0  0  0  0  0
   -4.9440   21.9633  -19.5001 N   0  0  0  0  0  0  0  0  0  0  0  0
   -4.5918   22.4713  -18.3559 C   0  0  0  0  0  0  0  0  0  0  0  0
   -3.3453   22.9133  -18.1505 N   0  0  0  0  0  0  0  0  0  0  0  0
   -2.4763   22.8320  -19.0825 C   0  0  0  0  0  0  0  0  0  0  0  0
    0.4146   21.8793  -25.1148 C   0  0  0  0  0  0  0  0  0  0  0  0
   -0.1864   22.0774  -23.7804 C   0  0  0  0  0  0  0  0  0  0  0  0
   -0.2567   21.1347  -22.8261 C   0  0  0  0  0  0  0  0  0  0  0  0
   -0.9551   21.2048  -21.6570 C   0  0  0  0  0  0  0  0  0  0  0  0
   -1.6922   22.3795  -21.3674 C   0  0  0  0  0  0  0  0  0  0  0  0
   -1.6074   23.3830  -22.3209 C   0  0  0  0  0  0  0  0  0  0  0  0
   -0.8904   23.3141  -23.5194 C   0  0  0  0  0  0  0  0  0  0  0  0
   -4.4600   21.2277  -21.7663 N   0  0  0  0  0  0  0  0  0  0  0  0
   -4.3645   20.3005  -22.0562 H   0  0  0  0  0  0  0  0  0  0  0  0
   -5.2692   22.3111  -22.9410 S   0  0  0  0  0  0  0  0  0  0  0  0
   -6.5648   21.4754  -23.2668 O   0  0  0  0  0  0  0  0  0  0  0  0
   -5.7803   23.5302  -22.2663 O   0  0  0  0  0  0  0  0  0  0  0  0
   -4.4597   22.5665  -24.3967 C   0  0  0  0  0  0  0  0  0  0  0  0
   -3.7618   21.5871  -24.9871 C   0  0  0  0  0  0  0  0  0  0  0  0
   -2.9899   21.6287  -26.0753 C   0  0  0  0  0  0  0  0  0  0  0  0
   -2.8567   22.8506  -26.6986 C   0  0  0  0  0  0  0  0  0  0  0  0
   -1.8571   23.0479  -28.1366 Cl  0  0  0  0  0  0  0  0  0  0  0  0
   -3.5090   24.0087  -26.1921 C   0  0  0  0  0  0  0  0  0  0  0  0
   -4.3120   23.8369  -25.0369 C   0  0  0  0  0  0  0  0  0  0  0  0
   -1.1615   23.1792  -18.9882 O   0  0  0  0  0  0  0  0  0  0  0  0
   -0.1060   22.8614  -18.3835 C   0  0  0  0  0  0  0  0  0  0  0  0
    0.6102   21.7573  -17.7715 C   0  0  0  0  0  0  0  0  0  0  0  0
    0.3081   20.8103  -16.9583 O   0  0  0  0  0  0  0  0  0  0  0  0
    0.0032   19.8785  -16.1520 C   0  0  0  0  0  0  0  0  0  0  0  0
    0.5684   18.5400  -16.3778 N   0  0  0  0  0  0  0  0  0  0  0  0
    0.3361   17.5098  -15.5666 C   0  0  0  0  0  0  0  0  0  0  0  0
   -0.4800   17.6863  -14.4418 C   0  0  0  0  0  0  0  0  0  0  0  0
   -0.8467   16.2014  -13.3129 Br  0  0  0  0  0  0  0  0  0  0  0  0
   -1.0318   18.9194  -14.2139 C   0  0  0  0  0  0  0  0  0  0  0  0
   -0.7756   19.8538  -15.0337 N   0  0  0  0  0  0  0  0  0  0  0  0
  7  8  1  0  0  0
  8  9  2  0  0  0
  9 10  1  0  0  0
 10 11  2  0  0  0
 11  1  1  0  0  0
  1  2  1  0  0  0
  2 14  1  0  0  0
 14 16  1  0  0  0
 16 17  2  0  0  0
 16 18  2  0  0  0
 16 19  1  0  0  0
 19 20  2  0  0  0
 20 21  1  0  0  0
 21 22  2  0  0  0
 22 23  1  0  0  0
 22 24  1  0  0  0
 24 25  2  0  0  0
  2  3  2  0  0  0
  3  4  1  0  0  0
  4  5  2  0  0  0
  5  6  1  0  0  0
  6 26  1  0  0  0
 26 27  1  0  0  0
 27 28  1  0  0  0
 28 29  1  0  0  0
 29 30  1  0  0  0
 30 31  2  0  0  0
 31 32  1  0  0  0
 32 33  2  0  0  0
 33 34  1  0  0  0
 33 35  1  0  0  0
 35 36  2  0  0  0
 11 12  1  0  0  0
 12 13  2  0  0  0
 13  8  1  0  0  0
  6  1  2  0  0  0
 36 30  1  0  0  0
 25 19  1  0  0  0
 14 15  1  0  0  0
M  END
> <minimizedAffinity>
-6.22478

> <CNNscore>
0.1225966588

> <CNNaffinity>
6.1373820305

> <CNN_VS>
0.7524225116

> <CNNaffinity_variance>
0.1165439337

$$$$
[H]c1nc(OC([H])([H])C([H])([H])Oc2nc([H])c(Br)c([H])n2)c(-c2c([H])c([H])c(C([H])([H])[H])c([H])c2[H])c(N([H])S(=O)(=O)c2c([H])c([H])c(Cl)c([H])c2[H])n1


 36 39  0  0  0  0  0  0  0  0999 V2000
   -3.0484   22.3679  -19.9083 C   0  0  0  0  0  0  0  0  0  0  0  0
   -3.2165   22.0334  -21.2070 C   0  0  0  0  0  0  0  0  0  0  0  0
   -4.5073   22.3363  -21.8133 N   0  0  0  0  0  0  0  0  0  0  0  0
   -5.4687   22.9069  -21.1488 C   0  0  0  0  0  0  0  0  0  0  0  0
   -5.3145   23.2437  -19.8626 N   0  0  0  0  0  0  0  0  0  0  0  0
   -4.2134   22.9977  -19.2647 C   0  0  0  0  0  0  0  0  0  0  0  0
    2.2286   21.3278  -18.0954 C   0  0  0  0  0  0  0  0  0  0  0  0
    0.8071   21.6640  -18.3133 C   0  0  0  0  0  0  0  0  0  0  0  0
   -0.2047   20.7825  -18.2533 C   0  0  0  0  0  0  0  0  0  0  0  0
   -1.4999   20.9978  -18.6216 C   0  0  0  0  0  0  0  0  0  0  0  0
   -1.8698   22.2727  -19.1163 C   0  0  0  0  0  0  0  0  0  0  0  0
   -0.8506   23.2124  -19.1548 C   0  0  0  0  0  0  0  0  0  0  0  0
    0.4776   22.9945  -18.7760 C   0  0  0  0  0  0  0  0  0  0  0  0
   -2.2858   21.3610  -21.9698 N   0  0  0  0  0  0  0  0  0  0  0  0
   -2.0040   20.4271  -21.9362 H   0  0  0  0  0  0  0  0  0  0  0  0
   -1.4034   22.3783  -23.1509 S   0  0  0  0  0  0  0  0  0  0  0  0
   -1.4550   23.7780  -22.4290 O   0  0  0  0  0  0  0  0  0  0  0  0
    0.0391   22.0298  -23.1707 O   0  0  0  0  0  0  0  0  0  0  0  0
   -2.1305   22.5666  -24.6595 C   0  0  0  0  0  0  0  0  0  0  0  0
   -1.5362   22.1313  -25.7785 C   0  0  0  0  0  0  0  0  0  0  0  0
   -1.9098   22.2752  -27.0520 C   0  0  0  0  0  0  0  0  0  0  0  0
   -3.0665   22.9870  -27.2854 C   0  0  0  0  0  0  0  0  0  0  0  0
   -3.6656   23.2622  -28.9199 Cl  0  0  0  0  0  0  0  0  0  0  0  0
   -3.8149   23.5454  -26.2124 C   0  0  0  0  0  0  0  0  0  0  0  0
   -3.3245   23.3152  -24.9027 C   0  0  0  0  0  0  0  0  0  0  0  0
   -3.9459   23.2241  -17.9474 O   0  0  0  0  0  0  0  0  0  0  0  0
   -4.4717   23.7002  -16.9094 C   0  0  0  0  0  0  0  0  0  0  0  0
   -5.2375   24.8169  -16.3869 C   0  0  0  0  0  0  0  0  0  0  0  0
   -5.9393   25.0307  -15.3328 O   0  0  0  0  0  0  0  0  0  0  0  0
   -6.6270   25.2391  -14.2864 C   0  0  0  0  0  0  0  0  0  0  0  0
   -6.0455   26.0610  -13.2147 N   0  0  0  0  0  0  0  0  0  0  0  0
   -6.7032   26.3645  -12.0973 C   0  0  0  0  0  0  0  0  0  0  0  0
   -8.0085   25.8905  -11.9134 C   0  0  0  0  0  0  0  0  0  0  0  0
   -8.9260   26.2872  -10.2963 Br  0  0  0  0  0  0  0  0  0  0  0  0
   -8.5709   25.1106  -12.8893 C   0  0  0  0  0  0  0  0  0  0  0  0
   -7.8829   24.8529  -13.9241 N   0  0  0  0  0  0  0  0  0  0  0  0
  7  8  1  0  0  0
  8  9  2  0  0  0
  9 10  1  0  0  0
 10 11  2  0  0  0
 11  1  1  0  0  0
  1  2  1  0  0  0
  2 14  1  0  0  0
 14 16  1  0  0  0
 16 17  2  0  0  0
 16 18  2  0  0  0
 16 19  1  0  0  0
 19 20  2  0  0  0
 20 21  1  0  0  0
 21 22  2  0  0  0
 22 23  1  0  0  0
 22 24  1  0  0  0
 24 25  2  0  0  0
  2  3  2  0  0  0
  3  4  1  0  0  0
  4  5  2  0  0  0
  5  6  1  0  0  0
  6 26  1  0  0  0
 26 27  1  0  0  0
 27 28  1  0  0  0
 28 29  1  0  0  0
 29 30  1  0  0  0
 30 31  2  0  0  0
 31 32  1  0  0  0
 32 33  2  0  0  0
 33 34  1  0  0  0
 33 35  1  0  0  0
 35 36  2  0  0  0
 11 12  1  0  0  0
 12 13  2  0  0  0
 13  8  1  0  0  0
  6  1  2  0  0  0
 36 30  1  0  0  0
 25 19  1  0  0  0
 14 15  1  0  0  0
M  END
> <minimizedAffinity>
-7.15064

> <CNNscore>
0.1207232177

> <CNNaffinity>
5.8925104141

> <CNN_VS>
0.7113628387

> <CNNaffinity_variance>
0.0382253826

$$$$
[H]c1nc(OC([H])([H])C([H])([H])Oc2nc([H])c(Br)c([H])n2)c(-c2c([H])c([H])c(C([H])([H])[H])c([H])c2[H])c(N([H])S(=O)(=O)c2c([H])c([H])c(Cl)c([H])c2[H])n1


 36 39  0  0  0  0  0  0  0  0999 V2000
   -1.5808   22.2003  -22.0278 C   0  0  0  0  0  0  0  0  0  0  0  0
   -1.2134   21.1062  -21.3242 C   0  0  0  0  0  0  0  0  0  0  0  0
   -1.7179   20.9877  -19.9615 N   0  0  0  0  0  0  0  0  0  0  0  0
   -2.4927   21.8859  -19.4283 C   0  0  0  0  0  0  0  0  0  0  0  0
   -2.8642   22.9732  -20.1147 N   0  0  0  0  0  0  0  0  0  0  0  0
   -2.4504   23.1472  -21.3100 C   0  0  0  0  0  0  0  0  0  0  0  0
    0.2573   22.0087  -27.3943 C   0  0  0  0  0  0  0  0  0  0  0  0
   -0.2969   22.3069  -26.0582 C   0  0  0  0  0  0  0  0  0  0  0  0
    0.4121   22.7995  -25.0291 C   0  0  0  0  0  0  0  0  0  0  0  0
   -0.0006   22.9205  -23.7351 C   0  0  0  0  0  0  0  0  0  0  0  0
   -1.3110   22.5063  -23.3912 C   0  0  0  0  0  0  0  0  0  0  0  0
   -2.0766   22.0266  -24.4434 C   0  0  0  0  0  0  0  0  0  0  0  0
   -1.6562   21.9034  -25.7712 C   0  0  0  0  0  0  0  0  0  0  0  0
   -0.3392   20.1411  -21.7762 N   0  0  0  0  0  0  0  0  0  0  0  0
   -0.4994   19.3705  -22.3535 H   0  0  0  0  0  0  0  0  0  0  0  0
    1.3303   20.2807  -21.1421 S   0  0  0  0  0  0  0  0  0  0  0  0
    2.1058   20.7017  -22.4476 O   0  0  0  0  0  0  0  0  0  0  0  0
    1.4558   21.4575  -20.2464 O   0  0  0  0  0  0  0  0  0  0  0  0
    2.0336   18.8562  -20.5801 C   0  0  0  0  0  0  0  0  0  0  0  0
    3.1774   18.8719  -19.8826 C   0  0  0  0  0  0  0  0  0  0  0  0
    3.9214   17.8538  -19.4447 C   0  0  0  0  0  0  0  0  0  0  0  0
    3.4839   16.5841  -19.7538 C   0  0  0  0  0  0  0  0  0  0  0  0
    4.3784   15.1522  -19.2482 Cl  0  0  0  0  0  0  0  0  0  0  0  0
    2.2980   16.3799  -20.5121 C   0  0  0  0  0  0  0  0  0  0  0  0
    1.5860   17.5388  -20.9107 C   0  0  0  0  0  0  0  0  0  0  0  0
   -2.6942   24.2348  -22.0949 O   0  0  0  0  0  0  0  0  0  0  0  0
   -3.6445   24.8796  -22.6064 C   0  0  0  0  0  0  0  0  0  0  0  0
   -4.7875   24.7802  -23.4953 C   0  0  0  0  0  0  0  0  0  0  0  0
   -4.9569   24.7616  -24.7682 O   0  0  0  0  0  0  0  0  0  0  0  0
   -5.1210   24.7506  -26.0269 C   0  0  0  0  0  0  0  0  0  0  0  0
   -4.7807   23.5282  -26.7699 N   0  0  0  0  0  0  0  0  0  0  0  0
   -4.9528   23.4088  -28.0850 C   0  0  0  0  0  0  0  0  0  0  0  0
   -5.4801   24.4830  -28.8132 C   0  0  0  0  0  0  0  0  0  0  0  0
   -5.6799   24.3245  -30.6971 Br  0  0  0  0  0  0  0  0  0  0  0  0
   -5.7933   25.6397  -28.1493 C   0  0  0  0  0  0  0  0  0  0  0  0
   -5.5944   25.6870  -26.8968 N   0  0  0  0  0  0  0  0  0  0  0  0
  7  8  1  0  0  0
  8  9  2  0  0  0
  9 10  1  0  0  0
 10 11  2  0  0  0
 11  1  1  0  0  0
  1  2  1  0  0  0
  2 14  1  0  0  0
 14 16  1  0  0  0
 16 17  2  0  0  0
 16 18  2  0  0  0
 16 19  1  0  0  0
 19 20  2  0  0  0
 20 21  1  0  0  0
 21 22  2  0  0  0
 22 23  1  0  0  0
 22 24  1  0  0  0
 24 25  2  0  0  0
  2  3  2  0  0  0
  3  4  1  0  0  0
  4  5  2  0  0  0
  5  6  1  0  0  0
  6 26  1  0  0  0
 26 27  1  0  0  0
 27 28  1  0  0  0
 28 29  1  0  0  0
 29 30  1  0  0  0
 30 31  2  0  0  0
 31 32  1  0  0  0
 32 33  2  0  0  0
 33 34  1  0  0  0
 33 35  1  0  0  0
 35 36  2  0  0  0
 11 12  1  0  0  0
 12 13  2  0  0  0
 13  8  1  0  0  0
  6  1  2  0  0  0
 36 30  1  0  0  0
 25 19  1  0  0  0
 14 15  1  0  0  0
M  END
> <minimizedAffinity>
-7.42982

> <CNNscore>
0.1019473448

> <CNNaffinity>
6.2283673286

> <CNN_VS>
0.6349655390

> <CNNaffinity_variance>
0.3349645138

$$$$
[H]c1nc(OC([H])([H])C([H])([H])Oc2nc([H])c(Br)c([H])n2)c(-c2c([H])c([H])c(C([H])([H])[H])c([H])c2[H])c(N([H])S(=O)(=O)c2c([H])c([H])c(Cl)c([H])c2[H])n1


 36 39  0  0  0  0  0  0  0  0999 V2000
   -4.1444   24.4177  -25.2125 C   0  0  0  0  0  0  0  0  0  0  0  0
   -5.0379   25.4267  -25.1104 C   0  0  0  0  0  0  0  0  0  0  0  0
   -5.4606   26.0724  -26.3473 N   0  0  0  0  0  0  0  0  0  0  0  0
   -5.0097   25.7051  -27.5106 C   0  0  0  0  0  0  0  0  0  0  0  0
   -4.1254   24.7070  -27.6250 N   0  0  0  0  0  0  0  0  0  0  0  0
   -3.7030   24.1040  -26.5818 C   0  0  0  0  0  0  0  0  0  0  0  0
   -3.3738   21.7024  -20.2882 C   0  0  0  0  0  0  0  0  0  0  0  0
   -3.3446   22.2940  -21.6411 C   0  0  0  0  0  0  0  0  0  0  0  0
   -2.8118   23.4901  -21.9410 C   0  0  0  0  0  0  0  0  0  0  0  0
   -2.9183   24.1594  -23.1243 C   0  0  0  0  0  0  0  0  0  0  0  0
   -3.6492   23.5678  -24.1839 C   0  0  0  0  0  0  0  0  0  0  0  0
   -4.1800   22.3158  -23.9116 C   0  0  0  0  0  0  0  0  0  0  0  0
   -4.0705   21.6269  -22.6998 C   0  0  0  0  0  0  0  0  0  0  0  0
   -5.5144   25.9340  -23.9206 N   0  0  0  0  0  0  0  0  0  0  0  0
   -5.1289   26.6051  -23.3258 H   0  0  0  0  0  0  0  0  0  0  0  0
   -7.0364   25.1890  -23.3399 S   0  0  0  0  0  0  0  0  0  0  0  0
   -7.7929   26.4573  -22.7905 O   0  0  0  0  0  0  0  0  0  0  0  0
   -7.8677   24.7333  -24.4819 O   0  0  0  0  0  0  0  0  0  0  0  0
   -6.8909   24.1007  -22.0617 C   0  0  0  0  0  0  0  0  0  0  0  0
   -7.4249   22.8737  -22.1271 C   0  0  0  0  0  0  0  0  0  0  0  0
   -7.4927   21.9239  -21.1916 C   0  0  0  0  0  0  0  0  0  0  0  0
   -6.9573   22.2249  -19.9580 C   0  0  0  0  0  0  0  0  0  0  0  0
   -6.9920   21.0662  -18.6304 Cl  0  0  0  0  0  0  0  0  0  0  0  0
   -6.3701   23.4948  -19.7019 C   0  0  0  0  0  0  0  0  0  0  0  0
   -6.3459   24.4171  -20.7779 C   0  0  0  0  0  0  0  0  0  0  0  0
   -2.7578   23.1224  -26.5478 O   0  0  0  0  0  0  0  0  0  0  0  0
   -1.5727   22.8919  -26.8988 C   0  0  0  0  0  0  0  0  0  0  0  0
   -0.2420   22.5816  -26.4096 C   0  0  0  0  0  0  0  0  0  0  0  0
    0.2473   22.1436  -25.3059 O   0  0  0  0  0  0  0  0  0  0  0  0
    0.7378   21.7148  -24.2165 C   0  0  0  0  0  0  0  0  0  0  0  0
   -0.1660   21.4897  -23.0787 N   0  0  0  0  0  0  0  0  0  0  0  0
    0.2491   21.0076  -21.9087 C   0  0  0  0  0  0  0  0  0  0  0  0
    1.6028   20.6940  -21.7318 C   0  0  0  0  0  0  0  0  0  0  0  0
    2.1986   20.0505  -20.0451 Br  0  0  0  0  0  0  0  0  0  0  0  0
    2.4706   20.9066  -22.7703 C   0  0  0  0  0  0  0  0  0  0  0  0
    2.0077   21.3776  -23.8541 N   0  0  0  0  0  0  0  0  0  0  0  0
  7  8  1  0  0  0
  8  9  2  0  0  0
  9 10  1  0  0  0
 10 11  2  0  0  0
 11  1  1  0  0  0
  1  2  1  0  0  0
  2 14  1  0  0  0
 14 16  1  0  0  0
 16 17  2  0  0  0
 16 18  2  0  0  0
 16 19  1  0  0  0
 19 20  2  0  0  0
 20 21  1  0  0  0
 21 22  2  0  0  0
 22 23  1  0  0  0
 22 24  1  0  0  0
 24 25  2  0  0  0
  2  3  2  0  0  0
  3  4  1  0  0  0
  4  5  2  0  0  0
  5  6  1  0  0  0
  6 26  1  0  0  0
 26 27  1  0  0  0
 27 28  1  0  0  0
 28 29  1  0  0  0
 29 30  1  0  0  0
 30 31  2  0  0  0
 31 32  1  0  0  0
 32 33  2  0  0  0
 33 34  1  0  0  0
 33 35  1  0  0  0
 35 36  2  0  0  0
 11 12  1  0  0  0
 12 13  2  0  0  0
 13  8  1  0  0  0
  6  1  2  0  0  0
 36 30  1  0  0  0
 25 19  1  0  0  0
 14 15  1  0  0  0
M  END
> <minimizedAffinity>
-7.61359

> <CNNscore>
0.0862225369

> <CNNaffinity>
6.5156264305

> <CNN_VS>
0.5617938638

> <CNNaffinity_variance>
0.5820160508

$$$$
[H]c1nc(N([H])[C@@]([H])(c2c([H])c([H])c(Cl)c([H])c2[H])C([H])([H])N([H])C([H])([H])[H])c2nc([H])c([H])c(C(=O)N([H])[H])c2n1


 29 31  0  0  0  0  0  0  0  0999 V2000
   -1.9350   22.5196  -26.1593 C   0  0  0  0  0  0  0  0  0  0  0  0
   -0.9836   22.5574  -27.1096 N   0  0  0  0  0  0  0  0  0  0  0  0
    0.3088   22.2397  -26.8236 C   0  0  0  0  0  0  0  0  0  0  0  0
    0.6870   21.8739  -25.5757 N   0  0  0  0  0  0  0  0  0  0  0  0
   -0.2145   21.8195  -24.5973 C   0  0  0  0  0  0  0  0  0  0  0  0
    0.1695   21.4466  -23.3256 C   0  0  0  0  0  0  0  0  0  0  0  0
   -0.8190   21.4135  -22.3668 C   0  0  0  0  0  0  0  0  0  0  0  0
   -2.1180   21.7388  -22.6783 C   0  0  0  0  0  0  0  0  0  0  0  0
   -2.4534   22.0965  -23.9256 N   0  0  0  0  0  0  0  0  0  0  0  0
   -1.5387   22.1463  -24.8946 C   0  0  0  0  0  0  0  0  0  0  0  0
    1.5425   21.0965  -22.9802 C   0  0  0  0  0  0  0  0  0  0  0  0
    2.5835   21.4292  -23.8625 N   0  0  0  0  0  0  0  0  0  0  0  0
    1.8208   20.4974  -21.9002 O   0  0  0  0  0  0  0  0  0  0  0  0
    3.3497   20.7088  -23.9840 H   0  0  0  0  0  0  0  0  0  0  0  0
    2.5900   22.3330  -24.3614 H   0  0  0  0  0  0  0  0  0  0  0  0
   -3.2807   22.8521  -26.4751 N   0  0  0  0  0  0  0  0  0  0  0  0
   -3.9749   22.0675  -26.4946 H   0  0  0  0  0  0  0  0  0  0  0  0
   -3.6903   24.2088  -26.7596 C   0  0  0  0  0  0  0  0  0  0  0  0
   -4.3384   24.2789  -28.0695 C   0  0  0  0  0  0  0  0  0  0  0  0
   -4.5075   25.4418  -28.7888 C   0  0  0  0  0  0  0  0  0  0  0  0
   -5.1256   25.4528  -30.0211 C   0  0  0  0  0  0  0  0  0  0  0  0
   -5.5948   24.2809  -30.5676 C   0  0  0  0  0  0  0  0  0  0  0  0
   -6.3834   24.2913  -32.1386 Cl  0  0  0  0  0  0  0  0  0  0  0  0
   -5.4374   23.1014  -29.8665 C   0  0  0  0  0  0  0  0  0  0  0  0
   -4.8180   23.1200  -28.6410 C   0  0  0  0  0  0  0  0  0  0  0  0
   -4.5314   24.7207  -25.6167 C   0  0  0  0  0  0  0  0  0  0  0  0
   -6.4485   23.5018  -24.8120 C   0  0  0  0  0  0  0  0  0  0  0  0
   -5.0301   23.6913  -24.7617 N   0  0  0  0  0  0  0  0  0  0  0  0
   -4.5673   22.8042  -24.9972 H   0  0  0  0  0  0  0  0  0  0  0  0
 27 28  1  0  0  0
 28 26  1  0  0  0
 26 18  1  0  0  0
 18 16  1  0  0  0
 16  1  1  0  0  0
  1  2  2  0  0  0
  2  3  1  0  0  0
  3  4  2  0  0  0
  4  5  1  0  0  0
  5  6  2  0  0  0
  6 11  1  0  0  0
 11 12  1  0  0  0
 11 13  2  0  0  0
  6  7  1  0  0  0
  7  8  2  0  0  0
  8  9  1  0  0  0
  9 10  2  0  0  0
 18 19  1  0  0  0
 19 20  2  0  0  0
 20 21  1  0  0  0
 21 22  2  0  0  0
 22 23  1  0  0  0
 22 24  1  0  0  0
 24 25  2  0  0  0
 10  1  1  0  0  0
 25 19  1  0  0  0
 10  5  1  0  0  0
 28 29  1  0  0  0
 16 17  1  0  0  0
 12 14  1  0  0  0
 12 15  1  0  0  0
M  END
> <minimizedAffinity>
-7.97257

> <CNNscore>
0.7882965803

> <CNNaffinity>
7.0151939392

> <CNN_VS>
5.5300536156

> <CNNaffinity_variance>
0.2415532172

$$$$
[H]c1nc(N([H])[C@@]([H])(c2c([H])c([H])c(Cl)c([H])c2[H])C([H])([H])N([H])C([H])([H])[H])c2nc([H])c([H])c(C(=O)N([H])[H])c2n1


 29 31  0  0  0  0  0  0  0  0999 V2000
   -4.6351   22.7502  -26.0038 C   0  0  0  0  0  0  0  0  0  0  0  0
   -5.9109   22.9991  -25.6572 N   0  0  0  0  0  0  0  0  0  0  0  0
   -6.7271   23.7345  -26.4610 C   0  0  0  0  0  0  0  0  0  0  0  0
   -6.2891   24.2428  -27.6375 N   0  0  0  0  0  0  0  0  0  0  0  0
   -5.0350   24.0263  -28.0290 C   0  0  0  0  0  0  0  0  0  0  0  0
   -4.5878   24.5433  -29.2276 C   0  0  0  0  0  0  0  0  0  0  0  0
   -3.2790   24.2772  -29.5648 C   0  0  0  0  0  0  0  0  0  0  0  0
   -2.4725   23.5323  -28.7372 C   0  0  0  0  0  0  0  0  0  0  0  0
   -2.9426   23.0463  -27.5801 N   0  0  0  0  0  0  0  0  0  0  0  0
   -4.2012   23.2720  -27.2018 C   0  0  0  0  0  0  0  0  0  0  0  0
   -5.4316   25.3331  -30.1171 C   0  0  0  0  0  0  0  0  0  0  0  0
   -6.2399   24.6810  -31.0626 N   0  0  0  0  0  0  0  0  0  0  0  0
   -5.4537   26.5976  -30.0580 O   0  0  0  0  0  0  0  0  0  0  0  0
   -6.3070   25.1306  -32.0187 H   0  0  0  0  0  0  0  0  0  0  0  0
   -6.7379   23.8083  -30.8257 H   0  0  0  0  0  0  0  0  0  0  0  0
   -3.7964   21.9784  -25.1540 N   0  0  0  0  0  0  0  0  0  0  0  0
   -3.5633   21.0062  -25.4677 H   0  0  0  0  0  0  0  0  0  0  0  0
   -3.2794   22.4972  -23.9079 C   0  0  0  0  0  0  0  0  0  0  0  0
   -1.8727   22.1271  -23.7491 C   0  0  0  0  0  0  0  0  0  0  0  0
   -1.3211   21.6661  -22.5738 C   0  0  0  0  0  0  0  0  0  0  0  0
    0.0126   21.3300  -22.4776 C   0  0  0  0  0  0  0  0  0  0  0  0
    0.8348   21.4505  -23.5738 C   0  0  0  0  0  0  0  0  0  0  0  0
    2.5356   21.0229  -23.4547 Cl  0  0  0  0  0  0  0  0  0  0  0  0
    0.3059   21.9103  -24.7640 C   0  0  0  0  0  0  0  0  0  0  0  0
   -1.0260   22.2379  -24.8310 C   0  0  0  0  0  0  0  0  0  0  0  0
   -3.5481   23.9801  -23.8410 C   0  0  0  0  0  0  0  0  0  0  0  0
   -4.7361   23.5115  -21.7970 C   0  0  0  0  0  0  0  0  0  0  0  0
   -4.6184   24.3330  -22.9639 N   0  0  0  0  0  0  0  0  0  0  0  0
   -4.5055   25.3120  -22.6716 H   0  0  0  0  0  0  0  0  0  0  0  0
 27 28  1  0  0  0
 28 26  1  0  0  0
 26 18  1  0  0  0
 18 16  1  0  0  0
 16  1  1  0  0  0
  1  2  2  0  0  0
  2  3  1  0  0  0
  3  4  2  0  0  0
  4  5  1  0  0  0
  5  6  2  0  0  0
  6 11  1  0  0  0
 11 12  1  0  0  0
 11 13  2  0  0  0
  6  7  1  0  0  0
  7  8  2  0  0  0
  8  9  1  0  0  0
  9 10  2  0  0  0
 18 19  1  0  0  0
 19 20  2  0  0  0
 20 21  1  0  0  0
 21 22  2  0  0  0
 22 23  1  0  0  0
 22 24  1  0  0  0
 24 25  2  0  0  0
 10  1  1  0  0  0
 25 19  1  0  0  0
 10  5  1  0  0  0
 28 29  1  0  0  0
 16 17  1  0  0  0
 12 14  1  0  0  0
 12 15  1  0  0  0
M  END
> <minimizedAffinity>
-7.51142

> <CNNscore>
0.6777019501

> <CNNaffinity>
6.9372024536

> <CNN_VS>
4.7013554573

> <CNNaffinity_variance>
0.1599991769

$$$$
[H]c1nc(N([H])[C@@]([H])(c2c([H])c([H])c(Cl)c([H])c2[H])C([H])([H])N([H])C([H])([H])[H])c2nc([H])c([H])c(C(=O)N([H])[H])c2n1


 29 31  0  0  0  0  0  0  0  0999 V2000
   -4.2949   23.2378  -25.2681 C   0  0  0  0  0  0  0  0  0  0  0  0
   -4.9508   23.5768  -26.3926 N   0  0  0  0  0  0  0  0  0  0  0  0
   -4.3078   23.6353  -27.5911 C   0  0  0  0  0  0  0  0  0  0  0  0
   -2.9871   23.3553  -27.6988 N   0  0  0  0  0  0  0  0  0  0  0  0
   -2.2899   23.0139  -26.6171 C   0  0  0  0  0  0  0  0  0  0  0  0
   -0.9444   22.7280  -26.7257 C   0  0  0  0  0  0  0  0  0  0  0  0
   -0.2907   22.3827  -25.5633 C   0  0  0  0  0  0  0  0  0  0  0  0
   -0.9604   22.3304  -24.3638 C   0  0  0  0  0  0  0  0  0  0  0  0
   -2.2684   22.6149  -24.2975 N   0  0  0  0  0  0  0  0  0  0  0  0
   -2.9529   22.9554  -25.3900 C   0  0  0  0  0  0  0  0  0  0  0  0
   -0.2208   22.7769  -27.9910 C   0  0  0  0  0  0  0  0  0  0  0  0
   -0.7384   23.5343  -29.0545 N   0  0  0  0  0  0  0  0  0  0  0  0
    0.8672   22.1508  -28.1554 O   0  0  0  0  0  0  0  0  0  0  0  0
   -0.6562   23.1110  -30.0213 H   0  0  0  0  0  0  0  0  0  0  0  0
   -1.1748   24.4552  -28.8893 H   0  0  0  0  0  0  0  0  0  0  0  0
   -4.9818   23.1791  -24.0247 N   0  0  0  0  0  0  0  0  0  0  0  0
   -5.3714   22.2499  -23.7374 H   0  0  0  0  0  0  0  0  0  0  0  0
   -5.1446   24.3418  -23.1815 C   0  0  0  0  0  0  0  0  0  0  0  0
   -6.5602   24.5540  -22.8780 C   0  0  0  0  0  0  0  0  0  0  0  0
   -7.1246   24.3548  -21.6370 C   0  0  0  0  0  0  0  0  0  0  0  0
   -8.4662   24.5704  -21.4038 C   0  0  0  0  0  0  0  0  0  0  0  0
   -9.2837   24.9967  -22.4246 C   0  0  0  0  0  0  0  0  0  0  0  0
  -10.9947   25.2726  -22.1308 Cl  0  0  0  0  0  0  0  0  0  0  0  0
   -8.7421   25.2040  -23.6782 C   0  0  0  0  0  0  0  0  0  0  0  0
   -7.4025   24.9812  -23.8819 C   0  0  0  0  0  0  0  0  0  0  0  0
   -4.2587   24.2002  -21.9687 C   0  0  0  0  0  0  0  0  0  0  0  0
   -4.2459   22.3116  -20.4715 C   0  0  0  0  0  0  0  0  0  0  0  0
   -3.8250   22.8616  -21.7247 N   0  0  0  0  0  0  0  0  0  0  0  0
   -4.1604   22.2552  -22.4838 H   0  0  0  0  0  0  0  0  0  0  0  0
 27 28  1  0  0  0
 28 26  1  0  0  0
 26 18  1  0  0  0
 18 16  1  0  0  0
 16  1  1  0  0  0
  1  2  2  0  0  0
  2  3  1  0  0  0
  3  4  2  0  0  0
  4  5  1  0  0  0
  5  6  2  0  0  0
  6 11  1  0  0  0
 11 12  1  0  0  0
 11 13  2  0  0  0
  6  7  1  0  0  0
  7  8  2  0  0  0
  8  9  1  0  0  0
  9 10  2  0  0  0
 18 19  1  0  0  0
 19 20  2  0  0  0
 20 21  1  0  0  0
 21 22  2  0  0  0
 22 23  1  0  0  0
 22 24  1  0  0  0
 24 25  2  0  0  0
 10  1  1  0  0  0
 25 19  1  0  0  0
 10  5  1  0  0  0
 28 29  1  0  0  0
 16 17  1  0  0  0
 12 14  1  0  0  0
 12 15  1  0  0  0
M  END
> <minimizedAffinity>
-6.73123

> <CNNscore>
0.5357373953

> <CNNaffinity>
6.4143571854

> <CNN_VS>
3.4364109039

> <CNNaffinity_variance>
0.4430511892

$$$$
[H]c1nc(N([H])[C@@]([H])(c2c([H])c([H])c(Cl)c([H])c2[H])C([H])([H])N([H])C([H])([H])[H])c2nc([H])c([H])c(C(=O)N([H])[H])c2n1


 29 31  0  0  0  0  0  0  0  0999 V2000
   -5.0730   23.1938  -26.8582 C   0  0  0  0  0  0  0  0  0  0  0  0
   -5.3184   23.3173  -28.1751 N   0  0  0  0  0  0  0  0  0  0  0  0
   -4.3061   23.2870  -29.0848 C   0  0  0  0  0  0  0  0  0  0  0  0
   -3.0164   23.1318  -28.7018 N   0  0  0  0  0  0  0  0  0  0  0  0
   -2.7174   23.0046  -27.4106 C   0  0  0  0  0  0  0  0  0  0  0  0
   -1.4038   22.8459  -27.0193 C   0  0  0  0  0  0  0  0  0  0  0  0
   -1.1732   22.7208  -25.6669 C   0  0  0  0  0  0  0  0  0  0  0  0
   -2.2112   22.7546  -24.7661 C   0  0  0  0  0  0  0  0  0  0  0  0
   -3.4750   22.9103  -25.1840 N   0  0  0  0  0  0  0  0  0  0  0  0
   -3.7583   23.0364  -26.4809 C   0  0  0  0  0  0  0  0  0  0  0  0
   -0.2924   22.8058  -27.9627 C   0  0  0  0  0  0  0  0  0  0  0  0
   -0.3439   23.5922  -29.1253 N   0  0  0  0  0  0  0  0  0  0  0  0
    0.7223   22.0767  -27.7590 O   0  0  0  0  0  0  0  0  0  0  0  0
    0.0212   23.1478  -30.0141 H   0  0  0  0  0  0  0  0  0  0  0  0
   -0.7211   24.5529  -29.1019 H   0  0  0  0  0  0  0  0  0  0  0  0
   -6.1419   23.2251  -25.9214 N   0  0  0  0  0  0  0  0  0  0  0  0
   -6.4003   22.3202  -25.4607 H   0  0  0  0  0  0  0  0  0  0  0  0
   -6.8521   24.4441  -25.6067 C   0  0  0  0  0  0  0  0  0  0  0  0
   -7.3880   24.3822  -24.2466 C   0  0  0  0  0  0  0  0  0  0  0  0
   -8.4103   25.1793  -23.7799 C   0  0  0  0  0  0  0  0  0  0  0  0
   -8.8793   25.0802  -22.4872 C   0  0  0  0  0  0  0  0  0  0  0  0
   -8.3256   24.1663  -21.6210 C   0  0  0  0  0  0  0  0  0  0  0  0
   -8.9212   24.0372  -19.9722 Cl  0  0  0  0  0  0  0  0  0  0  0  0
   -7.2994   23.3552  -22.0646 C   0  0  0  0  0  0  0  0  0  0  0  0
   -6.8521   23.4757  -23.3574 C   0  0  0  0  0  0  0  0  0  0  0  0
   -5.9496   25.6237  -25.8709 C   0  0  0  0  0  0  0  0  0  0  0  0
   -4.2259   27.0668  -25.0018 C   0  0  0  0  0  0  0  0  0  0  0  0
   -5.0610   25.9224  -24.7936 N   0  0  0  0  0  0  0  0  0  0  0  0
   -5.6080   26.0615  -23.9345 H   0  0  0  0  0  0  0  0  0  0  0  0
 27 28  1  0  0  0
 28 26  1  0  0  0
 26 18  1  0  0  0
 18 16  1  0  0  0
 16  1  1  0  0  0
  1  2  2  0  0  0
  2  3  1  0  0  0
  3  4  2  0  0  0
  4  5  1  0  0  0
  5  6  2  0  0  0
  6 11  1  0  0  0
 11 12  1  0  0  0
 11 13  2  0  0  0
  6  7  1  0  0  0
  7  8  2  0  0  0
  8  9  1  0  0  0
  9 10  2  0  0  0
 18 19  1  0  0  0
 19 20  2  0  0  0
 20 21  1  0  0  0
 21 22  2  0  0  0
 22 23  1  0  0  0
 22 24  1  0  0  0
 24 25  2  0  0  0
 10  1  1  0  0  0
 25 19  1  0  0  0
 10  5  1  0  0  0
 28 29  1  0  0  0
 16 17  1  0  0  0
 12 14  1  0  0  0
 12 15  1  0  0  0
M  END
> <minimizedAffinity>
-7.38937

> <CNNscore>
0.5269043446

> <CNNaffinity>
6.6136217117

> <CNN_VS>
3.4847459793

> <CNNaffinity_variance>
0.3954201639

$$$$
[H]c1nc(N([H])[C@@]([H])(c2c([H])c([H])c(Cl)c([H])c2[H])C([H])([H])N([H])C([H])([H])[H])c2nc([H])c([H])c(C(=O)N([H])[H])c2n1


 29 31  0  0  0  0  0  0  0  0999 V2000
   -2.8674   22.9728  -28.2162 C   0  0  0  0  0  0  0  0  0  0  0  0
   -1.8070   23.2974  -28.9777 N   0  0  0  0  0  0  0  0  0  0  0  0
   -0.5432   23.2667  -28.4728 C   0  0  0  0  0  0  0  0  0  0  0  0
   -0.3038   22.9092  -27.1886 N   0  0  0  0  0  0  0  0  0  0  0  0
   -1.3173   22.5780  -26.3911 C   0  0  0  0  0  0  0  0  0  0  0  0
   -1.0745   22.2132  -25.0828 C   0  0  0  0  0  0  0  0  0  0  0  0
   -2.1731   21.8841  -24.3196 C   0  0  0  0  0  0  0  0  0  0  0  0
   -3.4407   21.9224  -24.8505 C   0  0  0  0  0  0  0  0  0  0  0  0
   -3.6374   22.2819  -26.1266 N   0  0  0  0  0  0  0  0  0  0  0  0
   -2.6118   22.6110  -26.9126 C   0  0  0  0  0  0  0  0  0  0  0  0
    0.2641   22.1653  -24.5059 C   0  0  0  0  0  0  0  0  0  0  0  0
    1.2065   23.1431  -24.8644 N   0  0  0  0  0  0  0  0  0  0  0  0
    0.5993   21.2605  -23.6864 O   0  0  0  0  0  0  0  0  0  0  0  0
    2.2009   22.8109  -25.0114 H   0  0  0  0  0  0  0  0  0  0  0  0
    0.9315   24.1319  -24.9762 H   0  0  0  0  0  0  0  0  0  0  0  0
   -4.1808   23.0078  -28.7596 N   0  0  0  0  0  0  0  0  0  0  0  0
   -4.5978   22.0949  -29.0608 H   0  0  0  0  0  0  0  0  0  0  0  0
   -4.9224   24.2408  -28.8978 C   0  0  0  0  0  0  0  0  0  0  0  0
   -5.5573   24.5958  -27.6282 C   0  0  0  0  0  0  0  0  0  0  0  0
   -6.5324   23.8420  -27.0125 C   0  0  0  0  0  0  0  0  0  0  0  0
   -7.0986   24.2219  -25.8141 C   0  0  0  0  0  0  0  0  0  0  0  0
   -6.6937   25.3830  -25.1976 C   0  0  0  0  0  0  0  0  0  0  0  0
   -7.4135   25.8702  -23.6697 Cl  0  0  0  0  0  0  0  0  0  0  0  0
   -5.7174   26.1564  -25.7945 C   0  0  0  0  0  0  0  0  0  0  0  0
   -5.1710   25.7538  -26.9883 C   0  0  0  0  0  0  0  0  0  0  0  0
   -4.0125   25.3037  -29.4616 C   0  0  0  0  0  0  0  0  0  0  0  0
   -5.5167   26.4061  -30.9882 C   0  0  0  0  0  0  0  0  0  0  0  0
   -4.3083   25.6583  -30.8129 N   0  0  0  0  0  0  0  0  0  0  0  0
   -3.5237   26.1986  -31.1989 H   0  0  0  0  0  0  0  0  0  0  0  0
 27 28  1  0  0  0
 28 26  1  0  0  0
 26 18  1  0  0  0
 18 16  1  0  0  0
 16  1  1  0  0  0
  1  2  2  0  0  0
  2  3  1  0  0  0
  3  4  2  0  0  0
  4  5  1  0  0  0
  5  6  2  0  0  0
  6 11  1  0  0  0
 11 12  1  0  0  0
 11 13  2  0  0  0
  6  7  1  0  0  0
  7  8  2  0  0  0
  8  9  1  0  0  0
  9 10  2  0  0  0
 18 19  1  0  0  0
 19 20  2  0  0  0
 20 21  1  0  0  0
 21 22  2  0  0  0
 22 23  1  0  0  0
 22 24  1  0  0  0
 24 25  2  0  0  0
 10  1  1  0  0  0
 25 19  1  0  0  0
 10  5  1  0  0  0
 28 29  1  0  0  0
 16 17  1  0  0  0
 12 14  1  0  0  0
 12 15  1  0  0  0
M  END
> <minimizedAffinity>
-7.72744

> <CNNscore>
0.5130988955

> <CNNaffinity>
7.0230941772

> <CNN_VS>
3.6035418510

> <CNNaffinity_variance>
0.1834211349

$$$$
[H]c1nc(N([H])[C@@]([H])(c2c([H])c([H])c(Cl)c([H])c2[H])C([H])([H])N([H])C([H])([H])[H])c2nc([H])c([H])c(C(=O)N([H])[H])c2n1


 29 31  0  0  0  0  0  0  0  0999 V2000
   -4.1986   22.0672  -24.4303 C   0  0  0  0  0  0  0  0  0  0  0  0
   -3.5091   21.6260  -23.3627 N   0  0  0  0  0  0  0  0  0  0  0  0
   -2.1526   21.5180  -23.3974 C   0  0  0  0  0  0  0  0  0  0  0  0
   -1.4455   21.8493  -24.5040 N   0  0  0  0  0  0  0  0  0  0  0  0
   -2.0780   22.2919  -25.5888 C   0  0  0  0  0  0  0  0  0  0  0  0
   -1.3585   22.6302  -26.7166 C   0  0  0  0  0  0  0  0  0  0  0  0
   -2.0824   23.0801  -27.7989 C   0  0  0  0  0  0  0  0  0  0  0  0
   -3.4523   23.1810  -27.7413 C   0  0  0  0  0  0  0  0  0  0  0  0
   -4.1170   22.8430  -26.6276 N   0  0  0  0  0  0  0  0  0  0  0  0
   -3.4691   22.4011  -25.5492 C   0  0  0  0  0  0  0  0  0  0  0  0
    0.0945   22.5310  -26.7923 C   0  0  0  0  0  0  0  0  0  0  0  0
    0.8770   23.0245  -25.7355 N   0  0  0  0  0  0  0  0  0  0  0  0
    0.6708   22.0088  -27.7912 O   0  0  0  0  0  0  0  0  0  0  0  0
    1.7664   23.5330  -26.0021 H   0  0  0  0  0  0  0  0  0  0  0  0
    0.5889   22.8924  -24.7529 H   0  0  0  0  0  0  0  0  0  0  0  0
   -5.6151   22.1765  -24.3767 N   0  0  0  0  0  0  0  0  0  0  0  0
   -6.1708   21.3485  -24.6984 H   0  0  0  0  0  0  0  0  0  0  0  0
   -6.2760   23.3712  -23.9020 C   0  0  0  0  0  0  0  0  0  0  0  0
   -7.1329   23.0564  -22.7585 C   0  0  0  0  0  0  0  0  0  0  0  0
   -7.1836   21.8240  -22.1446 C   0  0  0  0  0  0  0  0  0  0  0  0
   -8.0096   21.5798  -21.0680 C   0  0  0  0  0  0  0  0  0  0  0  0
   -8.8148   22.5806  -20.5759 C   0  0  0  0  0  0  0  0  0  0  0  0
   -9.8691   22.2727  -19.2034 Cl  0  0  0  0  0  0  0  0  0  0  0  0
   -8.7824   23.8253  -21.1737 C   0  0  0  0  0  0  0  0  0  0  0  0
   -7.9501   24.0402  -22.2446 C   0  0  0  0  0  0  0  0  0  0  0  0
   -5.2405   24.4351  -23.6343 C   0  0  0  0  0  0  0  0  0  0  0  0
   -6.3035   26.2854  -24.7546 C   0  0  0  0  0  0  0  0  0  0  0  0
   -5.1593   25.4303  -24.6553 N   0  0  0  0  0  0  0  0  0  0  0  0
   -4.3245   26.0085  -24.4964 H   0  0  0  0  0  0  0  0  0  0  0  0
 27 28  1  0  0  0
 28 26  1  0  0  0
 26 18  1  0  0  0
 18 16  1  0  0  0
 16  1  1  0  0  0
  1  2  2  0  0  0
  2  3  1  0  0  0
  3  4  2  0  0  0
  4  5  1  0  0  0
  5  6  2  0  0  0
  6 11  1  0  0  0
 11 12  1  0  0  0
 11 13  2  0  0  0
  6  7  1  0  0  0
  7  8  2  0  0  0
  8  9  1  0  0  0
  9 10  2  0  0  0
 18 19  1  0  0  0
 19 20  2  0  0  0
 20 21  1  0  0  0
 21 22  2  0  0  0
 22 23  1  0  0  0
 22 24  1  0  0  0
 24 25  2  0  0  0
 10  1  1  0  0  0
 25 19  1  0  0  0
 10  5  1  0  0  0
 28 29  1  0  0  0
 16 17  1  0  0  0
 12 14  1  0  0  0
 12 15  1  0  0  0
M  END
> <minimizedAffinity>
-7.23249

> <CNNscore>
0.4393999279

> <CNNaffinity>
6.3267908096

> <CNN_VS>
2.7799913883

> <CNNaffinity_variance>
0.2884581983

$$$$
[H]c1nc(N([H])[C@@]([H])(c2c([H])c([H])c(Cl)c([H])c2[H])C([H])([H])N([H])C([H])([H])[H])c2nc([H])c([H])c(C(=O)N([H])[H])c2n1


 29 31  0  0  0  0  0  0  0  0999 V2000
   -2.9583   23.4009  -26.3256 C   0  0  0  0  0  0  0  0  0  0  0  0
   -2.1887   22.8917  -27.3045 N   0  0  0  0  0  0  0  0  0  0  0  0
   -2.4500   23.1565  -28.6139 C   0  0  0  0  0  0  0  0  0  0  0  0
   -3.4913   23.9404  -28.9822 N   0  0  0  0  0  0  0  0  0  0  0  0
   -4.2849   24.4704  -28.0536 C   0  0  0  0  0  0  0  0  0  0  0  0
   -5.3457   25.2695  -28.4276 C   0  0  0  0  0  0  0  0  0  0  0  0
   -6.1215   25.7816  -27.4109 C   0  0  0  0  0  0  0  0  0  0  0  0
   -5.8389   25.5005  -26.0951 C   0  0  0  0  0  0  0  0  0  0  0  0
   -4.7992   24.7197  -25.7703 N   0  0  0  0  0  0  0  0  0  0  0  0
   -4.0136   24.1962  -26.7120 C   0  0  0  0  0  0  0  0  0  0  0  0
   -5.6568   25.5787  -29.8185 C   0  0  0  0  0  0  0  0  0  0  0  0
   -6.0158   24.5405  -30.6936 N   0  0  0  0  0  0  0  0  0  0  0  0
   -5.6110   26.7648  -30.2587 O   0  0  0  0  0  0  0  0  0  0  0  0
   -5.6260   24.5935  -31.6765 H   0  0  0  0  0  0  0  0  0  0  0  0
   -6.6289   23.7703  -30.3827 H   0  0  0  0  0  0  0  0  0  0  0  0
   -2.6702   23.1165  -24.9627 N   0  0  0  0  0  0  0  0  0  0  0  0
   -2.5590   23.9342  -24.3171 H   0  0  0  0  0  0  0  0  0  0  0  0
   -2.5332   21.7636  -24.4727 C   0  0  0  0  0  0  0  0  0  0  0  0
   -1.2155   21.5752  -23.8651 C   0  0  0  0  0  0  0  0  0  0  0  0
   -0.0227   21.7977  -24.5178 C   0  0  0  0  0  0  0  0  0  0  0  0
    1.1938   21.6052  -23.8981 C   0  0  0  0  0  0  0  0  0  0  0  0
    1.2420   21.1790  -22.5911 C   0  0  0  0  0  0  0  0  0  0  0  0
    2.7912   20.9326  -21.7979 Cl  0  0  0  0  0  0  0  0  0  0  0  0
    0.0600   20.9490  -21.9146 C   0  0  0  0  0  0  0  0  0  0  0  0
   -1.1373   21.1488  -22.5567 C   0  0  0  0  0  0  0  0  0  0  0  0
   -3.6935   21.4485  -23.5616 C   0  0  0  0  0  0  0  0  0  0  0  0
   -6.0561   21.6750  -23.9804 C   0  0  0  0  0  0  0  0  0  0  0  0
   -4.8464   20.9563  -24.2457 N   0  0  0  0  0  0  0  0  0  0  0  0
   -4.6679   20.9675  -25.2579 H   0  0  0  0  0  0  0  0  0  0  0  0
 27 28  1  0  0  0
 28 26  1  0  0  0
 26 18  1  0  0  0
 18 16  1  0  0  0
 16  1  1  0  0  0
  1  2  2  0  0  0
  2  3  1  0  0  0
  3  4  2  0  0  0
  4  5  1  0  0  0
  5  6  2  0  0  0
  6 11  1  0  0  0
 11 12  1  0  0  0
 11 13  2  0  0  0
  6  7  1  0  0  0
  7  8  2  0  0  0
  8  9  1  0  0  0
  9 10  2  0  0  0
 18 19  1  0  0  0
 19 20  2  0  0  0
 20 21  1  0  0  0
 21 22  2  0  0  0
 22 23  1  0  0  0
 22 24  1  0  0  0
 24 25  2  0  0  0
 10  1  1  0  0  0
 25 19  1  0  0  0
 10  5  1  0  0  0
 28 29  1  0  0  0
 16 17  1  0  0  0
 12 14  1  0  0  0
 12 15  1  0  0  0
M  END
> <minimizedAffinity>
-7.72833

> <CNNscore>
0.4204868376

> <CNNaffinity>
6.7552833557

> <CNN_VS>
2.8405077457

> <CNNaffinity_variance>
0.3939674497

$$$$
[H]c1nc(N([H])[C@@]([H])(c2c([H])c([H])c(Cl)c([H])c2[H])C([H])([H])N([H])C([H])([H])[H])c2nc([H])c([H])c(C(=O)N([H])[H])c2n1


 29 31  0  0  0  0  0  0  0  0999 V2000
   -1.7314   22.7659  -25.0929 C   0  0  0  0  0  0  0  0  0  0  0  0
   -0.9987   22.3025  -26.1215 N   0  0  0  0  0  0  0  0  0  0  0  0
   -1.4591   22.3731  -27.4006 C   0  0  0  0  0  0  0  0  0  0  0  0
   -2.6684   22.9110  -27.6877 N   0  0  0  0  0  0  0  0  0  0  0  0
   -3.4345   23.3850  -26.7072 C   0  0  0  0  0  0  0  0  0  0  0  0
   -4.6665   23.9336  -26.9986 C   0  0  0  0  0  0  0  0  0  0  0  0
   -5.4013   24.4028  -25.9320 C   0  0  0  0  0  0  0  0  0  0  0  0
   -4.9164   24.3208  -24.6481 C   0  0  0  0  0  0  0  0  0  0  0  0
   -3.7142   23.7811  -24.4039 N   0  0  0  0  0  0  0  0  0  0  0  0
   -2.9589   23.3105  -25.3969 C   0  0  0  0  0  0  0  0  0  0  0  0
   -5.1934   24.0297  -28.3550 C   0  0  0  0  0  0  0  0  0  0  0  0
   -4.6110   24.9318  -29.2604 N   0  0  0  0  0  0  0  0  0  0  0  0
   -6.1671   23.3173  -28.7386 O   0  0  0  0  0  0  0  0  0  0  0  0
   -5.2735   25.4587  -29.8962 H   0  0  0  0  0  0  0  0  0  0  0  0
   -3.5879   25.0658  -29.2946 H   0  0  0  0  0  0  0  0  0  0  0  0
   -1.2350   22.6868  -23.7630 N   0  0  0  0  0  0  0  0  0  0  0  0
   -0.8161   23.5570  -23.3567 H   0  0  0  0  0  0  0  0  0  0  0  0
   -1.2975   21.4663  -22.9911 C   0  0  0  0  0  0  0  0  0  0  0  0
    0.0440   21.0659  -22.5656 C   0  0  0  0  0  0  0  0  0  0  0  0
    0.3174   20.4000  -21.3909 C   0  0  0  0  0  0  0  0  0  0  0  0
    1.6017   20.0447  -21.0368 C   0  0  0  0  0  0  0  0  0  0  0  0
    2.6557   20.3537  -21.8649 C   0  0  0  0  0  0  0  0  0  0  0  0
    4.2943   19.9021  -21.4166 Cl  0  0  0  0  0  0  0  0  0  0  0  0
    2.4079   21.0210  -23.0486 C   0  0  0  0  0  0  0  0  0  0  0  0
    1.1188   21.3627  -23.3758 C   0  0  0  0  0  0  0  0  0  0  0  0
   -2.2845   21.6446  -21.8643 C   0  0  0  0  0  0  0  0  0  0  0  0
   -4.6296   21.9205  -21.3811 C   0  0  0  0  0  0  0  0  0  0  0  0
   -3.6313   21.3332  -22.2231 N   0  0  0  0  0  0  0  0  0  0  0  0
   -3.7984   21.6287  -23.1932 H   0  0  0  0  0  0  0  0  0  0  0  0
 27 28  1  0  0  0
 28 26  1  0  0  0
 26 18  1  0  0  0
 18 16  1  0  0  0
 16  1  1  0  0  0
  1  2  2  0  0  0
  2  3  1  0  0  0
  3  4  2  0  0  0
  4  5  1  0  0  0
  5  6  2  0  0  0
  6 11  1  0  0  0
 11 12  1  0  0  0
 11 13  2  0  0  0
  6  7  1  0  0  0
  7  8  2  0  0  0
  8  9  1  0  0  0
  9 10  2  0  0  0
 18 19  1  0  0  0
 19 20  2  0  0  0
 20 21  1  0  0  0
 21 22  2  0  0  0
 22 23  1  0  0  0
 22 24  1  0  0  0
 24 25  2  0  0  0
 10  1  1  0  0  0
 25 19  1  0  0  0
 10  5  1  0  0  0
 28 29  1  0  0  0
 16 17  1  0  0  0
 12 14  1  0  0  0
 12 15  1  0  0  0
M  END
> <minimizedAffinity>
-6.51117

> <CNNscore>
0.4118717909

> <CNNaffinity>
6.4615120888

> <CNN_VS>
2.6613144875

> <CNNaffinity_variance>
0.7884662747

$$$$
[H]c1nc(N([H])[C@@]([H])(c2c([H])c([H])c(Cl)c([H])c2[H])C([H])([H])N([H])C([H])([H])[H])c2nc([H])c([H])c(C(=O)N([H])[H])c2n1


 29 31  0  0  0  0  0  0  0  0999 V2000
   -3.4753   21.7896  -23.5708 C   0  0  0  0  0  0  0  0  0  0  0  0
   -4.4885   22.0517  -24.4159 N   0  0  0  0  0  0  0  0  0  0  0  0
   -4.2536   22.3641  -25.7198 C   0  0  0  0  0  0  0  0  0  0  0  0
   -2.9950   22.4231  -26.2166 N   0  0  0  0  0  0  0  0  0  0  0  0
   -1.9552   22.1722  -25.4236 C   0  0  0  0  0  0  0  0  0  0  0  0
   -0.6726   22.2315  -25.9287 C   0  0  0  0  0  0  0  0  0  0  0  0
    0.3511   21.9596  -25.0479 C   0  0  0  0  0  0  0  0  0  0  0  0
    0.0902   21.6465  -23.7348 C   0  0  0  0  0  0  0  0  0  0  0  0
   -1.1697   21.5984  -23.2802 N   0  0  0  0  0  0  0  0  0  0  0  0
   -2.2005   21.8525  -24.0870 C   0  0  0  0  0  0  0  0  0  0  0  0
   -0.3800   22.5597  -27.3192 C   0  0  0  0  0  0  0  0  0  0  0  0
   -1.4012   23.0670  -28.1393 N   0  0  0  0  0  0  0  0  0  0  0  0
    0.7767   22.3981  -27.8078 O   0  0  0  0  0  0  0  0  0  0  0  0
   -1.4280   22.7122  -29.1363 H   0  0  0  0  0  0  0  0  0  0  0  0
   -2.0850   23.7503  -27.7768 H   0  0  0  0  0  0  0  0  0  0  0  0
   -3.7380   21.4625  -22.2124 N   0  0  0  0  0  0  0  0  0  0  0  0
   -3.7929   20.4452  -21.9678 H   0  0  0  0  0  0  0  0  0  0  0  0
   -3.9241   22.4774  -21.2001 C   0  0  0  0  0  0  0  0  0  0  0  0
   -5.2510   23.0812  -21.3250 C   0  0  0  0  0  0  0  0  0  0  0  0
   -5.4732   24.4151  -21.5889 C   0  0  0  0  0  0  0  0  0  0  0  0
   -6.7459   24.9340  -21.6975 C   0  0  0  0  0  0  0  0  0  0  0  0
   -7.8401   24.1150  -21.5417 C   0  0  0  0  0  0  0  0  0  0  0  0
   -9.4642   24.7733  -21.6796 Cl  0  0  0  0  0  0  0  0  0  0  0  0
   -7.6440   22.7738  -21.2767 C   0  0  0  0  0  0  0  0  0  0  0  0
   -6.3652   22.2841  -21.1737 C   0  0  0  0  0  0  0  0  0  0  0  0
   -3.6320   21.8825  -19.8449 C   0  0  0  0  0  0  0  0  0  0  0  0
   -1.4293   22.8284  -19.5961 C   0  0  0  0  0  0  0  0  0  0  0  0
   -2.7431   22.6681  -19.0499 N   0  0  0  0  0  0  0  0  0  0  0  0
   -3.1568   23.5970  -18.9001 H   0  0  0  0  0  0  0  0  0  0  0  0
 27 28  1  0  0  0
 28 26  1  0  0  0
 26 18  1  0  0  0
 18 16  1  0  0  0
 16  1  1  0  0  0
  1  2  2  0  0  0
  2  3  1  0  0  0
  3  4  2  0  0  0
  4  5  1  0  0  0
  5  6  2  0  0  0
  6 11  1  0  0  0
 11 12  1  0  0  0
 11 13  2  0  0  0
  6  7  1  0  0  0
  7  8  2  0  0  0
  8  9  1  0  0  0
  9 10  2  0  0  0
 18 19  1  0  0  0
 19 20  2  0  0  0
 20 21  1  0  0  0
 21 22  2  0  0  0
 22 23  1  0  0  0
 22 24  1  0  0  0
 24 25  2  0  0  0
 10  1  1  0  0  0
 25 19  1  0  0  0
 10  5  1  0  0  0
 28 29  1  0  0  0
 16 17  1  0  0  0
 12 14  1  0  0  0
 12 15  1  0  0  0
M  END
> <minimizedAffinity>
-6.64948

> <CNNscore>
0.3483046293

> <CNNaffinity>
6.0426893234

> <CNN_VS>
2.1046967506

> <CNNaffinity_variance>
0.2225784957

$$$$
[H]Oc1c(OC([H])([H])[H])c(OC([H])([H])[H])c2c3c1-c1c([H])c([H])c([H])c([H])c1C([H])([H])[C@@]3([H])N([H])C([H])([H])C2([H])[H]


 24 27  0  0  0  0  0  0  0  0999 V2000
   -4.9394   23.5267  -27.3484 C   0  0  0  0  0  0  0  0  0  0  0  0
   -3.5939   23.2306  -27.1780 C   0  0  0  0  0  0  0  0  0  0  0  0
   -2.7891   23.5384  -28.2419 O   0  0  0  0  0  0  0  0  0  0  0  0
   -3.1945   22.6690  -25.9865 C   0  0  0  0  0  0  0  0  0  0  0  0
   -4.0885   22.3973  -24.9750 C   0  0  0  0  0  0  0  0  0  0  0  0
   -5.4277   22.7098  -25.1850 C   0  0  0  0  0  0  0  0  0  0  0  0
   -5.8677   23.2695  -26.3537 C   0  0  0  0  0  0  0  0  0  0  0  0
   -6.3765   22.4129  -24.0978 C   0  0  0  0  0  0  0  0  0  0  0  0
   -5.8123   22.5333  -22.7351 C   0  0  0  0  0  0  0  0  0  0  0  0
   -4.4524   22.2358  -22.5733 N   0  0  0  0  0  0  0  0  0  0  0  0
   -3.7355   21.7627  -23.7270 C   0  0  0  0  0  0  0  0  0  0  0  0
   -2.2984   21.7437  -23.3975 C   0  0  0  0  0  0  0  0  0  0  0  0
   -1.3737   21.9014  -24.5235 C   0  0  0  0  0  0  0  0  0  0  0  0
   -0.0178   21.5819  -24.3271 C   0  0  0  0  0  0  0  0  0  0  0  0
    0.9149   21.7522  -25.3042 C   0  0  0  0  0  0  0  0  0  0  0  0
    0.4833   22.2507  -26.4984 C   0  0  0  0  0  0  0  0  0  0  0  0
   -0.8517   22.5883  -26.7609 C   0  0  0  0  0  0  0  0  0  0  0  0
   -1.7700   22.4074  -25.7638 C   0  0  0  0  0  0  0  0  0  0  0  0
   -3.0901   23.9465  -29.1009 H   0  0  0  0  0  0  0  0  0  0  0  0
   -4.2702   21.5369  -21.8002 H   0  0  0  0  0  0  0  0  0  0  0  0
   -5.6700   23.3876  -29.7033 C   0  0  0  0  0  0  0  0  0  0  0  0
   -5.3655   24.0902  -28.5342 O   0  0  0  0  0  0  0  0  0  0  0  0
   -7.2131   23.5648  -26.5199 O   0  0  0  0  0  0  0  0  0  0  0  0
   -7.7389   24.7704  -26.0151 C   0  0  0  0  0  0  0  0  0  0  0  0
 21 22  1  0  0  0
 22  1  1  0  0  0
  1  2  2  0  0  0
  2  3  1  0  0  0
  2  4  1  0  0  0
  4  5  2  0  0  0
  5  6  1  0  0  0
  6  7  2  0  0  0
  7 23  1  0  0  0
 23 24  1  0  0  0
  6  8  1  0  0  0
  8  9  1  0  0  0
  9 10  1  0  0  0
 10 11  1  0  0  0
 11 12  1  0  0  0
 12 13  1  0  0  0
 13 14  2  0  0  0
 14 15  1  0  0  0
 15 16  2  0  0  0
 16 17  1  0  0  0
 17 18  2  0  0  0
  7  1  1  0  0  0
 18 13  1  0  0  0
 18  4  1  0  0  0
 11  5  1  0  0  0
  3 19  1  0  0  0
 10 20  1  0  0  0
M  END
> <minimizedAffinity>
-8.65585

> <CNNscore>
0.5508134961

> <CNNaffinity>
5.9386124611

> <CNN_VS>
3.2710678577

> <CNNaffinity_variance>
0.1816135198

$$$$
[H]Oc1c(OC([H])([H])[H])c(OC([H])([H])[H])c2c3c1-c1c([H])c([H])c([H])c([H])c1C([H])([H])[C@@]3([H])N([H])C([H])([H])C2([H])[H]


 24 27  0  0  0  0  0  0  0  0999 V2000
   -0.9220   22.6214  -24.6730 C   0  0  0  0  0  0  0  0  0  0  0  0
   -1.9338   22.3947  -23.7500 C   0  0  0  0  0  0  0  0  0  0  0  0
   -1.5133   22.1599  -22.4685 O   0  0  0  0  0  0  0  0  0  0  0  0
   -3.2378   22.4254  -24.1897 C   0  0  0  0  0  0  0  0  0  0  0  0
   -3.5553   22.6714  -25.5069 C   0  0  0  0  0  0  0  0  0  0  0  0
   -2.5123   22.8944  -26.3999 C   0  0  0  0  0  0  0  0  0  0  0  0
   -1.2022   22.8736  -26.0054 C   0  0  0  0  0  0  0  0  0  0  0  0
   -2.8624   23.1539  -27.8072 C   0  0  0  0  0  0  0  0  0  0  0  0
   -4.1455   23.8645  -28.0039 C   0  0  0  0  0  0  0  0  0  0  0  0
   -5.1599   23.6322  -27.0653 N   0  0  0  0  0  0  0  0  0  0  0  0
   -4.8997   22.6643  -26.0338 C   0  0  0  0  0  0  0  0  0  0  0  0
   -5.9829   22.7538  -25.0375 C   0  0  0  0  0  0  0  0  0  0  0  0
   -5.6398   22.3535  -23.6701 C   0  0  0  0  0  0  0  0  0  0  0  0
   -6.6851   22.1175  -22.7585 C   0  0  0  0  0  0  0  0  0  0  0  0
   -6.4513   21.7959  -21.4564 C   0  0  0  0  0  0  0  0  0  0  0  0
   -5.1489   21.7088  -21.0597 C   0  0  0  0  0  0  0  0  0  0  0  0
   -4.0610   21.9301  -21.9155 C   0  0  0  0  0  0  0  0  0  0  0  0
   -4.3217   22.2509  -23.2191 C   0  0  0  0  0  0  0  0  0  0  0  0
   -0.5644   22.1409  -22.1613 H   0  0  0  0  0  0  0  0  0  0  0  0
   -6.0800   23.3569  -27.5092 H   0  0  0  0  0  0  0  0  0  0  0  0
    1.1847   21.4497  -24.1365 C   0  0  0  0  0  0  0  0  0  0  0  0
    0.3940   22.5958  -24.2574 O   0  0  0  0  0  0  0  0  0  0  0  0
   -0.1937   23.1014  -26.9306 O   0  0  0  0  0  0  0  0  0  0  0  0
    0.3728   22.0225  -27.6377 C   0  0  0  0  0  0  0  0  0  0  0  0
 21 22  1  0  0  0
 22  1  1  0  0  0
  1  2  2  0  0  0
  2  3  1  0  0  0
  2  4  1  0  0  0
  4  5  2  0  0  0
  5  6  1  0  0  0
  6  7  2  0  0  0
  7 23  1  0  0  0
 23 24  1  0  0  0
  6  8  1  0  0  0
  8  9  1  0  0  0
  9 10  1  0  0  0
 10 11  1  0  0  0
 11 12  1  0  0  0
 12 13  1  0  0  0
 13 14  2  0  0  0
 14 15  1  0  0  0
 15 16  2  0  0  0
 16 17  1  0  0  0
 17 18  2  0  0  0
  7  1  1  0  0  0
 18 13  1  0  0  0
 18  4  1  0  0  0
 11  5  1  0  0  0
  3 19  1  0  0  0
 10 20  1  0  0  0
M  END
> <minimizedAffinity>
-6.91413

> <CNNscore>
0.5272846818

> <CNNaffinity>
5.9709787369

> <CNN_VS>
3.1484055519

> <CNNaffinity_variance>
0.1111215353

$$$$
[H]Oc1c(OC([H])([H])[H])c(OC([H])([H])[H])c2c3c1-c1c([H])c([H])c([H])c([H])c1C([H])([H])[C@@]3([H])N([H])C([H])([H])C2([H])[H]


 24 27  0  0  0  0  0  0  0  0999 V2000
   -3.9745   23.7425  -28.2808 C   0  0  0  0  0  0  0  0  0  0  0  0
   -2.7776   23.3001  -27.7343 C   0  0  0  0  0  0  0  0  0  0  0  0
   -1.6917   23.3810  -28.5641 O   0  0  0  0  0  0  0  0  0  0  0  0
   -2.7841   22.8316  -26.4400 C   0  0  0  0  0  0  0  0  0  0  0  0
   -3.9364   22.7918  -25.6871 C   0  0  0  0  0  0  0  0  0  0  0  0
   -5.1148   23.2450  -26.2713 C   0  0  0  0  0  0  0  0  0  0  0  0
   -5.1531   23.7192  -27.5543 C   0  0  0  0  0  0  0  0  0  0  0  0
   -6.3425   23.1956  -25.4584 C   0  0  0  0  0  0  0  0  0  0  0  0
   -6.1317   23.3979  -24.0077 C   0  0  0  0  0  0  0  0  0  0  0  0
   -4.9190   22.9514  -23.4655 N   0  0  0  0  0  0  0  0  0  0  0  0
   -4.0127   22.2636  -24.3454 C   0  0  0  0  0  0  0  0  0  0  0  0
   -2.7267   22.1008  -23.6428 C   0  0  0  0  0  0  0  0  0  0  0  0
   -1.5333   22.0116  -24.4887 C   0  0  0  0  0  0  0  0  0  0  0  0
   -0.3365   21.5478  -23.9126 C   0  0  0  0  0  0  0  0  0  0  0  0
    0.8286   21.4868  -24.6143 C   0  0  0  0  0  0  0  0  0  0  0  0
    0.7955   21.8969  -25.9150 C   0  0  0  0  0  0  0  0  0  0  0  0
   -0.3617   22.3683  -26.5504 C   0  0  0  0  0  0  0  0  0  0  0  0
   -1.5198   22.4192  -25.8248 C   0  0  0  0  0  0  0  0  0  0  0  0
   -1.6990   23.7236  -29.5010 H   0  0  0  0  0  0  0  0  0  0  0  0
   -5.0476   22.3275  -22.6207 H   0  0  0  0  0  0  0  0  0  0  0  0
   -3.7908   25.5460  -29.9578 C   0  0  0  0  0  0  0  0  0  0  0  0
   -3.9946   24.2169  -29.5769 O   0  0  0  0  0  0  0  0  0  0  0  0
   -6.3512   24.1613  -28.0968 O   0  0  0  0  0  0  0  0  0  0  0  0
   -6.7389   25.5076  -27.9492 C   0  0  0  0  0  0  0  0  0  0  0  0
 21 22  1  0  0  0
 22  1  1  0  0  0
  1  2  2  0  0  0
  2  3  1  0  0  0
  2  4  1  0  0  0
  4  5  2  0  0  0
  5  6  1  0  0  0
  6  7  2  0  0  0
  7 23  1  0  0  0
 23 24  1  0  0  0
  6  8  1  0  0  0
  8  9  1  0  0  0
  9 10  1  0  0  0
 10 11  1  0  0  0
 11 12  1  0  0  0
 12 13  1  0  0  0
 13 14  2  0  0  0
 14 15  1  0  0  0
 15 16  2  0  0  0
 16 17  1  0  0  0
 17 18  2  0  0  0
  7  1  1  0  0  0
 18 13  1  0  0  0
 18  4  1  0  0  0
 11  5  1  0  0  0
  3 19  1  0  0  0
 10 20  1  0  0  0
M  END
> <minimizedAffinity>
-8.21161

> <CNNscore>
0.5225702524

> <CNNaffinity>
6.0328140259

> <CNN_VS>
3.1525690556

> <CNNaffinity_variance>
0.2360357940

$$$$
[H]Oc1c(OC([H])([H])[H])c(OC([H])([H])[H])c2c3c1-c1c([H])c([H])c([H])c([H])c1C([H])([H])[C@@]3([H])N([H])C([H])([H])C2([H])[H]


 24 27  0  0  0  0  0  0  0  0999 V2000
   -1.8009   22.3764  -26.8008 C   0  0  0  0  0  0  0  0  0  0  0  0
   -2.3390   23.1923  -27.7866 C   0  0  0  0  0  0  0  0  0  0  0  0
   -1.5351   23.4008  -28.8750 O   0  0  0  0  0  0  0  0  0  0  0  0
   -3.6006   23.7072  -27.5915 C   0  0  0  0  0  0  0  0  0  0  0  0
   -4.3291   23.4352  -26.4551 C   0  0  0  0  0  0  0  0  0  0  0  0
   -3.7544   22.6126  -25.4916 C   0  0  0  0  0  0  0  0  0  0  0  0
   -2.5037   22.0791  -25.6453 C   0  0  0  0  0  0  0  0  0  0  0  0
   -4.5409   22.3299  -24.2784 C   0  0  0  0  0  0  0  0  0  0  0  0
   -6.0050   22.2820  -24.4882 C   0  0  0  0  0  0  0  0  0  0  0  0
   -6.5388   23.1065  -25.4879 N   0  0  0  0  0  0  0  0  0  0  0  0
   -5.6330   23.9882  -26.1738 C   0  0  0  0  0  0  0  0  0  0  0  0
   -6.3462   24.5741  -27.3237 C   0  0  0  0  0  0  0  0  0  0  0  0
   -5.5173   24.9763  -28.4634 C   0  0  0  0  0  0  0  0  0  0  0  0
   -6.0836   25.8141  -29.4414 C   0  0  0  0  0  0  0  0  0  0  0  0
   -5.3999   26.1887  -30.5576 C   0  0  0  0  0  0  0  0  0  0  0  0
   -4.1276   25.7168  -30.6974 C   0  0  0  0  0  0  0  0  0  0  0  0
   -3.5033   24.8805  -29.7615 C   0  0  0  0  0  0  0  0  0  0  0  0
   -4.2104   24.5190  -28.6481 C   0  0  0  0  0  0  0  0  0  0  0  0
   -0.6220   23.0211  -29.0057 H   0  0  0  0  0  0  0  0  0  0  0  0
   -7.3398   23.7071  -25.1457 H   0  0  0  0  0  0  0  0  0  0  0  0
    0.6597   22.4736  -26.6142 C   0  0  0  0  0  0  0  0  0  0  0  0
   -0.5375   21.8477  -26.9723 O   0  0  0  0  0  0  0  0  0  0  0  0
   -1.9696   21.2634  -24.6582 O   0  0  0  0  0  0  0  0  0  0  0  0
   -1.2171   21.8257  -23.6083 C   0  0  0  0  0  0  0  0  0  0  0  0
 21 22  1  0  0  0
 22  1  1  0  0  0
  1  2  2  0  0  0
  2  3  1  0  0  0
  2  4  1  0  0  0
  4  5  2  0  0  0
  5  6  1  0  0  0
  6  7  2  0  0  0
  7 23  1  0  0  0
 23 24  1  0  0  0
  6  8  1  0  0  0
  8  9  1  0  0  0
  9 10  1  0  0  0
 10 11  1  0  0  0
 11 12  1  0  0  0
 12 13  1  0  0  0
 13 14  2  0  0  0
 14 15  1  0  0  0
 15 16  2  0  0  0
 16 17  1  0  0  0
 17 18  2  0  0  0
  7  1  1  0  0  0
 18 13  1  0  0  0
 18  4  1  0  0  0
 11  5  1  0  0  0
  3 19  1  0  0  0
 10 20  1  0  0  0
M  END
> <minimizedAffinity>
-8.09407

> <CNNscore>
0.4763557911

> <CNNaffinity>
6.1892542839

> <CNN_VS>
2.9482870102

> <CNNaffinity_variance>
0.4464544356

$$$$
[H]Oc1c(OC([H])([H])[H])c(OC([H])([H])[H])c2c3c1-c1c([H])c([H])c([H])c([H])c1C([H])([H])[C@@]3([H])N([H])C([H])([H])C2([H])[H]


 24 27  0  0  0  0  0  0  0  0999 V2000
   -5.6240   22.9354  -25.3735 C   0  0  0  0  0  0  0  0  0  0  0  0
   -4.4516   22.9417  -26.1168 C   0  0  0  0  0  0  0  0  0  0  0  0
   -4.5816   23.3764  -27.4085 O   0  0  0  0  0  0  0  0  0  0  0  0
   -3.2902   22.5229  -25.5083 C   0  0  0  0  0  0  0  0  0  0  0  0
   -3.2671   22.1025  -24.1972 C   0  0  0  0  0  0  0  0  0  0  0  0
   -4.4631   22.1120  -23.4867 C   0  0  0  0  0  0  0  0  0  0  0  0
   -5.6400   22.5211  -24.0523 C   0  0  0  0  0  0  0  0  0  0  0  0
   -4.4282   21.6579  -22.0856 C   0  0  0  0  0  0  0  0  0  0  0  0
   -3.1634   21.9464  -21.3737 C   0  0  0  0  0  0  0  0  0  0  0  0
   -1.9853   21.9541  -22.1328 N   0  0  0  0  0  0  0  0  0  0  0  0
   -2.0908   21.6045  -23.5240 C   0  0  0  0  0  0  0  0  0  0  0  0
   -0.8011   21.9067  -24.1716 C   0  0  0  0  0  0  0  0  0  0  0  0
   -0.8523   22.2184  -25.6026 C   0  0  0  0  0  0  0  0  0  0  0  0
    0.3488   22.2051  -26.3349 C   0  0  0  0  0  0  0  0  0  0  0  0
    0.3957   22.5361  -27.6547 C   0  0  0  0  0  0  0  0  0  0  0  0
   -0.7797   22.8864  -28.2520 C   0  0  0  0  0  0  0  0  0  0  0  0
   -2.0105   22.9194  -27.5819 C   0  0  0  0  0  0  0  0  0  0  0  0
   -2.0319   22.5818  -26.2569 C   0  0  0  0  0  0  0  0  0  0  0  0
   -5.4294   23.6787  -27.8387 H   0  0  0  0  0  0  0  0  0  0  0  0
   -1.2263   21.3393  -21.7262 H   0  0  0  0  0  0  0  0  0  0  0  0
   -7.2707   24.6667  -25.9976 C   0  0  0  0  0  0  0  0  0  0  0  0
   -6.8022   23.3506  -25.9607 O   0  0  0  0  0  0  0  0  0  0  0  0
   -6.8096   22.5141  -23.3060 O   0  0  0  0  0  0  0  0  0  0  0  0
   -7.1735   23.6479  -22.5531 C   0  0  0  0  0  0  0  0  0  0  0  0
 21 22  1  0  0  0
 22  1  1  0  0  0
  1  2  2  0  0  0
  2  3  1  0  0  0
  2  4  1  0  0  0
  4  5  2  0  0  0
  5  6  1  0  0  0
  6  7  2  0  0  0
  7 23  1  0  0  0
 23 24  1  0  0  0
  6  8  1  0  0  0
  8  9  1  0  0  0
  9 10  1  0  0  0
 10 11  1  0  0  0
 11 12  1  0  0  0
 12 13  1  0  0  0
 13 14  2  0  0  0
 14 15  1  0  0  0
 15 16  2  0  0  0
 16 17  1  0  0  0
 17 18  2  0  0  0
  7  1  1  0  0  0
 18 13  1  0  0  0
 18  4  1  0  0  0
 11  5  1  0  0  0
  3 19  1  0  0  0
 10 20  1  0  0  0
M  END
> <minimizedAffinity>
-8.31160

> <CNNscore>
0.4568943977

> <CNNaffinity>
5.6559371948

> <CNN_VS>
2.5841660500

> <CNNaffinity_variance>
0.1108097583

$$$$
[H]Oc1c(OC([H])([H])[H])c(OC([H])([H])[H])c2c3c1-c1c([H])c([H])c([H])c([H])c1C([H])([H])[C@@]3([H])N([H])C([H])([H])C2([H])[H]


 24 27  0  0  0  0  0  0  0  0999 V2000
   -4.4063   22.8821  -26.3939 C   0  0  0  0  0  0  0  0  0  0  0  0
   -3.7183   22.4489  -25.2687 C   0  0  0  0  0  0  0  0  0  0  0  0
   -4.5035   22.0962  -24.2041 O   0  0  0  0  0  0  0  0  0  0  0  0
   -2.3432   22.4111  -25.3182 C   0  0  0  0  0  0  0  0  0  0  0  0
   -1.6456   22.7896  -26.4435 C   0  0  0  0  0  0  0  0  0  0  0  0
   -2.3723   23.2167  -27.5501 C   0  0  0  0  0  0  0  0  0  0  0  0
   -3.7397   23.2692  -27.5442 C   0  0  0  0  0  0  0  0  0  0  0  0
   -1.6165   23.6221  -28.7480 C   0  0  0  0  0  0  0  0  0  0  0  0
   -0.3487   22.8879  -28.9565 C   0  0  0  0  0  0  0  0  0  0  0  0
    0.3371   22.4514  -27.8149 N   0  0  0  0  0  0  0  0  0  0  0  0
   -0.2048   22.8198  -26.5347 C   0  0  0  0  0  0  0  0  0  0  0  0
    0.5226   22.0681  -25.4955 C   0  0  0  0  0  0  0  0  0  0  0  0
   -0.2116   21.8014  -24.2555 C   0  0  0  0  0  0  0  0  0  0  0  0
    0.5119   21.3760  -23.1265 C   0  0  0  0  0  0  0  0  0  0  0  0
   -0.1000   21.0550  -21.9534 C   0  0  0  0  0  0  0  0  0  0  0  0
   -1.4593   21.1616  -21.9094 C   0  0  0  0  0  0  0  0  0  0  0  0
   -2.2401   21.5798  -22.9959 C   0  0  0  0  0  0  0  0  0  0  0  0
   -1.6022   21.8976  -24.1630 C   0  0  0  0  0  0  0  0  0  0  0  0
   -5.5003   22.1270  -24.1802 H   0  0  0  0  0  0  0  0  0  0  0  0
    1.3539   22.7441  -27.8051 H   0  0  0  0  0  0  0  0  0  0  0  0
   -6.5535   24.0482  -26.0358 C   0  0  0  0  0  0  0  0  0  0  0  0
   -5.7856   22.9293  -26.3697 O   0  0  0  0  0  0  0  0  0  0  0  0
   -4.4238   23.7019  -28.6710 O   0  0  0  0  0  0  0  0  0  0  0  0
   -5.0163   22.7650  -29.5404 C   0  0  0  0  0  0  0  0  0  0  0  0
 21 22  1  0  0  0
 22  1  1  0  0  0
  1  2  2  0  0  0
  2  3  1  0  0  0
  2  4  1  0  0  0
  4  5  2  0  0  0
  5  6  1  0  0  0
  6  7  2  0  0  0
  7 23  1  0  0  0
 23 24  1  0  0  0
  6  8  1  0  0  0
  8  9  1  0  0  0
  9 10  1  0  0  0
 10 11  1  0  0  0
 11 12  1  0  0  0
 12 13  1  0  0  0
 13 14  2  0  0  0
 14 15  1  0  0  0
 15 16  2  0  0  0
 16 17  1  0  0  0
 17 18  2  0  0  0
  7  1  1  0  0  0
 18 13  1  0  0  0
 18  4  1  0  0  0
 11  5  1  0  0  0
  3 19  1  0  0  0
 10 20  1  0  0  0
M  END
> <minimizedAffinity>
-7.99713

> <CNNscore>
0.3749331236

> <CNNaffinity>
5.9700479507

> <CNN_VS>
2.2383687496

> <CNNaffinity_variance>
0.2606047094

$$$$
[H]Oc1c(OC([H])([H])[H])c(OC([H])([H])[H])c2c3c1-c1c([H])c([H])c([H])c([H])c1C([H])([H])[C@@]3([H])N([H])C([H])([H])C2([H])[H]


 24 27  0  0  0  0  0  0  0  0999 V2000
    0.2078   21.3755  -22.3821 C   0  0  0  0  0  0  0  0  0  0  0  0
    0.2764   21.6906  -23.7323 C   0  0  0  0  0  0  0  0  0  0  0  0
    1.5260   21.6159  -24.2865 O   0  0  0  0  0  0  0  0  0  0  0  0
   -0.8860   22.0407  -24.3811 C   0  0  0  0  0  0  0  0  0  0  0  0
   -2.0977   22.0857  -23.7284 C   0  0  0  0  0  0  0  0  0  0  0  0
   -2.1238   21.7620  -22.3757 C   0  0  0  0  0  0  0  0  0  0  0  0
   -0.9924   21.4080  -21.6923 C   0  0  0  0  0  0  0  0  0  0  0  0
   -3.4245   21.8158  -21.6861 C   0  0  0  0  0  0  0  0  0  0  0  0
   -4.5879   21.4714  -22.5333 C   0  0  0  0  0  0  0  0  0  0  0  0
   -4.5083   21.7901  -23.8957 N   0  0  0  0  0  0  0  0  0  0  0  0
   -3.3378   22.4953  -24.3443 C   0  0  0  0  0  0  0  0  0  0  0  0
   -3.3503   22.5129  -25.8186 C   0  0  0  0  0  0  0  0  0  0  0  0
   -2.0436   22.6020  -26.4762 C   0  0  0  0  0  0  0  0  0  0  0  0
   -2.0022   22.9358  -27.8423 C   0  0  0  0  0  0  0  0  0  0  0  0
   -0.8342   22.9856  -28.5402 C   0  0  0  0  0  0  0  0  0  0  0  0
    0.3120   22.6966  -27.8593 C   0  0  0  0  0  0  0  0  0  0  0  0
    0.3418   22.3581  -26.4993 C   0  0  0  0  0  0  0  0  0  0  0  0
   -0.8442   22.3156  -25.8199 C   0  0  0  0  0  0  0  0  0  0  0  0
    2.3618   21.3599  -23.8060 H   0  0  0  0  0  0  0  0  0  0  0  0
   -5.3417   22.3427  -24.2414 H   0  0  0  0  0  0  0  0  0  0  0  0
    1.7431   19.7164  -21.3877 C   0  0  0  0  0  0  0  0  0  0  0  0
    1.3594   21.0214  -21.7084 O   0  0  0  0  0  0  0  0  0  0  0  0
   -1.0650   21.0929  -20.3431 O   0  0  0  0  0  0  0  0  0  0  0  0
   -0.7665   22.0698  -19.3728 C   0  0  0  0  0  0  0  0  0  0  0  0
 21 22  1  0  0  0
 22  1  1  0  0  0
  1  2  2  0  0  0
  2  3  1  0  0  0
  2  4  1  0  0  0
  4  5  2  0  0  0
  5  6  1  0  0  0
  6  7  2  0  0  0
  7 23  1  0  0  0
 23 24  1  0  0  0
  6  8  1  0  0  0
  8  9  1  0  0  0
  9 10  1  0  0  0
 10 11  1  0  0  0
 11 12  1  0  0  0
 12 13  1  0  0  0
 13 14  2  0  0  0
 14 15  1  0  0  0
 15 16  2  0  0  0
 16 17  1  0  0  0
 17 18  2  0  0  0
  7  1  1  0  0  0
 18 13  1  0  0  0
 18  4  1  0  0  0
 11  5  1  0  0  0
  3 19  1  0  0  0
 10 20  1  0  0  0
M  END
> <minimizedAffinity>
-7.86953

> <CNNscore>
0.3625108004

> <CNNaffinity>
5.4479322433

> <CNN_VS>
1.9749342203

> <CNNaffinity_variance>
0.1072542071

$$$$
[H]Oc1c(OC([H])([H])[H])c(OC([H])([H])[H])c2c3c1-c1c([H])c([H])c([H])c([H])c1C([H])([H])[C@@]3([H])N([H])C([H])([H])C2([H])[H]


 24 27  0  0  0  0  0  0  0  0999 V2000
   -4.8993   22.0881  -24.1840 C   0  0  0  0  0  0  0  0  0  0  0  0
   -3.6523   21.7953  -23.6490 C   0  0  0  0  0  0  0  0  0  0  0  0
   -3.6683   21.2628  -22.3879 O   0  0  0  0  0  0  0  0  0  0  0  0
   -2.5366   22.0573  -24.4115 C   0  0  0  0  0  0  0  0  0  0  0  0
   -2.6298   22.5971  -25.6749 C   0  0  0  0  0  0  0  0  0  0  0  0
   -3.8979   22.8752  -26.1748 C   0  0  0  0  0  0  0  0  0  0  0  0
   -5.0331   22.6300  -25.4512 C   0  0  0  0  0  0  0  0  0  0  0  0
   -3.9867   23.4550  -27.5263 C   0  0  0  0  0  0  0  0  0  0  0  0
   -2.9237   23.0168  -28.4578 C   0  0  0  0  0  0  0  0  0  0  0  0
   -1.6691   22.7200  -27.9084 N   0  0  0  0  0  0  0  0  0  0  0  0
   -1.4941   22.9404  -26.4979 C   0  0  0  0  0  0  0  0  0  0  0  0
   -0.2052   22.3467  -26.0976 C   0  0  0  0  0  0  0  0  0  0  0  0
   -0.1001   21.9062  -24.7038 C   0  0  0  0  0  0  0  0  0  0  0  0
    1.1770   21.6286  -24.1831 C   0  0  0  0  0  0  0  0  0  0  0  0
    1.3567   21.1628  -22.9165 C   0  0  0  0  0  0  0  0  0  0  0  0
    0.2391   20.9715  -22.1579 C   0  0  0  0  0  0  0  0  0  0  0  0
   -1.0612   21.2289  -22.6138 C   0  0  0  0  0  0  0  0  0  0  0  0
   -1.2157   21.6971  -23.8894 C   0  0  0  0  0  0  0  0  0  0  0  0
   -4.4841   21.0764  -21.8449 H   0  0  0  0  0  0  0  0  0  0  0  0
   -0.8751   23.2259  -28.3912 H   0  0  0  0  0  0  0  0  0  0  0  0
   -6.6222   22.7189  -22.5310 C   0  0  0  0  0  0  0  0  0  0  0  0
   -6.0337   21.8349  -23.4395 O   0  0  0  0  0  0  0  0  0  0  0  0
   -6.2778   22.9231  -25.9896 O   0  0  0  0  0  0  0  0  0  0  0  0
   -6.8370   24.2048  -25.8185 C   0  0  0  0  0  0  0  0  0  0  0  0
 21 22  1  0  0  0
 22  1  1  0  0  0
  1  2  2  0  0  0
  2  3  1  0  0  0
  2  4  1  0  0  0
  4  5  2  0  0  0
  5  6  1  0  0  0
  6  7  2  0  0  0
  7 23  1  0  0  0
 23 24  1  0  0  0
  6  8  1  0  0  0
  8  9  1  0  0  0
  9 10  1  0  0  0
 10 11  1  0  0  0
 11 12  1  0  0  0
 12 13  1  0  0  0
 13 14  2  0  0  0
 14 15  1  0  0  0
 15 16  2  0  0  0
 16 17  1  0  0  0
 17 18  2  0  0  0
  7  1  1  0  0  0
 18 13  1  0  0  0
 18  4  1  0  0  0
 11  5  1  0  0  0
  3 19  1  0  0  0
 10 20  1  0  0  0
M  END
> <minimizedAffinity>
-8.31706

> <CNNscore>
0.3593140244

> <CNNaffinity>
5.8649950027

> <CNN_VS>
2.1073749065

> <CNNaffinity_variance>
0.2511476278

$$$$
[H]Oc1c(OC([H])([H])[H])c(OC([H])([H])[H])c2c3c1-c1c([H])c([H])c([H])c([H])c1C([H])([H])[C@@]3([H])N([H])C([H])([H])C2([H])[H]


 24 27  0  0  0  0  0  0  0  0999 V2000
   -1.7324   22.3690  -24.7101 C   0  0  0  0  0  0  0  0  0  0  0  0
   -2.3798   22.5399  -25.9261 C   0  0  0  0  0  0  0  0  0  0  0  0
   -1.8624   21.8199  -26.9693 O   0  0  0  0  0  0  0  0  0  0  0  0
   -3.4575   23.3946  -25.9778 C   0  0  0  0  0  0  0  0  0  0  0  0
   -3.9000   24.0749  -24.8653 C   0  0  0  0  0  0  0  0  0  0  0  0
   -3.2245   23.8753  -23.6657 C   0  0  0  0  0  0  0  0  0  0  0  0
   -2.1492   23.0345  -23.5695 C   0  0  0  0  0  0  0  0  0  0  0  0
   -3.7040   24.6096  -22.4820 C   0  0  0  0  0  0  0  0  0  0  0  0
   -5.1630   24.8557  -22.4566 C   0  0  0  0  0  0  0  0  0  0  0  0
   -5.8086   25.0236  -23.6891 N   0  0  0  0  0  0  0  0  0  0  0  0
   -4.9902   25.0216  -24.8718 C   0  0  0  0  0  0  0  0  0  0  0  0
   -5.8812   24.9705  -26.0456 C   0  0  0  0  0  0  0  0  0  0  0  0
   -5.3245   24.3580  -27.2550 C   0  0  0  0  0  0  0  0  0  0  0  0
   -5.9935   24.5579  -28.4763 C   0  0  0  0  0  0  0  0  0  0  0  0
   -5.5734   23.9793  -29.6349 C   0  0  0  0  0  0  0  0  0  0  0  0
   -4.4647   23.1870  -29.5702 C   0  0  0  0  0  0  0  0  0  0  0  0
   -3.7510   22.9469  -28.3878 C   0  0  0  0  0  0  0  0  0  0  0  0
   -4.1922   23.5401  -27.2374 C   0  0  0  0  0  0  0  0  0  0  0  0
   -1.0806   21.2023  -26.9195 H   0  0  0  0  0  0  0  0  0  0  0  0
   -6.3960   25.9026  -23.7329 H   0  0  0  0  0  0  0  0  0  0  0  0
    0.6929   21.9042  -24.6886 C   0  0  0  0  0  0  0  0  0  0  0  0
   -0.6489   21.5175  -24.6318 O   0  0  0  0  0  0  0  0  0  0  0  0
   -1.5053   22.8655  -22.3522 O   0  0  0  0  0  0  0  0  0  0  0  0
   -1.8086   21.7541  -21.5413 C   0  0  0  0  0  0  0  0  0  0  0  0
 21 22  1  0  0  0
 22  1  1  0  0  0
  1  2  2  0  0  0
  2  3  1  0  0  0
  2  4  1  0  0  0
  4  5  2  0  0  0
  5  6  1  0  0  0
  6  7  2  0  0  0
  7 23  1  0  0  0
 23 24  1  0  0  0
  6  8  1  0  0  0
  8  9  1  0  0  0
  9 10  1  0  0  0
 10 11  1  0  0  0
 11 12  1  0  0  0
 12 13  1  0  0  0
 13 14  2  0  0  0
 14 15  1  0  0  0
 15 16  2  0  0  0
 16 17  1  0  0  0
 17 18  2  0  0  0
  7  1  1  0  0  0
 18 13  1  0  0  0
 18  4  1  0  0  0
 11  5  1  0  0  0
  3 19  1  0  0  0
 10 20  1  0  0  0
M  END
> <minimizedAffinity>
-7.72360

> <CNNscore>
0.3583422601

> <CNNaffinity>
5.7784528732

> <CNN_VS>
2.0706639290

> <CNNaffinity_variance>
0.4326083064

$$$$
[H]c1c([H])c([H])c(N([H])[C@@]2([H])c3c([H])c(-c4c([H])c([H])c(C(F)(F)F)c([H])c4[H])c([H])c([H])c3N(C(=O)C([H])([H])[H])[C@@]([H])(C([H])([H])[H])C2([H])[H])c([H])c1[H]


 32 35  0  0  0  0  0  0  0  0999 V2000
   -4.8849   21.9650  -18.2666 C   0  0  0  0  0  0  0  0  0  0  0  0
   -4.8953   20.7379  -17.4597 C   0  0  0  0  0  0  0  0  0  0  0  0
   -5.9841   20.0686  -17.4340 O   0  0  0  0  0  0  0  0  0  0  0  0
   -3.7854   20.2793  -16.7218 N   0  0  0  0  0  0  0  0  0  0  0  0
   -2.4536   20.7383  -16.8132 C   0  0  0  0  0  0  0  0  0  0  0  0
   -1.9834   21.2204  -18.0296 C   0  0  0  0  0  0  0  0  0  0  0  0
   -0.7069   21.7284  -18.0660 C   0  0  0  0  0  0  0  0  0  0  0  0
    0.1423   21.7919  -16.9778 C   0  0  0  0  0  0  0  0  0  0  0  0
   -0.3482   21.3007  -15.7919 C   0  0  0  0  0  0  0  0  0  0  0  0
   -1.6414   20.7746  -15.7061 C   0  0  0  0  0  0  0  0  0  0  0  0
   -2.0260   20.2199  -14.4019 C   0  0  0  0  0  0  0  0  0  0  0  0
   -3.4510   19.7417  -14.3615 C   0  0  0  0  0  0  0  0  0  0  0  0
   -3.9920   19.2657  -15.6675 C   0  0  0  0  0  0  0  0  0  0  0  0
   -3.5756   17.9230  -16.1386 C   0  0  0  0  0  0  0  0  0  0  0  0
    1.4854   22.3764  -17.0545 C   0  0  0  0  0  0  0  0  0  0  0  0
    2.0098   22.7600  -18.2816 C   0  0  0  0  0  0  0  0  0  0  0  0
    3.2409   23.3620  -18.4161 C   0  0  0  0  0  0  0  0  0  0  0  0
    3.9920   23.5911  -17.2717 C   0  0  0  0  0  0  0  0  0  0  0  0
    3.5052   23.2211  -16.0370 C   0  0  0  0  0  0  0  0  0  0  0  0
    2.2508   22.6142  -15.9441 C   0  0  0  0  0  0  0  0  0  0  0  0
    5.3307   24.2620  -17.4412 C   0  0  0  0  0  0  0  0  0  0  0  0
    5.1561   25.6161  -17.6744 F   0  0  0  0  0  0  0  0  0  0  0  0
    6.0456   23.7419  -18.4775 F   0  0  0  0  0  0  0  0  0  0  0  0
    5.9819   24.1740  -16.2138 F   0  0  0  0  0  0  0  0  0  0  0  0
   -1.1248   19.0832  -14.1225 N   0  0  0  0  0  0  0  0  0  0  0  0
   -0.6530   18.6517  -14.9475 H   0  0  0  0  0  0  0  0  0  0  0  0
   -0.9309   18.6143  -12.7925 C   0  0  0  0  0  0  0  0  0  0  0  0
   -0.4503   19.4719  -11.8158 C   0  0  0  0  0  0  0  0  0  0  0  0
   -0.3337   18.9982  -10.5317 C   0  0  0  0  0  0  0  0  0  0  0  0
   -0.6632   17.7210  -10.1532 C   0  0  0  0  0  0  0  0  0  0  0  0
   -1.1448   16.8492  -11.1212 C   0  0  0  0  0  0  0  0  0  0  0  0
   -1.2681   17.3113  -12.4131 C   0  0  0  0  0  0  0  0  0  0  0  0
  1  2  1  0  0  0
  2  3  2  0  0  0
  2  4  1  0  0  0
  4  5  1  0  0  0
  5  6  2  0  0  0
  6  7  1  0  0  0
  7  8  2  0  0  0
  8 15  1  0  0  0
 15 16  2  0  0  0
 16 17  1  0  0  0
 17 18  2  0  0  0
 18 21  1  0  0  0
 21 22  1  0  0  0
 21 23  1  0  0  0
 21 24  1  0  0  0
 18 19  1  0  0  0
 19 20  2  0  0  0
  8  9  1  0  0  0
  9 10  2  0  0  0
 10 11  1  0  0  0
 11 25  1  0  0  0
 25 27  1  0  0  0
 27 28  2  0  0  0
 28 29  1  0  0  0
 29 30  2  0  0  0
 30 31  1  0  0  0
 31 32  2  0  0  0
 11 12  1  0  0  0
 12 13  1  0  0  0
 13 14  1  0  0  0
 13  4  1  0  0  0
 10  5  1  0  0  0
 32 27  1  0  0  0
 20 15  1  0  0  0
 25 26  1  0  0  0
M  END
> <minimizedAffinity>
-4.08154

> <CNNscore>
0.6767605543

> <CNNaffinity>
5.3637208939

> <CNN_VS>
3.6299548149

> <CNNaffinity_variance>
0.3094797432

$$$$
[H]c1c([H])c([H])c(N([H])[C@@]2([H])c3c([H])c(-c4c([H])c([H])c(C(F)(F)F)c([H])c4[H])c([H])c([H])c3N(C(=O)C([H])([H])[H])[C@@]([H])(C([H])([H])[H])C2([H])[H])c([H])c1[H]


 32 35  0  0  0  0  0  0  0  0999 V2000
   -6.2064   21.1315  -19.3418 C   0  0  0  0  0  0  0  0  0  0  0  0
   -6.5341   22.0904  -18.2789 C   0  0  0  0  0  0  0  0  0  0  0  0
   -7.3834   23.0030  -18.5612 O   0  0  0  0  0  0  0  0  0  0  0  0
   -5.9606   22.0553  -16.9918 N   0  0  0  0  0  0  0  0  0  0  0  0
   -5.2034   21.0072  -16.4252 C   0  0  0  0  0  0  0  0  0  0  0  0
   -5.4652   19.6965  -16.8079 C   0  0  0  0  0  0  0  0  0  0  0  0
   -4.6610   18.7074  -16.2942 C   0  0  0  0  0  0  0  0  0  0  0  0
   -3.6112   18.9251  -15.4225 C   0  0  0  0  0  0  0  0  0  0  0  0
   -3.3826   20.2297  -15.0570 C   0  0  0  0  0  0  0  0  0  0  0  0
   -4.1742   21.2701  -15.5544 C   0  0  0  0  0  0  0  0  0  0  0  0
   -3.8740   22.6117  -15.0380 C   0  0  0  0  0  0  0  0  0  0  0  0
   -4.7115   23.6882  -15.6707 C   0  0  0  0  0  0  0  0  0  0  0  0
   -6.0619   23.2482  -16.1268 C   0  0  0  0  0  0  0  0  0  0  0  0
   -7.1119   23.0644  -15.0964 C   0  0  0  0  0  0  0  0  0  0  0  0
   -2.7554   17.8416  -14.9274 C   0  0  0  0  0  0  0  0  0  0  0  0
   -2.0204   18.0110  -13.7616 C   0  0  0  0  0  0  0  0  0  0  0  0
   -1.2401   17.0165  -13.2156 C   0  0  0  0  0  0  0  0  0  0  0  0
   -1.1839   15.7908  -13.8643 C   0  0  0  0  0  0  0  0  0  0  0  0
   -1.8976   15.5871  -15.0252 C   0  0  0  0  0  0  0  0  0  0  0  0
   -2.6782   16.6218  -15.5451 C   0  0  0  0  0  0  0  0  0  0  0  0
   -0.3335   14.7133  -13.2425 C   0  0  0  0  0  0  0  0  0  0  0  0
    0.1364   15.1329  -12.0091 F   0  0  0  0  0  0  0  0  0  0  0  0
    0.7390   14.3861  -14.0160 F   0  0  0  0  0  0  0  0  0  0  0  0
   -1.1782   13.6391  -12.9761 F   0  0  0  0  0  0  0  0  0  0  0  0
   -4.1282   22.5916  -13.5829 N   0  0  0  0  0  0  0  0  0  0  0  0
   -3.3770   22.9868  -12.9754 H   0  0  0  0  0  0  0  0  0  0  0  0
   -5.3367   22.0511  -13.0597 C   0  0  0  0  0  0  0  0  0  0  0  0
   -5.5837   20.6902  -13.1439 C   0  0  0  0  0  0  0  0  0  0  0  0
   -6.7334   20.1994  -12.5742 C   0  0  0  0  0  0  0  0  0  0  0  0
   -7.6592   20.9769  -11.9251 C   0  0  0  0  0  0  0  0  0  0  0  0
   -7.4265   22.3431  -11.8340 C   0  0  0  0  0  0  0  0  0  0  0  0
   -6.2767   22.8488  -12.3997 C   0  0  0  0  0  0  0  0  0  0  0  0
  1  2  1  0  0  0
  2  3  2  0  0  0
  2  4  1  0  0  0
  4  5  1  0  0  0
  5  6  2  0  0  0
  6  7  1  0  0  0
  7  8  2  0  0  0
  8 15  1  0  0  0
 15 16  2  0  0  0
 16 17  1  0  0  0
 17 18  2  0  0  0
 18 21  1  0  0  0
 21 22  1  0  0  0
 21 23  1  0  0  0
 21 24  1  0  0  0
 18 19  1  0  0  0
 19 20  2  0  0  0
  8  9  1  0  0  0
  9 10  2  0  0  0
 10 11  1  0  0  0
 11 25  1  0  0  0
 25 27  1  0  0  0
 27 28  2  0  0  0
 28 29  1  0  0  0
 29 30  2  0  0  0
 30 31  1  0  0  0
 31 32  2  0  0  0
 11 12  1  0  0  0
 12 13  1  0  0  0
 13 14  1  0  0  0
 13  4  1  0  0  0
 10  5  1  0  0  0
 32 27  1  0  0  0
 20 15  1  0  0  0
 25 26  1  0  0  0
M  END
> <minimizedAffinity>
-2.00640

> <CNNscore>
0.6752333045

> <CNNaffinity>
5.6414880753

> <CNN_VS>
3.8093206882

> <CNNaffinity_variance>
1.3379956484

$$$$
[H]c1c([H])c([H])c(N([H])[C@@]2([H])c3c([H])c(-c4c([H])c([H])c(C(F)(F)F)c([H])c4[H])c([H])c([H])c3N(C(=O)C([H])([H])[H])[C@@]([H])(C([H])([H])[H])C2([H])[H])c([H])c1[H]


 32 35  0  0  0  0  0  0  0  0999 V2000
   -8.4130   22.0321  -19.4442 C   0  0  0  0  0  0  0  0  0  0  0  0
   -8.6676   22.1126  -18.0001 C   0  0  0  0  0  0  0  0  0  0  0  0
   -9.8058   22.5659  -17.6352 O   0  0  0  0  0  0  0  0  0  0  0  0
   -7.7308   21.7284  -17.0196 N   0  0  0  0  0  0  0  0  0  0  0  0
   -6.5405   20.9963  -17.2197 C   0  0  0  0  0  0  0  0  0  0  0  0
   -6.4813   20.0646  -18.2499 C   0  0  0  0  0  0  0  0  0  0  0  0
   -5.2847   19.4233  -18.4644 C   0  0  0  0  0  0  0  0  0  0  0  0
   -4.1368   19.6392  -17.7261 C   0  0  0  0  0  0  0  0  0  0  0  0
   -4.2292   20.5598  -16.7102 C   0  0  0  0  0  0  0  0  0  0  0  0
   -5.4256   21.2380  -16.4546 C   0  0  0  0  0  0  0  0  0  0  0  0
   -5.4174   22.1466  -15.3010 C   0  0  0  0  0  0  0  0  0  0  0  0
   -6.7097   22.8962  -15.1314 C   0  0  0  0  0  0  0  0  0  0  0  0
   -7.9214   22.1810  -15.6266 C   0  0  0  0  0  0  0  0  0  0  0  0
   -8.4683   21.0879  -14.7875 C   0  0  0  0  0  0  0  0  0  0  0  0
   -2.8703   18.9577  -18.0140 C   0  0  0  0  0  0  0  0  0  0  0  0
   -2.8079   17.5706  -18.0081 C   0  0  0  0  0  0  0  0  0  0  0  0
   -1.6646   16.8699  -18.3211 C   0  0  0  0  0  0  0  0  0  0  0  0
   -0.5224   17.5849  -18.6533 C   0  0  0  0  0  0  0  0  0  0  0  0
   -0.5461   18.9625  -18.6668 C   0  0  0  0  0  0  0  0  0  0  0  0
   -1.7268   19.6350  -18.3443 C   0  0  0  0  0  0  0  0  0  0  0  0
    0.7136   16.7975  -19.0040 C   0  0  0  0  0  0  0  0  0  0  0  0
    0.3649   15.5123  -19.3844 F   0  0  0  0  0  0  0  0  0  0  0  0
    1.5870   16.7093  -17.9624 F   0  0  0  0  0  0  0  0  0  0  0  0
    1.2579   17.3900  -20.1403 F   0  0  0  0  0  0  0  0  0  0  0  0
   -5.1696   21.3283  -14.0963 N   0  0  0  0  0  0  0  0  0  0  0  0
   -5.7430   20.4617  -13.9983 H   0  0  0  0  0  0  0  0  0  0  0  0
   -4.2008   21.7236  -13.1311 C   0  0  0  0  0  0  0  0  0  0  0  0
   -2.8582   21.4533  -13.3421 C   0  0  0  0  0  0  0  0  0  0  0  0
   -1.9487   21.9038  -12.4164 C   0  0  0  0  0  0  0  0  0  0  0  0
   -2.2882   22.6069  -11.2880 C   0  0  0  0  0  0  0  0  0  0  0  0
   -3.6302   22.8841  -11.0617 C   0  0  0  0  0  0  0  0  0  0  0  0
   -4.5531   22.4395  -11.9826 C   0  0  0  0  0  0  0  0  0  0  0  0
  1  2  1  0  0  0
  2  3  2  0  0  0
  2  4  1  0  0  0
  4  5  1  0  0  0
  5  6  2  0  0  0
  6  7  1  0  0  0
  7  8  2  0  0  0
  8 15  1  0  0  0
 15 16  2  0  0  0
 16 17  1  0  0  0
 17 18  2  0  0  0
 18 21  1  0  0  0
 21 22  1  0  0  0
 21 23  1  0  0  0
 21 24  1  0  0  0
 18 19  1  0  0  0
 19 20  2  0  0  0
  8  9  1  0  0  0
  9 10  2  0  0  0
 10 11  1  0  0  0
 11 25  1  0  0  0
 25 27  1  0  0  0
 27 28  2  0  0  0
 28 29  1  0  0  0
 29 30  2  0  0  0
 30 31  1  0  0  0
 31 32  2  0  0  0
 11 12  1  0  0  0
 12 13  1  0  0  0
 13 14  1  0  0  0
 13  4  1  0  0  0
 10  5  1  0  0  0
 32 27  1  0  0  0
 20 15  1  0  0  0
 25 26  1  0  0  0
M  END
> <minimizedAffinity>
-3.12915

> <CNNscore>
0.6107805967

> <CNNaffinity>
5.5122661591

> <CNN_VS>
3.3667852879

> <CNNaffinity_variance>
1.1874692440

$$$$
[H]c1c([H])c([H])c(N([H])[C@@]2([H])c3c([H])c(-c4c([H])c([H])c(C(F)(F)F)c([H])c4[H])c([H])c([H])c3N(C(=O)C([H])([H])[H])[C@@]([H])(C([H])([H])[H])C2([H])[H])c([H])c1[H]


 32 35  0  0  0  0  0  0  0  0999 V2000
   -4.5649   21.5067  -21.0911 C   0  0  0  0  0  0  0  0  0  0  0  0
   -4.6061   22.5887  -20.0989 C   0  0  0  0  0  0  0  0  0  0  0  0
   -4.1701   23.7323  -20.4678 O   0  0  0  0  0  0  0  0  0  0  0  0
   -5.0869   22.4243  -18.7842 N   0  0  0  0  0  0  0  0  0  0  0  0
   -5.8156   21.3278  -18.2748 C   0  0  0  0  0  0  0  0  0  0  0  0
   -6.6554   20.6168  -19.1247 C   0  0  0  0  0  0  0  0  0  0  0  0
   -7.2925   19.5104  -18.6160 C   0  0  0  0  0  0  0  0  0  0  0  0
   -7.1576   19.0564  -17.3179 C   0  0  0  0  0  0  0  0  0  0  0  0
   -6.3272   19.7846  -16.5004 C   0  0  0  0  0  0  0  0  0  0  0  0
   -5.6569   20.9174  -16.9737 C   0  0  0  0  0  0  0  0  0  0  0  0
   -4.8517   21.6488  -15.9871 C   0  0  0  0  0  0  0  0  0  0  0  0
   -4.1015   22.8085  -16.5812 C   0  0  0  0  0  0  0  0  0  0  0  0
   -4.7540   23.4399  -17.7647 C   0  0  0  0  0  0  0  0  0  0  0  0
   -5.9078   24.3378  -17.5188 C   0  0  0  0  0  0  0  0  0  0  0  0
   -7.8293   17.8482  -16.8276 C   0  0  0  0  0  0  0  0  0  0  0  0
   -8.8841   17.2978  -17.5435 C   0  0  0  0  0  0  0  0  0  0  0  0
   -9.5220   16.1373  -17.1663 C   0  0  0  0  0  0  0  0  0  0  0  0
   -9.0920   15.4920  -16.0152 C   0  0  0  0  0  0  0  0  0  0  0  0
   -8.0500   16.0106  -15.2776 C   0  0  0  0  0  0  0  0  0  0  0  0
   -7.4291   17.1895  -15.6957 C   0  0  0  0  0  0  0  0  0  0  0  0
   -9.7963   14.2174  -15.6280 C   0  0  0  0  0  0  0  0  0  0  0  0
   -9.3612   13.7948  -14.3828 F   0  0  0  0  0  0  0  0  0  0  0  0
   -9.5759   13.2104  -16.5185 F   0  0  0  0  0  0  0  0  0  0  0  0
  -11.1420   14.5355  -15.4667 F   0  0  0  0  0  0  0  0  0  0  0  0
   -5.7747   22.1493  -14.9479 N   0  0  0  0  0  0  0  0  0  0  0  0
   -6.7806   21.8939  -15.0589 H   0  0  0  0  0  0  0  0  0  0  0  0
   -5.2965   22.9416  -13.8662 C   0  0  0  0  0  0  0  0  0  0  0  0
   -5.8568   24.1834  -13.6126 C   0  0  0  0  0  0  0  0  0  0  0  0
   -5.4088   24.8911  -12.5239 C   0  0  0  0  0  0  0  0  0  0  0  0
   -4.4341   24.4442  -11.6676 C   0  0  0  0  0  0  0  0  0  0  0  0
   -3.8617   23.2022  -11.9096 C   0  0  0  0  0  0  0  0  0  0  0  0
   -4.3023   22.4808  -12.9974 C   0  0  0  0  0  0  0  0  0  0  0  0
  1  2  1  0  0  0
  2  3  2  0  0  0
  2  4  1  0  0  0
  4  5  1  0  0  0
  5  6  2  0  0  0
  6  7  1  0  0  0
  7  8  2  0  0  0
  8 15  1  0  0  0
 15 16  2  0  0  0
 16 17  1  0  0  0
 17 18  2  0  0  0
 18 21  1  0  0  0
 21 22  1  0  0  0
 21 23  1  0  0  0
 21 24  1  0  0  0
 18 19  1  0  0  0
 19 20  2  0  0  0
  8  9  1  0  0  0
  9 10  2  0  0  0
 10 11  1  0  0  0
 11 25  1  0  0  0
 25 27  1  0  0  0
 27 28  2  0  0  0
 28 29  1  0  0  0
 29 30  2  0  0  0
 30 31  1  0  0  0
 31 32  2  0  0  0
 11 12  1  0  0  0
 12 13  1  0  0  0
 13 14  1  0  0  0
 13  4  1  0  0  0
 10  5  1  0  0  0
 32 27  1  0  0  0
 20 15  1  0  0  0
 25 26  1  0  0  0
M  END
> <minimizedAffinity>
-3.92265

> <CNNscore>
0.5697520971

> <CNNaffinity>
5.4783053398

> <CNN_VS>
3.1212759018

> <CNNaffinity_variance>
0.9626325369

$$$$
[H]c1c([H])c([H])c(N([H])[C@@]2([H])c3c([H])c(-c4c([H])c([H])c(C(F)(F)F)c([H])c4[H])c([H])c([H])c3N(C(=O)C([H])([H])[H])[C@@]([H])(C([H])([H])[H])C2([H])[H])c([H])c1[H]


 32 35  0  0  0  0  0  0  0  0999 V2000
   -6.6747   23.8211  -13.5917 C   0  0  0  0  0  0  0  0  0  0  0  0
   -5.9272   22.7859  -12.8661 C   0  0  0  0  0  0  0  0  0  0  0  0
   -6.3051   22.5249  -11.6731 O   0  0  0  0  0  0  0  0  0  0  0  0
   -4.8305   22.0881  -13.4112 N   0  0  0  0  0  0  0  0  0  0  0  0
   -4.4235   22.0635  -14.7627 C   0  0  0  0  0  0  0  0  0  0  0  0
   -5.3805   22.1959  -15.7626 C   0  0  0  0  0  0  0  0  0  0  0  0
   -4.9429   22.2427  -17.0646 C   0  0  0  0  0  0  0  0  0  0  0  0
   -3.6178   22.1656  -17.4490 C   0  0  0  0  0  0  0  0  0  0  0  0
   -2.6968   22.0273  -16.4387 C   0  0  0  0  0  0  0  0  0  0  0  0
   -3.0946   21.9757  -15.0987 C   0  0  0  0  0  0  0  0  0  0  0  0
   -2.0244   21.7588  -14.1168 C   0  0  0  0  0  0  0  0  0  0  0  0
   -2.5132   21.7896  -12.6952 C   0  0  0  0  0  0  0  0  0  0  0  0
   -3.9261   21.3502  -12.5062 C   0  0  0  0  0  0  0  0  0  0  0  0
   -4.2079   19.8953  -12.5508 C   0  0  0  0  0  0  0  0  0  0  0  0
   -3.1932   22.2564  -18.8500 C   0  0  0  0  0  0  0  0  0  0  0  0
   -1.8616   22.4977  -19.1607 C   0  0  0  0  0  0  0  0  0  0  0  0
   -1.3891   22.5421  -20.4533 C   0  0  0  0  0  0  0  0  0  0  0  0
   -2.2875   22.3403  -21.4917 C   0  0  0  0  0  0  0  0  0  0  0  0
   -3.6173   22.1012  -21.2215 C   0  0  0  0  0  0  0  0  0  0  0  0
   -4.0555   22.0629  -19.8961 C   0  0  0  0  0  0  0  0  0  0  0  0
   -1.7464   22.3812  -22.8975 C   0  0  0  0  0  0  0  0  0  0  0  0
   -2.7883   22.4880  -23.8037 F   0  0  0  0  0  0  0  0  0  0  0  0
   -1.0252   21.2686  -23.2097 F   0  0  0  0  0  0  0  0  0  0  0  0
   -1.0244   23.5658  -23.0152 F   0  0  0  0  0  0  0  0  0  0  0  0
   -1.4300   20.4357  -14.3969 N   0  0  0  0  0  0  0  0  0  0  0  0
   -2.0706   19.6148  -14.3249 H   0  0  0  0  0  0  0  0  0  0  0  0
   -0.0536   20.3105  -14.7377 C   0  0  0  0  0  0  0  0  0  0  0  0
    0.3210   19.6086  -15.8723 C   0  0  0  0  0  0  0  0  0  0  0  0
    1.6543   19.5613  -16.1996 C   0  0  0  0  0  0  0  0  0  0  0  0
    2.6448   20.1670  -15.4683 C   0  0  0  0  0  0  0  0  0  0  0  0
    2.2853   20.8728  -14.3275 C   0  0  0  0  0  0  0  0  0  0  0  0
    0.9514   20.9297  -13.9880 C   0  0  0  0  0  0  0  0  0  0  0  0
  1  2  1  0  0  0
  2  3  2  0  0  0
  2  4  1  0  0  0
  4  5  1  0  0  0
  5  6  2  0  0  0
  6  7  1  0  0  0
  7  8  2  0  0  0
  8 15  1  0  0  0
 15 16  2  0  0  0
 16 17  1  0  0  0
 17 18  2  0  0  0
 18 21  1  0  0  0
 21 22  1  0  0  0
 21 23  1  0  0  0
 21 24  1  0  0  0
 18 19  1  0  0  0
 19 20  2  0  0  0
  8  9  1  0  0  0
  9 10  2  0  0  0
 10 11  1  0  0  0
 11 25  1  0  0  0
 25 27  1  0  0  0
 27 28  2  0  0  0
 28 29  1  0  0  0
 29 30  2  0  0  0
 30 31  1  0  0  0
 31 32  2  0  0  0
 11 12  1  0  0  0
 12 13  1  0  0  0
 13 14  1  0  0  0
 13  4  1  0  0  0
 10  5  1  0  0  0
 32 27  1  0  0  0
 20 15  1  0  0  0
 25 26  1  0  0  0
M  END
> <minimizedAffinity>
-3.81011

> <CNNscore>
0.5655423999

> <CNNaffinity>
5.5506501198

> <CNN_VS>
3.1391279697

> <CNNaffinity_variance>
0.4898350835

$$$$
[H]c1c([H])c([H])c(N([H])[C@@]2([H])c3c([H])c(-c4c([H])c([H])c(C(F)(F)F)c([H])c4[H])c([H])c([H])c3N(C(=O)C([H])([H])[H])[C@@]([H])(C([H])([H])[H])C2([H])[H])c([H])c1[H]


 32 35  0  0  0  0  0  0  0  0999 V2000
    3.8670   20.4756  -18.5883 C   0  0  0  0  0  0  0  0  0  0  0  0
    4.0795   21.1544  -17.3034 C   0  0  0  0  0  0  0  0  0  0  0  0
    5.2902   21.3442  -16.9398 O   0  0  0  0  0  0  0  0  0  0  0  0
    3.0313   21.5894  -16.4675 N   0  0  0  0  0  0  0  0  0  0  0  0
    1.6623   21.6849  -16.7982 C   0  0  0  0  0  0  0  0  0  0  0  0
    1.2984   21.9602  -18.1116 C   0  0  0  0  0  0  0  0  0  0  0  0
   -0.0420   21.9726  -18.4148 C   0  0  0  0  0  0  0  0  0  0  0  0
   -1.0534   21.7319  -17.5046 C   0  0  0  0  0  0  0  0  0  0  0  0
   -0.6625   21.4708  -16.2134 C   0  0  0  0  0  0  0  0  0  0  0  0
    0.6901   21.4468  -15.8575 C   0  0  0  0  0  0  0  0  0  0  0  0
    0.9781   21.2230  -14.4351 C   0  0  0  0  0  0  0  0  0  0  0  0
    2.4495   21.1347  -14.1380 C   0  0  0  0  0  0  0  0  0  0  0  0
    3.3249   21.9175  -15.0577 C   0  0  0  0  0  0  0  0  0  0  0  0
    3.3936   23.3855  -14.8616 C   0  0  0  0  0  0  0  0  0  0  0  0
   -2.4710   21.7196  -17.8809 C   0  0  0  0  0  0  0  0  0  0  0  0
   -3.3047   22.7596  -17.4920 C   0  0  0  0  0  0  0  0  0  0  0  0
   -4.6305   22.8346  -17.8563 C   0  0  0  0  0  0  0  0  0  0  0  0
   -5.1565   21.8208  -18.6449 C   0  0  0  0  0  0  0  0  0  0  0  0
   -4.3598   20.7711  -19.0474 C   0  0  0  0  0  0  0  0  0  0  0  0
   -3.0195   20.7337  -18.6571 C   0  0  0  0  0  0  0  0  0  0  0  0
   -6.6062   21.9295  -19.0416 C   0  0  0  0  0  0  0  0  0  0  0  0
   -7.3923   22.1206  -17.9175 F   0  0  0  0  0  0  0  0  0  0  0  0
   -7.0534   20.8168  -19.6877 F   0  0  0  0  0  0  0  0  0  0  0  0
   -6.7311   23.0973  -19.7893 F   0  0  0  0  0  0  0  0  0  0  0  0
    0.3988   22.3555  -13.6839 N   0  0  0  0  0  0  0  0  0  0  0  0
    0.3041   23.2562  -14.2027 H   0  0  0  0  0  0  0  0  0  0  0  0
    0.0044   22.2050  -12.3244 C   0  0  0  0  0  0  0  0  0  0  0  0
   -0.9892   21.3008  -11.9844 C   0  0  0  0  0  0  0  0  0  0  0  0
   -1.2994   21.1416  -10.6557 C   0  0  0  0  0  0  0  0  0  0  0  0
   -0.6852   21.8271   -9.6379 C   0  0  0  0  0  0  0  0  0  0  0  0
    0.3115   22.7381   -9.9630 C   0  0  0  0  0  0  0  0  0  0  0  0
    0.6338   22.9070  -11.2916 C   0  0  0  0  0  0  0  0  0  0  0  0
  1  2  1  0  0  0
  2  3  2  0  0  0
  2  4  1  0  0  0
  4  5  1  0  0  0
  5  6  2  0  0  0
  6  7  1  0  0  0
  7  8  2  0  0  0
  8 15  1  0  0  0
 15 16  2  0  0  0
 16 17  1  0  0  0
 17 18  2  0  0  0
 18 21  1  0  0  0
 21 22  1  0  0  0
 21 23  1  0  0  0
 21 24  1  0  0  0
 18 19  1  0  0  0
 19 20  2  0  0  0
  8  9  1  0  0  0
  9 10  2  0  0  0
 10 11  1  0  0  0
 11 25  1  0  0  0
 25 27  1  0  0  0
 27 28  2  0  0  0
 28 29  1  0  0  0
 29 30  2  0  0  0
 30 31  1  0  0  0
 31 32  2  0  0  0
 11 12  1  0  0  0
 12 13  1  0  0  0
 13 14  1  0  0  0
 13  4  1  0  0  0
 10  5  1  0  0  0
 32 27  1  0  0  0
 20 15  1  0  0  0
 25 26  1  0  0  0
M  END
> <minimizedAffinity>
-4.10691

> <CNNscore>
0.5357307792

> <CNNaffinity>
5.2143983841

> <CNN_VS>
2.7935137749

> <CNNaffinity_variance>
0.2838758230

$$$$
[H]c1c([H])c([H])c(N([H])[C@@]2([H])c3c([H])c(-c4c([H])c([H])c(C(F)(F)F)c([H])c4[H])c([H])c([H])c3N(C(=O)C([H])([H])[H])[C@@]([H])(C([H])([H])[H])C2([H])[H])c([H])c1[H]


 32 35  0  0  0  0  0  0  0  0999 V2000
   -5.8322   23.6942  -18.5846 C   0  0  0  0  0  0  0  0  0  0  0  0
   -4.5647   23.6791  -17.8430 C   0  0  0  0  0  0  0  0  0  0  0  0
   -4.0878   24.8096  -17.4844 O   0  0  0  0  0  0  0  0  0  0  0  0
   -3.8615   22.5002  -17.5228 N   0  0  0  0  0  0  0  0  0  0  0  0
   -4.3349   21.1738  -17.6184 C   0  0  0  0  0  0  0  0  0  0  0  0
   -5.6899   20.9214  -17.4354 C   0  0  0  0  0  0  0  0  0  0  0  0
   -6.1293   19.6308  -17.6088 C   0  0  0  0  0  0  0  0  0  0  0  0
   -5.3176   18.5661  -17.9508 C   0  0  0  0  0  0  0  0  0  0  0  0
   -3.9826   18.8458  -18.1169 C   0  0  0  0  0  0  0  0  0  0  0  0
   -3.4891   20.1442  -17.9518 C   0  0  0  0  0  0  0  0  0  0  0  0
   -2.0358   20.3035  -18.0902 C   0  0  0  0  0  0  0  0  0  0  0  0
   -1.5857   21.7335  -17.9752 C   0  0  0  0  0  0  0  0  0  0  0  0
   -2.4454   22.5962  -17.1140 C   0  0  0  0  0  0  0  0  0  0  0  0
   -2.3106   22.4562  -15.6442 C   0  0  0  0  0  0  0  0  0  0  0  0
   -5.8365   17.2104  -18.1611 C   0  0  0  0  0  0  0  0  0  0  0  0
   -5.0514   16.1077  -17.8518 C   0  0  0  0  0  0  0  0  0  0  0  0
   -5.4974   14.8108  -17.9761 C   0  0  0  0  0  0  0  0  0  0  0  0
   -6.7897   14.5985  -18.4356 C   0  0  0  0  0  0  0  0  0  0  0  0
   -7.5967   15.6687  -18.7552 C   0  0  0  0  0  0  0  0  0  0  0  0
   -7.1061   16.9685  -18.6136 C   0  0  0  0  0  0  0  0  0  0  0  0
   -7.2608   13.1719  -18.5522 C   0  0  0  0  0  0  0  0  0  0  0  0
   -6.3040   12.3131  -18.0372 F   0  0  0  0  0  0  0  0  0  0  0  0
   -7.5061   12.8090  -19.8420 F   0  0  0  0  0  0  0  0  0  0  0  0
   -8.3670   13.0450  -17.7164 F   0  0  0  0  0  0  0  0  0  0  0  0
   -1.4006   19.5073  -17.0202 N   0  0  0  0  0  0  0  0  0  0  0  0
   -0.5789   18.9273  -17.2992 H   0  0  0  0  0  0  0  0  0  0  0  0
   -1.9035   19.5399  -15.6888 C   0  0  0  0  0  0  0  0  0  0  0  0
   -3.2669   19.6409  -15.4626 C   0  0  0  0  0  0  0  0  0  0  0  0
   -3.7170   19.6088  -14.1652 C   0  0  0  0  0  0  0  0  0  0  0  0
   -2.8965   19.4845  -13.0723 C   0  0  0  0  0  0  0  0  0  0  0  0
   -1.5274   19.3839  -13.2828 C   0  0  0  0  0  0  0  0  0  0  0  0
   -1.0621   19.4133  -14.5791 C   0  0  0  0  0  0  0  0  0  0  0  0
  1  2  1  0  0  0
  2  3  2  0  0  0
  2  4  1  0  0  0
  4  5  1  0  0  0
  5  6  2  0  0  0
  6  7  1  0  0  0
  7  8  2  0  0  0
  8 15  1  0  0  0
 15 16  2  0  0  0
 16 17  1  0  0  0
 17 18  2  0  0  0
 18 21  1  0  0  0
 21 22  1  0  0  0
 21 23  1  0  0  0
 21 24  1  0  0  0
 18 19  1  0  0  0
 19 20  2  0  0  0
  8  9  1  0  0  0
  9 10  2  0  0  0
 10 11  1  0  0  0
 11 25  1  0  0  0
 25 27  1  0  0  0
 27 28  2  0  0  0
 28 29  1  0  0  0
 29 30  2  0  0  0
 30 31  1  0  0  0
 31 32  2  0  0  0
 11 12  1  0  0  0
 12 13  1  0  0  0
 13 14  1  0  0  0
 13  4  1  0  0  0
 10  5  1  0  0  0
 32 27  1  0  0  0
 20 15  1  0  0  0
 25 26  1  0  0  0
M  END
> <minimizedAffinity>
-1.63669

> <CNNscore>
0.4975284636

> <CNNaffinity>
5.2848272324

> <CNN_VS>
2.6293518543

> <CNNaffinity_variance>
0.6767646074

$$$$
[H]c1c([H])c([H])c(N([H])[C@@]2([H])c3c([H])c(-c4c([H])c([H])c(C(F)(F)F)c([H])c4[H])c([H])c([H])c3N(C(=O)C([H])([H])[H])[C@@]([H])(C([H])([H])[H])C2([H])[H])c([H])c1[H]


 32 35  0  0  0  0  0  0  0  0999 V2000
   -1.7014   20.4323  -17.0681 C   0  0  0  0  0  0  0  0  0  0  0  0
   -2.4280   19.5959  -16.1041 C   0  0  0  0  0  0  0  0  0  0  0  0
   -1.7289   18.9619  -15.2420 O   0  0  0  0  0  0  0  0  0  0  0  0
   -3.8306   19.4573  -16.0922 N   0  0  0  0  0  0  0  0  0  0  0  0
   -4.7701   20.2449  -16.7922 C   0  0  0  0  0  0  0  0  0  0  0  0
   -4.4787   21.5794  -17.0515 C   0  0  0  0  0  0  0  0  0  0  0  0
   -5.3808   22.2976  -17.7993 C   0  0  0  0  0  0  0  0  0  0  0  0
   -6.5583   21.7857  -18.3101 C   0  0  0  0  0  0  0  0  0  0  0  0
   -6.8219   20.4665  -18.0303 C   0  0  0  0  0  0  0  0  0  0  0  0
   -5.9332   19.6955  -17.2739 C   0  0  0  0  0  0  0  0  0  0  0  0
   -6.3579   18.3195  -16.9861 C   0  0  0  0  0  0  0  0  0  0  0  0
   -5.3233   17.5278  -16.2352 C   0  0  0  0  0  0  0  0  0  0  0  0
   -4.4359   18.3342  -15.3480 C   0  0  0  0  0  0  0  0  0  0  0  0
   -4.9915   18.7980  -14.0541 C   0  0  0  0  0  0  0  0  0  0  0  0
   -7.4751   22.5800  -19.1348 C   0  0  0  0  0  0  0  0  0  0  0  0
   -7.3563   23.9628  -19.1750 C   0  0  0  0  0  0  0  0  0  0  0  0
   -8.1499   24.7611  -19.9682 C   0  0  0  0  0  0  0  0  0  0  0  0
   -9.1148   24.1539  -20.7597 C   0  0  0  0  0  0  0  0  0  0  0  0
   -9.2636   22.7841  -20.7434 C   0  0  0  0  0  0  0  0  0  0  0  0
   -8.4372   22.0105  -19.9256 C   0  0  0  0  0  0  0  0  0  0  0  0
   -9.9635   25.0456  -21.6286 C   0  0  0  0  0  0  0  0  0  0  0  0
   -9.8444   26.3623  -21.2158 F   0  0  0  0  0  0  0  0  0  0  0  0
  -11.2823   24.7067  -21.5901 F   0  0  0  0  0  0  0  0  0  0  0  0
   -9.4130   25.0023  -22.9067 F   0  0  0  0  0  0  0  0  0  0  0  0
   -7.5906   18.3984  -16.1758 N   0  0  0  0  0  0  0  0  0  0  0  0
   -7.8254   17.5564  -15.6054 H   0  0  0  0  0  0  0  0  0  0  0  0
   -8.4027   19.5673  -16.1932 C   0  0  0  0  0  0  0  0  0  0  0  0
   -9.4742   19.6570  -17.0675 C   0  0  0  0  0  0  0  0  0  0  0  0
  -10.2694   20.7757  -17.0121 C   0  0  0  0  0  0  0  0  0  0  0  0
  -10.0673   21.8172  -16.1418 C   0  0  0  0  0  0  0  0  0  0  0  0
   -8.9965   21.7428  -15.2605 C   0  0  0  0  0  0  0  0  0  0  0  0
   -8.1913   20.6258  -15.3041 C   0  0  0  0  0  0  0  0  0  0  0  0
  1  2  1  0  0  0
  2  3  2  0  0  0
  2  4  1  0  0  0
  4  5  1  0  0  0
  5  6  2  0  0  0
  6  7  1  0  0  0
  7  8  2  0  0  0
  8 15  1  0  0  0
 15 16  2  0  0  0
 16 17  1  0  0  0
 17 18  2  0  0  0
 18 21  1  0  0  0
 21 22  1  0  0  0
 21 23  1  0  0  0
 21 24  1  0  0  0
 18 19  1  0  0  0
 19 20  2  0  0  0
  8  9  1  0  0  0
  9 10  2  0  0  0
 10 11  1  0  0  0
 11 25  1  0  0  0
 25 27  1  0  0  0
 27 28  2  0  0  0
 28 29  1  0  0  0
 29 30  2  0  0  0
 30 31  1  0  0  0
 31 32  2  0  0  0
 11 12  1  0  0  0
 12 13  1  0  0  0
 13 14  1  0  0  0
 13  4  1  0  0  0
 10  5  1  0  0  0
 32 27  1  0  0  0
 20 15  1  0  0  0
 25 26  1  0  0  0
M  END
> <minimizedAffinity>
-4.12091

> <CNNscore>
0.4777927399

> <CNNaffinity>
5.2915544510

> <CNN_VS>
2.5282661915

> <CNNaffinity_variance>
0.4672743678

$$$$
[H]c1c([H])c([H])c(N([H])[C@@]2([H])c3c([H])c(-c4c([H])c([H])c(C(F)(F)F)c([H])c4[H])c([H])c([H])c3N(C(=O)C([H])([H])[H])[C@@]([H])(C([H])([H])[H])C2([H])[H])c([H])c1[H]


 32 35  0  0  0  0  0  0  0  0999 V2000
   -5.8345   23.4501  -13.5247 C   0  0  0  0  0  0  0  0  0  0  0  0
   -4.8379   22.3774  -13.4110 C   0  0  0  0  0  0  0  0  0  0  0  0
   -4.5745   21.9513  -12.2349 O   0  0  0  0  0  0  0  0  0  0  0  0
   -4.1672   21.8146  -14.5156 N   0  0  0  0  0  0  0  0  0  0  0  0
   -4.4878   21.9787  -15.8805 C   0  0  0  0  0  0  0  0  0  0  0  0
   -5.8139   22.1787  -16.2473 C   0  0  0  0  0  0  0  0  0  0  0  0
   -6.0825   22.4093  -17.5753 C   0  0  0  0  0  0  0  0  0  0  0  0
   -5.1261   22.4546  -18.5716 C   0  0  0  0  0  0  0  0  0  0  0  0
   -3.8260   22.2455  -18.1789 C   0  0  0  0  0  0  0  0  0  0  0  0
   -3.5041   22.0077  -16.8386 C   0  0  0  0  0  0  0  0  0  0  0  0
   -2.0898   21.7325  -16.5547 C   0  0  0  0  0  0  0  0  0  0  0  0
   -1.8051   21.5612  -15.0883 C   0  0  0  0  0  0  0  0  0  0  0  0
   -2.9414   21.0233  -14.2856 C   0  0  0  0  0  0  0  0  0  0  0  0
   -3.2260   19.5713  -14.3797 C   0  0  0  0  0  0  0  0  0  0  0  0
   -5.4546   22.7402  -19.9722 C   0  0  0  0  0  0  0  0  0  0  0  0
   -4.4591   22.7197  -20.9400 C   0  0  0  0  0  0  0  0  0  0  0  0
   -4.7095   22.9268  -22.2782 C   0  0  0  0  0  0  0  0  0  0  0  0
   -6.0168   23.1712  -22.6749 C   0  0  0  0  0  0  0  0  0  0  0  0
   -7.0304   23.2020  -21.7420 C   0  0  0  0  0  0  0  0  0  0  0  0
   -6.7340   22.9855  -20.3945 C   0  0  0  0  0  0  0  0  0  0  0  0
   -6.2694   23.3829  -24.1453 C   0  0  0  0  0  0  0  0  0  0  0  0
   -7.4496   24.0845  -24.3274 F   0  0  0  0  0  0  0  0  0  0  0  0
   -6.3633   22.2097  -24.8311 F   0  0  0  0  0  0  0  0  0  0  0  0
   -5.2595   24.2216  -24.6092 F   0  0  0  0  0  0  0  0  0  0  0  0
   -1.7303   20.4893  -17.2671 N   0  0  0  0  0  0  0  0  0  0  0  0
   -2.3033   19.6455  -17.0455 H   0  0  0  0  0  0  0  0  0  0  0  0
   -0.6522   20.4654  -18.1963 C   0  0  0  0  0  0  0  0  0  0  0  0
   -0.8377   19.9364  -19.4636 C   0  0  0  0  0  0  0  0  0  0  0  0
    0.2096   19.9860  -20.3510 C   0  0  0  0  0  0  0  0  0  0  0  0
    1.4362   20.5277  -20.0592 C   0  0  0  0  0  0  0  0  0  0  0  0
    1.6381   21.0603  -18.7925 C   0  0  0  0  0  0  0  0  0  0  0  0
    0.5958   21.0185  -17.8928 C   0  0  0  0  0  0  0  0  0  0  0  0
  1  2  1  0  0  0
  2  3  2  0  0  0
  2  4  1  0  0  0
  4  5  1  0  0  0
  5  6  2  0  0  0
  6  7  1  0  0  0
  7  8  2  0  0  0
  8 15  1  0  0  0
 15 16  2  0  0  0
 16 17  1  0  0  0
 17 18  2  0  0  0
 18 21  1  0  0  0
 21 22  1  0  0  0
 21 23  1  0  0  0
 21 24  1  0  0  0
 18 19  1  0  0  0
 19 20  2  0  0  0
  8  9  1  0  0  0
  9 10  2  0  0  0
 10 11  1  0  0  0
 11 25  1  0  0  0
 25 27  1  0  0  0
 27 28  2  0  0  0
 28 29  1  0  0  0
 29 30  2  0  0  0
 30 31  1  0  0  0
 31 32  2  0  0  0
 11 12  1  0  0  0
 12 13  1  0  0  0
 13 14  1  0  0  0
 13  4  1  0  0  0
 10  5  1  0  0  0
 32 27  1  0  0  0
 20 15  1  0  0  0
 25 26  1  0  0  0
M  END
> <minimizedAffinity>
-4.64540

> <CNNscore>
0.4722475410

> <CNNaffinity>
5.4448599815

> <CNN_VS>
2.5713217258

> <CNNaffinity_variance>
0.7766804695

$$$$
[H]c1nc(OC2([H])C([H])([H])[C@@]3([H])N(C(=O)OC(C([H])([H])[H])(C([H])([H])[H])C([H])([H])[H])[C@]([H])(C2([H])[H])C([H])([H])C3([H])[H])c([N+](=O)[O-])c(N([H])c2c([H])c([H])c(S(=O)(=O)C([H])([H])[H])c([H])c2[H])n1


 37 40  0  0  0  0  0  0  0  0999 V2000
   -3.2027   23.4834  -26.6627 C   0  0  0  0  0  0  0  0  0  0  0  0
   -2.0493   23.4470  -27.6210 N   0  0  0  0  0  0  0  0  0  0  0  0
   -0.7474   22.8295  -27.2045 C   0  0  0  0  0  0  0  0  0  0  0  0
   -0.5988   22.2483  -25.8296 N   0  0  0  0  0  0  0  0  0  0  0  0
   -1.7522   22.2847  -24.8713 C   0  0  0  0  0  0  0  0  0  0  0  0
   -3.0541   22.9022  -25.2878 C   0  0  0  0  0  0  0  0  0  0  0  0
   -4.2075   22.9387  -24.3295 N   0  0  0  0  0  0  0  0  0  0  0  0
   -5.2567   21.8677  -24.3776 O   0  0  0  0  0  0  0  0  0  0  0  0
   -4.6164   23.8686  -23.2258 O   0  0  0  0  0  0  0  0  0  0  0  0
   -1.6036   21.7035  -23.4964 N   0  0  0  0  0  0  0  0  0  0  0  0
   -2.8036   21.5643  -22.6073 H   0  0  0  0  0  0  0  0  0  0  0  0
   -0.2549   21.2616  -23.0108 C   0  0  0  0  0  0  0  0  0  0  0  0
    0.9726   21.5824  -23.8110 C   0  0  0  0  0  0  0  0  0  0  0  0
    2.3212   21.1404  -23.3253 C   0  0  0  0  0  0  0  0  0  0  0  0
    2.4423   20.3777  -22.0394 C   0  0  0  0  0  0  0  0  0  0  0  0
    1.2148   20.0569  -21.2392 C   0  0  0  0  0  0  0  0  0  0  0  0
   -0.1338   20.4989  -21.7249 C   0  0  0  0  0  0  0  0  0  0  0  0
    3.7909   19.9358  -21.5537 S   0  0  0  0  0  0  0  0  0  0  0  0
    5.1396   19.4938  -21.0680 C   0  0  0  0  0  0  0  0  0  0  0  0
    3.7724   21.0191  -20.5164 O   0  0  0  0  0  0  0  0  0  0  0  0
    3.8095   18.8524  -22.5910 O   0  0  0  0  0  0  0  0  0  0  0  0
   -4.5047   24.1010  -27.0791 O   0  0  0  0  0  0  0  0  0  0  0  0
   -4.9666   23.9025  -28.3258 C   0  0  0  0  0  0  0  0  0  0  0  0
   -5.1101   22.4567  -27.9527 O   0  0  0  0  0  0  0  0  0  0  0  0
   -5.2441   24.6894  -29.5724 N   0  0  0  0  0  0  0  0  0  0  0  0
   -5.0290   26.1631  -29.7509 C   0  0  0  0  0  0  0  0  0  0  0  0
   -5.4373   26.5252  -31.1481 C   0  0  0  0  0  0  0  0  0  0  0  0
   -5.9046   25.2753  -31.8332 C   0  0  0  0  0  0  0  0  0  0  0  0
   -5.7852   24.1407  -30.8593 C   0  0  0  0  0  0  0  0  0  0  0  0
   -5.5611   23.2112  -29.6909 C   0  0  0  0  0  0  0  0  0  0  0  0
   -5.0176   23.9003  -28.4743 C   0  0  0  0  0  0  0  0  0  0  0  0
   -4.7516   25.3762  -28.5044 C   0  0  0  0  0  0  0  0  0  0  0  0
   -4.4232   24.5915  -27.1093 O   0  0  0  0  0  0  0  0  0  0  0  0
   -4.3089   26.4496  -26.0924 C   0  0  0  0  0  0  0  0  0  0  0  0
   -5.3422   25.3691  -26.2145 C   0  0  0  0  0  0  0  0  0  0  0  0
   -6.3754   24.2886  -26.3366 C   0  0  0  0  0  0  0  0  0  0  0  0
   -6.2612   26.1468  -25.3197 C   0  0  0  0  0  0  0  0  0  0  0  0
 34 35  1  0  0  0
 35 36  1  0  0  0
 35 37  1  0  0  0
 35 33  1  0  0  0
 33 23  1  0  0  0
 23 24  2  0  0  0
 23 25  1  0  0  0
 25 26  1  0  0  0
 26 27  1  0  0  0
 27 28  1  0  0  0
 28 29  1  0  0  0
 29 30  1  0  0  0
 30 31  1  0  0  0
 31 22  1  0  0  0
 22  1  1  0  0  0
  1  2  2  0  0  0
  2  3  1  0  0  0
  3  4  2  0  0  0
  4  5  1  0  0  0
  5 10  1  0  0  0
 10 12  1  0  0  0
 12 13  2  0  0  0
 13 14  1  0  0  0
 14 15  2  0  0  0
 15 18  1  0  0  0
 18 19  1  0  0  0
 18 20  2  0  0  0
 18 21  2  0  0  0
 15 16  1  0  0  0
 16 17  2  0  0  0
  5  6  2  0  0  0
  6  7  1  0  0  0
  7  8  2  0  0  0
  7  9  1  0  0  0
 31 32  1  0  0  0
 29 25  1  0  0  0
  6  1  1  0  0  0
 32 26  1  0  0  0
 17 12  1  0  0  0
 10 11  1  0  0  0
M  CHG 1   7   1
M  CHG 1   9  -1
M  END
> <minimizedAffinity>
-9.27422

> <CNNscore>
0.2199835032

> <CNNaffinity>
6.9551191330

> <CNN_VS>
1.5300114155

> <CNNaffinity_variance>
0.2970808446

$$$$
[H]c1nc(OC2([H])C([H])([H])[C@@]3([H])N(C(=O)OC(C([H])([H])[H])(C([H])([H])[H])C([H])([H])[H])[C@]([H])(C2([H])[H])C([H])([H])C3([H])[H])c([N+](=O)[O-])c(N([H])c2c([H])c([H])c(S(=O)(=O)C([H])([H])[H])c([H])c2[H])n1


 37 40  0  0  0  0  0  0  0  0999 V2000
   -2.1879   22.8149  -24.4556 C   0  0  0  0  0  0  0  0  0  0  0  0
   -1.4800   22.5928  -25.7593 N   0  0  0  0  0  0  0  0  0  0  0  0
   -0.0862   22.0386  -25.7710 C   0  0  0  0  0  0  0  0  0  0  0  0
    0.5997   21.7064  -24.4789 N   0  0  0  0  0  0  0  0  0  0  0  0
   -0.1083   21.9285  -23.1753 C   0  0  0  0  0  0  0  0  0  0  0  0
   -1.5020   22.4827  -23.1636 C   0  0  0  0  0  0  0  0  0  0  0  0
   -2.2100   22.7048  -21.8600 N   0  0  0  0  0  0  0  0  0  0  0  0
   -2.0825   24.0211  -21.1520 O   0  0  0  0  0  0  0  0  0  0  0  0
   -3.1017   21.8580  -21.0009 O   0  0  0  0  0  0  0  0  0  0  0  0
    0.5776   21.5963  -21.8833 N   0  0  0  0  0  0  0  0  0  0  0  0
    0.3819   22.4742  -20.6829 H   0  0  0  0  0  0  0  0  0  0  0  0
    1.4593   20.3862  -21.7918 C   0  0  0  0  0  0  0  0  0  0  0  0
    2.8410   20.4190  -22.3746 C   0  0  0  0  0  0  0  0  0  0  0  0
    3.7226   19.2089  -22.2830 C   0  0  0  0  0  0  0  0  0  0  0  0
    3.2224   17.9658  -21.6087 C   0  0  0  0  0  0  0  0  0  0  0  0
    1.8406   17.9330  -21.0259 C   0  0  0  0  0  0  0  0  0  0  0  0
    0.9591   19.1431  -21.1174 C   0  0  0  0  0  0  0  0  0  0  0  0
    4.1039   16.7557  -21.5171 S   0  0  0  0  0  0  0  0  0  0  0  0
    4.9855   15.5455  -21.4255 C   0  0  0  0  0  0  0  0  0  0  0  0
    4.6996   17.0885  -22.8529 O   0  0  0  0  0  0  0  0  0  0  0  0
    3.5083   16.4228  -20.1813 O   0  0  0  0  0  0  0  0  0  0  0  0
   -3.5817   23.3691  -24.4439 O   0  0  0  0  0  0  0  0  0  0  0  0
   -4.6027   22.5844  -24.0579 C   0  0  0  0  0  0  0  0  0  0  0  0
   -4.0941   21.5785  -25.0476 O   0  0  0  0  0  0  0  0  0  0  0  0
   -5.7564   22.6122  -23.0997 N   0  0  0  0  0  0  0  0  0  0  0  0
   -6.1053   23.7381  -22.1720 C   0  0  0  0  0  0  0  0  0  0  0  0
   -7.3283   23.3406  -21.3999 C   0  0  0  0  0  0  0  0  0  0  0  0
   -7.7354   21.9690  -21.8504 C   0  0  0  0  0  0  0  0  0  0  0  0
   -6.7639   21.5188  -22.9009 C   0  0  0  0  0  0  0  0  0  0  0  0
   -5.6566   21.3346  -23.9105 C   0  0  0  0  0  0  0  0  0  0  0  0
   -4.7272   22.5087  -23.9994 C   0  0  0  0  0  0  0  0  0  0  0  0
   -4.9515   23.7104  -23.1302 C   0  0  0  0  0  0  0  0  0  0  0  0
   -3.6733   23.7584  -24.1468 O   0  0  0  0  0  0  0  0  0  0  0  0
   -4.3593   24.0681  -26.1302 C   0  0  0  0  0  0  0  0  0  0  0  0
   -4.0564   24.9583  -24.9615 C   0  0  0  0  0  0  0  0  0  0  0  0
   -3.7535   25.8484  -23.7928 C   0  0  0  0  0  0  0  0  0  0  0  0
   -4.4395   26.1581  -25.7761 C   0  0  0  0  0  0  0  0  0  0  0  0
 34 35  1  0  0  0
 35 36  1  0  0  0
 35 37  1  0  0  0
 35 33  1  0  0  0
 33 23  1  0  0  0
 23 24  2  0  0  0
 23 25  1  0  0  0
 25 26  1  0  0  0
 26 27  1  0  0  0
 27 28  1  0  0  0
 28 29  1  0  0  0
 29 30  1  0  0  0
 30 31  1  0  0  0
 31 22  1  0  0  0
 22  1  1  0  0  0
  1  2  2  0  0  0
  2  3  1  0  0  0
  3  4  2  0  0  0
  4  5  1  0  0  0
  5 10  1  0  0  0
 10 12  1  0  0  0
 12 13  2  0  0  0
 13 14  1  0  0  0
 14 15  2  0  0  0
 15 18  1  0  0  0
 18 19  1  0  0  0
 18 20  2  0  0  0
 18 21  2  0  0  0
 15 16  1  0  0  0
 16 17  2  0  0  0
  5  6  2  0  0  0
  6  7  1  0  0  0
  7  8  2  0  0  0
  7  9  1  0  0  0
 31 32  1  0  0  0
 29 25  1  0  0  0
  6  1  1  0  0  0
 32 26  1  0  0  0
 17 12  1  0  0  0
 10 11  1  0  0  0
M  CHG 1   7   1
M  CHG 1   9  -1
M  END
> <minimizedAffinity>
-7.90798

> <CNNscore>
0.2150146961

> <CNNaffinity>
6.3775024414

> <CNN_VS>
1.3712567091

> <CNNaffinity_variance>
0.0105317906

$$$$
[H]c1nc(OC2([H])C([H])([H])[C@@]3([H])N(C(=O)OC(C([H])([H])[H])(C([H])([H])[H])C([H])([H])[H])[C@]([H])(C2([H])[H])C([H])([H])C3([H])[H])c([N+](=O)[O-])c(N([H])c2c([H])c([H])c(S(=O)(=O)C([H])([H])[H])c([H])c2[H])n1


 37 40  0  0  0  0  0  0  0  0999 V2000
   -5.0227   23.1018  -21.1338 C   0  0  0  0  0  0  0  0  0  0  0  0
   -3.5424   23.2536  -20.9446 N   0  0  0  0  0  0  0  0  0  0  0  0
   -2.7945   22.2869  -20.0752 C   0  0  0  0  0  0  0  0  0  0  0  0
   -3.5267   21.1683  -19.3950 N   0  0  0  0  0  0  0  0  0  0  0  0
   -5.0070   21.0166  -19.5842 C   0  0  0  0  0  0  0  0  0  0  0  0
   -5.7549   21.9833  -20.4536 C   0  0  0  0  0  0  0  0  0  0  0  0
   -7.2352   21.8315  -20.6429 N   0  0  0  0  0  0  0  0  0  0  0  0
   -7.7675   21.1124  -21.8468 O   0  0  0  0  0  0  0  0  0  0  0  0
   -8.4361   22.2603  -19.8530 O   0  0  0  0  0  0  0  0  0  0  0  0
   -5.7393   19.8980  -18.9040 N   0  0  0  0  0  0  0  0  0  0  0  0
   -5.8175   18.5483  -19.5538 H   0  0  0  0  0  0  0  0  0  0  0  0
   -6.3932   20.1292  -17.5740 C   0  0  0  0  0  0  0  0  0  0  0  0
   -7.8234   19.7296  -17.3618 C   0  0  0  0  0  0  0  0  0  0  0  0
   -8.4773   19.9609  -16.0318 C   0  0  0  0  0  0  0  0  0  0  0  0
   -7.7010   20.5918  -14.9140 C   0  0  0  0  0  0  0  0  0  0  0  0
   -6.2709   20.9914  -15.1262 C   0  0  0  0  0  0  0  0  0  0  0  0
   -5.6170   20.7601  -16.4562 C   0  0  0  0  0  0  0  0  0  0  0  0
   -8.3549   20.8231  -13.5840 S   0  0  0  0  0  0  0  0  0  0  0  0
   -9.0089   21.0543  -12.2540 C   0  0  0  0  0  0  0  0  0  0  0  0
   -7.1650   21.6197  -13.1374 O   0  0  0  0  0  0  0  0  0  0  0  0
   -9.5449   20.0264  -14.0306 O   0  0  0  0  0  0  0  0  0  0  0  0
   -5.7707   24.0685  -22.0033 O   0  0  0  0  0  0  0  0  0  0  0  0
   -6.6028   24.9596  -21.4368 C   0  0  0  0  0  0  0  0  0  0  0  0
   -5.4933   25.2567  -20.4721 O   0  0  0  0  0  0  0  0  0  0  0  0
   -7.9981   25.4813  -21.6131 N   0  0  0  0  0  0  0  0  0  0  0  0
   -8.9760   25.0461  -22.6640 C   0  0  0  0  0  0  0  0  0  0  0  0
  -10.2427   25.8257  -22.4697 C   0  0  0  0  0  0  0  0  0  0  0  0
  -10.0477   26.7427  -21.2988 C   0  0  0  0  0  0  0  0  0  0  0  0
   -8.6605   26.5298  -20.7693 C   0  0  0  0  0  0  0  0  0  0  0  0
   -7.2430   26.1126  -20.4595 C   0  0  0  0  0  0  0  0  0  0  0  0
   -6.7142   25.0576  -21.3856 C   0  0  0  0  0  0  0  0  0  0  0  0
   -7.5807   24.5244  -22.4877 C   0  0  0  0  0  0  0  0  0  0  0  0
   -6.0741   23.9046  -22.3628 O   0  0  0  0  0  0  0  0  0  0  0  0
   -6.3896   23.2304  -24.3492 C   0  0  0  0  0  0  0  0  0  0  0  0
   -5.5400   24.2890  -23.7108 C   0  0  0  0  0  0  0  0  0  0  0  0
   -4.6905   25.3476  -23.0723 C   0  0  0  0  0  0  0  0  0  0  0  0
   -5.0060   24.6734  -25.0587 C   0  0  0  0  0  0  0  0  0  0  0  0
 34 35  1  0  0  0
 35 36  1  0  0  0
 35 37  1  0  0  0
 35 33  1  0  0  0
 33 23  1  0  0  0
 23 24  2  0  0  0
 23 25  1  0  0  0
 25 26  1  0  0  0
 26 27  1  0  0  0
 27 28  1  0  0  0
 28 29  1  0  0  0
 29 30  1  0  0  0
 30 31  1  0  0  0
 31 22  1  0  0  0
 22  1  1  0  0  0
  1  2  2  0  0  0
  2  3  1  0  0  0
  3  4  2  0  0  0
  4  5  1  0  0  0
  5 10  1  0  0  0
 10 12  1  0  0  0
 12 13  2  0  0  0
 13 14  1  0  0  0
 14 15  2  0  0  0
 15 18  1  0  0  0
 18 19  1  0  0  0
 18 20  2  0  0  0
 18 21  2  0  0  0
 15 16  1  0  0  0
 16 17  2  0  0  0
  5  6  2  0  0  0
  6  7  1  0  0  0
  7  8  2  0  0  0
  7  9  1  0  0  0
 31 32  1  0  0  0
 29 25  1  0  0  0
  6  1  1  0  0  0
 32 26  1  0  0  0
 17 12  1  0  0  0
 10 11  1  0  0  0
M  CHG 1   7   1
M  CHG 1   9  -1
M  END
> <minimizedAffinity>
-6.43897

> <CNNscore>
0.1225773543

> <CNNaffinity>
5.6071224213

> <CNN_VS>
0.6873062253

> <CNNaffinity_variance>
0.2656165957

$$$$
[H]c1nc(OC2([H])C([H])([H])[C@@]3([H])N(C(=O)OC(C([H])([H])[H])(C([H])([H])[H])C([H])([H])[H])[C@]([H])(C2([H])[H])C([H])([H])C3([H])[H])c([N+](=O)[O-])c(N([H])c2c([H])c([H])c(S(=O)(=O)C([H])([H])[H])c([H])c2[H])n1


 37 40  0  0  0  0  0  0  0  0999 V2000
   -5.0032   23.0400  -20.6589 C   0  0  0  0  0  0  0  0  0  0  0  0
   -3.5118   23.1902  -20.6019 N   0  0  0  0  0  0  0  0  0  0  0  0
   -2.7184   22.4175  -19.5903 C   0  0  0  0  0  0  0  0  0  0  0  0
   -3.4163   21.4947  -18.6356 N   0  0  0  0  0  0  0  0  0  0  0  0
   -4.9077   21.3446  -18.6926 C   0  0  0  0  0  0  0  0  0  0  0  0
   -5.7011   22.1172  -19.7042 C   0  0  0  0  0  0  0  0  0  0  0  0
   -7.1925   21.9670  -19.7612 N   0  0  0  0  0  0  0  0  0  0  0  0
   -7.8120   20.9909  -20.7170 O   0  0  0  0  0  0  0  0  0  0  0  0
   -8.3334   22.6111  -19.0308 O   0  0  0  0  0  0  0  0  0  0  0  0
   -5.6056   20.4218  -17.7379 N   0  0  0  0  0  0  0  0  0  0  0  0
   -6.0337   20.9211  -16.3898 H   0  0  0  0  0  0  0  0  0  0  0  0
   -5.8753   18.9997  -18.1314 C   0  0  0  0  0  0  0  0  0  0  0  0
   -4.7342   18.0820  -18.4564 C   0  0  0  0  0  0  0  0  0  0  0  0
   -5.0041   16.6599  -18.8498 C   0  0  0  0  0  0  0  0  0  0  0  0
   -6.4151   16.1555  -18.9184 C   0  0  0  0  0  0  0  0  0  0  0  0
   -7.5562   17.0732  -18.5934 C   0  0  0  0  0  0  0  0  0  0  0  0
   -7.2864   18.4953  -18.1999 C   0  0  0  0  0  0  0  0  0  0  0  0
   -6.6849   14.7335  -19.3119 S   0  0  0  0  0  0  0  0  0  0  0  0
   -6.9548   13.3113  -19.7053 C   0  0  0  0  0  0  0  0  0  0  0  0
   -5.7784   14.8892  -20.4968 O   0  0  0  0  0  0  0  0  0  0  0  0
   -7.5915   14.5776  -18.1270 O   0  0  0  0  0  0  0  0  0  0  0  0
   -5.7967   23.8126  -21.6705 O   0  0  0  0  0  0  0  0  0  0  0  0
   -6.6170   24.7938  -21.2564 C   0  0  0  0  0  0  0  0  0  0  0  0
   -5.5081   25.2203  -20.3408 O   0  0  0  0  0  0  0  0  0  0  0  0
   -8.0024   25.3034  -21.5230 N   0  0  0  0  0  0  0  0  0  0  0  0
   -8.9816   24.7251  -22.5012 C   0  0  0  0  0  0  0  0  0  0  0  0
  -10.2362   25.5450  -22.4409 C   0  0  0  0  0  0  0  0  0  0  0  0
  -10.0325   26.6300  -21.4254 C   0  0  0  0  0  0  0  0  0  0  0  0
   -8.6520   26.4807  -20.8581 C   0  0  0  0  0  0  0  0  0  0  0  0
   -7.2434   26.0949  -20.4757 C   0  0  0  0  0  0  0  0  0  0  0  0
   -6.7271   24.9004  -21.2220 C   0  0  0  0  0  0  0  0  0  0  0  0
   -7.5962   24.2155  -22.2347 C   0  0  0  0  0  0  0  0  0  0  0  0
   -6.1007   23.5994  -22.0026 O   0  0  0  0  0  0  0  0  0  0  0  0
   -4.8274   24.9910  -22.9732 C   0  0  0  0  0  0  0  0  0  0  0  0
   -5.5693   23.7579  -23.3963 C   0  0  0  0  0  0  0  0  0  0  0  0
   -6.3112   22.5248  -23.8194 C   0  0  0  0  0  0  0  0  0  0  0  0
   -5.0379   23.9164  -24.7900 C   0  0  0  0  0  0  0  0  0  0  0  0
 34 35  1  0  0  0
 35 36  1  0  0  0
 35 37  1  0  0  0
 35 33  1  0  0  0
 33 23  1  0  0  0
 23 24  2  0  0  0
 23 25  1  0  0  0
 25 26  1  0  0  0
 26 27  1  0  0  0
 27 28  1  0  0  0
 28 29  1  0  0  0
 29 30  1  0  0  0
 30 31  1  0  0  0
 31 22  1  0  0  0
 22  1  1  0  0  0
  1  2  2  0  0  0
  2  3  1  0  0  0
  3  4  2  0  0  0
  4  5  1  0  0  0
  5 10  1  0  0  0
 10 12  1  0  0  0
 12 13  2  0  0  0
 13 14  1  0  0  0
 14 15  2  0  0  0
 15 18  1  0  0  0
 18 19  1  0  0  0
 18 20  2  0  0  0
 18 21  2  0  0  0
 15 16  1  0  0  0
 16 17  2  0  0  0
  5  6  2  0  0  0
  6  7  1  0  0  0
  7  8  2  0  0  0
  7  9  1  0  0  0
 31 32  1  0  0  0
 29 25  1  0  0  0
  6  1  1  0  0  0
 32 26  1  0  0  0
 17 12  1  0  0  0
 10 11  1  0  0  0
M  CHG 1   7   1
M  CHG 1   9  -1
M  END
> <minimizedAffinity>
-6.83228

> <CNNscore>
0.1125700697

> <CNNaffinity>
5.4736962318

> <CNN_VS>
0.6161743402

> <CNNaffinity_variance>
0.2531656623

$$$$
[H]c1nc(OC2([H])C([H])([H])[C@@]3([H])N(C(=O)OC(C([H])([H])[H])(C([H])([H])[H])C([H])([H])[H])[C@]([H])(C2([H])[H])C([H])([H])C3([H])[H])c([N+](=O)[O-])c(N([H])c2c([H])c([H])c(S(=O)(=O)C([H])([H])[H])c([H])c2[H])n1


 37 40  0  0  0  0  0  0  0  0999 V2000
   -5.3371   22.7354  -20.9183 C   0  0  0  0  0  0  0  0  0  0  0  0
   -3.8832   22.9131  -21.2416 N   0  0  0  0  0  0  0  0  0  0  0  0
   -2.8461   22.1399  -20.4823 C   0  0  0  0  0  0  0  0  0  0  0  0
   -3.2630   21.1890  -19.3996 N   0  0  0  0  0  0  0  0  0  0  0  0
   -4.7169   21.0113  -19.0763 C   0  0  0  0  0  0  0  0  0  0  0  0
   -5.7540   21.7845  -19.8356 C   0  0  0  0  0  0  0  0  0  0  0  0
   -7.2079   21.6068  -19.5124 N   0  0  0  0  0  0  0  0  0  0  0  0
   -8.0412   20.6465  -20.3082 O   0  0  0  0  0  0  0  0  0  0  0  0
   -8.1296   22.2072  -18.4925 O   0  0  0  0  0  0  0  0  0  0  0  0
   -5.1337   20.0604  -17.9936 N   0  0  0  0  0  0  0  0  0  0  0  0
   -5.4089   20.5724  -16.6108 H   0  0  0  0  0  0  0  0  0  0  0  0
   -5.2753   18.5976  -18.2939 C   0  0  0  0  0  0  0  0  0  0  0  0
   -4.0603   17.7187  -18.3319 C   0  0  0  0  0  0  0  0  0  0  0  0
   -4.2020   16.2560  -18.6321 C   0  0  0  0  0  0  0  0  0  0  0  0
   -5.5586   15.6720  -18.8943 C   0  0  0  0  0  0  0  0  0  0  0  0
   -6.7735   16.5509  -18.8563 C   0  0  0  0  0  0  0  0  0  0  0  0
   -6.6319   18.0137  -18.5561 C   0  0  0  0  0  0  0  0  0  0  0  0
   -5.7002   14.2093  -19.1946 S   0  0  0  0  0  0  0  0  0  0  0  0
   -5.8418   12.7464  -19.4948 C   0  0  0  0  0  0  0  0  0  0  0  0
   -7.1912   14.3308  -19.0836 O   0  0  0  0  0  0  0  0  0  0  0  0
   -4.2092   14.0876  -19.3055 O   0  0  0  0  0  0  0  0  0  0  0  0
   -6.3743   23.5085  -21.6776 O   0  0  0  0  0  0  0  0  0  0  0  0
   -6.3333   23.5369  -23.0210 C   0  0  0  0  0  0  0  0  0  0  0  0
   -6.7220   22.0887  -22.9800 O   0  0  0  0  0  0  0  0  0  0  0  0
   -6.0460   24.5077  -24.1278 N   0  0  0  0  0  0  0  0  0  0  0  0
   -5.6644   25.9486  -23.9597 C   0  0  0  0  0  0  0  0  0  0  0  0
   -5.4723   26.5395  -25.3250 C   0  0  0  0  0  0  0  0  0  0  0  0
   -5.7352   25.4638  -26.3368 C   0  0  0  0  0  0  0  0  0  0  0  0
   -6.0897   24.2081  -25.5969 C   0  0  0  0  0  0  0  0  0  0  0  0
   -6.4070   23.1146  -24.6055 C   0  0  0  0  0  0  0  0  0  0  0  0
   -6.3231   23.5608  -23.1758 C   0  0  0  0  0  0  0  0  0  0  0  0
   -5.9518   24.9778  -22.8530 C   0  0  0  0  0  0  0  0  0  0  0  0
   -6.2494   23.9830  -21.5914 O   0  0  0  0  0  0  0  0  0  0  0  0
   -6.4295   25.6374  -20.2758 C   0  0  0  0  0  0  0  0  0  0  0  0
   -7.3959   24.7225  -20.9679 C   0  0  0  0  0  0  0  0  0  0  0  0
   -8.3624   23.8075  -21.6600 C   0  0  0  0  0  0  0  0  0  0  0  0
   -8.5424   25.4619  -20.3444 C   0  0  0  0  0  0  0  0  0  0  0  0
 34 35  1  0  0  0
 35 36  1  0  0  0
 35 37  1  0  0  0
 35 33  1  0  0  0
 33 23  1  0  0  0
 23 24  2  0  0  0
 23 25  1  0  0  0
 25 26  1  0  0  0
 26 27  1  0  0  0
 27 28  1  0  0  0
 28 29  1  0  0  0
 29 30  1  0  0  0
 30 31  1  0  0  0
 31 22  1  0  0  0
 22  1  1  0  0  0
  1  2  2  0  0  0
  2  3  1  0  0  0
  3  4  2  0  0  0
  4  5  1  0  0  0
  5 10  1  0  0  0
 10 12  1  0  0  0
 12 13  2  0  0  0
 13 14  1  0  0  0
 14 15  2  0  0  0
 15 18  1  0  0  0
 18 19  1  0  0  0
 18 20  2  0  0  0
 18 21  2  0  0  0
 15 16  1  0  0  0
 16 17  2  0  0  0
  5  6  2  0  0  0
  6  7  1  0  0  0
  7  8  2  0  0  0
  7  9  1  0  0  0
 31 32  1  0  0  0
 29 25  1  0  0  0
  6  1  1  0  0  0
 32 26  1  0  0  0
 17 12  1  0  0  0
 10 11  1  0  0  0
M  CHG 1   7   1
M  CHG 1   9  -1
M  END
> <minimizedAffinity>
-6.69792

> <CNNscore>
0.1090216413

> <CNNaffinity>
5.5473299026

> <CNN_VS>
0.6047790051

> <CNNaffinity_variance>
0.1777699292

$$$$
[H]c1nc(OC2([H])C([H])([H])[C@@]3([H])N(C(=O)OC(C([H])([H])[H])(C([H])([H])[H])C([H])([H])[H])[C@]([H])(C2([H])[H])C([H])([H])C3([H])[H])c([N+](=O)[O-])c(N([H])c2c([H])c([H])c(S(=O)(=O)C([H])([H])[H])c([H])c2[H])n1


 37 40  0  0  0  0  0  0  0  0999 V2000
   -5.1147   22.9195  -20.8773 C   0  0  0  0  0  0  0  0  0  0  0  0
   -3.6274   23.1114  -20.9118 N   0  0  0  0  0  0  0  0  0  0  0  0
   -2.7570   22.4075  -19.9135 C   0  0  0  0  0  0  0  0  0  0  0  0
   -3.3739   21.5115  -18.8805 N   0  0  0  0  0  0  0  0  0  0  0  0
   -4.8611   21.3196  -18.8461 C   0  0  0  0  0  0  0  0  0  0  0  0
   -5.7315   22.0236  -19.8444 C   0  0  0  0  0  0  0  0  0  0  0  0
   -7.2188   21.8316  -19.8099 N   0  0  0  0  0  0  0  0  0  0  0  0
   -7.8672   20.8313  -20.7205 O   0  0  0  0  0  0  0  0  0  0  0  0
   -8.3311   22.4494  -19.0155 O   0  0  0  0  0  0  0  0  0  0  0  0
   -5.4780   20.4237  -17.8132 N   0  0  0  0  0  0  0  0  0  0  0  0
   -5.7815   20.9556  -16.4439 H   0  0  0  0  0  0  0  0  0  0  0  0
   -5.7913   18.9959  -18.1496 C   0  0  0  0  0  0  0  0  0  0  0  0
   -4.6812   18.0410  -18.4753 C   0  0  0  0  0  0  0  0  0  0  0  0
   -4.9946   16.6133  -18.8118 C   0  0  0  0  0  0  0  0  0  0  0  0
   -6.4181   16.1403  -18.8226 C   0  0  0  0  0  0  0  0  0  0  0  0
   -7.5281   17.0951  -18.4969 C   0  0  0  0  0  0  0  0  0  0  0  0
   -7.2148   18.5229  -18.1604 C   0  0  0  0  0  0  0  0  0  0  0  0
   -6.7315   14.7126  -19.1590 S   0  0  0  0  0  0  0  0  0  0  0  0
   -7.0449   13.2847  -19.4955 C   0  0  0  0  0  0  0  0  0  0  0  0
   -5.8738   14.8132  -20.3855 O   0  0  0  0  0  0  0  0  0  0  0  0
   -7.5893   14.6118  -17.9326 O   0  0  0  0  0  0  0  0  0  0  0  0
   -5.9852   23.6234  -21.8757 O   0  0  0  0  0  0  0  0  0  0  0  0
   -5.6766   23.5706  -23.1830 C   0  0  0  0  0  0  0  0  0  0  0  0
   -6.0434   22.1173  -23.1252 O   0  0  0  0  0  0  0  0  0  0  0  0
   -5.1883   24.4795  -24.2718 N   0  0  0  0  0  0  0  0  0  0  0  0
   -4.8701   25.9381  -24.1262 C   0  0  0  0  0  0  0  0  0  0  0  0
   -4.4176   26.4494  -25.4618 C   0  0  0  0  0  0  0  0  0  0  0  0
   -4.4561   25.3068  -26.4329 C   0  0  0  0  0  0  0  0  0  0  0  0
   -4.9324   24.0894  -25.6974 C   0  0  0  0  0  0  0  0  0  0  0  0
   -5.4251   23.0501  -24.7194 C   0  0  0  0  0  0  0  0  0  0  0  0
   -5.6359   23.5852  -23.3340 C   0  0  0  0  0  0  0  0  0  0  0  0
   -5.3584   25.0292  -23.0374 C   0  0  0  0  0  0  0  0  0  0  0  0
   -5.8874   24.1056  -21.7977 O   0  0  0  0  0  0  0  0  0  0  0  0
   -6.3899   25.7822  -20.5991 C   0  0  0  0  0  0  0  0  0  0  0  0
   -7.1603   24.8218  -21.4559 C   0  0  0  0  0  0  0  0  0  0  0  0
   -7.9307   23.8613  -22.3126 C   0  0  0  0  0  0  0  0  0  0  0  0
   -8.4332   25.5379  -21.1141 C   0  0  0  0  0  0  0  0  0  0  0  0
 34 35  1  0  0  0
 35 36  1  0  0  0
 35 37  1  0  0  0
 35 33  1  0  0  0
 33 23  1  0  0  0
 23 24  2  0  0  0
 23 25  1  0  0  0
 25 26  1  0  0  0
 26 27  1  0  0  0
 27 28  1  0  0  0
 28 29  1  0  0  0
 29 30  1  0  0  0
 30 31  1  0  0  0
 31 22  1  0  0  0
 22  1  1  0  0  0
  1  2  2  0  0  0
  2  3  1  0  0  0
  3  4  2  0  0  0
  4  5  1  0  0  0
  5 10  1  0  0  0
 10 12  1  0  0  0
 12 13  2  0  0  0
 13 14  1  0  0  0
 14 15  2  0  0  0
 15 18  1  0  0  0
 18 19  1  0  0  0
 18 20  2  0  0  0
 18 21  2  0  0  0
 15 16  1  0  0  0
 16 17  2  0  0  0
  5  6  2  0  0  0
  6  7  1  0  0  0
  7  8  2  0  0  0
  7  9  1  0  0  0
 31 32  1  0  0  0
 29 25  1  0  0  0
  6  1  1  0  0  0
 32 26  1  0  0  0
 17 12  1  0  0  0
 10 11  1  0  0  0
M  CHG 1   7   1
M  CHG 1   9  -1
M  END
> <minimizedAffinity>
-6.99976

> <CNNscore>
0.1079481468

> <CNNaffinity>
5.5083150864

> <CNN_VS>
0.5946124196

> <CNNaffinity_variance>
0.1886318624

$$$$
[H]c1nc(OC2([H])C([H])([H])[C@@]3([H])N(C(=O)OC(C([H])([H])[H])(C([H])([H])[H])C([H])([H])[H])[C@]([H])(C2([H])[H])C([H])([H])C3([H])[H])c([N+](=O)[O-])c(N([H])c2c([H])c([H])c(S(=O)(=O)C([H])([H])[H])c([H])c2[H])n1


 37 40  0  0  0  0  0  0  0  0999 V2000
   -2.5178   22.3579  -23.8742 C   0  0  0  0  0  0  0  0  0  0  0  0
   -1.4207   21.4031  -24.2413 N   0  0  0  0  0  0  0  0  0  0  0  0
   -0.2560   21.2076  -23.3166 C   0  0  0  0  0  0  0  0  0  0  0  0
   -0.1883   21.9670  -22.0247 N   0  0  0  0  0  0  0  0  0  0  0  0
   -1.2853   22.9218  -21.6577 C   0  0  0  0  0  0  0  0  0  0  0  0
   -2.4500   23.1173  -22.5824 C   0  0  0  0  0  0  0  0  0  0  0  0
   -3.5471   24.0721  -22.2153 N   0  0  0  0  0  0  0  0  0  0  0  0
   -4.5204   23.7153  -21.1311 O   0  0  0  0  0  0  0  0  0  0  0  0
   -3.9564   25.4284  -22.7082 O   0  0  0  0  0  0  0  0  0  0  0  0
   -1.2176   23.6812  -20.3658 N   0  0  0  0  0  0  0  0  0  0  0  0
   -1.6536   25.1155  -20.3152 H   0  0  0  0  0  0  0  0  0  0  0  0
   -0.7138   23.0062  -19.1246 C   0  0  0  0  0  0  0  0  0  0  0  0
   -1.6604   22.2349  -18.2534 C   0  0  0  0  0  0  0  0  0  0  0  0
   -1.1566   21.5599  -17.0123 C   0  0  0  0  0  0  0  0  0  0  0  0
    0.2939   21.6561  -16.6423 C   0  0  0  0  0  0  0  0  0  0  0  0
    1.2405   22.4274  -17.5135 C   0  0  0  0  0  0  0  0  0  0  0  0
    0.7367   23.1024  -18.7547 C   0  0  0  0  0  0  0  0  0  0  0  0
    0.7978   20.9812  -15.4012 S   0  0  0  0  0  0  0  0  0  0  0  0
    1.3017   20.3062  -14.1599 C   0  0  0  0  0  0  0  0  0  0  0  0
   -0.1424   19.8373  -15.6415 O   0  0  0  0  0  0  0  0  0  0  0  0
    1.7380   22.1250  -15.1608 O   0  0  0  0  0  0  0  0  0  0  0  0
   -3.6825   22.5535  -24.7989 O   0  0  0  0  0  0  0  0  0  0  0  0
   -3.4594   22.8689  -26.0865 C   0  0  0  0  0  0  0  0  0  0  0  0
   -2.5089   21.7090  -26.1189 O   0  0  0  0  0  0  0  0  0  0  0  0
   -3.9023   23.8819  -27.1003 N   0  0  0  0  0  0  0  0  0  0  0  0
   -4.8856   24.9904  -26.8676 C   0  0  0  0  0  0  0  0  0  0  0  0
   -5.0307   25.7578  -28.1483 C   0  0  0  0  0  0  0  0  0  0  0  0
   -4.1370   25.1235  -29.1725 C   0  0  0  0  0  0  0  0  0  0  0  0
   -3.4396   23.9641  -28.5247 C   0  0  0  0  0  0  0  0  0  0  0  0
   -2.8948   22.8788  -27.6278 C   0  0  0  0  0  0  0  0  0  0  0  0
   -3.4473   22.9217  -26.2339 C   0  0  0  0  0  0  0  0  0  0  0  0
   -4.4427   23.9775  -25.8538 C   0  0  0  0  0  0  0  0  0  0  0  0
   -4.0119   22.9118  -24.6926 O   0  0  0  0  0  0  0  0  0  0  0  0
   -4.4479   20.8529  -24.4263 C   0  0  0  0  0  0  0  0  0  0  0  0
   -5.2409   22.1237  -24.3485 C   0  0  0  0  0  0  0  0  0  0  0  0
   -6.0340   23.3945  -24.2707 C   0  0  0  0  0  0  0  0  0  0  0  0
   -6.4700   21.3357  -24.0043 C   0  0  0  0  0  0  0  0  0  0  0  0
 34 35  1  0  0  0
 35 36  1  0  0  0
 35 37  1  0  0  0
 35 33  1  0  0  0
 33 23  1  0  0  0
 23 24  2  0  0  0
 23 25  1  0  0  0
 25 26  1  0  0  0
 26 27  1  0  0  0
 27 28  1  0  0  0
 28 29  1  0  0  0
 29 30  1  0  0  0
 30 31  1  0  0  0
 31 22  1  0  0  0
 22  1  1  0  0  0
  1  2  2  0  0  0
  2  3  1  0  0  0
  3  4  2  0  0  0
  4  5  1  0  0  0
  5 10  1  0  0  0
 10 12  1  0  0  0
 12 13  2  0  0  0
 13 14  1  0  0  0
 14 15  2  0  0  0
 15 18  1  0  0  0
 18 19  1  0  0  0
 18 20  2  0  0  0
 18 21  2  0  0  0
 15 16  1  0  0  0
 16 17  2  0  0  0
  5  6  2  0  0  0
  6  7  1  0  0  0
  7  8  2  0  0  0
  7  9  1  0  0  0
 31 32  1  0  0  0
 29 25  1  0  0  0
  6  1  1  0  0  0
 32 26  1  0  0  0
 17 12  1  0  0  0
 10 11  1  0  0  0
M  CHG 1   7   1
M  CHG 1   9  -1
M  END
> <minimizedAffinity>
-8.13159

> <CNNscore>
0.1052394882

> <CNNaffinity>
6.1083669662

> <CNN_VS>
0.6428413987

> <CNNaffinity_variance>
0.0581274405

$$$$
[H]c1nc(OC2([H])C([H])([H])[C@@]3([H])N(C(=O)OC(C([H])([H])[H])(C([H])([H])[H])C([H])([H])[H])[C@]([H])(C2([H])[H])C([H])([H])C3([H])[H])c([N+](=O)[O-])c(N([H])c2c([H])c([H])c(S(=O)(=O)C([H])([H])[H])c([H])c2[H])n1


 37 40  0  0  0  0  0  0  0  0999 V2000
   -4.5660   22.4856  -21.0501 C   0  0  0  0  0  0  0  0  0  0  0  0
   -5.1661   21.8346  -19.8393 N   0  0  0  0  0  0  0  0  0  0  0  0
   -4.3212   20.9588  -18.9624 C   0  0  0  0  0  0  0  0  0  0  0  0
   -2.8762   20.7339  -19.2962 N   0  0  0  0  0  0  0  0  0  0  0  0
   -2.2761   21.3850  -20.5070 C   0  0  0  0  0  0  0  0  0  0  0  0
   -3.1210   22.2608  -21.3840 C   0  0  0  0  0  0  0  0  0  0  0  0
   -2.5209   22.9118  -22.5948 N   0  0  0  0  0  0  0  0  0  0  0  0
   -1.8623   24.2542  -22.4757 O   0  0  0  0  0  0  0  0  0  0  0  0
   -2.4019   22.5195  -24.0377 O   0  0  0  0  0  0  0  0  0  0  0  0
   -0.8311   21.1601  -20.8409 N   0  0  0  0  0  0  0  0  0  0  0  0
   -0.4560   20.2613  -21.9817 H   0  0  0  0  0  0  0  0  0  0  0  0
    0.2387   21.8341  -20.0339 C   0  0  0  0  0  0  0  0  0  0  0  0
   -0.0786   23.0778  -19.2577 C   0  0  0  0  0  0  0  0  0  0  0  0
    0.9912   23.7517  -18.4507 C   0  0  0  0  0  0  0  0  0  0  0  0
    2.3785   23.1819  -18.4200 C   0  0  0  0  0  0  0  0  0  0  0  0
    2.6958   21.9382  -19.1962 C   0  0  0  0  0  0  0  0  0  0  0  0
    1.6260   21.2643  -20.0031 C   0  0  0  0  0  0  0  0  0  0  0  0
    3.4483   23.8558  -17.6130 S   0  0  0  0  0  0  0  0  0  0  0  0
    4.5183   24.5297  -16.8060 C   0  0  0  0  0  0  0  0  0  0  0  0
    2.8905   25.1956  -17.9921 O   0  0  0  0  0  0  0  0  0  0  0  0
    4.0063   22.5160  -17.2338 O   0  0  0  0  0  0  0  0  0  0  0  0
   -5.4108   23.3614  -21.9271 O   0  0  0  0  0  0  0  0  0  0  0  0
   -6.1631   24.3298  -21.3762 C   0  0  0  0  0  0  0  0  0  0  0  0
   -4.8809   25.0657  -21.1221 O   0  0  0  0  0  0  0  0  0  0  0  0
   -7.6072   24.6266  -21.0996 N   0  0  0  0  0  0  0  0  0  0  0  0
   -8.7699   23.7417  -21.4389 C   0  0  0  0  0  0  0  0  0  0  0  0
  -10.0235   24.4286  -20.9842 C   0  0  0  0  0  0  0  0  0  0  0  0
   -9.6356   25.7381  -20.3640 C   0  0  0  0  0  0  0  0  0  0  0  0
   -8.1423   25.8605  -20.4353 C   0  0  0  0  0  0  0  0  0  0  0  0
   -6.6539   25.7131  -20.6411 C   0  0  0  0  0  0  0  0  0  0  0  0
   -6.2678   24.4305  -21.3165 C   0  0  0  0  0  0  0  0  0  0  0  0
   -7.3258   23.4449  -21.7154 C   0  0  0  0  0  0  0  0  0  0  0  0
   -5.7770   23.0474  -22.0516 O   0  0  0  0  0  0  0  0  0  0  0  0
   -5.2859   24.2794  -23.7072 C   0  0  0  0  0  0  0  0  0  0  0  0
   -5.8957   22.9190  -23.5413 C   0  0  0  0  0  0  0  0  0  0  0  0
   -6.5054   21.5586  -23.3755 C   0  0  0  0  0  0  0  0  0  0  0  0
   -6.0144   22.7906  -25.0311 C   0  0  0  0  0  0  0  0  0  0  0  0
 34 35  1  0  0  0
 35 36  1  0  0  0
 35 37  1  0  0  0
 35 33  1  0  0  0
 33 23  1  0  0  0
 23 24  2  0  0  0
 23 25  1  0  0  0
 25 26  1  0  0  0
 26 27  1  0  0  0
 27 28  1  0  0  0
 28 29  1  0  0  0
 29 30  1  0  0  0
 30 31  1  0  0  0
 31 22  1  0  0  0
 22  1  1  0  0  0
  1  2  2  0  0  0
  2  3  1  0  0  0
  3  4  2  0  0  0
  4  5  1  0  0  0
  5 10  1  0  0  0
 10 12  1  0  0  0
 12 13  2  0  0  0
 13 14  1  0  0  0
 14 15  2  0  0  0
 15 18  1  0  0  0
 18 19  1  0  0  0
 18 20  2  0  0  0
 18 21  2  0  0  0
 15 16  1  0  0  0
 16 17  2  0  0  0
  5  6  2  0  0  0
  6  7  1  0  0  0
  7  8  2  0  0  0
  7  9  1  0  0  0
 31 32  1  0  0  0
 29 25  1  0  0  0
  6  1  1  0  0  0
 32 26  1  0  0  0
 17 12  1  0  0  0
 10 11  1  0  0  0
M  CHG 1   7   1
M  CHG 1   9  -1
M  END
> <minimizedAffinity>
-7.56845

> <CNNscore>
0.1010234654

> <CNNaffinity>
5.5360503197

> <CNN_VS>
0.5592709780

> <CNNaffinity_variance>
0.3469471037

$$$$
[H]c1nc(OC2([H])C([H])([H])[C@@]3([H])N(C(=O)OC(C([H])([H])[H])(C([H])([H])[H])C([H])([H])[H])[C@]([H])(C2([H])[H])C([H])([H])C3([H])[H])c([N+](=O)[O-])c(N([H])c2c([H])c([H])c(S(=O)(=O)C([H])([H])[H])c([H])c2[H])n1


 37 40  0  0  0  0  0  0  0  0999 V2000
   -0.7387   21.7444  -22.1580 C   0  0  0  0  0  0  0  0  0  0  0  0
    0.3482   21.7231  -23.1915 N   0  0  0  0  0  0  0  0  0  0  0  0
    0.0635   22.1877  -24.5890 C   0  0  0  0  0  0  0  0  0  0  0  0
   -1.3081   22.6737  -24.9530 N   0  0  0  0  0  0  0  0  0  0  0  0
   -2.3950   22.6951  -23.9195 C   0  0  0  0  0  0  0  0  0  0  0  0
   -2.1104   22.2304  -22.5220 C   0  0  0  0  0  0  0  0  0  0  0  0
   -3.1973   22.2517  -21.4885 N   0  0  0  0  0  0  0  0  0  0  0  0
   -3.5615   23.5388  -20.8096 O   0  0  0  0  0  0  0  0  0  0  0  0
   -4.1013   21.2065  -20.9052 O   0  0  0  0  0  0  0  0  0  0  0  0
   -3.7666   23.1811  -24.2836 N   0  0  0  0  0  0  0  0  0  0  0  0
   -4.8719   23.1354  -23.2705 H   0  0  0  0  0  0  0  0  0  0  0  0
   -4.0329   23.7126  -25.6607 C   0  0  0  0  0  0  0  0  0  0  0  0
   -4.0602   22.7777  -26.8333 C   0  0  0  0  0  0  0  0  0  0  0  0
   -4.3264   23.3093  -28.2104 C   0  0  0  0  0  0  0  0  0  0  0  0
   -4.5655   24.7760  -28.4149 C   0  0  0  0  0  0  0  0  0  0  0  0
   -4.5383   25.7109  -27.2423 C   0  0  0  0  0  0  0  0  0  0  0  0
   -4.2720   25.1793  -25.8652 C   0  0  0  0  0  0  0  0  0  0  0  0
   -4.8318   25.3076  -29.7920 S   0  0  0  0  0  0  0  0  0  0  0  0
   -5.0980   25.8393  -31.1692 C   0  0  0  0  0  0  0  0  0  0  0  0
   -6.2707   24.9019  -29.6705 O   0  0  0  0  0  0  0  0  0  0  0  0
   -3.3928   25.7134  -29.9136 O   0  0  0  0  0  0  0  0  0  0  0  0
   -0.4541   21.2798  -20.7605 O   0  0  0  0  0  0  0  0  0  0  0  0
    0.5055   20.3629  -20.5471 C   0  0  0  0  0  0  0  0  0  0  0  0
   -0.3387   19.4153  -21.3467 O   0  0  0  0  0  0  0  0  0  0  0  0
    1.8297   20.2461  -19.8521 N   0  0  0  0  0  0  0  0  0  0  0  0
    2.5230   21.3344  -19.0873 C   0  0  0  0  0  0  0  0  0  0  0  0
    3.8149   20.7815  -18.5625 C   0  0  0  0  0  0  0  0  0  0  0  0
    3.9199   19.3515  -19.0029 C   0  0  0  0  0  0  0  0  0  0  0  0
    2.6931   19.0206  -19.7999 C   0  0  0  0  0  0  0  0  0  0  0  0
    1.3809   18.9742  -20.5451 C   0  0  0  0  0  0  0  0  0  0  0  0
    0.6278   20.2711  -20.5112 C   0  0  0  0  0  0  0  0  0  0  0  0
    1.1989   21.4512  -19.7823 C   0  0  0  0  0  0  0  0  0  0  0  0
   -0.2475   21.6597  -20.5132 O   0  0  0  0  0  0  0  0  0  0  0  0
   -0.4037   23.4546  -19.3934 C   0  0  0  0  0  0  0  0  0  0  0  0
   -0.9738   22.0728  -19.2674 C   0  0  0  0  0  0  0  0  0  0  0  0
   -1.5439   20.6911  -19.1415 C   0  0  0  0  0  0  0  0  0  0  0  0
   -1.7000   22.4860  -18.0217 C   0  0  0  0  0  0  0  0  0  0  0  0
 34 35  1  0  0  0
 35 36  1  0  0  0
 35 37  1  0  0  0
 35 33  1  0  0  0
 33 23  1  0  0  0
 23 24  2  0  0  0
 23 25  1  0  0  0
 25 26  1  0  0  0
 26 27  1  0  0  0
 27 28  1  0  0  0
 28 29  1  0  0  0
 29 30  1  0  0  0
 30 31  1  0  0  0
 31 22  1  0  0  0
 22  1  1  0  0  0
  1  2  2  0  0  0
  2  3  1  0  0  0
  3  4  2  0  0  0
  4  5  1  0  0  0
  5 10  1  0  0  0
 10 12  1  0  0  0
 12 13  2  0  0  0
 13 14  1  0  0  0
 14 15  2  0  0  0
 15 18  1  0  0  0
 18 19  1  0  0  0
 18 20  2  0  0  0
 18 21  2  0  0  0
 15 16  1  0  0  0
 16 17  2  0  0  0
  5  6  2  0  0  0
  6  7  1  0  0  0
  7  8  2  0  0  0
  7  9  1  0  0  0
 31 32  1  0  0  0
 29 25  1  0  0  0
  6  1  1  0  0  0
 32 26  1  0  0  0
 17 12  1  0  0  0
 10 11  1  0  0  0
M  CHG 1   7   1
M  CHG 1   9  -1
M  END
> <minimizedAffinity>
-7.97105

> <CNNscore>
0.0974316075

> <CNNaffinity>
6.2190809250

> <CNN_VS>
0.6059350371

> <CNNaffinity_variance>
0.0957163572

$$$$
[H]c1c([H])c(N([H])c2nc(N3C([H])([H])C([H])([H])C([H])([H])C3([H])[H])c3c([H])c([H])c([H])c([H])c3n2)c([H])c([H])c1OC([H])([H])[H]


 25 28  0  0  0  0  0  0  0  0999 V2000
   -2.1981   22.5367  -27.2083 C   0  0  0  0  0  0  0  0  0  0  0  0
   -3.1772   22.4187  -26.3076 N   0  0  0  0  0  0  0  0  0  0  0  0
   -2.9701   22.1376  -25.0047 C   0  0  0  0  0  0  0  0  0  0  0  0
   -1.6723   21.9615  -24.5821 C   0  0  0  0  0  0  0  0  0  0  0  0
   -1.3773   21.6629  -23.2782 C   0  0  0  0  0  0  0  0  0  0  0  0
   -0.0510   21.4906  -22.9207 C   0  0  0  0  0  0  0  0  0  0  0  0
    0.9774   21.6061  -23.8178 C   0  0  0  0  0  0  0  0  0  0  0  0
    0.7003   21.9027  -25.1238 C   0  0  0  0  0  0  0  0  0  0  0  0
   -0.6285   22.0800  -25.5055 C   0  0  0  0  0  0  0  0  0  0  0  0
   -0.9531   22.3621  -26.7705 N   0  0  0  0  0  0  0  0  0  0  0  0
   -4.0810   22.0646  -24.1114 N   0  0  0  0  0  0  0  0  0  0  0  0
   -4.5598   23.0891  -23.2398 C   0  0  0  0  0  0  0  0  0  0  0  0
   -6.0220   22.7414  -22.9503 C   0  0  0  0  0  0  0  0  0  0  0  0
   -6.2985   21.5930  -23.8617 C   0  0  0  0  0  0  0  0  0  0  0  0
   -4.9290   20.9080  -23.9472 C   0  0  0  0  0  0  0  0  0  0  0  0
   -2.5116   22.8161  -28.5550 N   0  0  0  0  0  0  0  0  0  0  0  0
   -1.8971   22.3227  -29.2714 H   0  0  0  0  0  0  0  0  0  0  0  0
   -5.4225   25.5435  -30.0416 C   0  0  0  0  0  0  0  0  0  0  0  0
   -5.7553   24.2329  -29.8121 C   0  0  0  0  0  0  0  0  0  0  0  0
   -4.8246   23.2969  -29.3305 C   0  0  0  0  0  0  0  0  0  0  0  0
   -3.5275   23.6495  -29.0630 C   0  0  0  0  0  0  0  0  0  0  0  0
   -3.2065   24.9956  -29.3048 C   0  0  0  0  0  0  0  0  0  0  0  0
   -4.1230   25.9051  -29.7764 C   0  0  0  0  0  0  0  0  0  0  0  0
   -5.9787   27.4354  -31.4667 C   0  0  0  0  0  0  0  0  0  0  0  0
   -6.3518   26.4557  -30.5169 O   0  0  0  0  0  0  0  0  0  0  0  0
 24 25  1  0  0  0
 25 18  1  0  0  0
 18 19  2  0  0  0
 19 20  1  0  0  0
 20 21  2  0  0  0
 21 16  1  0  0  0
 16  1  1  0  0  0
  1  2  2  0  0  0
  2  3  1  0  0  0
  3 11  1  0  0  0
 11 12  1  0  0  0
 12 13  1  0  0  0
 13 14  1  0  0  0
 14 15  1  0  0  0
  3  4  2  0  0  0
  4  5  1  0  0  0
  5  6  2  0  0  0
  6  7  1  0  0  0
  7  8  2  0  0  0
  8  9  1  0  0  0
  9 10  2  0  0  0
 21 22  1  0  0  0
 22 23  2  0  0  0
 23 18  1  0  0  0
 10  1  1  0  0  0
 15 11  1  0  0  0
  9  4  1  0  0  0
 16 17  1  0  0  0
M  END
> <minimizedAffinity>
-8.00947

> <CNNscore>
0.8255707026

> <CNNaffinity>
6.8574457169

> <CNN_VS>
5.6613063812

> <CNNaffinity_variance>
0.1473769248

$$$$
[H]c1c([H])c(N([H])c2nc(N3C([H])([H])C([H])([H])C([H])([H])C3([H])[H])c3c([H])c([H])c([H])c([H])c3n2)c([H])c([H])c1OC([H])([H])[H]


 25 28  0  0  0  0  0  0  0  0999 V2000
   -1.7021   22.5773  -25.8981 C   0  0  0  0  0  0  0  0  0  0  0  0
   -2.6023   23.0013  -25.0072 N   0  0  0  0  0  0  0  0  0  0  0  0
   -3.8600   23.3696  -25.3264 C   0  0  0  0  0  0  0  0  0  0  0  0
   -4.2342   23.3045  -26.6491 C   0  0  0  0  0  0  0  0  0  0  0  0
   -5.4892   23.6709  -27.0579 C   0  0  0  0  0  0  0  0  0  0  0  0
   -5.7986   23.5890  -28.4047 C   0  0  0  0  0  0  0  0  0  0  0  0
   -4.9008   23.1571  -29.3445 C   0  0  0  0  0  0  0  0  0  0  0  0
   -3.6432   22.7885  -28.9536 C   0  0  0  0  0  0  0  0  0  0  0  0
   -3.3103   22.8636  -27.6021 C   0  0  0  0  0  0  0  0  0  0  0  0
   -2.0926   22.5238  -27.1697 N   0  0  0  0  0  0  0  0  0  0  0  0
   -4.7605   23.7777  -24.2969 N   0  0  0  0  0  0  0  0  0  0  0  0
   -5.7031   22.9639  -23.5984 C   0  0  0  0  0  0  0  0  0  0  0  0
   -5.9876   23.6908  -22.2818 C   0  0  0  0  0  0  0  0  0  0  0  0
   -5.0067   24.8150  -22.2806 C   0  0  0  0  0  0  0  0  0  0  0  0
   -4.8595   25.1205  -23.7763 C   0  0  0  0  0  0  0  0  0  0  0  0
   -0.4028   22.2289  -25.4736 N   0  0  0  0  0  0  0  0  0  0  0  0
    0.3589   22.3550  -26.2072 H   0  0  0  0  0  0  0  0  0  0  0  0
    1.0812   20.7391  -21.7721 C   0  0  0  0  0  0  0  0  0  0  0  0
   -0.2658   20.9220  -21.9547 C   0  0  0  0  0  0  0  0  0  0  0  0
   -0.7982   21.4193  -23.1561 C   0  0  0  0  0  0  0  0  0  0  0  0
    0.0078   21.7486  -24.2144 C   0  0  0  0  0  0  0  0  0  0  0  0
    1.3837   21.5546  -24.0076 C   0  0  0  0  0  0  0  0  0  0  0  0
    1.8968   21.0678  -22.8289 C   0  0  0  0  0  0  0  0  0  0  0  0
    2.6835   20.8861  -19.9471 C   0  0  0  0  0  0  0  0  0  0  0  0
    1.5919   20.2474  -20.5809 O   0  0  0  0  0  0  0  0  0  0  0  0
 24 25  1  0  0  0
 25 18  1  0  0  0
 18 19  2  0  0  0
 19 20  1  0  0  0
 20 21  2  0  0  0
 21 16  1  0  0  0
 16  1  1  0  0  0
  1  2  2  0  0  0
  2  3  1  0  0  0
  3 11  1  0  0  0
 11 12  1  0  0  0
 12 13  1  0  0  0
 13 14  1  0  0  0
 14 15  1  0  0  0
  3  4  2  0  0  0
  4  5  1  0  0  0
  5  6  2  0  0  0
  6  7  1  0  0  0
  7  8  2  0  0  0
  8  9  1  0  0  0
  9 10  2  0  0  0
 21 22  1  0  0  0
 22 23  2  0  0  0
 23 18  1  0  0  0
 10  1  1  0  0  0
 15 11  1  0  0  0
  9  4  1  0  0  0
 16 17  1  0  0  0
M  END
> <minimizedAffinity>
-7.62789

> <CNNscore>
0.4739005566

> <CNNaffinity>
6.2615165710

> <CNN_VS>
2.9673361778

> <CNNaffinity_variance>
0.4238790870

$$$$
[H]c1c([H])c(N([H])c2nc(N3C([H])([H])C([H])([H])C([H])([H])C3([H])[H])c3c([H])c([H])c([H])c([H])c3n2)c([H])c([H])c1OC([H])([H])[H]


 25 28  0  0  0  0  0  0  0  0999 V2000
   -2.6003   23.1357  -27.2498 C   0  0  0  0  0  0  0  0  0  0  0  0
   -3.5188   23.4857  -26.3456 N   0  0  0  0  0  0  0  0  0  0  0  0
   -4.5742   24.2812  -26.6153 C   0  0  0  0  0  0  0  0  0  0  0  0
   -4.7088   24.7596  -27.8987 C   0  0  0  0  0  0  0  0  0  0  0  0
   -5.7460   25.5817  -28.2520 C   0  0  0  0  0  0  0  0  0  0  0  0
   -5.8184   26.0342  -29.5583 C   0  0  0  0  0  0  0  0  0  0  0  0
   -4.8952   25.6937  -30.5109 C   0  0  0  0  0  0  0  0  0  0  0  0
   -3.8529   24.8747  -30.1747 C   0  0  0  0  0  0  0  0  0  0  0  0
   -3.7605   24.4077  -28.8645 C   0  0  0  0  0  0  0  0  0  0  0  0
   -2.7569   23.6126  -28.4827 N   0  0  0  0  0  0  0  0  0  0  0  0
   -5.5218   24.5719  -25.5883 N   0  0  0  0  0  0  0  0  0  0  0  0
   -5.5301   25.6991  -24.7118 C   0  0  0  0  0  0  0  0  0  0  0  0
   -6.9749   25.8403  -24.2268 C   0  0  0  0  0  0  0  0  0  0  0  0
   -7.7204   24.8382  -25.0429 C   0  0  0  0  0  0  0  0  0  0  0  0
   -6.6636   23.7494  -25.2667 C   0  0  0  0  0  0  0  0  0  0  0  0
   -1.5194   22.3120  -26.8714 N   0  0  0  0  0  0  0  0  0  0  0  0
   -1.0118   21.8373  -27.6784 H   0  0  0  0  0  0  0  0  0  0  0  0
    0.2033   21.4947  -23.0652 C   0  0  0  0  0  0  0  0  0  0  0  0
   -1.1591   21.4921  -23.2235 C   0  0  0  0  0  0  0  0  0  0  0  0
   -1.7703   21.7650  -24.4589 C   0  0  0  0  0  0  0  0  0  0  0  0
   -1.0301   22.0489  -25.5768 C   0  0  0  0  0  0  0  0  0  0  0  0
    0.3628   22.0470  -25.3941 C   0  0  0  0  0  0  0  0  0  0  0  0
    0.9531   21.7793  -24.1818 C   0  0  0  0  0  0  0  0  0  0  0  0
    0.1096   21.5084  -20.6341 C   0  0  0  0  0  0  0  0  0  0  0  0
    0.7921   21.2234  -21.8400 O   0  0  0  0  0  0  0  0  0  0  0  0
 24 25  1  0  0  0
 25 18  1  0  0  0
 18 19  2  0  0  0
 19 20  1  0  0  0
 20 21  2  0  0  0
 21 16  1  0  0  0
 16  1  1  0  0  0
  1  2  2  0  0  0
  2  3  1  0  0  0
  3 11  1  0  0  0
 11 12  1  0  0  0
 12 13  1  0  0  0
 13 14  1  0  0  0
 14 15  1  0  0  0
  3  4  2  0  0  0
  4  5  1  0  0  0
  5  6  2  0  0  0
  6  7  1  0  0  0
  7  8  2  0  0  0
  8  9  1  0  0  0
  9 10  2  0  0  0
 21 22  1  0  0  0
 22 23  2  0  0  0
 23 18  1  0  0  0
 10  1  1  0  0  0
 15 11  1  0  0  0
  9  4  1  0  0  0
 16 17  1  0  0  0
M  END
> <minimizedAffinity>
-8.16065

> <CNNscore>
0.3773309290

> <CNNaffinity>
6.4047346115

> <CNN_VS>
2.4167044163

> <CNNaffinity_variance>
0.1058773547

$$$$
[H]c1c([H])c(N([H])c2nc(N3C([H])([H])C([H])([H])C([H])([H])C3([H])[H])c3c([H])c([H])c([H])c([H])c3n2)c([H])c([H])c1OC([H])([H])[H]


 25 28  0  0  0  0  0  0  0  0999 V2000
    0.4526   21.7996  -24.0282 C   0  0  0  0  0  0  0  0  0  0  0  0
   -0.7657   21.9850  -23.5134 N   0  0  0  0  0  0  0  0  0  0  0  0
   -1.1091   21.6456  -22.2539 C   0  0  0  0  0  0  0  0  0  0  0  0
   -0.1451   21.0740  -21.4553 C   0  0  0  0  0  0  0  0  0  0  0  0
   -0.4153   20.6908  -20.1682 C   0  0  0  0  0  0  0  0  0  0  0  0
    0.5975   20.1143  -19.4210 C   0  0  0  0  0  0  0  0  0  0  0  0
    1.8580   19.9113  -19.9167 C   0  0  0  0  0  0  0  0  0  0  0  0
    2.1444   20.2870  -21.2001 C   0  0  0  0  0  0  0  0  0  0  0  0
    1.1390   20.8693  -21.9703 C   0  0  0  0  0  0  0  0  0  0  0  0
    1.3646   21.2457  -23.2323 N   0  0  0  0  0  0  0  0  0  0  0  0
   -2.4297   21.9146  -21.7838 N   0  0  0  0  0  0  0  0  0  0  0  0
   -2.8023   22.7006  -20.6514 C   0  0  0  0  0  0  0  0  0  0  0  0
   -4.2481   23.1356  -20.9025 C   0  0  0  0  0  0  0  0  0  0  0  0
   -4.5173   22.6768  -22.2965 C   0  0  0  0  0  0  0  0  0  0  0  0
   -3.6382   21.4247  -22.4028 C   0  0  0  0  0  0  0  0  0  0  0  0
    0.7155   22.1706  -25.3636 N   0  0  0  0  0  0  0  0  0  0  0  0
    1.7464   22.1911  -25.6300 H   0  0  0  0  0  0  0  0  0  0  0  0
   -2.2555   23.0710  -28.2765 C   0  0  0  0  0  0  0  0  0  0  0  0
   -0.9251   23.2150  -28.5772 C   0  0  0  0  0  0  0  0  0  0  0  0
    0.0881   22.9378  -27.6440 C   0  0  0  0  0  0  0  0  0  0  0  0
   -0.2043   22.5055  -26.3768 C   0  0  0  0  0  0  0  0  0  0  0  0
   -1.5720   22.3646  -26.0884 C   0  0  0  0  0  0  0  0  0  0  0  0
   -2.5573   22.6383  -27.0070 C   0  0  0  0  0  0  0  0  0  0  0  0
   -4.6027   23.0822  -28.9168 C   0  0  0  0  0  0  0  0  0  0  0  0
   -3.2442   23.3483  -29.2078 O   0  0  0  0  0  0  0  0  0  0  0  0
 24 25  1  0  0  0
 25 18  1  0  0  0
 18 19  2  0  0  0
 19 20  1  0  0  0
 20 21  2  0  0  0
 21 16  1  0  0  0
 16  1  1  0  0  0
  1  2  2  0  0  0
  2  3  1  0  0  0
  3 11  1  0  0  0
 11 12  1  0  0  0
 12 13  1  0  0  0
 13 14  1  0  0  0
 14 15  1  0  0  0
  3  4  2  0  0  0
  4  5  1  0  0  0
  5  6  2  0  0  0
  6  7  1  0  0  0
  7  8  2  0  0  0
  8  9  1  0  0  0
  9 10  2  0  0  0
 21 22  1  0  0  0
 22 23  2  0  0  0
 23 18  1  0  0  0
 10  1  1  0  0  0
 15 11  1  0  0  0
  9  4  1  0  0  0
 16 17  1  0  0  0
M  END
> <minimizedAffinity>
-6.71458

> <CNNscore>
0.3213368952

> <CNNaffinity>
5.9620680809

> <CNN_VS>
1.9158324003

> <CNNaffinity_variance>
0.0354299024

$$$$
[H]c1c([H])c(N([H])c2nc(N3C([H])([H])C([H])([H])C([H])([H])C3([H])[H])c3c([H])c([H])c([H])c([H])c3n2)c([H])c([H])c1OC([H])([H])[H]


 25 28  0  0  0  0  0  0  0  0999 V2000
    1.9364   21.1587  -23.4369 C   0  0  0  0  0  0  0  0  0  0  0  0
    1.1449   21.3619  -22.3805 N   0  0  0  0  0  0  0  0  0  0  0  0
    1.3972   20.8761  -21.1477 C   0  0  0  0  0  0  0  0  0  0  0  0
    2.5377   20.1264  -20.9718 C   0  0  0  0  0  0  0  0  0  0  0  0
    2.8608   19.5879  -19.7544 C   0  0  0  0  0  0  0  0  0  0  0  0
    4.0189   18.8369  -19.6474 C   0  0  0  0  0  0  0  0  0  0  0  0
    4.8538   18.6105  -20.7091 C   0  0  0  0  0  0  0  0  0  0  0  0
    4.5455   19.1399  -21.9318 C   0  0  0  0  0  0  0  0  0  0  0  0
    3.3838   19.8991  -22.0620 C   0  0  0  0  0  0  0  0  0  0  0  0
    3.0329   20.4308  -23.2364 N   0  0  0  0  0  0  0  0  0  0  0  0
    0.5067   21.1759  -20.0733 N   0  0  0  0  0  0  0  0  0  0  0  0
    0.5914   22.2683  -19.1577 C   0  0  0  0  0  0  0  0  0  0  0  0
   -0.8242   22.4645  -18.6095 C   0  0  0  0  0  0  0  0  0  0  0  0
   -1.6522   21.5329  -19.4297 C   0  0  0  0  0  0  0  0  0  0  0  0
   -0.6633   20.4010  -19.7349 C   0  0  0  0  0  0  0  0  0  0  0  0
    1.5823   21.6925  -24.6937 N   0  0  0  0  0  0  0  0  0  0  0  0
    2.4040   21.9463  -25.3221 H   0  0  0  0  0  0  0  0  0  0  0  0
   -2.1953   22.5200  -26.4734 C   0  0  0  0  0  0  0  0  0  0  0  0
   -2.1262   21.9952  -25.2081 C   0  0  0  0  0  0  0  0  0  0  0  0
   -0.9017   21.6987  -24.5859 C   0  0  0  0  0  0  0  0  0  0  0  0
    0.2944   21.9214  -25.2167 C   0  0  0  0  0  0  0  0  0  0  0  0
    0.2024   22.4587  -26.5114 C   0  0  0  0  0  0  0  0  0  0  0  0
   -0.9997   22.7457  -27.1133 C   0  0  0  0  0  0  0  0  0  0  0  0
   -3.4846   23.0650  -28.4634 C   0  0  0  0  0  0  0  0  0  0  0  0
   -3.4109   22.8076  -27.0743 O   0  0  0  0  0  0  0  0  0  0  0  0
 24 25  1  0  0  0
 25 18  1  0  0  0
 18 19  2  0  0  0
 19 20  1  0  0  0
 20 21  2  0  0  0
 21 16  1  0  0  0
 16  1  1  0  0  0
  1  2  2  0  0  0
  2  3  1  0  0  0
  3 11  1  0  0  0
 11 12  1  0  0  0
 12 13  1  0  0  0
 13 14  1  0  0  0
 14 15  1  0  0  0
  3  4  2  0  0  0
  4  5  1  0  0  0
  5  6  2  0  0  0
  6  7  1  0  0  0
  7  8  2  0  0  0
  8  9  1  0  0  0
  9 10  2  0  0  0
 21 22  1  0  0  0
 22 23  2  0  0  0
 23 18  1  0  0  0
 10  1  1  0  0  0
 15 11  1  0  0  0
  9  4  1  0  0  0
 16 17  1  0  0  0
M  END
> <minimizedAffinity>
-6.68603

> <CNNscore>
0.2890144885

> <CNNaffinity>
5.4109015465

> <CNN_VS>
1.5638289452

> <CNNaffinity_variance>
0.0851703733

$$$$
[H]c1c([H])c(N([H])c2nc(N3C([H])([H])C([H])([H])C([H])([H])C3([H])[H])c3c([H])c([H])c([H])c([H])c3n2)c([H])c([H])c1OC([H])([H])[H]


 25 28  0  0  0  0  0  0  0  0999 V2000
   -2.7170   23.0969  -26.2570 C   0  0  0  0  0  0  0  0  0  0  0  0
   -3.1346   23.3452  -27.5011 N   0  0  0  0  0  0  0  0  0  0  0  0
   -3.9968   24.3318  -27.8217 C   0  0  0  0  0  0  0  0  0  0  0  0
   -4.4730   25.1268  -26.8043 C   0  0  0  0  0  0  0  0  0  0  0  0
   -5.3598   26.1430  -27.0440 C   0  0  0  0  0  0  0  0  0  0  0  0
   -5.8060   26.9003  -25.9745 C   0  0  0  0  0  0  0  0  0  0  0  0
   -5.3970   26.6743  -24.6870 C   0  0  0  0  0  0  0  0  0  0  0  0
   -4.5128   25.6631  -24.4301 C   0  0  0  0  0  0  0  0  0  0  0  0
   -4.0510   24.8879  -25.4926 C   0  0  0  0  0  0  0  0  0  0  0  0
   -3.1936   23.8826  -25.2939 N   0  0  0  0  0  0  0  0  0  0  0  0
   -4.3583   24.5396  -29.1868 N   0  0  0  0  0  0  0  0  0  0  0  0
   -5.3777   23.8651  -29.9248 C   0  0  0  0  0  0  0  0  0  0  0  0
   -5.7375   24.7952  -31.0858 C   0  0  0  0  0  0  0  0  0  0  0  0
   -4.9746   26.0424  -30.7880 C   0  0  0  0  0  0  0  0  0  0  0  0
   -3.7351   25.5011  -30.0648 C   0  0  0  0  0  0  0  0  0  0  0  0
   -1.8258   22.0306  -26.0143 N   0  0  0  0  0  0  0  0  0  0  0  0
   -1.7424   21.3249  -26.8075 H   0  0  0  0  0  0  0  0  0  0  0  0
    0.7688   21.2930  -22.7209 C   0  0  0  0  0  0  0  0  0  0  0  0
   -0.5917   21.2363  -22.5566 C   0  0  0  0  0  0  0  0  0  0  0  0
   -1.4848   21.4813  -23.6134 C   0  0  0  0  0  0  0  0  0  0  0  0
   -1.0378   21.7908  -24.8714 C   0  0  0  0  0  0  0  0  0  0  0  0
    0.3582   21.8443  -25.0191 C   0  0  0  0  0  0  0  0  0  0  0  0
    1.2253   21.6036  -23.9799 C   0  0  0  0  0  0  0  0  0  0  0  0
    2.9651   20.6258  -21.9142 C   0  0  0  0  0  0  0  0  0  0  0  0
    1.6376   21.0487  -21.6688 O   0  0  0  0  0  0  0  0  0  0  0  0
 24 25  1  0  0  0
 25 18  1  0  0  0
 18 19  2  0  0  0
 19 20  1  0  0  0
 20 21  2  0  0  0
 21 16  1  0  0  0
 16  1  1  0  0  0
  1  2  2  0  0  0
  2  3  1  0  0  0
  3 11  1  0  0  0
 11 12  1  0  0  0
 12 13  1  0  0  0
 13 14  1  0  0  0
 14 15  1  0  0  0
  3  4  2  0  0  0
  4  5  1  0  0  0
  5  6  2  0  0  0
  6  7  1  0  0  0
  7  8  2  0  0  0
  8  9  1  0  0  0
  9 10  2  0  0  0
 21 22  1  0  0  0
 22 23  2  0  0  0
 23 18  1  0  0  0
 10  1  1  0  0  0
 15 11  1  0  0  0
  9  4  1  0  0  0
 16 17  1  0  0  0
M  END
> <minimizedAffinity>
-8.41443

> <CNNscore>
0.2240300775

> <CNNaffinity>
6.2875013351

> <CNN_VS>
1.4085893631

> <CNNaffinity_variance>
0.0357530005

$$$$
[H]c1c([H])c(N([H])c2nc(N3C([H])([H])C([H])([H])C([H])([H])C3([H])[H])c3c([H])c([H])c([H])c([H])c3n2)c([H])c([H])c1OC([H])([H])[H]


 25 28  0  0  0  0  0  0  0  0999 V2000
   -0.1463   21.5056  -23.0350 C   0  0  0  0  0  0  0  0  0  0  0  0
   -1.4627   21.7105  -22.9402 N   0  0  0  0  0  0  0  0  0  0  0  0
   -2.2410   22.0886  -23.9749 C   0  0  0  0  0  0  0  0  0  0  0  0
   -1.6398   22.2743  -25.1989 C   0  0  0  0  0  0  0  0  0  0  0  0
   -2.3571   22.6684  -26.2973 C   0  0  0  0  0  0  0  0  0  0  0  0
   -1.6897   22.8448  -27.4973 C   0  0  0  0  0  0  0  0  0  0  0  0
   -0.3418   22.6418  -27.6302 C   0  0  0  0  0  0  0  0  0  0  0  0
    0.3895   22.2492  -26.5433 C   0  0  0  0  0  0  0  0  0  0  0  0
   -0.2626   22.0660  -25.3250 C   0  0  0  0  0  0  0  0  0  0  0  0
    0.4073   21.6919  -24.2312 N   0  0  0  0  0  0  0  0  0  0  0  0
   -3.6458   22.2504  -23.7814 N   0  0  0  0  0  0  0  0  0  0  0  0
   -4.3327   23.4330  -23.3707 C   0  0  0  0  0  0  0  0  0  0  0  0
   -5.7765   23.2652  -23.8504 C   0  0  0  0  0  0  0  0  0  0  0  0
   -5.7320   22.0224  -24.6748 C   0  0  0  0  0  0  0  0  0  0  0  0
   -4.6283   21.2123  -23.9835 C   0  0  0  0  0  0  0  0  0  0  0  0
    0.5904   21.1276  -21.8929 N   0  0  0  0  0  0  0  0  0  0  0  0
    1.5202   21.6323  -21.7703 H   0  0  0  0  0  0  0  0  0  0  0  0
   -0.4656   18.4779  -18.7327 C   0  0  0  0  0  0  0  0  0  0  0  0
    0.0394   17.9859  -19.9092 C   0  0  0  0  0  0  0  0  0  0  0  0
    0.3928   18.8229  -20.9810 C   0  0  0  0  0  0  0  0  0  0  0  0
    0.2501   20.1837  -20.9040 C   0  0  0  0  0  0  0  0  0  0  0  0
   -0.2689   20.6679  -19.6916 C   0  0  0  0  0  0  0  0  0  0  0  0
   -0.6124   19.8422  -18.6477 C   0  0  0  0  0  0  0  0  0  0  0  0
   -2.0245   16.9153  -17.7093 C   0  0  0  0  0  0  0  0  0  0  0  0
   -0.8097   17.6397  -17.6837 O   0  0  0  0  0  0  0  0  0  0  0  0
 24 25  1  0  0  0
 25 18  1  0  0  0
 18 19  2  0  0  0
 19 20  1  0  0  0
 20 21  2  0  0  0
 21 16  1  0  0  0
 16  1  1  0  0  0
  1  2  2  0  0  0
  2  3  1  0  0  0
  3 11  1  0  0  0
 11 12  1  0  0  0
 12 13  1  0  0  0
 13 14  1  0  0  0
 14 15  1  0  0  0
  3  4  2  0  0  0
  4  5  1  0  0  0
  5  6  2  0  0  0
  6  7  1  0  0  0
  7  8  2  0  0  0
  8  9  1  0  0  0
  9 10  2  0  0  0
 21 22  1  0  0  0
 22 23  2  0  0  0
 23 18  1  0  0  0
 10  1  1  0  0  0
 15 11  1  0  0  0
  9  4  1  0  0  0
 16 17  1  0  0  0
M  END
> <minimizedAffinity>
-6.72240

> <CNNscore>
0.1374407858

> <CNNaffinity>
5.3951339722

> <CNN_VS>
0.7415114641

> <CNNaffinity_variance>
0.0255338941

$$$$
[H]c1c([H])c(N([H])c2nc(N3C([H])([H])C([H])([H])C([H])([H])C3([H])[H])c3c([H])c([H])c([H])c([H])c3n2)c([H])c([H])c1OC([H])([H])[H]


 25 28  0  0  0  0  0  0  0  0999 V2000
   -0.5362   21.8612  -23.0834 C   0  0  0  0  0  0  0  0  0  0  0  0
   -1.8324   22.1817  -23.1130 N   0  0  0  0  0  0  0  0  0  0  0  0
   -2.4960   22.5266  -24.2355 C   0  0  0  0  0  0  0  0  0  0  0  0
   -1.7927   22.5496  -25.4182 C   0  0  0  0  0  0  0  0  0  0  0  0
   -2.3896   22.8995  -26.6004 C   0  0  0  0  0  0  0  0  0  0  0  0
   -1.6230   22.9101  -27.7531 C   0  0  0  0  0  0  0  0  0  0  0  0
   -0.2925   22.5854  -27.7590 C   0  0  0  0  0  0  0  0  0  0  0  0
    0.3193   22.2348  -26.5872 C   0  0  0  0  0  0  0  0  0  0  0  0
   -0.4340   22.2179  -25.4145 C   0  0  0  0  0  0  0  0  0  0  0  0
    0.1180   21.8913  -24.2424 N   0  0  0  0  0  0  0  0  0  0  0  0
   -3.8912   22.8206  -24.1705 N   0  0  0  0  0  0  0  0  0  0  0  0
   -4.4983   24.0938  -23.9484 C   0  0  0  0  0  0  0  0  0  0  0  0
   -5.9153   23.9856  -24.5168 C   0  0  0  0  0  0  0  0  0  0  0  0
   -5.9238   22.6551  -25.1919 C   0  0  0  0  0  0  0  0  0  0  0  0
   -4.9447   21.8470  -24.3315 C   0  0  0  0  0  0  0  0  0  0  0  0
    0.0783   21.5297  -21.8576 N   0  0  0  0  0  0  0  0  0  0  0  0
   -0.0792   22.2308  -21.0716 H   0  0  0  0  0  0  0  0  0  0  0  0
    2.2257   18.0163  -20.7774 C   0  0  0  0  0  0  0  0  0  0  0  0
    2.8756   19.0719  -21.3643 C   0  0  0  0  0  0  0  0  0  0  0  0
    2.2051   20.2465  -21.7448 C   0  0  0  0  0  0  0  0  0  0  0  0
    0.8575   20.3980  -21.5464 C   0  0  0  0  0  0  0  0  0  0  0  0
    0.2101   19.3061  -20.9447 C   0  0  0  0  0  0  0  0  0  0  0  0
    0.8735   18.1601  -20.5755 C   0  0  0  0  0  0  0  0  0  0  0  0
    3.3557   15.9494  -21.3862 C   0  0  0  0  0  0  0  0  0  0  0  0
    2.9008   16.8636  -20.4071 O   0  0  0  0  0  0  0  0  0  0  0  0
 24 25  1  0  0  0
 25 18  1  0  0  0
 18 19  2  0  0  0
 19 20  1  0  0  0
 20 21  2  0  0  0
 21 16  1  0  0  0
 16  1  1  0  0  0
  1  2  2  0  0  0
  2  3  1  0  0  0
  3 11  1  0  0  0
 11 12  1  0  0  0
 12 13  1  0  0  0
 13 14  1  0  0  0
 14 15  1  0  0  0
  3  4  2  0  0  0
  4  5  1  0  0  0
  5  6  2  0  0  0
  6  7  1  0  0  0
  7  8  2  0  0  0
  8  9  1  0  0  0
  9 10  2  0  0  0
 21 22  1  0  0  0
 22 23  2  0  0  0
 23 18  1  0  0  0
 10  1  1  0  0  0
 15 11  1  0  0  0
  9  4  1  0  0  0
 16 17  1  0  0  0
M  END
> <minimizedAffinity>
-7.02856

> <CNNscore>
0.1291404068

> <CNNaffinity>
5.4545826912

> <CNN_VS>
0.7044070363

> <CNNaffinity_variance>
0.0538602583

$$$$
[H]c1c([H])c(N([H])c2nc(N3C([H])([H])C([H])([H])C([H])([H])C3([H])[H])c3c([H])c([H])c([H])c([H])c3n2)c([H])c([H])c1OC([H])([H])[H]


 25 28  0  0  0  0  0  0  0  0999 V2000
   -0.8651   21.3437  -22.1636 C   0  0  0  0  0  0  0  0  0  0  0  0
   -2.1610   21.6304  -22.3123 N   0  0  0  0  0  0  0  0  0  0  0  0
   -2.7158   22.0189  -23.4788 C   0  0  0  0  0  0  0  0  0  0  0  0
   -1.8952   22.1262  -24.5783 C   0  0  0  0  0  0  0  0  0  0  0  0
   -2.3777   22.5247  -25.7967 C   0  0  0  0  0  0  0  0  0  0  0  0
   -1.4968   22.6196  -26.8605 C   0  0  0  0  0  0  0  0  0  0  0  0
   -0.1630   22.3314  -26.7437 C   0  0  0  0  0  0  0  0  0  0  0  0
    0.3354   21.9331  -25.5340 C   0  0  0  0  0  0  0  0  0  0  0  0
   -0.5341   21.8312  -24.4493 C   0  0  0  0  0  0  0  0  0  0  0  0
   -0.0959   21.4553  -23.2444 N   0  0  0  0  0  0  0  0  0  0  0  0
   -4.1191   22.2714  -23.5453 N   0  0  0  0  0  0  0  0  0  0  0  0
   -4.7951   23.4904  -23.2358 C   0  0  0  0  0  0  0  0  0  0  0  0
   -6.1310   23.4278  -23.9803 C   0  0  0  0  0  0  0  0  0  0  0  0
   -6.0109   22.1986  -24.8173 C   0  0  0  0  0  0  0  0  0  0  0  0
   -5.1095   21.3050  -23.9564 C   0  0  0  0  0  0  0  0  0  0  0  0
   -0.3701   20.9614  -20.8991 N   0  0  0  0  0  0  0  0  0  0  0  0
   -0.9152   20.1820  -20.4198 H   0  0  0  0  0  0  0  0  0  0  0  0
    2.8395   22.6902  -18.7010 C   0  0  0  0  0  0  0  0  0  0  0  0
    3.0876   21.7320  -19.6505 C   0  0  0  0  0  0  0  0  0  0  0  0
    2.0584   21.1288  -20.3928 C   0  0  0  0  0  0  0  0  0  0  0  0
    0.7447   21.4706  -20.2045 C   0  0  0  0  0  0  0  0  0  0  0  0
    0.5114   22.4531  -19.2278 C   0  0  0  0  0  0  0  0  0  0  0  0
    1.5240   23.0383  -18.5056 C   0  0  0  0  0  0  0  0  0  0  0  0
    3.6566   24.4954  -17.2892 C   0  0  0  0  0  0  0  0  0  0  0  0
    3.8655   23.2767  -17.9764 O   0  0  0  0  0  0  0  0  0  0  0  0
 24 25  1  0  0  0
 25 18  1  0  0  0
 18 19  2  0  0  0
 19 20  1  0  0  0
 20 21  2  0  0  0
 21 16  1  0  0  0
 16  1  1  0  0  0
  1  2  2  0  0  0
  2  3  1  0  0  0
  3 11  1  0  0  0
 11 12  1  0  0  0
 12 13  1  0  0  0
 13 14  1  0  0  0
 14 15  1  0  0  0
  3  4  2  0  0  0
  4  5  1  0  0  0
  5  6  2  0  0  0
  6  7  1  0  0  0
  7  8  2  0  0  0
  8  9  1  0  0  0
  9 10  2  0  0  0
 21 22  1  0  0  0
 22 23  2  0  0  0
 23 18  1  0  0  0
 10  1  1  0  0  0
 15 11  1  0  0  0
  9  4  1  0  0  0
 16 17  1  0  0  0
M  END
> <minimizedAffinity>
-7.29922

> <CNNscore>
0.1241285801

> <CNNaffinity>
5.3862028122

> <CNN_VS>
0.6685817242

> <CNNaffinity_variance>
0.0235268176

$$$$
[H]OC12N(C([H])([H])c3c([H])c([H])c(OC([H])([H])[H])c([H])c3[H])C3([H])C4([H])C5([H])C([H])([H])C([H])(C14[H])C1([H])C2([H])C3([H])C51[H]


 23 29  0  0  0  0  0  0  0  0999 V2000
   -0.4977   21.6928  -21.3946 N   0  0  0  0  0  0  0  0  0  0  0  0
   -0.0999   20.5967  -20.5216 C   0  0  0  0  0  0  0  0  0  0  0  0
    0.8689   21.3358  -19.6246 C   0  0  0  0  0  0  0  0  0  0  0  0
    0.6873   20.7096  -18.2725 C   0  0  0  0  0  0  0  0  0  0  0  0
    0.8412   21.9432  -17.3747 C   0  0  0  0  0  0  0  0  0  0  0  0
   -0.2159   22.7957  -18.0921 C   0  0  0  0  0  0  0  0  0  0  0  0
   -1.3941   21.8752  -18.0832 C   0  0  0  0  0  0  0  0  0  0  0  0
   -0.7823   20.4718  -18.2023 C   0  0  0  0  0  0  0  0  0  0  0  0
   -1.2679   20.3696  -19.6162 C   0  0  0  0  0  0  0  0  0  0  0  0
   -1.8808   21.7658  -19.4845 C   0  0  0  0  0  0  0  0  0  0  0  0
   -0.9864   22.5893  -20.3756 C   0  0  0  0  0  0  0  0  0  0  0  0
   -1.4914   23.7704  -20.7819 O   0  0  0  0  0  0  0  0  0  0  0  0
    0.2605   22.7190  -19.5026 C   0  0  0  0  0  0  0  0  0  0  0  0
   -2.3053   24.0087  -20.2737 H   0  0  0  0  0  0  0  0  0  0  0  0
   -1.4494   21.2987  -22.3802 C   0  0  0  0  0  0  0  0  0  0  0  0
    0.0610   22.3803  -26.2716 C   0  0  0  0  0  0  0  0  0  0  0  0
    0.9119   22.0500  -25.2397 C   0  0  0  0  0  0  0  0  0  0  0  0
    0.4312   21.7074  -23.9949 C   0  0  0  0  0  0  0  0  0  0  0  0
   -0.9321   21.6777  -23.7176 C   0  0  0  0  0  0  0  0  0  0  0  0
   -1.7756   22.0157  -24.7773 C   0  0  0  0  0  0  0  0  0  0  0  0
   -1.2922   22.3577  -26.0206 C   0  0  0  0  0  0  0  0  0  0  0  0
   -0.2871   23.1497  -28.5743 C   0  0  0  0  0  0  0  0  0  0  0  0
    0.5666   22.7260  -27.5308 O   0  0  0  0  0  0  0  0  0  0  0  0
 22 23  1  0  0  0
 23 16  1  0  0  0
 16 17  2  0  0  0
 17 18  1  0  0  0
 18 19  2  0  0  0
 19 15  1  0  0  0
 15  1  1  0  0  0
  1  2  1  0  0  0
  2  3  1  0  0  0
  3  4  1  0  0  0
  4  5  1  0  0  0
  5  6  1  0  0  0
  6  7  1  0  0  0
  7  8  1  0  0  0
  8  9  1  0  0  0
  9 10  1  0  0  0
 10 11  1  0  0  0
 11 12  1  0  0  0
 11 13  1  0  0  0
 19 20  1  0  0  0
 20 21  2  0  0  0
 21 16  1  0  0  0
 11  1  1  0  0  0
  9  2  1  0  0  0
 13  3  1  0  0  0
  8  4  1  0  0  0
 13  6  1  0  0  0
 10  7  1  0  0  0
 12 14  1  0  0  0
M  END
> <minimizedAffinity>
-6.42810

> <CNNscore>
0.5137084723

> <CNNaffinity>
5.2116231918

> <CNN_VS>
2.6772549152

> <CNNaffinity_variance>
0.0363032073

$$$$
[H]OC12N(C([H])([H])c3c([H])c([H])c(OC([H])([H])[H])c([H])c3[H])C3([H])C4([H])C5([H])C([H])([H])C([H])(C14[H])C1([H])C2([H])C3([H])C51[H]


 23 29  0  0  0  0  0  0  0  0999 V2000
   -4.4525   22.5882  -23.4921 N   0  0  0  0  0  0  0  0  0  0  0  0
   -4.3192   23.5585  -22.4138 C   0  0  0  0  0  0  0  0  0  0  0  0
   -5.4804   24.4665  -22.7551 C   0  0  0  0  0  0  0  0  0  0  0  0
   -6.0167   24.9125  -21.4259 C   0  0  0  0  0  0  0  0  0  0  0  0
   -7.5200   24.9316  -21.7277 C   0  0  0  0  0  0  0  0  0  0  0  0
   -7.5939   23.4936  -22.2619 C   0  0  0  0  0  0  0  0  0  0  0  0
   -6.9573   22.7300  -21.1453 C   0  0  0  0  0  0  0  0  0  0  0  0
   -5.8978   23.6889  -20.5832 C   0  0  0  0  0  0  0  0  0  0  0  0
   -4.8090   22.8561  -21.1882 C   0  0  0  0  0  0  0  0  0  0  0  0
   -5.8725   21.9022  -21.7372 C   0  0  0  0  0  0  0  0  0  0  0  0
   -5.8069   22.1739  -23.2185 C   0  0  0  0  0  0  0  0  0  0  0  0
   -6.3344   21.2219  -24.0126 O   0  0  0  0  0  0  0  0  0  0  0  0
   -6.5280   23.5179  -23.3038 C   0  0  0  0  0  0  0  0  0  0  0  0
   -6.8631   20.5694  -23.4911 H   0  0  0  0  0  0  0  0  0  0  0  0
   -3.4673   21.5592  -23.4363 C   0  0  0  0  0  0  0  0  0  0  0  0
   -0.4903   22.3616  -26.4508 C   0  0  0  0  0  0  0  0  0  0  0  0
   -1.8335   22.3486  -26.7566 C   0  0  0  0  0  0  0  0  0  0  0  0
   -2.7858   22.0892  -25.7954 C   0  0  0  0  0  0  0  0  0  0  0  0
   -2.4410   21.8281  -24.4728 C   0  0  0  0  0  0  0  0  0  0  0  0
   -1.0751   21.8464  -24.1855 C   0  0  0  0  0  0  0  0  0  0  0  0
   -0.1254   22.1060  -25.1484 C   0  0  0  0  0  0  0  0  0  0  0  0
    0.1028   23.2254  -28.6684 C   0  0  0  0  0  0  0  0  0  0  0  0
    0.4644   22.6272  -27.4402 O   0  0  0  0  0  0  0  0  0  0  0  0
 22 23  1  0  0  0
 23 16  1  0  0  0
 16 17  2  0  0  0
 17 18  1  0  0  0
 18 19  2  0  0  0
 19 15  1  0  0  0
 15  1  1  0  0  0
  1  2  1  0  0  0
  2  3  1  0  0  0
  3  4  1  0  0  0
  4  5  1  0  0  0
  5  6  1  0  0  0
  6  7  1  0  0  0
  7  8  1  0  0  0
  8  9  1  0  0  0
  9 10  1  0  0  0
 10 11  1  0  0  0
 11 12  1  0  0  0
 11 13  1  0  0  0
 19 20  1  0  0  0
 20 21  2  0  0  0
 21 16  1  0  0  0
 11  1  1  0  0  0
  9  2  1  0  0  0
 13  3  1  0  0  0
  8  4  1  0  0  0
 13  6  1  0  0  0
 10  7  1  0  0  0
 12 14  1  0  0  0
M  END
> <minimizedAffinity>
-7.19169

> <CNNscore>
0.3025558591

> <CNNaffinity>
5.2525944710

> <CNN_VS>
1.5892032385

> <CNNaffinity_variance>
0.0046682968

$$$$
[H]OC12N(C([H])([H])c3c([H])c([H])c(OC([H])([H])[H])c([H])c3[H])C3([H])C4([H])C5([H])C([H])([H])C([H])(C14[H])C1([H])C2([H])C3([H])C51[H]


 23 29  0  0  0  0  0  0  0  0999 V2000
   -5.6176   24.4157  -26.4153 N   0  0  0  0  0  0  0  0  0  0  0  0
   -5.1730   23.2898  -27.2256 C   0  0  0  0  0  0  0  0  0  0  0  0
   -6.0252   23.5194  -28.4545 C   0  0  0  0  0  0  0  0  0  0  0  0
   -5.1569   23.0950  -29.6031 C   0  0  0  0  0  0  0  0  0  0  0  0
   -5.5540   24.1423  -30.6504 C   0  0  0  0  0  0  0  0  0  0  0  0
   -5.2898   25.3660  -29.7607 C   0  0  0  0  0  0  0  0  0  0  0  0
   -3.8905   25.1034  -29.3043 C   0  0  0  0  0  0  0  0  0  0  0  0
   -3.8037   23.5737  -29.2016 C   0  0  0  0  0  0  0  0  0  0  0  0
   -3.8075   23.6642  -27.7059 C   0  0  0  0  0  0  0  0  0  0  0  0
   -3.8860   25.1884  -27.8193 C   0  0  0  0  0  0  0  0  0  0  0  0
   -5.2887   25.4693  -27.3441 C   0  0  0  0  0  0  0  0  0  0  0  0
   -5.5325   26.7355  -26.9540 O   0  0  0  0  0  0  0  0  0  0  0  0
   -6.1047   25.0297  -28.5585 C   0  0  0  0  0  0  0  0  0  0  0  0
   -4.7997   27.3428  -27.2213 H   0  0  0  0  0  0  0  0  0  0  0  0
   -4.9640   24.4799  -25.1500 C   0  0  0  0  0  0  0  0  0  0  0  0
   -7.1647   22.0861  -22.3179 C   0  0  0  0  0  0  0  0  0  0  0  0
   -6.3137   21.5089  -23.2347 C   0  0  0  0  0  0  0  0  0  0  0  0
   -5.6123   22.2719  -24.1423 C   0  0  0  0  0  0  0  0  0  0  0  0
   -5.7273   23.6582  -24.1793 C   0  0  0  0  0  0  0  0  0  0  0  0
   -6.5947   24.2215  -23.2419 C   0  0  0  0  0  0  0  0  0  0  0  0
   -7.2945   23.4564  -22.3357 C   0  0  0  0  0  0  0  0  0  0  0  0
   -8.8637   21.8507  -20.5647 C   0  0  0  0  0  0  0  0  0  0  0  0
   -7.8699   21.2955  -21.4022 O   0  0  0  0  0  0  0  0  0  0  0  0
 22 23  1  0  0  0
 23 16  1  0  0  0
 16 17  2  0  0  0
 17 18  1  0  0  0
 18 19  2  0  0  0
 19 15  1  0  0  0
 15  1  1  0  0  0
  1  2  1  0  0  0
  2  3  1  0  0  0
  3  4  1  0  0  0
  4  5  1  0  0  0
  5  6  1  0  0  0
  6  7  1  0  0  0
  7  8  1  0  0  0
  8  9  1  0  0  0
  9 10  1  0  0  0
 10 11  1  0  0  0
 11 12  1  0  0  0
 11 13  1  0  0  0
 19 20  1  0  0  0
 20 21  2  0  0  0
 21 16  1  0  0  0
 11  1  1  0  0  0
  9  2  1  0  0  0
 13  3  1  0  0  0
  8  4  1  0  0  0
 13  6  1  0  0  0
 10  7  1  0  0  0
 12 14  1  0  0  0
M  END
> <minimizedAffinity>
-8.15169

> <CNNscore>
0.2613641918

> <CNNaffinity>
5.6687364578

> <CNN_VS>
1.4816046953

> <CNNaffinity_variance>
0.1106993705

$$$$
[H]OC12N(C([H])([H])c3c([H])c([H])c(OC([H])([H])[H])c([H])c3[H])C3([H])C4([H])C5([H])C([H])([H])C([H])(C14[H])C1([H])C2([H])C3([H])C51[H]


 23 29  0  0  0  0  0  0  0  0999 V2000
   -3.5738   23.2576  -24.9144 N   0  0  0  0  0  0  0  0  0  0  0  0
   -2.2457   22.7727  -24.5636 C   0  0  0  0  0  0  0  0  0  0  0  0
   -1.9686   23.6578  -23.3681 C   0  0  0  0  0  0  0  0  0  0  0  0
   -1.1822   22.7907  -22.4283 C   0  0  0  0  0  0  0  0  0  0  0  0
   -1.7489   23.2585  -21.0824 C   0  0  0  0  0  0  0  0  0  0  0  0
   -3.2249   23.0390  -21.4457 C   0  0  0  0  0  0  0  0  0  0  0  0
   -3.2058   21.6202  -21.9169 C   0  0  0  0  0  0  0  0  0  0  0  0
   -1.8285   21.4558  -22.5756 C   0  0  0  0  0  0  0  0  0  0  0  0
   -2.4680   21.4366  -23.9306 C   0  0  0  0  0  0  0  0  0  0  0  0
   -3.8367   21.5926  -23.2636 C   0  0  0  0  0  0  0  0  0  0  0  0
   -4.2188   22.9985  -23.6504 C   0  0  0  0  0  0  0  0  0  0  0  0
   -5.5287   23.2976  -23.5522 O   0  0  0  0  0  0  0  0  0  0  0  0
   -3.3278   23.8139  -22.7150 C   0  0  0  0  0  0  0  0  0  0  0  0
   -6.0214   22.6008  -23.0531 H   0  0  0  0  0  0  0  0  0  0  0  0
   -4.1292   22.5848  -26.0420 C   0  0  0  0  0  0  0  0  0  0  0  0
   -5.1669   25.5093  -29.0361 C   0  0  0  0  0  0  0  0  0  0  0  0
   -5.0526   24.1727  -29.3499 C   0  0  0  0  0  0  0  0  0  0  0  0
   -4.7179   23.2375  -28.3953 C   0  0  0  0  0  0  0  0  0  0  0  0
   -4.4792   23.5936  -27.0715 C   0  0  0  0  0  0  0  0  0  0  0  0
   -4.6005   24.9524  -26.7760 C   0  0  0  0  0  0  0  0  0  0  0  0
   -4.9353   25.8851  -27.7323 C   0  0  0  0  0  0  0  0  0  0  0  0
   -5.4679   26.1182  -31.3929 C   0  0  0  0  0  0  0  0  0  0  0  0
   -5.5080   26.4466  -30.0189 O   0  0  0  0  0  0  0  0  0  0  0  0
 22 23  1  0  0  0
 23 16  1  0  0  0
 16 17  2  0  0  0
 17 18  1  0  0  0
 18 19  2  0  0  0
 19 15  1  0  0  0
 15  1  1  0  0  0
  1  2  1  0  0  0
  2  3  1  0  0  0
  3  4  1  0  0  0
  4  5  1  0  0  0
  5  6  1  0  0  0
  6  7  1  0  0  0
  7  8  1  0  0  0
  8  9  1  0  0  0
  9 10  1  0  0  0
 10 11  1  0  0  0
 11 12  1  0  0  0
 11 13  1  0  0  0
 19 20  1  0  0  0
 20 21  2  0  0  0
 21 16  1  0  0  0
 11  1  1  0  0  0
  9  2  1  0  0  0
 13  3  1  0  0  0
  8  4  1  0  0  0
 13  6  1  0  0  0
 10  7  1  0  0  0
 12 14  1  0  0  0
M  END
> <minimizedAffinity>
-7.35516

> <CNNscore>
0.1976243705

> <CNNaffinity>
5.6256766319

> <CNN_VS>
1.1117707491

> <CNNaffinity_variance>
0.0763901100

$$$$
[H]OC12N(C([H])([H])c3c([H])c([H])c(OC([H])([H])[H])c([H])c3[H])C3([H])C4([H])C5([H])C([H])([H])C([H])(C14[H])C1([H])C2([H])C3([H])C51[H]


 23 29  0  0  0  0  0  0  0  0999 V2000
   -3.3369   23.4773  -26.8825 N   0  0  0  0  0  0  0  0  0  0  0  0
   -4.5035   24.3193  -26.6547 C   0  0  0  0  0  0  0  0  0  0  0  0
   -4.2114   25.4194  -27.6516 C   0  0  0  0  0  0  0  0  0  0  0  0
   -5.5587   25.8253  -28.1744 C   0  0  0  0  0  0  0  0  0  0  0  0
   -5.2133   26.0989  -29.6431 C   0  0  0  0  0  0  0  0  0  0  0  0
   -4.5469   24.7404  -29.9062 C   0  0  0  0  0  0  0  0  0  0  0  0
   -5.6078   23.7953  -29.4406 C   0  0  0  0  0  0  0  0  0  0  0  0
   -6.2885   24.5298  -28.2764 C   0  0  0  0  0  0  0  0  0  0  0  0
   -5.6435   23.5964  -27.2976 C   0  0  0  0  0  0  0  0  0  0  0  0
   -4.9761   22.8664  -28.4656 C   0  0  0  0  0  0  0  0  0  0  0  0
   -3.5290   23.2517  -28.2943 C   0  0  0  0  0  0  0  0  0  0  0  0
   -2.6346   22.4632  -28.9215 O   0  0  0  0  0  0  0  0  0  0  0  0
   -3.5454   24.6921  -28.8030 C   0  0  0  0  0  0  0  0  0  0  0  0
   -3.0771   21.8561  -29.5641 H   0  0  0  0  0  0  0  0  0  0  0  0
   -3.3283   22.3095  -26.0648 C   0  0  0  0  0  0  0  0  0  0  0  0
    0.5500   21.9761  -24.2095 C   0  0  0  0  0  0  0  0  0  0  0  0
    0.4203   22.2443  -25.5546 C   0  0  0  0  0  0  0  0  0  0  0  0
   -0.8179   22.3479  -26.1495 C   0  0  0  0  0  0  0  0  0  0  0  0
   -1.9954   22.1875  -25.4257 C   0  0  0  0  0  0  0  0  0  0  0  0
   -1.8406   21.9166  -24.0651 C   0  0  0  0  0  0  0  0  0  0  0  0
   -0.6016   21.8136  -23.4730 C   0  0  0  0  0  0  0  0  0  0  0  0
    2.1384   20.8083  -22.7505 C   0  0  0  0  0  0  0  0  0  0  0  0
    1.8163   21.8742  -23.6208 O   0  0  0  0  0  0  0  0  0  0  0  0
 22 23  1  0  0  0
 23 16  1  0  0  0
 16 17  2  0  0  0
 17 18  1  0  0  0
 18 19  2  0  0  0
 19 15  1  0  0  0
 15  1  1  0  0  0
  1  2  1  0  0  0
  2  3  1  0  0  0
  3  4  1  0  0  0
  4  5  1  0  0  0
  5  6  1  0  0  0
  6  7  1  0  0  0
  7  8  1  0  0  0
  8  9  1  0  0  0
  9 10  1  0  0  0
 10 11  1  0  0  0
 11 12  1  0  0  0
 11 13  1  0  0  0
 19 20  1  0  0  0
 20 21  2  0  0  0
 21 16  1  0  0  0
 11  1  1  0  0  0
  9  2  1  0  0  0
 13  3  1  0  0  0
  8  4  1  0  0  0
 13  6  1  0  0  0
 10  7  1  0  0  0
 12 14  1  0  0  0
M  END
> <minimizedAffinity>
-7.86898

> <CNNscore>
0.1933894008

> <CNNaffinity>
5.6449022293

> <CNN_VS>
1.0916643143

> <CNNaffinity_variance>
0.0909952968

$$$$
[H]OC12N(C([H])([H])c3c([H])c([H])c(OC([H])([H])[H])c([H])c3[H])C3([H])C4([H])C5([H])C([H])([H])C([H])(C14[H])C1([H])C2([H])C3([H])C51[H]


 23 29  0  0  0  0  0  0  0  0999 V2000
   -3.3309   23.6553  -25.6592 N   0  0  0  0  0  0  0  0  0  0  0  0
   -4.1953   23.8638  -24.5054 C   0  0  0  0  0  0  0  0  0  0  0  0
   -4.3928   25.3600  -24.6133 C   0  0  0  0  0  0  0  0  0  0  0  0
   -5.8043   25.5903  -24.1570 C   0  0  0  0  0  0  0  0  0  0  0  0
   -6.2233   26.7132  -25.1135 C   0  0  0  0  0  0  0  0  0  0  0  0
   -5.8308   25.9785  -26.4039 C   0  0  0  0  0  0  0  0  0  0  0  0
   -6.5574   24.6823  -26.2391 C   0  0  0  0  0  0  0  0  0  0  0  0
   -6.5399   24.4252  -24.7253 C   0  0  0  0  0  0  0  0  0  0  0  0
   -5.5321   23.3322  -24.9128 C   0  0  0  0  0  0  0  0  0  0  0  0
   -5.5629   23.5913  -26.4209 C   0  0  0  0  0  0  0  0  0  0  0  0
   -4.2076   24.2044  -26.6645 C   0  0  0  0  0  0  0  0  0  0  0  0
   -3.7754   24.1823  -27.9404 O   0  0  0  0  0  0  0  0  0  0  0  0
   -4.4165   25.6116  -26.1081 C   0  0  0  0  0  0  0  0  0  0  0  0
   -4.5026   23.9368  -28.5634 H   0  0  0  0  0  0  0  0  0  0  0  0
   -2.9643   22.2891  -25.8371 C   0  0  0  0  0  0  0  0  0  0  0  0
    0.9245   21.6829  -24.0752 C   0  0  0  0  0  0  0  0  0  0  0  0
    0.7840   22.0009  -25.4083 C   0  0  0  0  0  0  0  0  0  0  0  0
   -0.4578   22.1916  -25.9735 C   0  0  0  0  0  0  0  0  0  0  0  0
   -1.6282   22.0733  -25.2303 C   0  0  0  0  0  0  0  0  0  0  0  0
   -1.4625   21.7507  -23.8823 C   0  0  0  0  0  0  0  0  0  0  0  0
   -0.2199   21.5607  -23.3199 C   0  0  0  0  0  0  0  0  0  0  0  0
    2.3647   20.7936  -22.3002 C   0  0  0  0  0  0  0  0  0  0  0  0
    2.1943   21.4925  -23.5167 O   0  0  0  0  0  0  0  0  0  0  0  0
 22 23  1  0  0  0
 23 16  1  0  0  0
 16 17  2  0  0  0
 17 18  1  0  0  0
 18 19  2  0  0  0
 19 15  1  0  0  0
 15  1  1  0  0  0
  1  2  1  0  0  0
  2  3  1  0  0  0
  3  4  1  0  0  0
  4  5  1  0  0  0
  5  6  1  0  0  0
  6  7  1  0  0  0
  7  8  1  0  0  0
  8  9  1  0  0  0
  9 10  1  0  0  0
 10 11  1  0  0  0
 11 12  1  0  0  0
 11 13  1  0  0  0
 19 20  1  0  0  0
 20 21  2  0  0  0
 21 16  1  0  0  0
 11  1  1  0  0  0
  9  2  1  0  0  0
 13  3  1  0  0  0
  8  4  1  0  0  0
 13  6  1  0  0  0
 10  7  1  0  0  0
 12 14  1  0  0  0
M  END
> <minimizedAffinity>
-8.00055

> <CNNscore>
0.1922749579

> <CNNaffinity>
5.4707570076

> <CNN_VS>
1.0518895388

> <CNNaffinity_variance>
0.0719900504

$$$$
[H]OC12N(C([H])([H])c3c([H])c([H])c(OC([H])([H])[H])c([H])c3[H])C3([H])C4([H])C5([H])C([H])([H])C([H])(C14[H])C1([H])C2([H])C3([H])C51[H]


 23 29  0  0  0  0  0  0  0  0999 V2000
    1.4367   20.5404  -22.3092 N   0  0  0  0  0  0  0  0  0  0  0  0
    1.3430   19.7257  -21.1054 C   0  0  0  0  0  0  0  0  0  0  0  0
    2.3023   18.6182  -21.4826 C   0  0  0  0  0  0  0  0  0  0  0  0
    2.9742   18.2428  -20.1938 C   0  0  0  0  0  0  0  0  0  0  0  0
    4.3951   17.9599  -20.6960 C   0  0  0  0  0  0  0  0  0  0  0  0
    4.5793   19.3024  -21.4188 C   0  0  0  0  0  0  0  0  0  0  0  0
    4.2347   20.2721  -20.3342 C   0  0  0  0  0  0  0  0  0  0  0  0
    3.1558   19.5547  -19.5101 C   0  0  0  0  0  0  0  0  0  0  0  0
    2.1091   20.4740  -20.0620 C   0  0  0  0  0  0  0  0  0  0  0  0
    3.1933   21.1873  -20.8732 C   0  0  0  0  0  0  0  0  0  0  0  0
    2.8607   20.7689  -22.2826 C   0  0  0  0  0  0  0  0  0  0  0  0
    3.3820   21.5360  -23.2599 O   0  0  0  0  0  0  0  0  0  0  0  0
    3.3703   19.3288  -22.2906 C   0  0  0  0  0  0  0  0  0  0  0  0
    4.0694   22.1525  -22.9066 H   0  0  0  0  0  0  0  0  0  0  0  0
    0.6213   21.7085  -22.2525 C   0  0  0  0  0  0  0  0  0  0  0  0
   -1.5066   22.1133  -25.9811 C   0  0  0  0  0  0  0  0  0  0  0  0
   -2.1703   21.8513  -24.8026 C   0  0  0  0  0  0  0  0  0  0  0  0
   -1.4917   21.7185  -23.6111 C   0  0  0  0  0  0  0  0  0  0  0  0
   -0.1076   21.8414  -23.5374 C   0  0  0  0  0  0  0  0  0  0  0  0
    0.5442   22.1067  -24.7429 C   0  0  0  0  0  0  0  0  0  0  0  0
   -0.1367   22.2391  -25.9325 C   0  0  0  0  0  0  0  0  0  0  0  0
   -3.4346   22.9517  -27.2442 C   0  0  0  0  0  0  0  0  0  0  0  0
   -2.2120   22.2454  -27.1835 O   0  0  0  0  0  0  0  0  0  0  0  0
 22 23  1  0  0  0
 23 16  1  0  0  0
 16 17  2  0  0  0
 17 18  1  0  0  0
 18 19  2  0  0  0
 19 15  1  0  0  0
 15  1  1  0  0  0
  1  2  1  0  0  0
  2  3  1  0  0  0
  3  4  1  0  0  0
  4  5  1  0  0  0
  5  6  1  0  0  0
  6  7  1  0  0  0
  7  8  1  0  0  0
  8  9  1  0  0  0
  9 10  1  0  0  0
 10 11  1  0  0  0
 11 12  1  0  0  0
 11 13  1  0  0  0
 19 20  1  0  0  0
 20 21  2  0  0  0
 21 16  1  0  0  0
 11  1  1  0  0  0
  9  2  1  0  0  0
 13  3  1  0  0  0
  8  4  1  0  0  0
 13  6  1  0  0  0
 10  7  1  0  0  0
 12 14  1  0  0  0
M  END
> <minimizedAffinity>
-6.24893

> <CNNscore>
0.1884573102

> <CNNaffinity>
4.8441109657

> <CNN_VS>
0.9129081368

> <CNNaffinity_variance>
0.0551430583

$$$$
[H]OC12N(C([H])([H])c3c([H])c([H])c(OC([H])([H])[H])c([H])c3[H])C3([H])C4([H])C5([H])C([H])([H])C([H])(C14[H])C1([H])C2([H])C3([H])C51[H]


 23 29  0  0  0  0  0  0  0  0999 V2000
   -5.6399   23.2900  -21.4897 N   0  0  0  0  0  0  0  0  0  0  0  0
   -4.9071   24.2668  -22.2839 C   0  0  0  0  0  0  0  0  0  0  0  0
   -4.1164   23.3243  -23.1646 C   0  0  0  0  0  0  0  0  0  0  0  0
   -4.0357   24.0223  -24.4911 C   0  0  0  0  0  0  0  0  0  0  0  0
   -4.1609   22.8248  -25.4407 C   0  0  0  0  0  0  0  0  0  0  0  0
   -5.4519   22.2664  -24.8241 C   0  0  0  0  0  0  0  0  0  0  0  0
   -6.3368   23.4712  -24.8487 C   0  0  0  0  0  0  0  0  0  0  0  0
   -5.3800   24.6515  -24.6267 C   0  0  0  0  0  0  0  0  0  0  0  0
   -5.9105   24.8328  -23.2371 C   0  0  0  0  0  0  0  0  0  0  0  0
   -6.8656   23.6601  -23.4714 C   0  0  0  0  0  0  0  0  0  0  0  0
   -6.2844   22.5950  -22.5771 C   0  0  0  0  0  0  0  0  0  0  0  0
   -7.1129   21.5816  -22.2582 O   0  0  0  0  0  0  0  0  0  0  0  0
   -5.0644   22.1626  -23.3883 C   0  0  0  0  0  0  0  0  0  0  0  0
   -7.9263   21.5902  -22.8200 H   0  0  0  0  0  0  0  0  0  0  0  0
   -6.5124   23.8930  -20.5370 C   0  0  0  0  0  0  0  0  0  0  0  0
   -4.8938   23.2301  -16.5956 C   0  0  0  0  0  0  0  0  0  0  0  0
   -4.7598   22.2886  -17.5924 C   0  0  0  0  0  0  0  0  0  0  0  0
   -5.2792   22.4974  -18.8512 C   0  0  0  0  0  0  0  0  0  0  0  0
   -5.9626   23.6645  -19.1786 C   0  0  0  0  0  0  0  0  0  0  0  0
   -6.0865   24.6042  -18.1539 C   0  0  0  0  0  0  0  0  0  0  0  0
   -5.5663   24.3929  -16.8965 C   0  0  0  0  0  0  0  0  0  0  0  0
   -3.2830   22.1075  -15.1257 C   0  0  0  0  0  0  0  0  0  0  0  0
   -4.3597   23.0017  -15.3215 O   0  0  0  0  0  0  0  0  0  0  0  0
 22 23  1  0  0  0
 23 16  1  0  0  0
 16 17  2  0  0  0
 17 18  1  0  0  0
 18 19  2  0  0  0
 19 15  1  0  0  0
 15  1  1  0  0  0
  1  2  1  0  0  0
  2  3  1  0  0  0
  3  4  1  0  0  0
  4  5  1  0  0  0
  5  6  1  0  0  0
  6  7  1  0  0  0
  7  8  1  0  0  0
  8  9  1  0  0  0
  9 10  1  0  0  0
 10 11  1  0  0  0
 11 12  1  0  0  0
 11 13  1  0  0  0
 19 20  1  0  0  0
 20 21  2  0  0  0
 21 16  1  0  0  0
 11  1  1  0  0  0
  9  2  1  0  0  0
 13  3  1  0  0  0
  8  4  1  0  0  0
 13  6  1  0  0  0
 10  7  1  0  0  0
 12 14  1  0  0  0
M  END
> <minimizedAffinity>
-5.52927

> <CNNscore>
0.1756866574

> <CNNaffinity>
4.9671554565

> <CNN_VS>
0.8726629615

> <CNNaffinity_variance>
0.0816774592

$$$$
[H]OC12N(C([H])([H])c3c([H])c([H])c(OC([H])([H])[H])c([H])c3[H])C3([H])C4([H])C5([H])C([H])([H])C([H])(C14[H])C1([H])C2([H])C3([H])C51[H]


 23 29  0  0  0  0  0  0  0  0999 V2000
   -6.2755   24.4180  -24.0789 N   0  0  0  0  0  0  0  0  0  0  0  0
   -5.3766   23.5848  -24.8661 C   0  0  0  0  0  0  0  0  0  0  0  0
   -6.1190   23.5994  -26.1844 C   0  0  0  0  0  0  0  0  0  0  0  0
   -5.0398   23.5958  -27.2277 C   0  0  0  0  0  0  0  0  0  0  0  0
   -5.6691   24.5184  -28.2785 C   0  0  0  0  0  0  0  0  0  0  0  0
   -5.9528   25.6833  -27.3187 C   0  0  0  0  0  0  0  0  0  0  0  0
   -4.6085   25.8892  -26.6977 C   0  0  0  0  0  0  0  0  0  0  0  0
   -3.9956   24.4824  -26.6402 C   0  0  0  0  0  0  0  0  0  0  0  0
   -4.1903   24.4477  -25.1549 C   0  0  0  0  0  0  0  0  0  0  0  0
   -4.7924   25.8532  -25.2221 C   0  0  0  0  0  0  0  0  0  0  0  0
   -6.2454   25.5898  -24.9195 C   0  0  0  0  0  0  0  0  0  0  0  0
   -6.9630   26.6571  -24.5181 O   0  0  0  0  0  0  0  0  0  0  0  0
   -6.7181   24.9908  -26.2430 C   0  0  0  0  0  0  0  0  0  0  0  0
   -6.4695   27.5005  -24.6679 H   0  0  0  0  0  0  0  0  0  0  0  0
   -5.8258   24.6058  -22.7391 C   0  0  0  0  0  0  0  0  0  0  0  0
   -7.1980   21.2792  -20.3631 C   0  0  0  0  0  0  0  0  0  0  0  0
   -7.9980   21.8461  -21.3309 C   0  0  0  0  0  0  0  0  0  0  0  0
   -7.5624   22.9110  -22.0887 C   0  0  0  0  0  0  0  0  0  0  0  0
   -6.2980   23.4659  -21.9158 C   0  0  0  0  0  0  0  0  0  0  0  0
   -5.5047   22.8762  -20.9303 C   0  0  0  0  0  0  0  0  0  0  0  0
   -5.9428   21.8117  -20.1744 C   0  0  0  0  0  0  0  0  0  0  0  0
   -7.6091   20.2196  -18.1897 C   0  0  0  0  0  0  0  0  0  0  0  0
   -7.6566   20.1971  -19.6019 O   0  0  0  0  0  0  0  0  0  0  0  0
 22 23  1  0  0  0
 23 16  1  0  0  0
 16 17  2  0  0  0
 17 18  1  0  0  0
 18 19  2  0  0  0
 19 15  1  0  0  0
 15  1  1  0  0  0
  1  2  1  0  0  0
  2  3  1  0  0  0
  3  4  1  0  0  0
  4  5  1  0  0  0
  5  6  1  0  0  0
  6  7  1  0  0  0
  7  8  1  0  0  0
  8  9  1  0  0  0
  9 10  1  0  0  0
 10 11  1  0  0  0
 11 12  1  0  0  0
 11 13  1  0  0  0
 19 20  1  0  0  0
 20 21  2  0  0  0
 21 16  1  0  0  0
 11  1  1  0  0  0
  9  2  1  0  0  0
 13  3  1  0  0  0
  8  4  1  0  0  0
 13  6  1  0  0  0
 10  7  1  0  0  0
 12 14  1  0  0  0
M  END
> <minimizedAffinity>
-7.48324

> <CNNscore>
0.1606603414

> <CNNaffinity>
5.2742700577

> <CNN_VS>
0.8473660350

> <CNNaffinity_variance>
0.1015365124

$$$$
[H]c1nc(N2C([H])([H])C([H])([H])N(C([H])([H])C([H])([H])C([H])([H])Sc3c([H])c([H])c(F)c([H])c3[H])C([H])([H])C2([H])[H])c([H])c([H])c1[H]


 23 25  0  0  0  0  0  0  0  0999 V2000
   -5.4702   25.0244  -23.9818 N   0  0  0  0  0  0  0  0  0  0  0  0
   -4.7714   25.9747  -24.8115 C   0  0  0  0  0  0  0  0  0  0  0  0
   -4.3862   25.4695  -26.1746 C   0  0  0  0  0  0  0  0  0  0  0  0
   -5.4294   24.7447  -26.8305 N   0  0  0  0  0  0  0  0  0  0  0  0
   -6.3800   24.0187  -26.0289 C   0  0  0  0  0  0  0  0  0  0  0  0
   -5.7737   23.7985  -24.6753 C   0  0  0  0  0  0  0  0  0  0  0  0
   -5.5035   24.7540  -28.2482 C   0  0  0  0  0  0  0  0  0  0  0  0
   -5.5283   23.6020  -29.0000 C   0  0  0  0  0  0  0  0  0  0  0  0
   -5.5907   23.6369  -30.3950 C   0  0  0  0  0  0  0  0  0  0  0  0
   -5.6289   24.8383  -31.0462 C   0  0  0  0  0  0  0  0  0  0  0  0
   -5.6035   25.9761  -30.2746 C   0  0  0  0  0  0  0  0  0  0  0  0
   -5.5434   25.9258  -28.9374 N   0  0  0  0  0  0  0  0  0  0  0  0
   -4.7742   24.7891  -22.7353 C   0  0  0  0  0  0  0  0  0  0  0  0
   -3.3395   24.4349  -23.0256 C   0  0  0  0  0  0  0  0  0  0  0  0
   -2.9800   23.2212  -22.1697 C   0  0  0  0  0  0  0  0  0  0  0  0
   -2.9761   21.7342  -23.2028 S   0  0  0  0  0  0  0  0  0  0  0  0
    0.4402   22.4480  -28.0267 F   0  0  0  0  0  0  0  0  0  0  0  0
   -0.3214   22.2836  -26.9117 C   0  0  0  0  0  0  0  0  0  0  0  0
   -1.7057   22.3136  -27.0159 C   0  0  0  0  0  0  0  0  0  0  0  0
   -2.4991   22.1506  -25.9088 C   0  0  0  0  0  0  0  0  0  0  0  0
   -1.9629   21.9518  -24.6544 C   0  0  0  0  0  0  0  0  0  0  0  0
   -0.5865   21.9240  -24.5640 C   0  0  0  0  0  0  0  0  0  0  0  0
    0.2315   22.0861  -25.6676 C   0  0  0  0  0  0  0  0  0  0  0  0
 17 18  1  0  0  0
 18 19  2  0  0  0
 19 20  1  0  0  0
 20 21  2  0  0  0
 21 16  1  0  0  0
 16 15  1  0  0  0
 15 14  1  0  0  0
 14 13  1  0  0  0
 13  1  1  0  0  0
  1  2  1  0  0  0
  2  3  1  0  0  0
  3  4  1  0  0  0
  4  7  1  0  0  0
  7  8  2  0  0  0
  8  9  1  0  0  0
  9 10  2  0  0  0
 10 11  1  0  0  0
 11 12  2  0  0  0
  4  5  1  0  0  0
  5  6  1  0  0  0
 21 22  1  0  0  0
 22 23  2  0  0  0
 23 18  1  0  0  0
  6  1  1  0  0  0
 12  7  1  0  0  0
M  END
> <minimizedAffinity>
-8.03374

> <CNNscore>
0.4663280249

> <CNNaffinity>
6.3660116196

> <CNN_VS>
2.9686496258

> <CNNaffinity_variance>
0.2457416356

$$$$
[H]c1nc(N2C([H])([H])C([H])([H])N(C([H])([H])C([H])([H])C([H])([H])Sc3c([H])c([H])c(F)c([H])c3[H])C([H])([H])C2([H])[H])c([H])c([H])c1[H]


 23 25  0  0  0  0  0  0  0  0999 V2000
   -2.7977   22.0447  -25.7980 N   0  0  0  0  0  0  0  0  0  0  0  0
   -4.1892   22.4050  -25.9152 C   0  0  0  0  0  0  0  0  0  0  0  0
   -4.4679   23.5990  -26.7860 C   0  0  0  0  0  0  0  0  0  0  0  0
   -3.7385   23.5913  -28.0156 N   0  0  0  0  0  0  0  0  0  0  0  0
   -2.4504   22.9491  -28.0544 C   0  0  0  0  0  0  0  0  0  0  0  0
   -1.9450   22.8369  -26.6472 C   0  0  0  0  0  0  0  0  0  0  0  0
   -4.2948   24.2152  -29.1631 C   0  0  0  0  0  0  0  0  0  0  0  0
   -3.8379   25.4173  -29.6521 C   0  0  0  0  0  0  0  0  0  0  0  0
   -4.4088   26.0169  -30.7772 C   0  0  0  0  0  0  0  0  0  0  0  0
   -5.4490   25.4071  -31.4212 C   0  0  0  0  0  0  0  0  0  0  0  0
   -5.8887   24.2067  -30.9150 C   0  0  0  0  0  0  0  0  0  0  0  0
   -5.3305   23.6446  -29.8348 N   0  0  0  0  0  0  0  0  0  0  0  0
   -2.3570   22.0537  -24.4200 C   0  0  0  0  0  0  0  0  0  0  0  0
   -3.5068   21.6676  -23.5272 C   0  0  0  0  0  0  0  0  0  0  0  0
   -3.3536   22.4371  -22.2160 C   0  0  0  0  0  0  0  0  0  0  0  0
   -4.8358   23.4357  -21.9257 S   0  0  0  0  0  0  0  0  0  0  0  0
   -5.3513   27.8344  -25.9052 F   0  0  0  0  0  0  0  0  0  0  0  0
   -5.2560   26.8255  -24.9980 C   0  0  0  0  0  0  0  0  0  0  0  0
   -4.0157   26.4926  -24.4699 C   0  0  0  0  0  0  0  0  0  0  0  0
   -3.8892   25.4799  -23.5532 C   0  0  0  0  0  0  0  0  0  0  0  0
   -4.9777   24.7536  -23.1191 C   0  0  0  0  0  0  0  0  0  0  0  0
   -6.2043   25.0938  -23.6512 C   0  0  0  0  0  0  0  0  0  0  0  0
   -6.3537   26.1114  -24.5762 C   0  0  0  0  0  0  0  0  0  0  0  0
 17 18  1  0  0  0
 18 19  2  0  0  0
 19 20  1  0  0  0
 20 21  2  0  0  0
 21 16  1  0  0  0
 16 15  1  0  0  0
 15 14  1  0  0  0
 14 13  1  0  0  0
 13  1  1  0  0  0
  1  2  1  0  0  0
  2  3  1  0  0  0
  3  4  1  0  0  0
  4  7  1  0  0  0
  7  8  2  0  0  0
  8  9  1  0  0  0
  9 10  2  0  0  0
 10 11  1  0  0  0
 11 12  2  0  0  0
  4  5  1  0  0  0
  5  6  1  0  0  0
 21 22  1  0  0  0
 22 23  2  0  0  0
 23 18  1  0  0  0
  6  1  1  0  0  0
 12  7  1  0  0  0
M  END
> <minimizedAffinity>
-7.36209

> <CNNscore>
0.2225455046

> <CNNaffinity>
5.9121294022

> <CNN_VS>
1.3157178164

> <CNNaffinity_variance>
0.2481316626

$$$$
[H]c1nc(N2C([H])([H])C([H])([H])N(C([H])([H])C([H])([H])C([H])([H])Sc3c([H])c([H])c(F)c([H])c3[H])C([H])([H])C2([H])[H])c([H])c([H])c1[H]


 23 25  0  0  0  0  0  0  0  0999 V2000
   -2.2191   23.2912  -27.4913 N   0  0  0  0  0  0  0  0  0  0  0  0
   -2.9258   22.9588  -26.2789 C   0  0  0  0  0  0  0  0  0  0  0  0
   -2.2673   21.9121  -25.4231 C   0  0  0  0  0  0  0  0  0  0  0  0
   -0.8587   22.1033  -25.2701 N   0  0  0  0  0  0  0  0  0  0  0  0
   -0.1251   22.7384  -26.3340 C   0  0  0  0  0  0  0  0  0  0  0  0
   -0.9408   22.6335  -27.5877 C   0  0  0  0  0  0  0  0  0  0  0  0
   -0.2177   21.6633  -24.0823 C   0  0  0  0  0  0  0  0  0  0  0  0
   -0.9129   21.2981  -22.9526 C   0  0  0  0  0  0  0  0  0  0  0  0
   -0.2590   20.8785  -21.7918 C   0  0  0  0  0  0  0  0  0  0  0  0
    1.1065   20.8230  -21.7603 C   0  0  0  0  0  0  0  0  0  0  0  0
    1.7802   21.1921  -22.9006 C   0  0  0  0  0  0  0  0  0  0  0  0
    1.1383   21.5925  -24.0061 N   0  0  0  0  0  0  0  0  0  0  0  0
   -3.0367   23.0711  -28.6645 C   0  0  0  0  0  0  0  0  0  0  0  0
   -4.4899   23.0925  -28.2695 C   0  0  0  0  0  0  0  0  0  0  0  0
   -5.2554   23.8386  -29.3614 C   0  0  0  0  0  0  0  0  0  0  0  0
   -5.5244   25.5533  -28.8457 S   0  0  0  0  0  0  0  0  0  0  0  0
   -6.4111   25.9206  -22.9695 F   0  0  0  0  0  0  0  0  0  0  0  0
   -6.2289   25.8266  -24.3142 C   0  0  0  0  0  0  0  0  0  0  0  0
   -5.0801   26.3532  -24.8894 C   0  0  0  0  0  0  0  0  0  0  0  0
   -4.8694   26.2729  -26.2425 C   0  0  0  0  0  0  0  0  0  0  0  0
   -5.7804   25.6715  -27.0846 C   0  0  0  0  0  0  0  0  0  0  0  0
   -6.9177   25.1523  -26.5011 C   0  0  0  0  0  0  0  0  0  0  0  0
   -7.1493   25.2225  -25.1391 C   0  0  0  0  0  0  0  0  0  0  0  0
 17 18  1  0  0  0
 18 19  2  0  0  0
 19 20  1  0  0  0
 20 21  2  0  0  0
 21 16  1  0  0  0
 16 15  1  0  0  0
 15 14  1  0  0  0
 14 13  1  0  0  0
 13  1  1  0  0  0
  1  2  1  0  0  0
  2  3  1  0  0  0
  3  4  1  0  0  0
  4  7  1  0  0  0
  7  8  2  0  0  0
  8  9  1  0  0  0
  9 10  2  0  0  0
 10 11  1  0  0  0
 11 12  2  0  0  0
  4  5  1  0  0  0
  5  6  1  0  0  0
 21 22  1  0  0  0
 22 23  2  0  0  0
 23 18  1  0  0  0
  6  1  1  0  0  0
 12  7  1  0  0  0
M  END
> <minimizedAffinity>
-6.94926

> <CNNscore>
0.1915204525

> <CNNaffinity>
5.7889618874

> <CNN_VS>
1.1087045670

> <CNNaffinity_variance>
0.4285923839

$$$$
[H]c1nc(N2C([H])([H])C([H])([H])N(C([H])([H])C([H])([H])C([H])([H])Sc3c([H])c([H])c(F)c([H])c3[H])C([H])([H])C2([H])[H])c([H])c([H])c1[H]


 23 25  0  0  0  0  0  0  0  0999 V2000
   -5.0228   23.6803  -22.7762 N   0  0  0  0  0  0  0  0  0  0  0  0
   -4.5093   24.8545  -23.4376 C   0  0  0  0  0  0  0  0  0  0  0  0
   -4.1364   24.6615  -24.8817 C   0  0  0  0  0  0  0  0  0  0  0  0
   -5.1060   23.9214  -25.6276 N   0  0  0  0  0  0  0  0  0  0  0  0
   -5.9009   22.9340  -24.9446 C   0  0  0  0  0  0  0  0  0  0  0  0
   -5.1942   22.5667  -23.6742 C   0  0  0  0  0  0  0  0  0  0  0  0
   -5.2610   24.1722  -27.0162 C   0  0  0  0  0  0  0  0  0  0  0  0
   -4.9723   23.2328  -27.9792 C   0  0  0  0  0  0  0  0  0  0  0  0
   -5.1229   23.5069  -29.3406 C   0  0  0  0  0  0  0  0  0  0  0  0
   -5.5677   24.7350  -29.7440 C   0  0  0  0  0  0  0  0  0  0  0  0
   -5.8502   25.6575  -28.7645 C   0  0  0  0  0  0  0  0  0  0  0  0
   -5.7005   25.3793  -27.4627 N   0  0  0  0  0  0  0  0  0  0  0  0
   -4.2315   23.3305  -21.6166 C   0  0  0  0  0  0  0  0  0  0  0  0
   -2.8322   23.8594  -21.7910 C   0  0  0  0  0  0  0  0  0  0  0  0
   -1.8996   22.9872  -20.9516 C   0  0  0  0  0  0  0  0  0  0  0  0
   -1.5952   21.4249  -21.8148 S   0  0  0  0  0  0  0  0  0  0  0  0
    0.5674   22.3619  -27.2825 F   0  0  0  0  0  0  0  0  0  0  0  0
    0.0522   22.1507  -26.0416 C   0  0  0  0  0  0  0  0  0  0  0  0
    0.9036   21.8462  -24.9879 C   0  0  0  0  0  0  0  0  0  0  0  0
    0.4125   21.6284  -23.7257 C   0  0  0  0  0  0  0  0  0  0  0  0
   -0.9362   21.7010  -23.4490 C   0  0  0  0  0  0  0  0  0  0  0  0
   -1.7717   22.0042  -24.5042 C   0  0  0  0  0  0  0  0  0  0  0  0
   -1.2971   22.2276  -25.7841 C   0  0  0  0  0  0  0  0  0  0  0  0
 17 18  1  0  0  0
 18 19  2  0  0  0
 19 20  1  0  0  0
 20 21  2  0  0  0
 21 16  1  0  0  0
 16 15  1  0  0  0
 15 14  1  0  0  0
 14 13  1  0  0  0
 13  1  1  0  0  0
  1  2  1  0  0  0
  2  3  1  0  0  0
  3  4  1  0  0  0
  4  7  1  0  0  0
  7  8  2  0  0  0
  8  9  1  0  0  0
  9 10  2  0  0  0
 10 11  1  0  0  0
 11 12  2  0  0  0
  4  5  1  0  0  0
  5  6  1  0  0  0
 21 22  1  0  0  0
 22 23  2  0  0  0
 23 18  1  0  0  0
  6  1  1  0  0  0
 12  7  1  0  0  0
M  END
> <minimizedAffinity>
-6.93126

> <CNNscore>
0.1836157888

> <CNNaffinity>
5.6628684998

> <CNN_VS>
1.0397920609

> <CNNaffinity_variance>
0.1038514599

$$$$
[H]c1nc(N2C([H])([H])C([H])([H])N(C([H])([H])C([H])([H])C([H])([H])Sc3c([H])c([H])c(F)c([H])c3[H])C([H])([H])C2([H])[H])c([H])c([H])c1[H]


 23 25  0  0  0  0  0  0  0  0999 V2000
   -2.4752   22.3016  -24.2071 N   0  0  0  0  0  0  0  0  0  0  0  0
   -2.4160   21.9414  -22.8119 C   0  0  0  0  0  0  0  0  0  0  0  0
   -1.2771   21.0344  -22.4349 C   0  0  0  0  0  0  0  0  0  0  0  0
   -0.0276   21.4157  -23.0156 N   0  0  0  0  0  0  0  0  0  0  0  0
   -0.0304   22.0867  -24.2896 C   0  0  0  0  0  0  0  0  0  0  0  0
   -1.3455   21.8127  -24.9558 C   0  0  0  0  0  0  0  0  0  0  0  0
    1.1807   21.1239  -22.3299 C   0  0  0  0  0  0  0  0  0  0  0  0
    1.2489   21.0003  -20.9613 C   0  0  0  0  0  0  0  0  0  0  0  0
    2.4522   20.7232  -20.3083 C   0  0  0  0  0  0  0  0  0  0  0  0
    3.6012   20.5676  -21.0324 C   0  0  0  0  0  0  0  0  0  0  0  0
    3.5091   20.6952  -22.3983 C   0  0  0  0  0  0  0  0  0  0  0  0
    2.3473   20.9613  -23.0098 N   0  0  0  0  0  0  0  0  0  0  0  0
   -3.7351   21.9174  -24.8058 C   0  0  0  0  0  0  0  0  0  0  0  0
   -4.7920   22.9219  -24.4289 C   0  0  0  0  0  0  0  0  0  0  0  0
   -5.1814   23.6818  -25.6961 C   0  0  0  0  0  0  0  0  0  0  0  0
   -4.1960   23.0766  -27.0894 S   0  0  0  0  0  0  0  0  0  0  0  0
   -5.6178   25.8852  -32.1432 F   0  0  0  0  0  0  0  0  0  0  0  0
   -5.2810   25.2619  -30.9820 C   0  0  0  0  0  0  0  0  0  0  0  0
   -5.7787   23.9935  -30.7149 C   0  0  0  0  0  0  0  0  0  0  0  0
   -5.4560   23.3406  -29.5523 C   0  0  0  0  0  0  0  0  0  0  0  0
   -4.6309   23.9093  -28.6055 C   0  0  0  0  0  0  0  0  0  0  0  0
   -4.1430   25.1697  -28.8825 C   0  0  0  0  0  0  0  0  0  0  0  0
   -4.4558   25.8451  -30.0485 C   0  0  0  0  0  0  0  0  0  0  0  0
 17 18  1  0  0  0
 18 19  2  0  0  0
 19 20  1  0  0  0
 20 21  2  0  0  0
 21 16  1  0  0  0
 16 15  1  0  0  0
 15 14  1  0  0  0
 14 13  1  0  0  0
 13  1  1  0  0  0
  1  2  1  0  0  0
  2  3  1  0  0  0
  3  4  1  0  0  0
  4  7  1  0  0  0
  7  8  2  0  0  0
  8  9  1  0  0  0
  9 10  2  0  0  0
 10 11  1  0  0  0
 11 12  2  0  0  0
  4  5  1  0  0  0
  5  6  1  0  0  0
 21 22  1  0  0  0
 22 23  2  0  0  0
 23 18  1  0  0  0
  6  1  1  0  0  0
 12  7  1  0  0  0
M  END
> <minimizedAffinity>
-6.60219

> <CNNscore>
0.1772716790

> <CNNaffinity>
5.4908227921

> <CNN_VS>
0.9733673930

> <CNNaffinity_variance>
0.1175279841

$$$$
[H]c1nc(N2C([H])([H])C([H])([H])N(C([H])([H])C([H])([H])C([H])([H])Sc3c([H])c([H])c(F)c([H])c3[H])C([H])([H])C2([H])[H])c([H])c([H])c1[H]


 23 25  0  0  0  0  0  0  0  0999 V2000
   -5.1143   23.6530  -24.4469 N   0  0  0  0  0  0  0  0  0  0  0  0
   -6.2057   23.1737  -25.2587 C   0  0  0  0  0  0  0  0  0  0  0  0
   -6.5372   24.0283  -26.4510 C   0  0  0  0  0  0  0  0  0  0  0  0
   -5.3863   24.4632  -27.1791 N   0  0  0  0  0  0  0  0  0  0  0  0
   -4.1481   24.6553  -26.4697 C   0  0  0  0  0  0  0  0  0  0  0  0
   -4.4668   24.8090  -25.0126 C   0  0  0  0  0  0  0  0  0  0  0  0
   -5.4890   24.6975  -28.5755 C   0  0  0  0  0  0  0  0  0  0  0  0
   -5.5819   23.6796  -29.4964 C   0  0  0  0  0  0  0  0  0  0  0  0
   -5.6713   23.9351  -30.8667 C   0  0  0  0  0  0  0  0  0  0  0  0
   -5.6680   25.2242  -31.3218 C   0  0  0  0  0  0  0  0  0  0  0  0
   -5.5747   26.2250  -30.3837 C   0  0  0  0  0  0  0  0  0  0  0  0
   -5.4895   25.9634  -29.0726 N   0  0  0  0  0  0  0  0  0  0  0  0
   -5.5229   23.8715  -23.0763 C   0  0  0  0  0  0  0  0  0  0  0  0
   -6.0522   22.5832  -22.5033 C   0  0  0  0  0  0  0  0  0  0  0  0
   -4.8545   21.6816  -22.2072 C   0  0  0  0  0  0  0  0  0  0  0  0
   -3.4698   22.6907  -21.6219 S   0  0  0  0  0  0  0  0  0  0  0  0
    1.5904   21.2848  -24.4271 F   0  0  0  0  0  0  0  0  0  0  0  0
    0.4427   21.5967  -23.7670 C   0  0  0  0  0  0  0  0  0  0  0  0
   -0.5635   22.2875  -24.4291 C   0  0  0  0  0  0  0  0  0  0  0  0
   -1.7316   22.6154  -23.7891 C   0  0  0  0  0  0  0  0  0  0  0  0
   -1.9572   22.2772  -22.4717 C   0  0  0  0  0  0  0  0  0  0  0  0
   -0.9500   21.5911  -21.8249 C   0  0  0  0  0  0  0  0  0  0  0  0
    0.2351   21.2507  -22.4518 C   0  0  0  0  0  0  0  0  0  0  0  0
 17 18  1  0  0  0
 18 19  2  0  0  0
 19 20  1  0  0  0
 20 21  2  0  0  0
 21 16  1  0  0  0
 16 15  1  0  0  0
 15 14  1  0  0  0
 14 13  1  0  0  0
 13  1  1  0  0  0
  1  2  1  0  0  0
  2  3  1  0  0  0
  3  4  1  0  0  0
  4  7  1  0  0  0
  7  8  2  0  0  0
  8  9  1  0  0  0
  9 10  2  0  0  0
 10 11  1  0  0  0
 11 12  2  0  0  0
  4  5  1  0  0  0
  5  6  1  0  0  0
 21 22  1  0  0  0
 22 23  2  0  0  0
 23 18  1  0  0  0
  6  1  1  0  0  0
 12  7  1  0  0  0
M  END
> <minimizedAffinity>
-6.79350

> <CNNscore>
0.1549308598

> <CNNaffinity>
5.6253023148

> <CNN_VS>
0.8715329170

> <CNNaffinity_variance>
0.1766557842

$$$$
[H]c1nc(N2C([H])([H])C([H])([H])N(C([H])([H])C([H])([H])C([H])([H])Sc3c([H])c([H])c(F)c([H])c3[H])C([H])([H])C2([H])[H])c([H])c([H])c1[H]


 23 25  0  0  0  0  0  0  0  0999 V2000
   -5.2259   24.9714  -24.9885 N   0  0  0  0  0  0  0  0  0  0  0  0
   -6.0355   25.8132  -24.1425 C   0  0  0  0  0  0  0  0  0  0  0  0
   -7.2735   25.1612  -23.5911 C   0  0  0  0  0  0  0  0  0  0  0  0
   -7.0495   23.8396  -23.0942 N   0  0  0  0  0  0  0  0  0  0  0  0
   -6.0127   23.0396  -23.6929 C   0  0  0  0  0  0  0  0  0  0  0  0
   -5.7048   23.6137  -25.0434 C   0  0  0  0  0  0  0  0  0  0  0  0
   -7.8504   23.3467  -22.0306 C   0  0  0  0  0  0  0  0  0  0  0  0
   -7.7647   22.0524  -21.5721 C   0  0  0  0  0  0  0  0  0  0  0  0
   -8.5713   21.5875  -20.5307 C   0  0  0  0  0  0  0  0  0  0  0  0
   -9.4744   22.4271  -19.9405 C   0  0  0  0  0  0  0  0  0  0  0  0
   -9.5423   23.7158  -20.4148 C   0  0  0  0  0  0  0  0  0  0  0  0
   -8.7617   24.1464  -21.4146 N   0  0  0  0  0  0  0  0  0  0  0  0
   -5.0545   25.5440  -26.3061 C   0  0  0  0  0  0  0  0  0  0  0  0
   -5.2160   24.4638  -27.3430 C   0  0  0  0  0  0  0  0  0  0  0  0
   -4.0499   24.5847  -28.3230 C   0  0  0  0  0  0  0  0  0  0  0  0
   -3.2923   22.9578  -28.5631 S   0  0  0  0  0  0  0  0  0  0  0  0
    0.9391   21.9091  -24.5077 F   0  0  0  0  0  0  0  0  0  0  0  0
   -0.0435   22.1448  -25.4182 C   0  0  0  0  0  0  0  0  0  0  0  0
    0.2953   22.5130  -26.7134 C   0  0  0  0  0  0  0  0  0  0  0  0
   -0.6742   22.7569  -27.6528 C   0  0  0  0  0  0  0  0  0  0  0  0
   -2.0162   22.6487  -27.3560 C   0  0  0  0  0  0  0  0  0  0  0  0
   -2.3399   22.2822  -26.0659 C   0  0  0  0  0  0  0  0  0  0  0  0
   -1.3781   22.0317  -25.1038 C   0  0  0  0  0  0  0  0  0  0  0  0
 17 18  1  0  0  0
 18 19  2  0  0  0
 19 20  1  0  0  0
 20 21  2  0  0  0
 21 16  1  0  0  0
 16 15  1  0  0  0
 15 14  1  0  0  0
 14 13  1  0  0  0
 13  1  1  0  0  0
  1  2  1  0  0  0
  2  3  1  0  0  0
  3  4  1  0  0  0
  4  7  1  0  0  0
  7  8  2  0  0  0
  8  9  1  0  0  0
  9 10  2  0  0  0
 10 11  1  0  0  0
 11 12  2  0  0  0
  4  5  1  0  0  0
  5  6  1  0  0  0
 21 22  1  0  0  0
 22 23  2  0  0  0
 23 18  1  0  0  0
  6  1  1  0  0  0
 12  7  1  0  0  0
M  END
> <minimizedAffinity>
-6.92876

> <CNNscore>
0.1519456804

> <CNNaffinity>
5.4149427414

> <CNN_VS>
0.8227771521

> <CNNaffinity_variance>
0.2076965272

$$$$
[H]c1nc(N2C([H])([H])C([H])([H])N(C([H])([H])C([H])([H])C([H])([H])Sc3c([H])c([H])c(F)c([H])c3[H])C([H])([H])C2([H])[H])c([H])c([H])c1[H]


 23 25  0  0  0  0  0  0  0  0999 V2000
   -5.1317   23.3007  -22.5841 N   0  0  0  0  0  0  0  0  0  0  0  0
   -4.0414   24.2353  -22.7162 C   0  0  0  0  0  0  0  0  0  0  0  0
   -2.7462   23.6408  -23.1965 C   0  0  0  0  0  0  0  0  0  0  0  0
   -2.9049   22.7364  -24.2924 N   0  0  0  0  0  0  0  0  0  0  0  0
   -4.1319   21.9913  -24.4050 C   0  0  0  0  0  0  0  0  0  0  0  0
   -4.7954   21.9832  -23.0604 C   0  0  0  0  0  0  0  0  0  0  0  0
   -1.8557   22.5913  -25.2376 C   0  0  0  0  0  0  0  0  0  0  0  0
   -2.0174   22.8620  -26.5768 C   0  0  0  0  0  0  0  0  0  0  0  0
   -0.9724   22.7013  -27.4897 C   0  0  0  0  0  0  0  0  0  0  0  0
    0.2491   22.2650  -27.0582 C   0  0  0  0  0  0  0  0  0  0  0  0
    0.3876   22.0011  -25.7160 C   0  0  0  0  0  0  0  0  0  0  0  0
   -0.6246   22.1601  -24.8531 N   0  0  0  0  0  0  0  0  0  0  0  0
   -5.6556   23.2770  -21.2356 C   0  0  0  0  0  0  0  0  0  0  0  0
   -6.7728   24.2801  -21.1181 C   0  0  0  0  0  0  0  0  0  0  0  0
   -7.8563   23.8859  -22.1209 C   0  0  0  0  0  0  0  0  0  0  0  0
   -8.2232   25.2947  -23.1975 S   0  0  0  0  0  0  0  0  0  0  0  0
   -4.2806   25.7379  -27.6371 F   0  0  0  0  0  0  0  0  0  0  0  0
   -5.1751   25.6574  -26.6156 C   0  0  0  0  0  0  0  0  0  0  0  0
   -5.9936   24.5411  -26.5067 C   0  0  0  0  0  0  0  0  0  0  0  0
   -6.9047   24.4324  -25.4870 C   0  0  0  0  0  0  0  0  0  0  0  0
   -7.0477   25.4176  -24.5332 C   0  0  0  0  0  0  0  0  0  0  0  0
   -6.2288   26.5216  -24.6523 C   0  0  0  0  0  0  0  0  0  0  0  0
   -5.3036   26.6507  -25.6725 C   0  0  0  0  0  0  0  0  0  0  0  0
 17 18  1  0  0  0
 18 19  2  0  0  0
 19 20  1  0  0  0
 20 21  2  0  0  0
 21 16  1  0  0  0
 16 15  1  0  0  0
 15 14  1  0  0  0
 14 13  1  0  0  0
 13  1  1  0  0  0
  1  2  1  0  0  0
  2  3  1  0  0  0
  3  4  1  0  0  0
  4  7  1  0  0  0
  7  8  2  0  0  0
  8  9  1  0  0  0
  9 10  2  0  0  0
 10 11  1  0  0  0
 11 12  2  0  0  0
  4  5  1  0  0  0
  5  6  1  0  0  0
 21 22  1  0  0  0
 22 23  2  0  0  0
 23 18  1  0  0  0
  6  1  1  0  0  0
 12  7  1  0  0  0
M  END
> <minimizedAffinity>
-6.66708

> <CNNscore>
0.1362898350

> <CNNaffinity>
5.3257503510

> <CNN_VS>
0.7258456349

> <CNNaffinity_variance>
0.4281635880

$$$$
[H]c1nc(N2C([H])([H])C([H])([H])N(C([H])([H])C([H])([H])C([H])([H])Sc3c([H])c([H])c(F)c([H])c3[H])C([H])([H])C2([H])[H])c([H])c([H])c1[H]


 23 25  0  0  0  0  0  0  0  0999 V2000
   -2.2567   22.1869  -25.7760 N   0  0  0  0  0  0  0  0  0  0  0  0
   -3.5485   22.8126  -25.6367 C   0  0  0  0  0  0  0  0  0  0  0  0
   -3.8327   23.9153  -26.6191 C   0  0  0  0  0  0  0  0  0  0  0  0
   -3.4561   23.5954  -27.9607 N   0  0  0  0  0  0  0  0  0  0  0  0
   -2.3509   22.6979  -28.1760 C   0  0  0  0  0  0  0  0  0  0  0  0
   -1.5280   22.6658  -26.9230 C   0  0  0  0  0  0  0  0  0  0  0  0
   -4.1730   24.1678  -29.0441 C   0  0  0  0  0  0  0  0  0  0  0  0
   -5.1475   23.4854  -29.7353 C   0  0  0  0  0  0  0  0  0  0  0  0
   -5.8321   24.0666  -30.8053 C   0  0  0  0  0  0  0  0  0  0  0  0
   -5.5388   25.3456  -31.1887 C   0  0  0  0  0  0  0  0  0  0  0  0
   -4.5620   26.0081  -30.4835 C   0  0  0  0  0  0  0  0  0  0  0  0
   -3.9144   25.4367  -29.4595 N   0  0  0  0  0  0  0  0  0  0  0  0
   -1.4820   22.2821  -24.5578 C   0  0  0  0  0  0  0  0  0  0  0  0
   -2.2508   21.6483  -23.4284 C   0  0  0  0  0  0  0  0  0  0  0  0
   -2.0355   22.5068  -22.1827 C   0  0  0  0  0  0  0  0  0  0  0  0
   -3.3099   23.7909  -22.1073 S   0  0  0  0  0  0  0  0  0  0  0  0
   -8.7271   21.4632  -21.2790 F   0  0  0  0  0  0  0  0  0  0  0  0
   -7.4982   22.0090  -21.4840 C   0  0  0  0  0  0  0  0  0  0  0  0
   -6.4200   21.5772  -20.7231 C   0  0  0  0  0  0  0  0  0  0  0  0
   -5.1693   22.1094  -20.9079 C   0  0  0  0  0  0  0  0  0  0  0  0
   -4.9285   23.0881  -21.8485 C   0  0  0  0  0  0  0  0  0  0  0  0
   -6.0078   23.5088  -22.5981 C   0  0  0  0  0  0  0  0  0  0  0  0
   -7.2768   22.9852  -22.4278 C   0  0  0  0  0  0  0  0  0  0  0  0
 17 18  1  0  0  0
 18 19  2  0  0  0
 19 20  1  0  0  0
 20 21  2  0  0  0
 21 16  1  0  0  0
 16 15  1  0  0  0
 15 14  1  0  0  0
 14 13  1  0  0  0
 13  1  1  0  0  0
  1  2  1  0  0  0
  2  3  1  0  0  0
  3  4  1  0  0  0
  4  7  1  0  0  0
  7  8  2  0  0  0
  8  9  1  0  0  0
  9 10  2  0  0  0
 10 11  1  0  0  0
 11 12  2  0  0  0
  4  5  1  0  0  0
  5  6  1  0  0  0
 21 22  1  0  0  0
 22 23  2  0  0  0
 23 18  1  0  0  0
  6  1  1  0  0  0
 12  7  1  0  0  0
M  END
> <minimizedAffinity>
-6.81293

> <CNNscore>
0.1334852427

> <CNNaffinity>
5.5002479553

> <CNN_VS>
0.7342019081

> <CNNaffinity_variance>
0.3791615665

$$$$
[H]c1c([H])c([H])c2c(c1[H])[C@]([H])(c1c([H])c([H])c(F)c([H])c1[H])C([H])([H])C([H])([H])[C@]2([H])N([H])C([H])([H])[H]


 20 22  0  0  0  0  0  0  0  0999 V2000
    0.7072   21.5607  -16.3615 C   0  0  0  0  0  0  0  0  0  0  0  0
    0.0651   21.3671  -15.0286 C   0  0  0  0  0  0  0  0  0  0  0  0
    1.0850   21.4597  -13.9181 C   0  0  0  0  0  0  0  0  0  0  0  0
    1.5617   22.9198  -13.9207 C   0  0  0  0  0  0  0  0  0  0  0  0
    2.3645   23.0392  -15.1767 C   0  0  0  0  0  0  0  0  0  0  0  0
    3.5077   23.7901  -15.1842 C   0  0  0  0  0  0  0  0  0  0  0  0
    4.2339   23.8854  -16.3551 C   0  0  0  0  0  0  0  0  0  0  0  0
    3.8496   23.2561  -17.5044 C   0  0  0  0  0  0  0  0  0  0  0  0
    2.6832   22.5015  -17.4617 C   0  0  0  0  0  0  0  0  0  0  0  0
    1.9348   22.3849  -16.3113 C   0  0  0  0  0  0  0  0  0  0  0  0
    2.2852   23.2917  -12.7116 C   0  0  0  0  0  0  0  0  0  0  0  0
    3.2790   22.4745  -12.2238 C   0  0  0  0  0  0  0  0  0  0  0  0
    3.9875   22.7896  -11.0841 C   0  0  0  0  0  0  0  0  0  0  0  0
    3.7064   23.9488  -10.4030 C   0  0  0  0  0  0  0  0  0  0  0  0
    4.4130   24.2506   -9.2756 F   0  0  0  0  0  0  0  0  0  0  0  0
    2.7239   24.7803  -10.8643 C   0  0  0  0  0  0  0  0  0  0  0  0
    2.0105   24.4517  -12.0222 C   0  0  0  0  0  0  0  0  0  0  0  0
   -0.1676   20.0581  -18.0318 C   0  0  0  0  0  0  0  0  0  0  0  0
    0.8904   20.3239  -17.0975 N   0  0  0  0  0  0  0  0  0  0  0  0
    1.7797   20.4261  -17.6356 H   0  0  0  0  0  0  0  0  0  0  0  0
 18 19  1  0  0  0
 19  1  1  0  0  0
  1  2  1  0  0  0
  2  3  1  0  0  0
  3  4  1  0  0  0
  4 11  1  0  0  0
 11 12  2  0  0  0
 12 13  1  0  0  0
 13 14  2  0  0  0
 14 15  1  0  0  0
 14 16  1  0  0  0
 16 17  2  0  0  0
  4  5  1  0  0  0
  5  6  2  0  0  0
  6  7  1  0  0  0
  7  8  2  0  0  0
  8  9  1  0  0  0
  9 10  2  0  0  0
 10  1  1  0  0  0
 17 11  1  0  0  0
 10  5  1  0  0  0
 19 20  1  0  0  0
M  END
> <minimizedAffinity>
-4.18688

> <CNNscore>
0.5065544844

> <CNNaffinity>
3.5338902473

> <CNN_VS>
1.7901079655

> <CNNaffinity_variance>
0.4318385124

$$$$
[H]c1c([H])c([H])c2c(c1[H])[C@]([H])(c1c([H])c([H])c(F)c([H])c1[H])C([H])([H])C([H])([H])[C@]2([H])N([H])C([H])([H])[H]


 20 22  0  0  0  0  0  0  0  0999 V2000
   -1.1562   18.5842  -17.7937 C   0  0  0  0  0  0  0  0  0  0  0  0
    0.2505   18.3729  -17.3432 C   0  0  0  0  0  0  0  0  0  0  0  0
    1.1351   19.5186  -17.7756 C   0  0  0  0  0  0  0  0  0  0  0  0
    0.6429   20.7379  -16.9816 C   0  0  0  0  0  0  0  0  0  0  0  0
   -0.6915   21.0490  -17.5805 C   0  0  0  0  0  0  0  0  0  0  0  0
   -1.0738   22.3512  -17.7501 C   0  0  0  0  0  0  0  0  0  0  0  0
   -2.3101   22.6151  -18.3062 C   0  0  0  0  0  0  0  0  0  0  0  0
   -3.1629   21.6208  -18.6921 C   0  0  0  0  0  0  0  0  0  0  0  0
   -2.7430   20.3092  -18.5057 C   0  0  0  0  0  0  0  0  0  0  0  0
   -1.5168   20.0101  -17.9541 C   0  0  0  0  0  0  0  0  0  0  0  0
    1.5805   21.8535  -16.9993 C   0  0  0  0  0  0  0  0  0  0  0  0
    2.0713   22.3227  -18.1961 C   0  0  0  0  0  0  0  0  0  0  0  0
    2.9591   23.3755  -18.2569 C   0  0  0  0  0  0  0  0  0  0  0  0
    3.3765   23.9855  -17.0992 C   0  0  0  0  0  0  0  0  0  0  0  0
    4.2560   25.0260  -17.1707 F   0  0  0  0  0  0  0  0  0  0  0  0
    2.9054   23.5406  -15.8952 C   0  0  0  0  0  0  0  0  0  0  0  0
    2.0045   22.4712  -15.8440 C   0  0  0  0  0  0  0  0  0  0  0  0
   -0.9507   16.4610  -18.9173 C   0  0  0  0  0  0  0  0  0  0  0  0
   -1.5192   17.7797  -18.9452 N   0  0  0  0  0  0  0  0  0  0  0  0
   -2.5591   17.6847  -18.9266 H   0  0  0  0  0  0  0  0  0  0  0  0
 18 19  1  0  0  0
 19  1  1  0  0  0
  1  2  1  0  0  0
  2  3  1  0  0  0
  3  4  1  0  0  0
  4 11  1  0  0  0
 11 12  2  0  0  0
 12 13  1  0  0  0
 13 14  2  0  0  0
 14 15  1  0  0  0
 14 16  1  0  0  0
 16 17  2  0  0  0
  4  5  1  0  0  0
  5  6  2  0  0  0
  6  7  1  0  0  0
  7  8  2  0  0  0
  8  9  1  0  0  0
  9 10  2  0  0  0
 10  1  1  0  0  0
 17 11  1  0  0  0
 10  5  1  0  0  0
 19 20  1  0  0  0
M  END
> <minimizedAffinity>
-3.93310

> <CNNscore>
0.4841672480

> <CNNaffinity>
3.8866951466

> <CNN_VS>
1.8818105459

> <CNNaffinity_variance>
0.3501544595

$$$$
[H]c1c([H])c([H])c2c(c1[H])[C@]([H])(c1c([H])c([H])c(F)c([H])c1[H])C([H])([H])C([H])([H])[C@]2([H])N([H])C([H])([H])[H]


 20 22  0  0  0  0  0  0  0  0999 V2000
   -7.6175   20.8084  -17.5311 C   0  0  0  0  0  0  0  0  0  0  0  0
   -8.2029   20.2552  -18.7872 C   0  0  0  0  0  0  0  0  0  0  0  0
   -8.6117   21.3643  -19.7280 C   0  0  0  0  0  0  0  0  0  0  0  0
   -7.3007   22.0359  -20.1632 C   0  0  0  0  0  0  0  0  0  0  0  0
   -6.8276   22.7437  -18.9338 C   0  0  0  0  0  0  0  0  0  0  0  0
   -6.2422   23.9752  -19.0410 C   0  0  0  0  0  0  0  0  0  0  0  0
   -5.8138   24.6109  -17.8922 C   0  0  0  0  0  0  0  0  0  0  0  0
   -5.9549   24.0522  -16.6542 C   0  0  0  0  0  0  0  0  0  0  0  0
   -6.5540   22.8003  -16.5814 C   0  0  0  0  0  0  0  0  0  0  0  0
   -6.9926   22.1380  -17.7067 C   0  0  0  0  0  0  0  0  0  0  0  0
   -7.4544   22.8987  -21.3276 C   0  0  0  0  0  0  0  0  0  0  0  0
   -6.5883   22.7831  -22.3905 C   0  0  0  0  0  0  0  0  0  0  0  0
   -6.6992   23.5791  -23.5105 C   0  0  0  0  0  0  0  0  0  0  0  0
   -7.6970   24.5201  -23.5845 C   0  0  0  0  0  0  0  0  0  0  0  0
   -7.7971   25.3032  -24.6971 F   0  0  0  0  0  0  0  0  0  0  0  0
   -8.5724   24.6574  -22.5432 C   0  0  0  0  0  0  0  0  0  0  0  0
   -8.4517   23.8447  -21.4107 C   0  0  0  0  0  0  0  0  0  0  0  0
   -8.4687   19.5190  -15.6803 C   0  0  0  0  0  0  0  0  0  0  0  0
   -8.5269   20.7596  -16.4017 N   0  0  0  0  0  0  0  0  0  0  0  0
   -8.2380   21.5255  -15.7530 H   0  0  0  0  0  0  0  0  0  0  0  0
 18 19  1  0  0  0
 19  1  1  0  0  0
  1  2  1  0  0  0
  2  3  1  0  0  0
  3  4  1  0  0  0
  4 11  1  0  0  0
 11 12  2  0  0  0
 12 13  1  0  0  0
 13 14  2  0  0  0
 14 15  1  0  0  0
 14 16  1  0  0  0
 16 17  2  0  0  0
  4  5  1  0  0  0
  5  6  2  0  0  0
  6  7  1  0  0  0
  7  8  2  0  0  0
  8  9  1  0  0  0
  9 10  2  0  0  0
 10  1  1  0  0  0
 17 11  1  0  0  0
 10  5  1  0  0  0
 19 20  1  0  0  0
M  END
> <minimizedAffinity>
-4.31945

> <CNNscore>
0.4830440879

> <CNNaffinity>
4.2381467819

> <CNN_VS>
2.0472116470

> <CNNaffinity_variance>
0.3442618251

$$$$
[H]c1c([H])c([H])c2c(c1[H])[C@]([H])(c1c([H])c([H])c(F)c([H])c1[H])C([H])([H])C([H])([H])[C@]2([H])N([H])C([H])([H])[H]


 20 22  0  0  0  0  0  0  0  0999 V2000
    0.3614   18.7811  -19.3393 C   0  0  0  0  0  0  0  0  0  0  0  0
   -0.0233   19.4680  -18.0719 C   0  0  0  0  0  0  0  0  0  0  0  0
    1.1529   20.2073  -17.4784 C   0  0  0  0  0  0  0  0  0  0  0  0
    1.4640   21.3417  -18.4661 C   0  0  0  0  0  0  0  0  0  0  0  0
    2.0270   20.6409  -19.6612 C   0  0  0  0  0  0  0  0  0  0  0  0
    3.0661   21.2018  -20.3515 C   0  0  0  0  0  0  0  0  0  0  0  0
    3.5709   20.5364  -21.4513 C   0  0  0  0  0  0  0  0  0  0  0  0
    3.0683   19.3386  -21.8726 C   0  0  0  0  0  0  0  0  0  0  0  0
    2.0129   18.7971  -21.1484 C   0  0  0  0  0  0  0  0  0  0  0  0
    1.4851   19.4336  -20.0468 C   0  0  0  0  0  0  0  0  0  0  0  0
    2.3365   22.3676  -17.9090 C   0  0  0  0  0  0  0  0  0  0  0  0
    3.2480   22.0409  -16.9313 C   0  0  0  0  0  0  0  0  0  0  0  0
    4.0916   22.9805  -16.3785 C   0  0  0  0  0  0  0  0  0  0  0  0
    4.0342   24.2852  -16.8039 C   0  0  0  0  0  0  0  0  0  0  0  0
    4.8731   25.2073  -16.2494 F   0  0  0  0  0  0  0  0  0  0  0  0
    3.1382   24.6390  -17.7742 C   0  0  0  0  0  0  0  0  0  0  0  0
    2.2862   23.6779  -18.3292 C   0  0  0  0  0  0  0  0  0  0  0  0
   -0.5702   16.5788  -19.6475 C   0  0  0  0  0  0  0  0  0  0  0  0
    0.5493   17.3508  -19.1850 N   0  0  0  0  0  0  0  0  0  0  0  0
    1.3803   17.0951  -19.7636 H   0  0  0  0  0  0  0  0  0  0  0  0
 18 19  1  0  0  0
 19  1  1  0  0  0
  1  2  1  0  0  0
  2  3  1  0  0  0
  3  4  1  0  0  0
  4 11  1  0  0  0
 11 12  2  0  0  0
 12 13  1  0  0  0
 13 14  2  0  0  0
 14 15  1  0  0  0
 14 16  1  0  0  0
 16 17  2  0  0  0
  4  5  1  0  0  0
  5  6  2  0  0  0
  6  7  1  0  0  0
  7  8  2  0  0  0
  8  9  1  0  0  0
  9 10  2  0  0  0
 10  1  1  0  0  0
 17 11  1  0  0  0
 10  5  1  0  0  0
 19 20  1  0  0  0
M  END
> <minimizedAffinity>
-4.21045

> <CNNscore>
0.4437492788

> <CNNaffinity>
3.8513557911

> <CNN_VS>
1.7090363503

> <CNNaffinity_variance>
0.2953034043

$$$$
[H]c1c([H])c([H])c2c(c1[H])[C@]([H])(c1c([H])c([H])c(F)c([H])c1[H])C([H])([H])C([H])([H])[C@]2([H])N([H])C([H])([H])[H]


 20 22  0  0  0  0  0  0  0  0999 V2000
    2.1350   22.0667  -17.1410 C   0  0  0  0  0  0  0  0  0  0  0  0
    3.3937   22.7369  -16.7019 C   0  0  0  0  0  0  0  0  0  0  0  0
    3.1417   23.6375  -15.5155 C   0  0  0  0  0  0  0  0  0  0  0  0
    2.7687   22.6972  -14.3597 C   0  0  0  0  0  0  0  0  0  0  0  0
    1.4154   22.1810  -14.7315 C   0  0  0  0  0  0  0  0  0  0  0  0
    0.4661   22.0023  -13.7632 C   0  0  0  0  0  0  0  0  0  0  0  0
   -0.7772   21.5256  -14.1296 C   0  0  0  0  0  0  0  0  0  0  0  0
   -1.0906   21.2269  -15.4247 C   0  0  0  0  0  0  0  0  0  0  0  0
   -0.1028   21.4201  -16.3831 C   0  0  0  0  0  0  0  0  0  0  0  0
    1.1476   21.8938  -16.0528 C   0  0  0  0  0  0  0  0  0  0  0  0
    2.8247   23.3401  -13.0530 C   0  0  0  0  0  0  0  0  0  0  0  0
    2.0582   24.4544  -12.7995 C   0  0  0  0  0  0  0  0  0  0  0  0
    2.0814   25.0919  -11.5775 C   0  0  0  0  0  0  0  0  0  0  0  0
    2.8872   24.6148  -10.5727 C   0  0  0  0  0  0  0  0  0  0  0  0
    2.9032   25.2539   -9.3674 F   0  0  0  0  0  0  0  0  0  0  0  0
    3.6598   23.5091  -10.7959 C   0  0  0  0  0  0  0  0  0  0  0  0
    3.6293   22.8689  -12.0397 C   0  0  0  0  0  0  0  0  0  0  0  0
    1.7539   21.8512  -19.5120 C   0  0  0  0  0  0  0  0  0  0  0  0
    1.5574   22.6523  -18.3361 N   0  0  0  0  0  0  0  0  0  0  0  0
    0.5300   22.7287  -18.1641 H   0  0  0  0  0  0  0  0  0  0  0  0
 18 19  1  0  0  0
 19  1  1  0  0  0
  1  2  1  0  0  0
  2  3  1  0  0  0
  3  4  1  0  0  0
  4 11  1  0  0  0
 11 12  2  0  0  0
 12 13  1  0  0  0
 13 14  2  0  0  0
 14 15  1  0  0  0
 14 16  1  0  0  0
 16 17  2  0  0  0
  4  5  1  0  0  0
  5  6  2  0  0  0
  6  7  1  0  0  0
  7  8  2  0  0  0
  8  9  1  0  0  0
  9 10  2  0  0  0
 10  1  1  0  0  0
 17 11  1  0  0  0
 10  5  1  0  0  0
 19 20  1  0  0  0
M  END
> <minimizedAffinity>
-4.47088

> <CNNscore>
0.4319821894

> <CNNaffinity>
3.5816085339

> <CNN_VS>
1.5471911430

> <CNNaffinity_variance>
0.3918666244

$$$$
[H]c1c([H])c([H])c2c(c1[H])[C@]([H])(c1c([H])c([H])c(F)c([H])c1[H])C([H])([H])C([H])([H])[C@]2([H])N([H])C([H])([H])[H]


 20 22  0  0  0  0  0  0  0  0999 V2000
   -2.7136   22.1650  -25.0014 C   0  0  0  0  0  0  0  0  0  0  0  0
   -4.1668   22.4611  -25.1649 C   0  0  0  0  0  0  0  0  0  0  0  0
   -4.3853   23.5512  -26.1877 C   0  0  0  0  0  0  0  0  0  0  0  0
   -3.9500   22.9457  -27.5306 C   0  0  0  0  0  0  0  0  0  0  0  0
   -2.4633   22.8334  -27.4154 C   0  0  0  0  0  0  0  0  0  0  0  0
   -1.6752   23.0980  -28.5015 C   0  0  0  0  0  0  0  0  0  0  0  0
   -0.3046   22.9890  -28.3719 C   0  0  0  0  0  0  0  0  0  0  0  0
    0.2899   22.6264  -27.1972 C   0  0  0  0  0  0  0  0  0  0  0  0
   -0.5403   22.3648  -26.1138 C   0  0  0  0  0  0  0  0  0  0  0  0
   -1.9109   22.4637  -26.2078 C   0  0  0  0  0  0  0  0  0  0  0  0
   -4.4037   23.7139  -28.6829 C   0  0  0  0  0  0  0  0  0  0  0  0
   -4.0789   25.0464  -28.7944 C   0  0  0  0  0  0  0  0  0  0  0  0
   -4.4874   25.8084  -29.8680 C   0  0  0  0  0  0  0  0  0  0  0  0
   -5.2411   25.2375  -30.8643 C   0  0  0  0  0  0  0  0  0  0  0  0
   -5.6409   26.0010  -31.9219 F   0  0  0  0  0  0  0  0  0  0  0  0
   -5.5790   23.9153  -30.7802 C   0  0  0  0  0  0  0  0  0  0  0  0
   -5.1595   23.1501  -29.6865 C   0  0  0  0  0  0  0  0  0  0  0  0
   -2.8958   22.4163  -22.6105 C   0  0  0  0  0  0  0  0  0  0  0  0
   -2.1432   22.7300  -23.7929 N   0  0  0  0  0  0  0  0  0  0  0  0
   -1.1905   22.3143  -23.6903 H   0  0  0  0  0  0  0  0  0  0  0  0
 18 19  1  0  0  0
 19  1  1  0  0  0
  1  2  1  0  0  0
  2  3  1  0  0  0
  3  4  1  0  0  0
  4 11  1  0  0  0
 11 12  2  0  0  0
 12 13  1  0  0  0
 13 14  2  0  0  0
 14 15  1  0  0  0
 14 16  1  0  0  0
 16 17  2  0  0  0
  4  5  1  0  0  0
  5  6  2  0  0  0
  6  7  1  0  0  0
  7  8  2  0  0  0
  8  9  1  0  0  0
  9 10  2  0  0  0
 10  1  1  0  0  0
 17 11  1  0  0  0
 10  5  1  0  0  0
 19 20  1  0  0  0
M  END
> <minimizedAffinity>
-9.35252

> <CNNscore>
0.3950192332

> <CNNaffinity>
5.8162035942

> <CNN_VS>
2.2975122929

> <CNNaffinity_variance>
0.0999009013

$$$$
[H]c1c([H])c([H])c2c(c1[H])[C@]([H])(c1c([H])c([H])c(F)c([H])c1[H])C([H])([H])C([H])([H])[C@]2([H])N([H])C([H])([H])[H]


 20 22  0  0  0  0  0  0  0  0999 V2000
   -2.7297   22.0171  -25.0574 C   0  0  0  0  0  0  0  0  0  0  0  0
   -4.1897   22.2810  -25.2167 C   0  0  0  0  0  0  0  0  0  0  0  0
   -4.4327   23.4061  -26.1951 C   0  0  0  0  0  0  0  0  0  0  0  0
   -3.9754   22.8683  -27.5592 C   0  0  0  0  0  0  0  0  0  0  0  0
   -2.4867   22.7909  -27.4405 C   0  0  0  0  0  0  0  0  0  0  0  0
   -1.7012   23.1209  -28.5104 C   0  0  0  0  0  0  0  0  0  0  0  0
   -0.3287   23.0431  -28.3778 C   0  0  0  0  0  0  0  0  0  0  0  0
    0.2700   22.6482  -27.2158 C   0  0  0  0  0  0  0  0  0  0  0  0
   -0.5577   22.3202  -26.1486 C   0  0  0  0  0  0  0  0  0  0  0  0
   -1.9300   22.3865  -26.2461 C   0  0  0  0  0  0  0  0  0  0  0  0
   -4.4443   23.6711  -28.6815 C   0  0  0  0  0  0  0  0  0  0  0  0
   -5.1850   23.0884  -29.6841 C   0  0  0  0  0  0  0  0  0  0  0  0
   -5.6480   23.8118  -30.7624 C   0  0  0  0  0  0  0  0  0  0  0  0
   -5.3712   25.1540  -30.8547 C   0  0  0  0  0  0  0  0  0  0  0  0
   -5.8335   25.8603  -31.9265 F   0  0  0  0  0  0  0  0  0  0  0  0
   -4.6373   25.7600  -29.8730 C   0  0  0  0  0  0  0  0  0  0  0  0
   -4.1719   25.0171  -28.7825 C   0  0  0  0  0  0  0  0  0  0  0  0
   -2.0156   21.5499  -22.8025 C   0  0  0  0  0  0  0  0  0  0  0  0
   -2.1801   22.5466  -23.8236 N   0  0  0  0  0  0  0  0  0  0  0  0
   -1.2369   22.9295  -24.0575 H   0  0  0  0  0  0  0  0  0  0  0  0
 18 19  1  0  0  0
 19  1  1  0  0  0
  1  2  1  0  0  0
  2  3  1  0  0  0
  3  4  1  0  0  0
  4 11  1  0  0  0
 11 12  2  0  0  0
 12 13  1  0  0  0
 13 14  2  0  0  0
 14 15  1  0  0  0
 14 16  1  0  0  0
 16 17  2  0  0  0
  4  5  1  0  0  0
  5  6  2  0  0  0
  6  7  1  0  0  0
  7  8  2  0  0  0
  8  9  1  0  0  0
  9 10  2  0  0  0
 10  1  1  0  0  0
 17 11  1  0  0  0
 10  5  1  0  0  0
 19 20  1  0  0  0
M  END
> <minimizedAffinity>
-9.46309

> <CNNscore>
0.3875130117

> <CNNaffinity>
5.8097391129

> <CNN_VS>
2.2513494492

> <CNNaffinity_variance>
0.0919601098

$$$$
[H]c1c([H])c([H])c2c(c1[H])[C@]([H])(c1c([H])c([H])c(F)c([H])c1[H])C([H])([H])C([H])([H])[C@]2([H])N([H])C([H])([H])[H]


 20 22  0  0  0  0  0  0  0  0999 V2000
    0.0538   16.5691  -20.4168 C   0  0  0  0  0  0  0  0  0  0  0  0
   -0.3244   17.5836  -19.3901 C   0  0  0  0  0  0  0  0  0  0  0  0
    0.9027   18.2133  -18.7737 C   0  0  0  0  0  0  0  0  0  0  0  0
    1.5610   19.0187  -19.9038 C   0  0  0  0  0  0  0  0  0  0  0  0
    2.1007   17.9752  -20.8291 C   0  0  0  0  0  0  0  0  0  0  0  0
    3.3090   18.1677  -21.4403 C   0  0  0  0  0  0  0  0  0  0  0  0
    3.7885   17.1901  -22.2900 C   0  0  0  0  0  0  0  0  0  0  0  0
    3.0978   16.0391  -22.5402 C   0  0  0  0  0  0  0  0  0  0  0  0
    1.8737   15.8758  -21.9027 C   0  0  0  0  0  0  0  0  0  0  0  0
    1.3656   16.8302  -21.0493 C   0  0  0  0  0  0  0  0  0  0  0  0
    2.5582   19.9692  -19.4284 C   0  0  0  0  0  0  0  0  0  0  0  0
    3.3886   19.6328  -18.3841 C   0  0  0  0  0  0  0  0  0  0  0  0
    4.3449   20.5021  -17.9046 C   0  0  0  0  0  0  0  0  0  0  0  0
    4.4868   21.7441  -18.4738 C   0  0  0  0  0  0  0  0  0  0  0  0
    5.4359   22.5970  -17.9910 F   0  0  0  0  0  0  0  0  0  0  0  0
    3.6755   22.1058  -19.5133 C   0  0  0  0  0  0  0  0  0  0  0  0
    2.7078   21.2163  -19.9929 C   0  0  0  0  0  0  0  0  0  0  0  0
   -1.3388   14.9476  -19.3014 C   0  0  0  0  0  0  0  0  0  0  0  0
   -0.0842   15.2013  -19.9531 N   0  0  0  0  0  0  0  0  0  0  0  0
   -0.0301   14.5925  -20.8000 H   0  0  0  0  0  0  0  0  0  0  0  0
 18 19  1  0  0  0
 19  1  1  0  0  0
  1  2  1  0  0  0
  2  3  1  0  0  0
  3  4  1  0  0  0
  4 11  1  0  0  0
 11 12  2  0  0  0
 12 13  1  0  0  0
 13 14  2  0  0  0
 14 15  1  0  0  0
 14 16  1  0  0  0
 16 17  2  0  0  0
  4  5  1  0  0  0
  5  6  2  0  0  0
  6  7  1  0  0  0
  7  8  2  0  0  0
  8  9  1  0  0  0
  9 10  2  0  0  0
 10  1  1  0  0  0
 17 11  1  0  0  0
 10  5  1  0  0  0
 19 20  1  0  0  0
M  END
> <minimizedAffinity>
-3.84350

> <CNNscore>
0.3788003922

> <CNNaffinity>
3.8837227821

> <CNN_VS>
1.4711557627

> <CNNaffinity_variance>
0.1043725014

$$$$
[H]c1c([H])c([H])c2c(c1[H])[C@]([H])(c1c([H])c([H])c(F)c([H])c1[H])C([H])([H])C([H])([H])[C@]2([H])N([H])C([H])([H])[H]


 20 22  0  0  0  0  0  0  0  0999 V2000
    1.3033   21.7711  -14.7961 C   0  0  0  0  0  0  0  0  0  0  0  0
    0.1205   21.0134  -15.2992 C   0  0  0  0  0  0  0  0  0  0  0  0
   -0.4708   21.6805  -16.5189 C   0  0  0  0  0  0  0  0  0  0  0  0
    0.5907   21.5358  -17.6196 C   0  0  0  0  0  0  0  0  0  0  0  0
    1.6908   22.4524  -17.1883 C   0  0  0  0  0  0  0  0  0  0  0  0
    2.3692   23.1867  -18.1217 C   0  0  0  0  0  0  0  0  0  0  0  0
    3.3807   24.0275  -17.7005 C   0  0  0  0  0  0  0  0  0  0  0  0
    3.7261   24.1503  -16.3851 C   0  0  0  0  0  0  0  0  0  0  0  0
    3.0164   23.3899  -15.4633 C   0  0  0  0  0  0  0  0  0  0  0  0
    2.0021   22.5414  -15.8485 C   0  0  0  0  0  0  0  0  0  0  0  0
    0.0759   21.8075  -18.9556 C   0  0  0  0  0  0  0  0  0  0  0  0
    0.4555   21.0157  -20.0150 C   0  0  0  0  0  0  0  0  0  0  0  0
   -0.0085   21.2382  -21.2938 C   0  0  0  0  0  0  0  0  0  0  0  0
   -0.8753   22.2758  -21.5357 C   0  0  0  0  0  0  0  0  0  0  0  0
   -1.3277   22.4877  -22.8053 F   0  0  0  0  0  0  0  0  0  0  0  0
   -1.2699   23.0793  -20.5022 C   0  0  0  0  0  0  0  0  0  0  0  0
   -0.7934   22.8453  -19.2076 C   0  0  0  0  0  0  0  0  0  0  0  0
    0.1924   21.8807  -12.6591 C   0  0  0  0  0  0  0  0  0  0  0  0
    1.0195   22.5636  -13.6144 N   0  0  0  0  0  0  0  0  0  0  0  0
    1.9392   22.7640  -13.1619 H   0  0  0  0  0  0  0  0  0  0  0  0
 18 19  1  0  0  0
 19  1  1  0  0  0
  1  2  1  0  0  0
  2  3  1  0  0  0
  3  4  1  0  0  0
  4 11  1  0  0  0
 11 12  2  0  0  0
 12 13  1  0  0  0
 13 14  2  0  0  0
 14 15  1  0  0  0
 14 16  1  0  0  0
 16 17  2  0  0  0
  4  5  1  0  0  0
  5  6  2  0  0  0
  6  7  1  0  0  0
  7  8  2  0  0  0
  8  9  1  0  0  0
  9 10  2  0  0  0
 10  1  1  0  0  0
 17 11  1  0  0  0
 10  5  1  0  0  0
 19 20  1  0  0  0
M  END
> <minimizedAffinity>
-4.61740

> <CNNscore>
0.3465621471

> <CNNaffinity>
3.8022513390

> <CNN_VS>
1.3177163601

> <CNNaffinity_variance>
0.3729510307

$$$$
[H]OC(=O)C([H])(Oc1c([H])c([H])c(-c2noc([H])c3c(C(=O)C4([H])C([H])([H])C([H])([H])C([H])([H])C4([H])[H])c([H])c([H])c2-3)c([H])c1[H])C(=O)O[H]


 32 35  0  0  0  0  0  0  0  0999 V2000
   -3.0123   22.6286  -27.5368 C   0  0  0  0  0  0  0  0  0  0  0  0
   -3.5104   22.1599  -26.3397 C   0  0  0  0  0  0  0  0  0  0  0  0
   -2.4860   21.9109  -25.4326 C   0  0  0  0  0  0  0  0  0  0  0  0
   -1.2950   22.2230  -26.0499 C   0  0  0  0  0  0  0  0  0  0  0  0
    0.0367   22.1976  -25.6938 C   0  0  0  0  0  0  0  0  0  0  0  0
    0.9737   22.5915  -26.5834 N   0  0  0  0  0  0  0  0  0  0  0  0
    0.6531   22.9913  -27.7608 O   0  0  0  0  0  0  0  0  0  0  0  0
   -0.5787   23.0545  -28.2011 C   0  0  0  0  0  0  0  0  0  0  0  0
   -1.6424   22.6796  -27.3907 C   0  0  0  0  0  0  0  0  0  0  0  0
    0.4358   21.7518  -24.3620 C   0  0  0  0  0  0  0  0  0  0  0  0
    1.7473   21.3994  -24.1294 C   0  0  0  0  0  0  0  0  0  0  0  0
    2.1810   20.9626  -22.8829 C   0  0  0  0  0  0  0  0  0  0  0  0
    1.3044   20.8678  -21.8334 C   0  0  0  0  0  0  0  0  0  0  0  0
   -0.0265   21.2223  -22.0587 C   0  0  0  0  0  0  0  0  0  0  0  0
   -0.4300   21.6493  -23.2934 C   0  0  0  0  0  0  0  0  0  0  0  0
    1.6640   20.4466  -20.5868 O   0  0  0  0  0  0  0  0  0  0  0  0
    1.9160   19.1687  -20.1184 C   0  0  0  0  0  0  0  0  0  0  0  0
    0.8084   18.7038  -19.2667 C   0  0  0  0  0  0  0  0  0  0  0  0
   -0.0691   19.5101  -18.8389 O   0  0  0  0  0  0  0  0  0  0  0  0
    0.6684   17.3912  -18.8929 O   0  0  0  0  0  0  0  0  0  0  0  0
    0.8398   17.0886  -17.9445 H   0  0  0  0  0  0  0  0  0  0  0  0
    3.2602   18.9933  -19.5216 C   0  0  0  0  0  0  0  0  0  0  0  0
    4.1682   18.4490  -20.1930 O   0  0  0  0  0  0  0  0  0  0  0  0
    3.4951   19.4338  -18.2291 O   0  0  0  0  0  0  0  0  0  0  0  0
    4.4424   19.4405  -17.8779 H   0  0  0  0  0  0  0  0  0  0  0  0
   -3.9898   22.1314  -29.6173 O   0  0  0  0  0  0  0  0  0  0  0  0
   -3.7396   23.0008  -28.7419 C   0  0  0  0  0  0  0  0  0  0  0  0
   -4.2252   24.3616  -29.0353 C   0  0  0  0  0  0  0  0  0  0  0  0
   -5.0648   24.4951  -30.2438 C   0  0  0  0  0  0  0  0  0  0  0  0
   -5.8174   25.8068  -29.9890 C   0  0  0  0  0  0  0  0  0  0  0  0
   -5.8710   25.9984  -28.5092 C   0  0  0  0  0  0  0  0  0  0  0  0
   -5.0482   24.8989  -27.9080 C   0  0  0  0  0  0  0  0  0  0  0  0
 26 27  2  0  0  0
 27  1  1  0  0  0
  1  2  2  0  0  0
  2  3  1  0  0  0
  3  4  2  0  0  0
  4  5  1  0  0  0
  5 10  1  0  0  0
 10 11  2  0  0  0
 11 12  1  0  0  0
 12 13  2  0  0  0
 13 16  1  0  0  0
 16 17  1  0  0  0
 17 18  1  0  0  0
 18 19  2  0  0  0
 18 20  1  0  0  0
 17 22  1  0  0  0
 22 23  2  0  0  0
 22 24  1  0  0  0
 13 14  1  0  0  0
 14 15  2  0  0  0
  5  6  2  0  0  0
  6  7  1  0  0  0
  7  8  1  0  0  0
  8  9  2  0  0  0
 27 28  1  0  0  0
 28 29  1  0  0  0
 29 30  1  0  0  0
 30 31  1  0  0  0
 31 32  1  0  0  0
  9  1  1  0  0  0
 32 28  1  0  0  0
  9  4  1  0  0  0
 15 10  1  0  0  0
 20 21  1  0  0  0
 24 25  1  0  0  0
M  END
> <minimizedAffinity>
-7.76578

> <CNNscore>
0.9050511122

> <CNNaffinity>
6.4896531105

> <CNN_VS>
5.8734679222

> <CNNaffinity_variance>
0.4155529141

$$$$
[H]OC(=O)C([H])(Oc1c([H])c([H])c(-c2noc([H])c3c(C(=O)C4([H])C([H])([H])C([H])([H])C([H])([H])C4([H])[H])c([H])c([H])c2-3)c([H])c1[H])C(=O)O[H]


 32 35  0  0  0  0  0  0  0  0999 V2000
   -3.2944   22.7355  -27.6601 C   0  0  0  0  0  0  0  0  0  0  0  0
   -3.7507   22.3416  -26.4202 C   0  0  0  0  0  0  0  0  0  0  0  0
   -2.6936   22.1090  -25.5467 C   0  0  0  0  0  0  0  0  0  0  0  0
   -1.5236   22.3558  -26.2301 C   0  0  0  0  0  0  0  0  0  0  0  0
   -0.1785   22.3103  -25.9312 C   0  0  0  0  0  0  0  0  0  0  0  0
    0.7279   22.6324  -26.8794 N   0  0  0  0  0  0  0  0  0  0  0  0
    0.3656   22.9819  -28.0607 O   0  0  0  0  0  0  0  0  0  0  0  0
   -0.8825   23.0581  -28.4500 C   0  0  0  0  0  0  0  0  0  0  0  0
   -1.9185   22.7546  -27.5762 C   0  0  0  0  0  0  0  0  0  0  0  0
    0.2678   21.9204  -24.5968 C   0  0  0  0  0  0  0  0  0  0  0  0
    1.5682   21.5046  -24.4111 C   0  0  0  0  0  0  0  0  0  0  0  0
    2.0448   21.1166  -23.1641 C   0  0  0  0  0  0  0  0  0  0  0  0
    1.2236   21.1359  -22.0668 C   0  0  0  0  0  0  0  0  0  0  0  0
   -0.0956   21.5554  -22.2443 C   0  0  0  0  0  0  0  0  0  0  0  0
   -0.5419   21.9325  -23.4805 C   0  0  0  0  0  0  0  0  0  0  0  0
    1.6273   20.7679  -20.8169 O   0  0  0  0  0  0  0  0  0  0  0  0
    1.7283   21.5185  -19.6583 C   0  0  0  0  0  0  0  0  0  0  0  0
    3.0735   22.1055  -19.5396 C   0  0  0  0  0  0  0  0  0  0  0  0
    4.0709   21.5728  -20.1092 O   0  0  0  0  0  0  0  0  0  0  0  0
    3.3182   23.2443  -18.8146 O   0  0  0  0  0  0  0  0  0  0  0  0
    3.8165   23.2170  -17.9362 H   0  0  0  0  0  0  0  0  0  0  0  0
    1.2562   20.8224  -18.4391 C   0  0  0  0  0  0  0  0  0  0  0  0
    1.3571   21.3894  -17.3256 O   0  0  0  0  0  0  0  0  0  0  0  0
    0.7094   19.5538  -18.5468 O   0  0  0  0  0  0  0  0  0  0  0  0
    0.2632   19.1421  -17.7393 H   0  0  0  0  0  0  0  0  0  0  0  0
   -4.3446   22.1698  -29.6869 O   0  0  0  0  0  0  0  0  0  0  0  0
   -4.0647   23.0676  -28.8501 C   0  0  0  0  0  0  0  0  0  0  0  0
   -4.5625   24.4179  -29.1704 C   0  0  0  0  0  0  0  0  0  0  0  0
   -3.5613   25.3557  -29.7195 C   0  0  0  0  0  0  0  0  0  0  0  0
   -4.4313   26.4057  -30.4213 C   0  0  0  0  0  0  0  0  0  0  0  0
   -5.7176   25.7375  -30.7795 C   0  0  0  0  0  0  0  0  0  0  0  0
   -5.6649   24.3645  -30.1797 C   0  0  0  0  0  0  0  0  0  0  0  0
 26 27  2  0  0  0
 27  1  1  0  0  0
  1  2  2  0  0  0
  2  3  1  0  0  0
  3  4  2  0  0  0
  4  5  1  0  0  0
  5 10  1  0  0  0
 10 11  2  0  0  0
 11 12  1  0  0  0
 12 13  2  0  0  0
 13 16  1  0  0  0
 16 17  1  0  0  0
 17 18  1  0  0  0
 18 19  2  0  0  0
 18 20  1  0  0  0
 17 22  1  0  0  0
 22 23  2  0  0  0
 22 24  1  0  0  0
 13 14  1  0  0  0
 14 15  2  0  0  0
  5  6  2  0  0  0
  6  7  1  0  0  0
  7  8  1  0  0  0
  8  9  2  0  0  0
 27 28  1  0  0  0
 28 29  1  0  0  0
 29 30  1  0  0  0
 30 31  1  0  0  0
 31 32  1  0  0  0
  9  1  1  0  0  0
 32 28  1  0  0  0
  9  4  1  0  0  0
 15 10  1  0  0  0
 20 21  1  0  0  0
 24 25  1  0  0  0
M  END
> <minimizedAffinity>
-8.86924

> <CNNscore>
0.8346512914

> <CNNaffinity>
6.4230260849

> <CNN_VS>
5.3609871864

> <CNNaffinity_variance>
0.4615343213

$$$$
[H]OC(=O)C([H])(Oc1c([H])c([H])c(-c2noc([H])c3c(C(=O)C4([H])C([H])([H])C([H])([H])C([H])([H])C4([H])[H])c([H])c([H])c2-3)c([H])c1[H])C(=O)O[H]


 32 35  0  0  0  0  0  0  0  0999 V2000
   -4.4013   23.2803  -27.1028 C   0  0  0  0  0  0  0  0  0  0  0  0
   -4.5925   22.9850  -25.7697 C   0  0  0  0  0  0  0  0  0  0  0  0
   -3.3999   22.6045  -25.1636 C   0  0  0  0  0  0  0  0  0  0  0  0
   -2.4102   22.6521  -26.1201 C   0  0  0  0  0  0  0  0  0  0  0  0
   -1.0549   22.4009  -26.1504 C   0  0  0  0  0  0  0  0  0  0  0  0
   -0.3716   22.5596  -27.3047 N   0  0  0  0  0  0  0  0  0  0  0  0
   -0.9569   22.9408  -28.3822 O   0  0  0  0  0  0  0  0  0  0  0  0
   -2.2368   23.2055  -28.4645 C   0  0  0  0  0  0  0  0  0  0  0  0
   -3.0598   23.0843  -27.3524 C   0  0  0  0  0  0  0  0  0  0  0  0
   -0.3577   21.9692  -24.9424 C   0  0  0  0  0  0  0  0  0  0  0  0
   -1.0823   21.6879  -23.8048 C   0  0  0  0  0  0  0  0  0  0  0  0
   -0.4700   21.2789  -22.6256 C   0  0  0  0  0  0  0  0  0  0  0  0
    0.8921   21.1417  -22.5585 C   0  0  0  0  0  0  0  0  0  0  0  0
    1.6354   21.4243  -23.7054 C   0  0  0  0  0  0  0  0  0  0  0  0
    1.0110   21.8250  -24.8540 C   0  0  0  0  0  0  0  0  0  0  0  0
    1.5551   20.7454  -21.4341 O   0  0  0  0  0  0  0  0  0  0  0  0
    2.9120   20.7302  -21.1610 C   0  0  0  0  0  0  0  0  0  0  0  0
    3.4755   19.3949  -21.4209 C   0  0  0  0  0  0  0  0  0  0  0  0
    4.1030   19.1484  -22.4927 O   0  0  0  0  0  0  0  0  0  0  0  0
    3.3526   18.3582  -20.5308 O   0  0  0  0  0  0  0  0  0  0  0  0
    2.7474   17.5704  -20.7143 H   0  0  0  0  0  0  0  0  0  0  0  0
    3.2737   21.2994  -19.8422 C   0  0  0  0  0  0  0  0  0  0  0  0
    2.6311   22.2782  -19.3944 O   0  0  0  0  0  0  0  0  0  0  0  0
    4.3176   20.7415  -19.1220 O   0  0  0  0  0  0  0  0  0  0  0  0
    4.4697   21.0393  -18.1686 H   0  0  0  0  0  0  0  0  0  0  0  0
   -6.6073   23.5009  -27.8878 O   0  0  0  0  0  0  0  0  0  0  0  0
   -5.3822   23.7084  -28.0899 C   0  0  0  0  0  0  0  0  0  0  0  0
   -5.0491   24.3891  -29.3546 C   0  0  0  0  0  0  0  0  0  0  0  0
   -5.7552   23.8929  -30.5539 C   0  0  0  0  0  0  0  0  0  0  0  0
   -5.6324   25.0699  -31.5293 C   0  0  0  0  0  0  0  0  0  0  0  0
   -5.4668   26.3038  -30.7051 C   0  0  0  0  0  0  0  0  0  0  0  0
   -5.3538   25.8515  -29.2803 C   0  0  0  0  0  0  0  0  0  0  0  0
 26 27  2  0  0  0
 27  1  1  0  0  0
  1  2  2  0  0  0
  2  3  1  0  0  0
  3  4  2  0  0  0
  4  5  1  0  0  0
  5 10  1  0  0  0
 10 11  2  0  0  0
 11 12  1  0  0  0
 12 13  2  0  0  0
 13 16  1  0  0  0
 16 17  1  0  0  0
 17 18  1  0  0  0
 18 19  2  0  0  0
 18 20  1  0  0  0
 17 22  1  0  0  0
 22 23  2  0  0  0
 22 24  1  0  0  0
 13 14  1  0  0  0
 14 15  2  0  0  0
  5  6  2  0  0  0
  6  7  1  0  0  0
  7  8  1  0  0  0
  8  9  2  0  0  0
 27 28  1  0  0  0
 28 29  1  0  0  0
 29 30  1  0  0  0
 30 31  1  0  0  0
 31 32  1  0  0  0
  9  1  1  0  0  0
 32 28  1  0  0  0
  9  4  1  0  0  0
 15 10  1  0  0  0
 20 21  1  0  0  0
 24 25  1  0  0  0
M  END
> <minimizedAffinity>
-9.06780

> <CNNscore>
0.8136571050

> <CNNaffinity>
6.5497298241

> <CNN_VS>
5.3292341232

> <CNNaffinity_variance>
0.5127959251

$$$$
[H]OC(=O)C([H])(Oc1c([H])c([H])c(-c2noc([H])c3c(C(=O)C4([H])C([H])([H])C([H])([H])C([H])([H])C4([H])[H])c([H])c([H])c2-3)c([H])c1[H])C(=O)O[H]


 32 35  0  0  0  0  0  0  0  0999 V2000
   -3.1484   22.7014  -26.8760 C   0  0  0  0  0  0  0  0  0  0  0  0
   -3.4978   22.2382  -25.6253 C   0  0  0  0  0  0  0  0  0  0  0  0
   -2.3705   21.9478  -24.8643 C   0  0  0  0  0  0  0  0  0  0  0  0
   -1.2627   22.2266  -25.6336 C   0  0  0  0  0  0  0  0  0  0  0  0
    0.1030   22.1548  -25.4587 C   0  0  0  0  0  0  0  0  0  0  0  0
    0.9257   22.5261  -26.4636 N   0  0  0  0  0  0  0  0  0  0  0  0
    0.4645   22.9469  -27.5857 O   0  0  0  0  0  0  0  0  0  0  0  0
   -0.8122   23.0540  -27.8573 C   0  0  0  0  0  0  0  0  0  0  0  0
   -1.7703   22.7065  -26.9139 C   0  0  0  0  0  0  0  0  0  0  0  0
    0.6609   21.6842  -24.1943 C   0  0  0  0  0  0  0  0  0  0  0  0
   -0.1627   21.5487  -23.0981 C   0  0  0  0  0  0  0  0  0  0  0  0
    0.3161   21.1106  -21.8686 C   0  0  0  0  0  0  0  0  0  0  0  0
    1.6405   20.7963  -21.7079 C   0  0  0  0  0  0  0  0  0  0  0  0
    2.4833   20.9303  -22.8122 C   0  0  0  0  0  0  0  0  0  0  0  0
    1.9897   21.3630  -24.0117 C   0  0  0  0  0  0  0  0  0  0  0  0
    2.1745   20.3619  -20.5302 O   0  0  0  0  0  0  0  0  0  0  0  0
    2.4515   21.0611  -19.3682 C   0  0  0  0  0  0  0  0  0  0  0  0
    1.2237   21.6655  -18.8247 C   0  0  0  0  0  0  0  0  0  0  0  0
    0.3954   20.9758  -18.1601 O   0  0  0  0  0  0  0  0  0  0  0  0
    0.9120   22.9891  -19.0066 O   0  0  0  0  0  0  0  0  0  0  0  0
    0.1644   23.2783  -19.6214 H   0  0  0  0  0  0  0  0  0  0  0  0
    3.5950   21.9961  -19.4786 C   0  0  0  0  0  0  0  0  0  0  0  0
    4.5597   21.7071  -20.2251 O   0  0  0  0  0  0  0  0  0  0  0  0
    3.5821   23.1775  -18.7547 O   0  0  0  0  0  0  0  0  0  0  0  0
    4.2917   23.8728  -18.9384 H   0  0  0  0  0  0  0  0  0  0  0  0
   -3.9397   22.5231  -29.0835 O   0  0  0  0  0  0  0  0  0  0  0  0
   -4.0170   23.1079  -27.9714 C   0  0  0  0  0  0  0  0  0  0  0  0
   -5.0166   24.1882  -27.8853 C   0  0  0  0  0  0  0  0  0  0  0  0
   -6.2073   23.8944  -27.0613 C   0  0  0  0  0  0  0  0  0  0  0  0
   -6.7441   25.2929  -26.7328 C   0  0  0  0  0  0  0  0  0  0  0  0
   -5.5870   26.2334  -26.8100 C   0  0  0  0  0  0  0  0  0  0  0  0
   -4.4215   25.4334  -27.3091 C   0  0  0  0  0  0  0  0  0  0  0  0
 26 27  2  0  0  0
 27  1  1  0  0  0
  1  2  2  0  0  0
  2  3  1  0  0  0
  3  4  2  0  0  0
  4  5  1  0  0  0
  5 10  1  0  0  0
 10 11  2  0  0  0
 11 12  1  0  0  0
 12 13  2  0  0  0
 13 16  1  0  0  0
 16 17  1  0  0  0
 17 18  1  0  0  0
 18 19  2  0  0  0
 18 20  1  0  0  0
 17 22  1  0  0  0
 22 23  2  0  0  0
 22 24  1  0  0  0
 13 14  1  0  0  0
 14 15  2  0  0  0
  5  6  2  0  0  0
  6  7  1  0  0  0
  7  8  1  0  0  0
  8  9  2  0  0  0
 27 28  1  0  0  0
 28 29  1  0  0  0
 29 30  1  0  0  0
 30 31  1  0  0  0
 31 32  1  0  0  0
  9  1  1  0  0  0
 32 28  1  0  0  0
  9  4  1  0  0  0
 15 10  1  0  0  0
 20 21  1  0  0  0
 24 25  1  0  0  0
M  END
> <minimizedAffinity>
-8.62527

> <CNNscore>
0.7830768228

> <CNNaffinity>
6.4272704124

> <CNN_VS>
5.0330467224

> <CNNaffinity_variance>
0.3383032680

$$$$
[H]OC(=O)C([H])(Oc1c([H])c([H])c(-c2noc([H])c3c(C(=O)C4([H])C([H])([H])C([H])([H])C([H])([H])C4([H])[H])c([H])c([H])c2-3)c([H])c1[H])C(=O)O[H]


 32 35  0  0  0  0  0  0  0  0999 V2000
   -3.1240   22.6880  -26.7996 C   0  0  0  0  0  0  0  0  0  0  0  0
   -3.4882   22.2133  -25.5575 C   0  0  0  0  0  0  0  0  0  0  0  0
   -2.3700   21.9210  -24.7839 C   0  0  0  0  0  0  0  0  0  0  0  0
   -1.2531   22.2103  -25.5361 C   0  0  0  0  0  0  0  0  0  0  0  0
    0.1104   22.1423  -25.3437 C   0  0  0  0  0  0  0  0  0  0  0  0
    0.9449   22.5249  -26.3345 N   0  0  0  0  0  0  0  0  0  0  0  0
    0.4969   22.9530  -27.4592 O   0  0  0  0  0  0  0  0  0  0  0  0
   -0.7764   23.0574  -27.7469 C   0  0  0  0  0  0  0  0  0  0  0  0
   -1.7456   22.6986  -26.8191 C   0  0  0  0  0  0  0  0  0  0  0  0
    0.6533   21.6636  -24.0757 C   0  0  0  0  0  0  0  0  0  0  0  0
    1.9875   21.3299  -23.9920 C   0  0  0  0  0  0  0  0  0  0  0  0
    2.5558   20.8634  -22.8121 C   0  0  0  0  0  0  0  0  0  0  0  0
    1.7951   20.7192  -21.6811 C   0  0  0  0  0  0  0  0  0  0  0  0
    0.4424   21.0545  -21.7554 C   0  0  0  0  0  0  0  0  0  0  0  0
   -0.0945   21.5114  -22.9270 C   0  0  0  0  0  0  0  0  0  0  0  0
    2.2896   20.2670  -20.4929 O   0  0  0  0  0  0  0  0  0  0  0  0
    2.4078   18.9738  -20.0137 C   0  0  0  0  0  0  0  0  0  0  0  0
    3.7799   18.7218  -19.5424 C   0  0  0  0  0  0  0  0  0  0  0  0
    4.1212   17.5839  -19.1044 O   0  0  0  0  0  0  0  0  0  0  0  0
    4.7503   19.6917  -19.5495 O   0  0  0  0  0  0  0  0  0  0  0  0
    5.0866   20.1117  -18.6945 H   0  0  0  0  0  0  0  0  0  0  0  0
    1.8754   17.9356  -20.9261 C   0  0  0  0  0  0  0  0  0  0  0  0
    0.6572   17.6427  -20.8850 O   0  0  0  0  0  0  0  0  0  0  0  0
    2.7318   17.3027  -21.8125 O   0  0  0  0  0  0  0  0  0  0  0  0
    2.3430   16.7008  -22.5247 H   0  0  0  0  0  0  0  0  0  0  0  0
   -3.8817   22.5280  -29.0203 O   0  0  0  0  0  0  0  0  0  0  0  0
   -3.9796   23.1000  -27.9032 C   0  0  0  0  0  0  0  0  0  0  0  0
   -4.9884   24.1720  -27.8201 C   0  0  0  0  0  0  0  0  0  0  0  0
   -6.1986   23.8526  -27.0348 C   0  0  0  0  0  0  0  0  0  0  0  0
   -6.7534   25.2402  -26.6901 C   0  0  0  0  0  0  0  0  0  0  0  0
   -5.6011   26.1892  -26.7156 C   0  0  0  0  0  0  0  0  0  0  0  0
   -4.4173   25.4078  -27.2009 C   0  0  0  0  0  0  0  0  0  0  0  0
 26 27  2  0  0  0
 27  1  1  0  0  0
  1  2  2  0  0  0
  2  3  1  0  0  0
  3  4  2  0  0  0
  4  5  1  0  0  0
  5 10  1  0  0  0
 10 11  2  0  0  0
 11 12  1  0  0  0
 12 13  2  0  0  0
 13 16  1  0  0  0
 16 17  1  0  0  0
 17 18  1  0  0  0
 18 19  2  0  0  0
 18 20  1  0  0  0
 17 22  1  0  0  0
 22 23  2  0  0  0
 22 24  1  0  0  0
 13 14  1  0  0  0
 14 15  2  0  0  0
  5  6  2  0  0  0
  6  7  1  0  0  0
  7  8  1  0  0  0
  8  9  2  0  0  0
 27 28  1  0  0  0
 28 29  1  0  0  0
 29 30  1  0  0  0
 30 31  1  0  0  0
 31 32  1  0  0  0
  9  1  1  0  0  0
 32 28  1  0  0  0
  9  4  1  0  0  0
 15 10  1  0  0  0
 20 21  1  0  0  0
 24 25  1  0  0  0
M  END
> <minimizedAffinity>
-7.96680

> <CNNscore>
0.7718994617

> <CNNaffinity>
6.2773027420

> <CNN_VS>
4.8454465866

> <CNNaffinity_variance>
0.3839802146

$$$$
[H]OC(=O)C([H])(Oc1c([H])c([H])c(-c2noc([H])c3c(C(=O)C4([H])C([H])([H])C([H])([H])C([H])([H])C4([H])[H])c([H])c([H])c2-3)c([H])c1[H])C(=O)O[H]


 32 35  0  0  0  0  0  0  0  0999 V2000
   -3.8445   22.8894  -27.7375 C   0  0  0  0  0  0  0  0  0  0  0  0
   -4.3939   22.6765  -26.4911 C   0  0  0  0  0  0  0  0  0  0  0  0
   -3.4065   22.4375  -25.5411 C   0  0  0  0  0  0  0  0  0  0  0  0
   -2.1879   22.4953  -26.1802 C   0  0  0  0  0  0  0  0  0  0  0  0
   -0.8693   22.3521  -25.8041 C   0  0  0  0  0  0  0  0  0  0  0  0
    0.1070   22.4814  -26.7286 N   0  0  0  0  0  0  0  0  0  0  0  0
   -0.1642   22.7359  -27.9576 O   0  0  0  0  0  0  0  0  0  0  0  0
   -1.3792   22.8905  -28.4212 C   0  0  0  0  0  0  0  0  0  0  0  0
   -2.4790   22.7841  -27.5798 C   0  0  0  0  0  0  0  0  0  0  0  0
   -0.5256   22.0658  -24.4143 C   0  0  0  0  0  0  0  0  0  0  0  0
    0.7583   21.6776  -24.0991 C   0  0  0  0  0  0  0  0  0  0  0  0
    1.1389   21.3871  -22.7940 C   0  0  0  0  0  0  0  0  0  0  0  0
    0.2355   21.4792  -21.7673 C   0  0  0  0  0  0  0  0  0  0  0  0
   -1.0678   21.8716  -22.0759 C   0  0  0  0  0  0  0  0  0  0  0  0
   -1.4190   22.1523  -23.3672 C   0  0  0  0  0  0  0  0  0  0  0  0
    0.5431   21.2083  -20.4662 O   0  0  0  0  0  0  0  0  0  0  0  0
    0.4382   20.0250  -19.7558 C   0  0  0  0  0  0  0  0  0  0  0  0
    0.9551   18.8985  -20.5508 C   0  0  0  0  0  0  0  0  0  0  0  0
    0.1685   18.0944  -21.1322 O   0  0  0  0  0  0  0  0  0  0  0  0
    2.2975   18.6594  -20.7024 O   0  0  0  0  0  0  0  0  0  0  0  0
    2.7510   17.8766  -20.2527 H   0  0  0  0  0  0  0  0  0  0  0  0
   -0.8970   19.7895  -19.1595 C   0  0  0  0  0  0  0  0  0  0  0  0
   -1.6319   20.7670  -18.8841 O   0  0  0  0  0  0  0  0  0  0  0  0
   -1.3149   18.4914  -18.9144 O   0  0  0  0  0  0  0  0  0  0  0  0
   -2.2737   18.3284  -18.6407 H   0  0  0  0  0  0  0  0  0  0  0  0
   -4.8384   22.2156  -29.7596 O   0  0  0  0  0  0  0  0  0  0  0  0
   -4.5226   23.1652  -28.9960 C   0  0  0  0  0  0  0  0  0  0  0  0
   -4.8832   24.5138  -29.4701 C   0  0  0  0  0  0  0  0  0  0  0  0
   -3.7489   25.3957  -29.8150 C   0  0  0  0  0  0  0  0  0  0  0  0
   -4.3988   26.4384  -30.7328 C   0  0  0  0  0  0  0  0  0  0  0  0
   -5.5979   25.7933  -31.3454 C   0  0  0  0  0  0  0  0  0  0  0  0
   -5.7340   24.4478  -30.6983 C   0  0  0  0  0  0  0  0  0  0  0  0
 26 27  2  0  0  0
 27  1  1  0  0  0
  1  2  2  0  0  0
  2  3  1  0  0  0
  3  4  2  0  0  0
  4  5  1  0  0  0
  5 10  1  0  0  0
 10 11  2  0  0  0
 11 12  1  0  0  0
 12 13  2  0  0  0
 13 16  1  0  0  0
 16 17  1  0  0  0
 17 18  1  0  0  0
 18 19  2  0  0  0
 18 20  1  0  0  0
 17 22  1  0  0  0
 22 23  2  0  0  0
 22 24  1  0  0  0
 13 14  1  0  0  0
 14 15  2  0  0  0
  5  6  2  0  0  0
  6  7  1  0  0  0
  7  8  1  0  0  0
  8  9  2  0  0  0
 27 28  1  0  0  0
 28 29  1  0  0  0
 29 30  1  0  0  0
 30 31  1  0  0  0
 31 32  1  0  0  0
  9  1  1  0  0  0
 32 28  1  0  0  0
  9  4  1  0  0  0
 15 10  1  0  0  0
 20 21  1  0  0  0
 24 25  1  0  0  0
M  END
> <minimizedAffinity>
-8.48416

> <CNNscore>
0.6718598604

> <CNNaffinity>
6.1772885323

> <CNN_VS>
4.1502723694

> <CNNaffinity_variance>
0.4192126393

$$$$
[H]OC(=O)C([H])(Oc1c([H])c([H])c(-c2noc([H])c3c(C(=O)C4([H])C([H])([H])C([H])([H])C([H])([H])C4([H])[H])c([H])c([H])c2-3)c([H])c1[H])C(=O)O[H]


 32 35  0  0  0  0  0  0  0  0999 V2000
   -4.3189   24.3989  -26.8824 C   0  0  0  0  0  0  0  0  0  0  0  0
   -4.5057   24.3439  -25.5175 C   0  0  0  0  0  0  0  0  0  0  0  0
   -3.4819   23.6343  -24.8987 C   0  0  0  0  0  0  0  0  0  0  0  0
   -2.6093   23.2174  -25.8793 C   0  0  0  0  0  0  0  0  0  0  0  0
   -1.4338   22.4977  -25.9125 C   0  0  0  0  0  0  0  0  0  0  0  0
   -0.8226   22.2708  -27.0954 N   0  0  0  0  0  0  0  0  0  0  0  0
   -1.3125   22.7112  -28.1976 O   0  0  0  0  0  0  0  0  0  0  0  0
   -2.4209   23.4038  -28.2797 C   0  0  0  0  0  0  0  0  0  0  0  0
   -3.1526   23.7105  -27.1398 C   0  0  0  0  0  0  0  0  0  0  0  0
   -0.8476   21.9853  -24.6774 C   0  0  0  0  0  0  0  0  0  0  0  0
   -1.6734   21.5364  -23.6699 C   0  0  0  0  0  0  0  0  0  0  0  0
   -1.1698   21.0440  -22.4713 C   0  0  0  0  0  0  0  0  0  0  0  0
    0.1823   20.9899  -22.2529 C   0  0  0  0  0  0  0  0  0  0  0  0
    1.0274   21.4422  -23.2672 C   0  0  0  0  0  0  0  0  0  0  0  0
    0.5091   21.9224  -24.4379 C   0  0  0  0  0  0  0  0  0  0  0  0
    0.7414   20.5193  -21.1010 O   0  0  0  0  0  0  0  0  0  0  0  0
    0.7192   19.2466  -20.5574 C   0  0  0  0  0  0  0  0  0  0  0  0
    0.3349   19.2991  -19.1369 C   0  0  0  0  0  0  0  0  0  0  0  0
   -0.0247   20.3867  -18.5975 O   0  0  0  0  0  0  0  0  0  0  0  0
    0.3466   18.1897  -18.3298 O   0  0  0  0  0  0  0  0  0  0  0  0
    1.0389   18.0690  -17.6040 H   0  0  0  0  0  0  0  0  0  0  0  0
    1.9351   18.4464  -20.8317 C   0  0  0  0  0  0  0  0  0  0  0  0
    2.9782   19.0215  -21.2222 O   0  0  0  0  0  0  0  0  0  0  0  0
    1.9021   17.0728  -20.6526 O   0  0  0  0  0  0  0  0  0  0  0  0
    2.7656   16.5508  -20.7044 H   0  0  0  0  0  0  0  0  0  0  0  0
   -6.0956   25.7934  -27.5380 O   0  0  0  0  0  0  0  0  0  0  0  0
   -5.1554   25.0341  -27.8906 C   0  0  0  0  0  0  0  0  0  0  0  0
   -4.9888   24.8556  -29.3446 C   0  0  0  0  0  0  0  0  0  0  0  0
   -5.8096   23.7904  -29.9569 C   0  0  0  0  0  0  0  0  0  0  0  0
   -5.8348   24.1921  -31.4367 C   0  0  0  0  0  0  0  0  0  0  0  0
   -5.6165   25.6681  -31.4917 C   0  0  0  0  0  0  0  0  0  0  0  0
   -5.3293   26.1081  -30.0876 C   0  0  0  0  0  0  0  0  0  0  0  0
 26 27  2  0  0  0
 27  1  1  0  0  0
  1  2  2  0  0  0
  2  3  1  0  0  0
  3  4  2  0  0  0
  4  5  1  0  0  0
  5 10  1  0  0  0
 10 11  2  0  0  0
 11 12  1  0  0  0
 12 13  2  0  0  0
 13 16  1  0  0  0
 16 17  1  0  0  0
 17 18  1  0  0  0
 18 19  2  0  0  0
 18 20  1  0  0  0
 17 22  1  0  0  0
 22 23  2  0  0  0
 22 24  1  0  0  0
 13 14  1  0  0  0
 14 15  2  0  0  0
  5  6  2  0  0  0
  6  7  1  0  0  0
  7  8  1  0  0  0
  8  9  2  0  0  0
 27 28  1  0  0  0
 28 29  1  0  0  0
 29 30  1  0  0  0
 30 31  1  0  0  0
 31 32  1  0  0  0
  9  1  1  0  0  0
 32 28  1  0  0  0
  9  4  1  0  0  0
 15 10  1  0  0  0
 20 21  1  0  0  0
 24 25  1  0  0  0
M  END
> <minimizedAffinity>
-8.09999

> <CNNscore>
0.6499675512

> <CNNaffinity>
6.3551054001

> <CNN_VS>
4.1306123734

> <CNNaffinity_variance>
0.5564932823

$$$$
[H]OC(=O)C([H])(Oc1c([H])c([H])c(-c2noc([H])c3c(C(=O)C4([H])C([H])([H])C([H])([H])C([H])([H])C4([H])[H])c([H])c([H])c2-3)c([H])c1[H])C(=O)O[H]


 32 35  0  0  0  0  0  0  0  0999 V2000
   -4.2192   23.0853  -27.7465 C   0  0  0  0  0  0  0  0  0  0  0  0
   -4.8540   22.9938  -26.5260 C   0  0  0  0  0  0  0  0  0  0  0  0
   -3.9372   22.8190  -25.4949 C   0  0  0  0  0  0  0  0  0  0  0  0
   -2.6784   22.7957  -26.0533 C   0  0  0  0  0  0  0  0  0  0  0  0
   -1.3913   22.6592  -25.5785 C   0  0  0  0  0  0  0  0  0  0  0  0
   -0.3538   22.6872  -26.4431 N   0  0  0  0  0  0  0  0  0  0  0  0
   -0.5377   22.8383  -27.7049 O   0  0  0  0  0  0  0  0  0  0  0  0
   -1.7154   22.9763  -28.2606 C   0  0  0  0  0  0  0  0  0  0  0  0
   -2.8701   22.9665  -27.4890 C   0  0  0  0  0  0  0  0  0  0  0  0
   -1.1464   22.4891  -24.1493 C   0  0  0  0  0  0  0  0  0  0  0  0
   -0.3331   21.4641  -23.7177 C   0  0  0  0  0  0  0  0  0  0  0  0
   -0.0705   21.2522  -22.3691 C   0  0  0  0  0  0  0  0  0  0  0  0
   -0.6210   22.0680  -21.4150 C   0  0  0  0  0  0  0  0  0  0  0  0
   -1.4465   23.1092  -21.8417 C   0  0  0  0  0  0  0  0  0  0  0  0
   -1.6903   23.2982  -23.1738 C   0  0  0  0  0  0  0  0  0  0  0  0
   -0.4048   21.9150  -20.0768 O   0  0  0  0  0  0  0  0  0  0  0  0
   -0.4792   22.8429  -19.0525 C   0  0  0  0  0  0  0  0  0  0  0  0
    0.8590   23.1070  -18.4975 C   0  0  0  0  0  0  0  0  0  0  0  0
    1.5038   24.1491  -18.8158 O   0  0  0  0  0  0  0  0  0  0  0  0
    1.4736   22.2507  -17.6192 O   0  0  0  0  0  0  0  0  0  0  0  0
    2.2657   21.6873  -17.8943 H   0  0  0  0  0  0  0  0  0  0  0  0
   -1.5140   22.5451  -18.0355 C   0  0  0  0  0  0  0  0  0  0  0  0
   -1.2320   21.8014  -17.0664 O   0  0  0  0  0  0  0  0  0  0  0  0
   -2.7795   23.0930  -18.1697 O   0  0  0  0  0  0  0  0  0  0  0  0
   -3.4361   23.0031  -17.4071 H   0  0  0  0  0  0  0  0  0  0  0  0
   -5.0141   22.2623  -29.8012 O   0  0  0  0  0  0  0  0  0  0  0  0
   -4.8065   23.2634  -29.0667 C   0  0  0  0  0  0  0  0  0  0  0  0
   -5.1921   24.5666  -29.6382 C   0  0  0  0  0  0  0  0  0  0  0  0
   -4.0944   25.5408  -29.8090 C   0  0  0  0  0  0  0  0  0  0  0  0
   -4.6597   26.5063  -30.8578 C   0  0  0  0  0  0  0  0  0  0  0  0
   -5.6734   25.7467  -31.6483 C   0  0  0  0  0  0  0  0  0  0  0  0
   -5.8056   24.4050  -30.9926 C   0  0  0  0  0  0  0  0  0  0  0  0
 26 27  2  0  0  0
 27  1  1  0  0  0
  1  2  2  0  0  0
  2  3  1  0  0  0
  3  4  2  0  0  0
  4  5  1  0  0  0
  5 10  1  0  0  0
 10 11  2  0  0  0
 11 12  1  0  0  0
 12 13  2  0  0  0
 13 16  1  0  0  0
 16 17  1  0  0  0
 17 18  1  0  0  0
 18 19  2  0  0  0
 18 20  1  0  0  0
 17 22  1  0  0  0
 22 23  2  0  0  0
 22 24  1  0  0  0
 13 14  1  0  0  0
 14 15  2  0  0  0
  5  6  2  0  0  0
  6  7  1  0  0  0
  7  8  1  0  0  0
  8  9  2  0  0  0
 27 28  1  0  0  0
 28 29  1  0  0  0
 29 30  1  0  0  0
 30 31  1  0  0  0
 31 32  1  0  0  0
  9  1  1  0  0  0
 32 28  1  0  0  0
  9  4  1  0  0  0
 15 10  1  0  0  0
 20 21  1  0  0  0
 24 25  1  0  0  0
M  END
> <minimizedAffinity>
-8.91480

> <CNNscore>
0.6082782745

> <CNNaffinity>
6.2189245224

> <CNN_VS>
3.7828366756

> <CNNaffinity_variance>
0.4644196630

$$$$
[H]OC(=O)C([H])(Oc1c([H])c([H])c(-c2noc([H])c3c(C(=O)C4([H])C([H])([H])C([H])([H])C([H])([H])C4([H])[H])c([H])c([H])c2-3)c([H])c1[H])C(=O)O[H]


 32 35  0  0  0  0  0  0  0  0999 V2000
   -4.1174   23.0686  -27.6176 C   0  0  0  0  0  0  0  0  0  0  0  0
   -4.7928   23.0468  -26.4159 C   0  0  0  0  0  0  0  0  0  0  0  0
   -3.9162   22.8732  -25.3502 C   0  0  0  0  0  0  0  0  0  0  0  0
   -2.6428   22.7795  -25.8664 C   0  0  0  0  0  0  0  0  0  0  0  0
   -1.3776   22.6092  -25.3458 C   0  0  0  0  0  0  0  0  0  0  0  0
   -0.3136   22.5643  -26.1768 N   0  0  0  0  0  0  0  0  0  0  0  0
   -0.4521   22.6768  -27.4485 O   0  0  0  0  0  0  0  0  0  0  0  0
   -1.6055   22.8413  -28.0465 C   0  0  0  0  0  0  0  0  0  0  0  0
   -2.7829   22.9055  -27.3127 C   0  0  0  0  0  0  0  0  0  0  0  0
   -1.1841   22.4814  -23.9044 C   0  0  0  0  0  0  0  0  0  0  0  0
   -0.4184   21.4473  -23.4117 C   0  0  0  0  0  0  0  0  0  0  0  0
   -0.2060   21.2745  -22.0488 C   0  0  0  0  0  0  0  0  0  0  0  0
   -0.7602   22.1397  -21.1415 C   0  0  0  0  0  0  0  0  0  0  0  0
   -1.5377   23.1905  -21.6302 C   0  0  0  0  0  0  0  0  0  0  0  0
   -1.7326   23.3405  -22.9753 C   0  0  0  0  0  0  0  0  0  0  0  0
   -0.5919   22.0268  -19.7925 O   0  0  0  0  0  0  0  0  0  0  0  0
    0.5501   21.7562  -19.0586 C   0  0  0  0  0  0  0  0  0  0  0  0
    0.3155   20.6340  -18.1345 C   0  0  0  0  0  0  0  0  0  0  0  0
   -0.8590   20.2489  -17.8599 O   0  0  0  0  0  0  0  0  0  0  0  0
    1.3408   19.9544  -17.5269 O   0  0  0  0  0  0  0  0  0  0  0  0
    1.5301   20.0520  -16.5394 H   0  0  0  0  0  0  0  0  0  0  0  0
    1.1651   22.9474  -18.4288 C   0  0  0  0  0  0  0  0  0  0  0  0
    0.8691   24.0908  -18.8489 O   0  0  0  0  0  0  0  0  0  0  0  0
    2.0594   22.7808  -17.3836 O   0  0  0  0  0  0  0  0  0  0  0  0
    2.3670   23.5930  -16.8675 H   0  0  0  0  0  0  0  0  0  0  0  0
   -4.8000   22.2116  -29.6986 O   0  0  0  0  0  0  0  0  0  0  0  0
   -4.6558   23.2219  -28.9616 C   0  0  0  0  0  0  0  0  0  0  0  0
   -5.0607   24.5093  -29.5552 C   0  0  0  0  0  0  0  0  0  0  0  0
   -3.9639   25.4604  -29.8305 C   0  0  0  0  0  0  0  0  0  0  0  0
   -4.5828   26.3959  -30.8764 C   0  0  0  0  0  0  0  0  0  0  0  0
   -5.6540   25.6235  -31.5729 C   0  0  0  0  0  0  0  0  0  0  0  0
   -5.7611   24.3084  -30.8613 C   0  0  0  0  0  0  0  0  0  0  0  0
 26 27  2  0  0  0
 27  1  1  0  0  0
  1  2  2  0  0  0
  2  3  1  0  0  0
  3  4  2  0  0  0
  4  5  1  0  0  0
  5 10  1  0  0  0
 10 11  2  0  0  0
 11 12  1  0  0  0
 12 13  2  0  0  0
 13 16  1  0  0  0
 16 17  1  0  0  0
 17 18  1  0  0  0
 18 19  2  0  0  0
 18 20  1  0  0  0
 17 22  1  0  0  0
 22 23  2  0  0  0
 22 24  1  0  0  0
 13 14  1  0  0  0
 14 15  2  0  0  0
  5  6  2  0  0  0
  6  7  1  0  0  0
  7  8  1  0  0  0
  8  9  2  0  0  0
 27 28  1  0  0  0
 28 29  1  0  0  0
 29 30  1  0  0  0
 30 31  1  0  0  0
 31 32  1  0  0  0
  9  1  1  0  0  0
 32 28  1  0  0  0
  9  4  1  0  0  0
 15 10  1  0  0  0
 20 21  1  0  0  0
 24 25  1  0  0  0
M  END
> <minimizedAffinity>
-8.60478

> <CNNscore>
0.5753331780

> <CNNaffinity>
6.1086473465

> <CNN_VS>
3.5145075321

> <CNNaffinity_variance>
0.5104985237

$$$$
[H]c1c(OC([H])([H])[H])c([H])c2c3nnc(SC([H])([H])[H])nc3n(C([H])([H])[H])c2c1[H]


 18 20  0  0  0  0  0  0  0  0999 V2000
   -0.0829   22.3412  -26.6546 C   0  0  0  0  0  0  0  0  0  0  0  0
    0.7812   22.0166  -25.6306 C   0  0  0  0  0  0  0  0  0  0  0  0
    0.2565   21.7407  -24.3666 C   0  0  0  0  0  0  0  0  0  0  0  0
   -1.1082   21.7846  -24.1152 C   0  0  0  0  0  0  0  0  0  0  0  0
   -1.9557   22.1103  -25.1489 C   0  0  0  0  0  0  0  0  0  0  0  0
   -1.4383   22.3872  -26.4150 C   0  0  0  0  0  0  0  0  0  0  0  0
   -3.2425   22.0880  -24.6600 C   0  0  0  0  0  0  0  0  0  0  0  0
   -4.4210   22.3293  -25.2554 N   0  0  0  0  0  0  0  0  0  0  0  0
   -5.5344   22.2380  -24.5482 N   0  0  0  0  0  0  0  0  0  0  0  0
   -5.4449   21.9070  -23.2580 C   0  0  0  0  0  0  0  0  0  0  0  0
   -4.2850   21.6591  -22.6296 N   0  0  0  0  0  0  0  0  0  0  0  0
   -3.1232   21.7428  -23.3226 C   0  0  0  0  0  0  0  0  0  0  0  0
   -1.8333   21.5591  -22.9921 N   0  0  0  0  0  0  0  0  0  0  0  0
   -1.3166   21.1873  -21.6699 C   0  0  0  0  0  0  0  0  0  0  0  0
   -0.3618   23.2585  -28.9284 C   0  0  0  0  0  0  0  0  0  0  0  0
    0.3747   22.6244  -27.9272 O   0  0  0  0  0  0  0  0  0  0  0  0
   -6.9716   21.7933  -22.3297 S   0  0  0  0  0  0  0  0  0  0  0  0
   -7.1769   23.3104  -21.3400 C   0  0  0  0  0  0  0  0  0  0  0  0
 15 16  1  0  0  0
 16  1  1  0  0  0
  1  2  2  0  0  0
  2  3  1  0  0  0
  3  4  2  0  0  0
  4  5  1  0  0  0
  5  6  2  0  0  0
  5  7  1  0  0  0
  7  8  2  0  0  0
  8  9  1  0  0  0
  9 10  2  0  0  0
 10 17  1  0  0  0
 17 18  1  0  0  0
 10 11  1  0  0  0
 11 12  2  0  0  0
 12 13  1  0  0  0
 13 14  1  0  0  0
  6  1  1  0  0  0
 12  7  1  0  0  0
 13  4  1  0  0  0
M  END
> <minimizedAffinity>
-6.04469

> <CNNscore>
0.8314045072

> <CNNaffinity>
5.8443284035

> <CNN_VS>
4.8590011597

> <CNNaffinity_variance>
0.0279208273

$$$$
[H]c1c(OC([H])([H])[H])c([H])c2c3nnc(SC([H])([H])[H])nc3n(C([H])([H])[H])c2c1[H]


 18 20  0  0  0  0  0  0  0  0999 V2000
   -4.9638   23.6986  -28.9291 C   0  0  0  0  0  0  0  0  0  0  0  0
   -5.9512   23.6989  -27.9669 C   0  0  0  0  0  0  0  0  0  0  0  0
   -5.6138   23.3661  -26.6537 C   0  0  0  0  0  0  0  0  0  0  0  0
   -4.3143   23.0363  -26.2930 C   0  0  0  0  0  0  0  0  0  0  0  0
   -3.3418   23.0413  -27.2663 C   0  0  0  0  0  0  0  0  0  0  0  0
   -3.6718   23.3729  -28.5811 C   0  0  0  0  0  0  0  0  0  0  0  0
   -2.1515   22.6863  -26.6727 C   0  0  0  0  0  0  0  0  0  0  0  0
   -0.9163   22.5451  -27.1786 N   0  0  0  0  0  0  0  0  0  0  0  0
    0.0741   22.1885  -26.3787 N   0  0  0  0  0  0  0  0  0  0  0  0
   -0.1927   21.9800  -25.0873 C   0  0  0  0  0  0  0  0  0  0  0  0
   -1.4143   22.1113  -24.5468 N   0  0  0  0  0  0  0  0  0  0  0  0
   -2.4541   22.4757  -25.3361 C   0  0  0  0  0  0  0  0  0  0  0  0
   -3.7614   22.6870  -25.1054 N   0  0  0  0  0  0  0  0  0  0  0  0
   -4.4504   22.5616  -23.8160 C   0  0  0  0  0  0  0  0  0  0  0  0
   -5.2051   25.3046  -30.7871 C   0  0  0  0  0  0  0  0  0  0  0  0
   -5.2344   24.0189  -30.2457 O   0  0  0  0  0  0  0  0  0  0  0  0
    1.1711   21.4973  -24.0326 S   0  0  0  0  0  0  0  0  0  0  0  0
    0.5272   21.1135  -22.3709 C   0  0  0  0  0  0  0  0  0  0  0  0
 15 16  1  0  0  0
 16  1  1  0  0  0
  1  2  2  0  0  0
  2  3  1  0  0  0
  3  4  2  0  0  0
  4  5  1  0  0  0
  5  6  2  0  0  0
  5  7  1  0  0  0
  7  8  2  0  0  0
  8  9  1  0  0  0
  9 10  2  0  0  0
 10 17  1  0  0  0
 17 18  1  0  0  0
 10 11  1  0  0  0
 11 12  2  0  0  0
 12 13  1  0  0  0
 13 14  1  0  0  0
  6  1  1  0  0  0
 12  7  1  0  0  0
 13  4  1  0  0  0
M  END
> <minimizedAffinity>
-6.55034

> <CNNscore>
0.7860100269

> <CNNaffinity>
5.8651571274

> <CNN_VS>
4.6100721359

> <CNNaffinity_variance>
0.2408718318

$$$$
[H]c1c(OC([H])([H])[H])c([H])c2c3nnc(SC([H])([H])[H])nc3n(C([H])([H])[H])c2c1[H]


 18 20  0  0  0  0  0  0  0  0999 V2000
    0.2678   21.7201  -24.2996 C   0  0  0  0  0  0  0  0  0  0  0  0
   -0.5801   21.4596  -23.2442 C   0  0  0  0  0  0  0  0  0  0  0  0
   -1.9544   21.6250  -23.4260 C   0  0  0  0  0  0  0  0  0  0  0  0
   -2.4873   22.0435  -24.6378 C   0  0  0  0  0  0  0  0  0  0  0  0
   -1.6262   22.2989  -25.6800 C   0  0  0  0  0  0  0  0  0  0  0  0
   -0.2512   22.1356  -25.5056 C   0  0  0  0  0  0  0  0  0  0  0  0
   -2.3810   22.6941  -26.7614 C   0  0  0  0  0  0  0  0  0  0  0  0
   -2.0273   23.0520  -28.0057 N   0  0  0  0  0  0  0  0  0  0  0  0
   -2.9653   23.3942  -28.8723 N   0  0  0  0  0  0  0  0  0  0  0  0
   -4.2396   23.3714  -28.4748 C   0  0  0  0  0  0  0  0  0  0  0  0
   -4.6301   23.0195  -27.2398 N   0  0  0  0  0  0  0  0  0  0  0  0
   -3.6964   22.6623  -26.3246 C   0  0  0  0  0  0  0  0  0  0  0  0
   -3.7619   22.2691  -25.0409 N   0  0  0  0  0  0  0  0  0  0  0  0
   -4.9800   22.1164  -24.2370 C   0  0  0  0  0  0  0  0  0  0  0  0
    2.3024   21.0528  -23.0730 C   0  0  0  0  0  0  0  0  0  0  0  0
    1.6369   21.5751  -24.1826 O   0  0  0  0  0  0  0  0  0  0  0  0
   -5.4840   23.8417  -29.6730 S   0  0  0  0  0  0  0  0  0  0  0  0
   -4.8984   25.3031  -30.5921 C   0  0  0  0  0  0  0  0  0  0  0  0
 15 16  1  0  0  0
 16  1  1  0  0  0
  1  2  2  0  0  0
  2  3  1  0  0  0
  3  4  2  0  0  0
  4  5  1  0  0  0
  5  6  2  0  0  0
  5  7  1  0  0  0
  7  8  2  0  0  0
  8  9  1  0  0  0
  9 10  2  0  0  0
 10 17  1  0  0  0
 17 18  1  0  0  0
 10 11  1  0  0  0
 11 12  2  0  0  0
 12 13  1  0  0  0
 13 14  1  0  0  0
  6  1  1  0  0  0
 12  7  1  0  0  0
 13  4  1  0  0  0
M  END
> <minimizedAffinity>
-6.63700

> <CNNscore>
0.7816948295

> <CNNaffinity>
5.8889746666

> <CNN_VS>
4.6033811569

> <CNNaffinity_variance>
0.1809820235

$$$$
[H]c1c(OC([H])([H])[H])c([H])c2c3nnc(SC([H])([H])[H])nc3n(C([H])([H])[H])c2c1[H]


 18 20  0  0  0  0  0  0  0  0999 V2000
   -1.0512   21.5636  -23.5525 C   0  0  0  0  0  0  0  0  0  0  0  0
    0.1844   21.6547  -24.1571 C   0  0  0  0  0  0  0  0  0  0  0  0
    0.2565   22.0832  -25.4839 C   0  0  0  0  0  0  0  0  0  0  0  0
   -0.8799   22.4187  -26.2075 C   0  0  0  0  0  0  0  0  0  0  0  0
   -2.1046   22.3218  -25.5880 C   0  0  0  0  0  0  0  0  0  0  0  0
   -2.1843   21.8942  -24.2619 C   0  0  0  0  0  0  0  0  0  0  0  0
   -3.0663   22.7032  -26.4963 C   0  0  0  0  0  0  0  0  0  0  0  0
   -4.4019   22.7848  -26.3912 N   0  0  0  0  0  0  0  0  0  0  0  0
   -5.1097   23.1885  -27.4324 N   0  0  0  0  0  0  0  0  0  0  0  0
   -4.4653   23.5022  -28.5586 C   0  0  0  0  0  0  0  0  0  0  0  0
   -3.1323   23.4325  -28.7002 N   0  0  0  0  0  0  0  0  0  0  0  0
   -2.3739   23.0231  -27.6542 C   0  0  0  0  0  0  0  0  0  0  0  0
   -1.0521   22.8514  -27.4807 N   0  0  0  0  0  0  0  0  0  0  0  0
   -0.0038   23.0878  -28.4800 C   0  0  0  0  0  0  0  0  0  0  0  0
   -0.2188   20.4652  -21.5055 C   0  0  0  0  0  0  0  0  0  0  0  0
   -1.1883   21.1463  -22.2424 O   0  0  0  0  0  0  0  0  0  0  0  0
   -5.4544   24.0439  -29.9492 S   0  0  0  0  0  0  0  0  0  0  0  0
   -4.7512   25.5912  -30.6086 C   0  0  0  0  0  0  0  0  0  0  0  0
 15 16  1  0  0  0
 16  1  1  0  0  0
  1  2  2  0  0  0
  2  3  1  0  0  0
  3  4  2  0  0  0
  4  5  1  0  0  0
  5  6  2  0  0  0
  5  7  1  0  0  0
  7  8  2  0  0  0
  8  9  1  0  0  0
  9 10  2  0  0  0
 10 17  1  0  0  0
 17 18  1  0  0  0
 10 11  1  0  0  0
 11 12  2  0  0  0
 12 13  1  0  0  0
 13 14  1  0  0  0
  6  1  1  0  0  0
 12  7  1  0  0  0
 13  4  1  0  0  0
M  END
> <minimizedAffinity>
-6.97952

> <CNNscore>
0.6975951195

> <CNNaffinity>
5.8580770493

> <CNN_VS>
4.0865659714

> <CNNaffinity_variance>
0.0556407087

$$$$
[H]c1c(OC([H])([H])[H])c([H])c2c3nnc(SC([H])([H])[H])nc3n(C([H])([H])[H])c2c1[H]


 18 20  0  0  0  0  0  0  0  0999 V2000
   -3.3507   23.2909  -27.6290 C   0  0  0  0  0  0  0  0  0  0  0  0
   -4.5326   23.1141  -26.9416 C   0  0  0  0  0  0  0  0  0  0  0  0
   -4.4867   22.6234  -25.6354 C   0  0  0  0  0  0  0  0  0  0  0  0
   -3.2859   22.3100  -25.0130 C   0  0  0  0  0  0  0  0  0  0  0  0
   -2.1162   22.4928  -25.7141 C   0  0  0  0  0  0  0  0  0  0  0  0
   -2.1544   22.9830  -27.0201 C   0  0  0  0  0  0  0  0  0  0  0  0
   -1.0736   22.1178  -24.8969 C   0  0  0  0  0  0  0  0  0  0  0  0
    0.2528   22.1052  -25.1019 N   0  0  0  0  0  0  0  0  0  0  0  0
    1.0535   21.6913  -24.1346 N   0  0  0  0  0  0  0  0  0  0  0  0
    0.5092   21.2978  -22.9809 C   0  0  0  0  0  0  0  0  0  0  0  0
   -0.8113   21.2966  -22.7405 N   0  0  0  0  0  0  0  0  0  0  0  0
   -1.6630   21.7144  -23.7085 C   0  0  0  0  0  0  0  0  0  0  0  0
   -3.0004   21.8302  -23.7776 N   0  0  0  0  0  0  0  0  0  0  0  0
   -3.9599   21.4991  -22.7179 C   0  0  0  0  0  0  0  0  0  0  0  0
   -4.0243   24.8939  -29.3800 C   0  0  0  0  0  0  0  0  0  0  0  0
   -3.3300   23.7730  -28.9238 O   0  0  0  0  0  0  0  0  0  0  0  0
    1.6221   20.7424  -21.6930 S   0  0  0  0  0  0  0  0  0  0  0  0
    3.2795   20.4931  -22.4099 C   0  0  0  0  0  0  0  0  0  0  0  0
 15 16  1  0  0  0
 16  1  1  0  0  0
  1  2  2  0  0  0
  2  3  1  0  0  0
  3  4  2  0  0  0
  4  5  1  0  0  0
  5  6  2  0  0  0
  5  7  1  0  0  0
  7  8  2  0  0  0
  8  9  1  0  0  0
  9 10  2  0  0  0
 10 17  1  0  0  0
 17 18  1  0  0  0
 10 11  1  0  0  0
 11 12  2  0  0  0
 12 13  1  0  0  0
 13 14  1  0  0  0
  6  1  1  0  0  0
 12  7  1  0  0  0
 13  4  1  0  0  0
M  END
> <minimizedAffinity>
-6.24677

> <CNNscore>
0.6049463153

> <CNNaffinity>
5.4110817909

> <CNN_VS>
3.2734138966

> <CNNaffinity_variance>
0.0768542141

$$$$
[H]c1c(OC([H])([H])[H])c([H])c2c3nnc(SC([H])([H])[H])nc3n(C([H])([H])[H])c2c1[H]


 18 20  0  0  0  0  0  0  0  0999 V2000
   -4.5584   23.0189  -24.3795 C   0  0  0  0  0  0  0  0  0  0  0  0
   -4.3984   23.3098  -25.7176 C   0  0  0  0  0  0  0  0  0  0  0  0
   -3.1423   23.1335  -26.3010 C   0  0  0  0  0  0  0  0  0  0  0  0
   -2.0542   22.6745  -25.5711 C   0  0  0  0  0  0  0  0  0  0  0  0
   -2.2323   22.3891  -24.2370 C   0  0  0  0  0  0  0  0  0  0  0  0
   -3.4850   22.5628  -23.6471 C   0  0  0  0  0  0  0  0  0  0  0  0
   -1.0257   21.9559  -23.7354 C   0  0  0  0  0  0  0  0  0  0  0  0
   -0.6691   21.5589  -22.5038 N   0  0  0  0  0  0  0  0  0  0  0  0
    0.5788   21.1834  -22.2805 N   0  0  0  0  0  0  0  0  0  0  0  0
    1.4451   21.2134  -23.2958 C   0  0  0  0  0  0  0  0  0  0  0  0
    1.1246   21.6044  -24.5392 N   0  0  0  0  0  0  0  0  0  0  0  0
   -0.1453   21.9959  -24.8057 C   0  0  0  0  0  0  0  0  0  0  0  0
   -0.7660   22.4302  -25.9161 N   0  0  0  0  0  0  0  0  0  0  0  0
   -0.1609   22.6047  -27.2414 C   0  0  0  0  0  0  0  0  0  0  0  0
   -6.8754   23.8595  -24.2605 C   0  0  0  0  0  0  0  0  0  0  0  0
   -5.7760   23.1724  -23.7447 O   0  0  0  0  0  0  0  0  0  0  0  0
    3.1266   20.6996  -22.9584 S   0  0  0  0  0  0  0  0  0  0  0  0
    3.0943   19.2914  -21.8012 C   0  0  0  0  0  0  0  0  0  0  0  0
 15 16  1  0  0  0
 16  1  1  0  0  0
  1  2  2  0  0  0
  2  3  1  0  0  0
  3  4  2  0  0  0
  4  5  1  0  0  0
  5  6  2  0  0  0
  5  7  1  0  0  0
  7  8  2  0  0  0
  8  9  1  0  0  0
  9 10  2  0  0  0
 10 17  1  0  0  0
 17 18  1  0  0  0
 10 11  1  0  0  0
 11 12  2  0  0  0
 12 13  1  0  0  0
 13 14  1  0  0  0
  6  1  1  0  0  0
 12  7  1  0  0  0
 13  4  1  0  0  0
M  END
> <minimizedAffinity>
-5.66743

> <CNNscore>
0.5065720081

> <CNNaffinity>
5.2432909012

> <CNN_VS>
2.6561043262

> <CNNaffinity_variance>
0.0286889020

$$$$
[H]c1c(OC([H])([H])[H])c([H])c2c3nnc(SC([H])([H])[H])nc3n(C([H])([H])[H])c2c1[H]


 18 20  0  0  0  0  0  0  0  0999 V2000
   -4.9585   23.3749  -27.3717 C   0  0  0  0  0  0  0  0  0  0  0  0
   -4.1680   23.5198  -28.4919 C   0  0  0  0  0  0  0  0  0  0  0  0
   -2.8004   23.2578  -28.3912 C   0  0  0  0  0  0  0  0  0  0  0  0
   -2.2180   22.8566  -27.1965 C   0  0  0  0  0  0  0  0  0  0  0  0
   -3.0222   22.7171  -26.0888 C   0  0  0  0  0  0  0  0  0  0  0  0
   -4.3901   22.9772  -26.1820 C   0  0  0  0  0  0  0  0  0  0  0  0
   -2.2264   22.3151  -25.0398 C   0  0  0  0  0  0  0  0  0  0  0  0
   -2.5196   22.0431  -23.7585 N   0  0  0  0  0  0  0  0  0  0  0  0
   -1.5525   21.6683  -22.9386 N   0  0  0  0  0  0  0  0  0  0  0  0
   -0.3104   21.5738  -23.4186 C   0  0  0  0  0  0  0  0  0  0  0  0
    0.0197   21.8377  -24.6926 N   0  0  0  0  0  0  0  0  0  0  0  0
   -0.9453   22.2244  -25.5622 C   0  0  0  0  0  0  0  0  0  0  0  0
   -0.9391   22.5515  -26.8659 N   0  0  0  0  0  0  0  0  0  0  0  0
    0.2291   22.5731  -27.7537 C   0  0  0  0  0  0  0  0  0  0  0  0
   -7.0932   24.0338  -26.3238 C   0  0  0  0  0  0  0  0  0  0  0  0
   -6.3181   23.6189  -27.4072 O   0  0  0  0  0  0  0  0  0  0  0  0
    0.9750   21.0648  -22.2810 S   0  0  0  0  0  0  0  0  0  0  0  0
    2.5568   20.9648  -23.1816 C   0  0  0  0  0  0  0  0  0  0  0  0
 15 16  1  0  0  0
 16  1  1  0  0  0
  1  2  2  0  0  0
  2  3  1  0  0  0
  3  4  2  0  0  0
  4  5  1  0  0  0
  5  6  2  0  0  0
  5  7  1  0  0  0
  7  8  2  0  0  0
  8  9  1  0  0  0
  9 10  2  0  0  0
 10 17  1  0  0  0
 17 18  1  0  0  0
 10 11  1  0  0  0
 11 12  2  0  0  0
 12 13  1  0  0  0
 13 14  1  0  0  0
  6  1  1  0  0  0
 12  7  1  0  0  0
 13  4  1  0  0  0
M  END
> <minimizedAffinity>
-6.70094

> <CNNscore>
0.4913204014

> <CNNaffinity>
5.5721445084

> <CNN_VS>
2.7377083302

> <CNNaffinity_variance>
0.0577182844

$$$$
[H]c1c(OC([H])([H])[H])c([H])c2c3nnc(SC([H])([H])[H])nc3n(C([H])([H])[H])c2c1[H]


 18 20  0  0  0  0  0  0  0  0999 V2000
   -1.0939   22.2600  -26.0228 C   0  0  0  0  0  0  0  0  0  0  0  0
   -2.2621   22.2255  -25.2916 C   0  0  0  0  0  0  0  0  0  0  0  0
   -2.1954   21.9446  -23.9257 C   0  0  0  0  0  0  0  0  0  0  0  0
   -0.9873   21.6999  -23.2870 C   0  0  0  0  0  0  0  0  0  0  0  0
    0.1686   21.7384  -24.0323 C   0  0  0  0  0  0  0  0  0  0  0  0
    0.1095   22.0187  -25.3981 C   0  0  0  0  0  0  0  0  0  0  0  0
    1.2220   21.4679  -23.1882 C   0  0  0  0  0  0  0  0  0  0  0  0
    2.5422   21.3870  -23.4162 N   0  0  0  0  0  0  0  0  0  0  0  0
    3.3567   21.1081  -22.4128 N   0  0  0  0  0  0  0  0  0  0  0  0
    2.8321   20.9154  -21.2004 C   0  0  0  0  0  0  0  0  0  0  0  0
    1.5183   20.9879  -20.9353 N   0  0  0  0  0  0  0  0  0  0  0  0
    0.6530   21.2720  -21.9391 C   0  0  0  0  0  0  0  0  0  0  0  0
   -0.6826   21.4121  -21.9976 N   0  0  0  0  0  0  0  0  0  0  0  0
   -1.6231   21.2775  -20.8793 C   0  0  0  0  0  0  0  0  0  0  0  0
    0.0143   22.9421  -28.1194 C   0  0  0  0  0  0  0  0  0  0  0  0
   -1.0940   22.5324  -27.3774 O   0  0  0  0  0  0  0  0  0  0  0  0
    3.9631   20.5385  -19.8647 S   0  0  0  0  0  0  0  0  0  0  0  0
    3.1800   19.3272  -18.7499 C   0  0  0  0  0  0  0  0  0  0  0  0
 15 16  1  0  0  0
 16  1  1  0  0  0
  1  2  2  0  0  0
  2  3  1  0  0  0
  3  4  2  0  0  0
  4  5  1  0  0  0
  5  6  2  0  0  0
  5  7  1  0  0  0
  7  8  2  0  0  0
  8  9  1  0  0  0
  9 10  2  0  0  0
 10 17  1  0  0  0
 17 18  1  0  0  0
 10 11  1  0  0  0
 11 12  2  0  0  0
 12 13  1  0  0  0
 13 14  1  0  0  0
  6  1  1  0  0  0
 12  7  1  0  0  0
 13  4  1  0  0  0
M  END
> <minimizedAffinity>
-5.50487

> <CNNscore>
0.4803948402

> <CNNaffinity>
4.7512884140

> <CNN_VS>
2.2824945450

> <CNNaffinity_variance>
0.2086859941

$$$$
[H]c1c(OC([H])([H])[H])c([H])c2c3nnc(SC([H])([H])[H])nc3n(C([H])([H])[H])c2c1[H]


 18 20  0  0  0  0  0  0  0  0999 V2000
   -0.5561   22.2594  -26.5038 C   0  0  0  0  0  0  0  0  0  0  0  0
   -1.9303   22.3699  -26.5020 C   0  0  0  0  0  0  0  0  0  0  0  0
   -2.6222   22.1647  -25.3070 C   0  0  0  0  0  0  0  0  0  0  0  0
   -1.9646   21.8533  -24.1246 C   0  0  0  0  0  0  0  0  0  0  0  0
   -0.5930   21.7472  -24.1450 C   0  0  0  0  0  0  0  0  0  0  0  0
    0.1053   21.9511  -25.3359 C   0  0  0  0  0  0  0  0  0  0  0  0
   -0.1767   21.4356  -22.8703 C   0  0  0  0  0  0  0  0  0  0  0  0
    1.0489   21.2267  -22.3644 N   0  0  0  0  0  0  0  0  0  0  0  0
    1.1788   20.9371  -21.0810 N   0  0  0  0  0  0  0  0  0  0  0  0
    0.0780   20.8621  -20.3295 C   0  0  0  0  0  0  0  0  0  0  0  0
   -1.1626   21.0644  -20.8005 N   0  0  0  0  0  0  0  0  0  0  0  0
   -1.3347   21.3636  -22.1112 C   0  0  0  0  0  0  0  0  0  0  0  0
   -2.4162   21.6160  -22.8685 N   0  0  0  0  0  0  0  0  0  0  0  0
   -3.8124   21.6297  -22.4172 C   0  0  0  0  0  0  0  0  0  0  0  0
   -0.1892   23.2529  -28.7327 C   0  0  0  0  0  0  0  0  0  0  0  0
    0.1853   22.4510  -27.6540 O   0  0  0  0  0  0  0  0  0  0  0  0
    0.2899   20.4669  -18.5963 S   0  0  0  0  0  0  0  0  0  0  0  0
   -1.2892   20.7439  -17.7285 C   0  0  0  0  0  0  0  0  0  0  0  0
 15 16  1  0  0  0
 16  1  1  0  0  0
  1  2  2  0  0  0
  2  3  1  0  0  0
  3  4  2  0  0  0
  4  5  1  0  0  0
  5  6  2  0  0  0
  5  7  1  0  0  0
  7  8  2  0  0  0
  8  9  1  0  0  0
  9 10  2  0  0  0
 10 17  1  0  0  0
 17 18  1  0  0  0
 10 11  1  0  0  0
 11 12  2  0  0  0
 12 13  1  0  0  0
 13 14  1  0  0  0
  6  1  1  0  0  0
 12  7  1  0  0  0
 13  4  1  0  0  0
M  END
> <minimizedAffinity>
-5.50159

> <CNNscore>
0.4797259569

> <CNNaffinity>
4.9635100365

> <CNN_VS>
2.3811244965

> <CNNaffinity_variance>
0.0567108802

$$$$
[H]OC1(c2c([H])c([H])c(C([H])([H])C([H])([H])C([H])([H])[H])c([H])c2[H])C([H])([H])C([H])([H])N(C([H])(c2c([H])c([H])c([H])c([H])c2[H])c2c([H])c([H])c([H])c([H])c2[H])C([H])([H])C1([H])[H]


 30 33  0  0  0  0  0  0  0  0999 V2000
   -5.3170   22.5719  -23.6433 C   0  0  0  0  0  0  0  0  0  0  0  0
   -4.9403   21.4176  -24.3652 O   0  0  0  0  0  0  0  0  0  0  0  0
   -6.4717   23.1824  -24.3403 C   0  0  0  0  0  0  0  0  0  0  0  0
   -6.0968   23.3835  -25.7833 C   0  0  0  0  0  0  0  0  0  0  0  0
   -4.7089   23.5477  -26.0079 N   0  0  0  0  0  0  0  0  0  0  0  0
   -3.8605   24.0426  -25.0325 C   0  0  0  0  0  0  0  0  0  0  0  0
   -4.1541   23.5169  -23.6470 C   0  0  0  0  0  0  0  0  0  0  0  0
   -5.3822   20.6216  -23.9740 H   0  0  0  0  0  0  0  0  0  0  0  0
   -6.4399   21.1890  -19.7437 C   0  0  0  0  0  0  0  0  0  0  0  0
   -5.1067   21.3202  -20.0824 C   0  0  0  0  0  0  0  0  0  0  0  0
   -4.7162   21.7858  -21.3364 C   0  0  0  0  0  0  0  0  0  0  0  0
   -5.6619   22.1312  -22.2851 C   0  0  0  0  0  0  0  0  0  0  0  0
   -6.9823   21.9944  -21.9197 C   0  0  0  0  0  0  0  0  0  0  0  0
   -7.3844   21.5370  -20.6874 C   0  0  0  0  0  0  0  0  0  0  0  0
   -6.7951   20.5818  -18.4443 C   0  0  0  0  0  0  0  0  0  0  0  0
   -6.5626   18.1252  -18.5625 C   0  0  0  0  0  0  0  0  0  0  0  0
   -7.5380   19.2691  -18.6288 C   0  0  0  0  0  0  0  0  0  0  0  0
   -4.2245   22.9726  -27.1993 C   0  0  0  0  0  0  0  0  0  0  0  0
   -4.6364   23.7307  -28.4505 C   0  0  0  0  0  0  0  0  0  0  0  0
   -5.2500   23.0519  -29.5059 C   0  0  0  0  0  0  0  0  0  0  0  0
   -5.5907   23.6942  -30.6639 C   0  0  0  0  0  0  0  0  0  0  0  0
   -5.3092   25.0448  -30.7624 C   0  0  0  0  0  0  0  0  0  0  0  0
   -4.7137   25.7091  -29.7308 C   0  0  0  0  0  0  0  0  0  0  0  0
   -4.3680   25.0393  -28.5453 C   0  0  0  0  0  0  0  0  0  0  0  0
   -2.7784   22.8161  -27.3441 C   0  0  0  0  0  0  0  0  0  0  0  0
   -2.1253   23.2741  -28.4851 C   0  0  0  0  0  0  0  0  0  0  0  0
   -0.7683   23.2090  -28.6263 C   0  0  0  0  0  0  0  0  0  0  0  0
    0.0201   22.6745  -27.6111 C   0  0  0  0  0  0  0  0  0  0  0  0
   -0.6024   22.2140  -26.4857 C   0  0  0  0  0  0  0  0  0  0  0  0
   -1.9824   22.2895  -26.3700 C   0  0  0  0  0  0  0  0  0  0  0  0
 16 17  1  0  0  0
 17 15  1  0  0  0
 15  9  1  0  0  0
  9 10  2  0  0  0
 10 11  1  0  0  0
 11 12  2  0  0  0
 12  1  1  0  0  0
  1  2  1  0  0  0
  1  3  1  0  0  0
  3  4  1  0  0  0
  4  5  1  0  0  0
  5 18  1  0  0  0
 18 19  1  0  0  0
 19 20  2  0  0  0
 20 21  1  0  0  0
 21 22  2  0  0  0
 22 23  1  0  0  0
 23 24  2  0  0  0
 18 25  1  0  0  0
 25 26  2  0  0  0
 26 27  1  0  0  0
 27 28  2  0  0  0
 28 29  1  0  0  0
 29 30  2  0  0  0
  5  6  1  0  0  0
  6  7  1  0  0  0
 12 13  1  0  0  0
 13 14  2  0  0  0
 14  9  1  0  0  0
  7  1  1  0  0  0
 24 19  1  0  0  0
 30 25  1  0  0  0
  2  8  1  0  0  0
M  END
> <minimizedAffinity>
-9.29697

> <CNNscore>
0.2585113645

> <CNNaffinity>
6.0099902153

> <CNN_VS>
1.5536507368

> <CNNaffinity_variance>
0.1753744632

$$$$
[H]OC1(c2c([H])c([H])c(C([H])([H])C([H])([H])C([H])([H])[H])c([H])c2[H])C([H])([H])C([H])([H])N(C([H])(c2c([H])c([H])c([H])c([H])c2[H])c2c([H])c([H])c([H])c([H])c2[H])C([H])([H])C1([H])[H]


 30 33  0  0  0  0  0  0  0  0999 V2000
   -4.9234   22.6123  -23.2039 C   0  0  0  0  0  0  0  0  0  0  0  0
   -3.9571   23.6377  -23.3051 O   0  0  0  0  0  0  0  0  0  0  0  0
   -4.3537   21.3937  -23.8223 C   0  0  0  0  0  0  0  0  0  0  0  0
   -3.8872   21.7445  -25.2088 C   0  0  0  0  0  0  0  0  0  0  0  0
   -4.5831   22.8248  -25.8024 N   0  0  0  0  0  0  0  0  0  0  0  0
   -5.8796   23.1499  -25.4425 C   0  0  0  0  0  0  0  0  0  0  0  0
   -6.1415   23.0518  -23.9578 C   0  0  0  0  0  0  0  0  0  0  0  0
   -3.4192   23.6710  -22.4736 H   0  0  0  0  0  0  0  0  0  0  0  0
   -5.8925   22.0696  -19.0630 C   0  0  0  0  0  0  0  0  0  0  0  0
   -4.8429   21.3745  -19.6328 C   0  0  0  0  0  0  0  0  0  0  0  0
   -4.4959   21.5477  -20.9713 C   0  0  0  0  0  0  0  0  0  0  0  0
   -5.2004   22.4276  -21.7731 C   0  0  0  0  0  0  0  0  0  0  0  0
   -6.2383   23.1097  -21.1788 C   0  0  0  0  0  0  0  0  0  0  0  0
   -6.5935   22.9507  -19.8605 C   0  0  0  0  0  0  0  0  0  0  0  0
   -6.2888   21.7610  -17.6734 C   0  0  0  0  0  0  0  0  0  0  0  0
   -5.1495   23.0379  -15.8917 C   0  0  0  0  0  0  0  0  0  0  0  0
   -5.0943   21.7927  -16.7348 C   0  0  0  0  0  0  0  0  0  0  0  0
   -3.7974   23.6686  -26.6121 C   0  0  0  0  0  0  0  0  0  0  0  0
   -2.3792   23.1629  -26.8191 C   0  0  0  0  0  0  0  0  0  0  0  0
   -1.5858   22.8428  -25.7148 C   0  0  0  0  0  0  0  0  0  0  0  0
   -0.2909   22.4298  -25.8638 C   0  0  0  0  0  0  0  0  0  0  0  0
    0.2158   22.3368  -27.1473 C   0  0  0  0  0  0  0  0  0  0  0  0
   -0.5595   22.6453  -28.2262 C   0  0  0  0  0  0  0  0  0  0  0  0
   -1.8890   23.0685  -28.0617 C   0  0  0  0  0  0  0  0  0  0  0  0
   -4.2703   23.9510  -27.9661 C   0  0  0  0  0  0  0  0  0  0  0  0
   -4.8357   22.9450  -28.7449 C   0  0  0  0  0  0  0  0  0  0  0  0
   -5.3519   23.1850  -29.9865 C   0  0  0  0  0  0  0  0  0  0  0  0
   -5.3309   24.4701  -30.5212 C   0  0  0  0  0  0  0  0  0  0  0  0
   -4.7748   25.4701  -29.7749 C   0  0  0  0  0  0  0  0  0  0  0  0
   -4.2551   25.1978  -28.5183 C   0  0  0  0  0  0  0  0  0  0  0  0
 16 17  1  0  0  0
 17 15  1  0  0  0
 15  9  1  0  0  0
  9 10  2  0  0  0
 10 11  1  0  0  0
 11 12  2  0  0  0
 12  1  1  0  0  0
  1  2  1  0  0  0
  1  3  1  0  0  0
  3  4  1  0  0  0
  4  5  1  0  0  0
  5 18  1  0  0  0
 18 19  1  0  0  0
 19 20  2  0  0  0
 20 21  1  0  0  0
 21 22  2  0  0  0
 22 23  1  0  0  0
 23 24  2  0  0  0
 18 25  1  0  0  0
 25 26  2  0  0  0
 26 27  1  0  0  0
 27 28  2  0  0  0
 28 29  1  0  0  0
 29 30  2  0  0  0
  5  6  1  0  0  0
  6  7  1  0  0  0
 12 13  1  0  0  0
 13 14  2  0  0  0
 14  9  1  0  0  0
  7  1  1  0  0  0
 24 19  1  0  0  0
 30 25  1  0  0  0
  2  8  1  0  0  0
M  END
> <minimizedAffinity>
-8.64178

> <CNNscore>
0.2233121991

> <CNNaffinity>
5.8457059860

> <CNN_VS>
1.3054174185

> <CNNaffinity_variance>
0.2442807853

$$$$
[H]OC1(c2c([H])c([H])c(C([H])([H])C([H])([H])C([H])([H])[H])c([H])c2[H])C([H])([H])C([H])([H])N(C([H])(c2c([H])c([H])c([H])c([H])c2[H])c2c([H])c([H])c([H])c([H])c2[H])C([H])([H])C1([H])[H]


 30 33  0  0  0  0  0  0  0  0999 V2000
   -0.0873   21.4724  -22.4342 C   0  0  0  0  0  0  0  0  0  0  0  0
   -0.4454   22.6083  -21.6747 O   0  0  0  0  0  0  0  0  0  0  0  0
   -0.7566   20.2977  -21.8309 C   0  0  0  0  0  0  0  0  0  0  0  0
   -0.4150   20.2631  -20.3662 C   0  0  0  0  0  0  0  0  0  0  0  0
    0.8211   20.8715  -20.0411 N   0  0  0  0  0  0  0  0  0  0  0  0
    1.8555   20.9678  -20.9559 C   0  0  0  0  0  0  0  0  0  0  0  0
    1.4008   21.3156  -22.3540 C   0  0  0  0  0  0  0  0  0  0  0  0
   -1.2280   23.0526  -22.0895 H   0  0  0  0  0  0  0  0  0  0  0  0
   -1.5304   22.2859  -26.3884 C   0  0  0  0  0  0  0  0  0  0  0  0
   -0.1762   22.3236  -26.1165 C   0  0  0  0  0  0  0  0  0  0  0  0
    0.3192   22.0441  -24.8443 C   0  0  0  0  0  0  0  0  0  0  0  0
   -0.5398   21.7197  -23.8098 C   0  0  0  0  0  0  0  0  0  0  0  0
   -1.8831   21.6858  -24.1096 C   0  0  0  0  0  0  0  0  0  0  0  0
   -2.3883   21.9585  -25.3585 C   0  0  0  0  0  0  0  0  0  0  0  0
   -2.0075   22.7036  -27.7231 C   0  0  0  0  0  0  0  0  0  0  0  0
   -4.3150   23.1062  -28.5078 C   0  0  0  0  0  0  0  0  0  0  0  0
   -3.2145   23.6208  -27.6200 C   0  0  0  0  0  0  0  0  0  0  0  0
    0.8435   21.5586  -18.8113 C   0  0  0  0  0  0  0  0  0  0  0  0
    0.5729   20.6651  -17.6119 C   0  0  0  0  0  0  0  0  0  0  0  0
    1.1313   19.3859  -17.5563 C   0  0  0  0  0  0  0  0  0  0  0  0
    0.8705   18.5395  -16.5146 C   0  0  0  0  0  0  0  0  0  0  0  0
    0.0324   18.9878  -15.5098 C   0  0  0  0  0  0  0  0  0  0  0  0
   -0.5099   20.2382  -15.5615 C   0  0  0  0  0  0  0  0  0  0  0  0
   -0.2351   21.0998  -16.6365 C   0  0  0  0  0  0  0  0  0  0  0  0
    2.0671   22.2714  -18.4487 C   0  0  0  0  0  0  0  0  0  0  0  0
    2.0624   23.6545  -18.2899 C   0  0  0  0  0  0  0  0  0  0  0  0
    3.1675   24.3473  -17.8842 C   0  0  0  0  0  0  0  0  0  0  0  0
    4.3562   23.6774  -17.6084 C   0  0  0  0  0  0  0  0  0  0  0  0
    4.3828   22.3204  -17.7640 C   0  0  0  0  0  0  0  0  0  0  0  0
    3.2469   21.6424  -18.1803 C   0  0  0  0  0  0  0  0  0  0  0  0
 16 17  1  0  0  0
 17 15  1  0  0  0
 15  9  1  0  0  0
  9 10  2  0  0  0
 10 11  1  0  0  0
 11 12  2  0  0  0
 12  1  1  0  0  0
  1  2  1  0  0  0
  1  3  1  0  0  0
  3  4  1  0  0  0
  4  5  1  0  0  0
  5 18  1  0  0  0
 18 19  1  0  0  0
 19 20  2  0  0  0
 20 21  1  0  0  0
 21 22  2  0  0  0
 22 23  1  0  0  0
 23 24  2  0  0  0
 18 25  1  0  0  0
 25 26  2  0  0  0
 26 27  1  0  0  0
 27 28  2  0  0  0
 28 29  1  0  0  0
 29 30  2  0  0  0
  5  6  1  0  0  0
  6  7  1  0  0  0
 12 13  1  0  0  0
 13 14  2  0  0  0
 14  9  1  0  0  0
  7  1  1  0  0  0
 24 19  1  0  0  0
 30 25  1  0  0  0
  2  8  1  0  0  0
M  END
> <minimizedAffinity>
-6.68287

> <CNNscore>
0.2178755254

> <CNNaffinity>
5.2952528000

> <CNN_VS>
1.1537059546

> <CNNaffinity_variance>
0.0781777352

$$$$
[H]OC1(c2c([H])c([H])c(C([H])([H])C([H])([H])C([H])([H])[H])c([H])c2[H])C([H])([H])C([H])([H])N(C([H])(c2c([H])c([H])c([H])c([H])c2[H])c2c([H])c([H])c([H])c([H])c2[H])C([H])([H])C1([H])[H]


 30 33  0  0  0  0  0  0  0  0999 V2000
   -1.6120   22.2787  -24.9422 C   0  0  0  0  0  0  0  0  0  0  0  0
   -1.7603   23.6501  -24.6381 O   0  0  0  0  0  0  0  0  0  0  0  0
   -1.1833   22.1744  -26.3555 C   0  0  0  0  0  0  0  0  0  0  0  0
   -2.1572   22.9497  -27.2003 C   0  0  0  0  0  0  0  0  0  0  0  0
   -3.4575   23.0481  -26.6496 N   0  0  0  0  0  0  0  0  0  0  0  0
   -3.9565   22.1023  -25.7708 C   0  0  0  0  0  0  0  0  0  0  0  0
   -2.9450   21.6195  -24.7577 C   0  0  0  0  0  0  0  0  0  0  0  0
   -0.9233   23.9936  -24.2338 H   0  0  0  0  0  0  0  0  0  0  0  0
    1.4296   20.8470  -22.2815 C   0  0  0  0  0  0  0  0  0  0  0  0
    0.0998   20.8112  -21.9078 C   0  0  0  0  0  0  0  0  0  0  0  0
   -0.9089   21.2526  -22.7620 C   0  0  0  0  0  0  0  0  0  0  0  0
   -0.6028   21.7441  -24.0182 C   0  0  0  0  0  0  0  0  0  0  0  0
    0.7292   21.7647  -24.3660 C   0  0  0  0  0  0  0  0  0  0  0  0
    1.7362   21.3332  -23.5358 C   0  0  0  0  0  0  0  0  0  0  0  0
    2.4640   20.4756  -21.2939 C   0  0  0  0  0  0  0  0  0  0  0  0
    3.4940   18.3870  -22.1184 C   0  0  0  0  0  0  0  0  0  0  0  0
    3.6848   19.8720  -21.9680 C   0  0  0  0  0  0  0  0  0  0  0  0
   -4.1135   24.2731  -26.8824 C   0  0  0  0  0  0  0  0  0  0  0  0
   -4.6813   24.4004  -28.2864 C   0  0  0  0  0  0  0  0  0  0  0  0
   -5.0761   23.2565  -28.9843 C   0  0  0  0  0  0  0  0  0  0  0  0
   -5.5470   23.3311  -30.2658 C   0  0  0  0  0  0  0  0  0  0  0  0
   -5.6227   24.5793  -30.8566 C   0  0  0  0  0  0  0  0  0  0  0  0
   -5.2412   25.6970  -30.1744 C   0  0  0  0  0  0  0  0  0  0  0  0
   -4.7588   25.6090  -28.8578 C   0  0  0  0  0  0  0  0  0  0  0  0
   -5.2383   24.6214  -26.0162 C   0  0  0  0  0  0  0  0  0  0  0  0
   -5.0746   25.5226  -24.9678 C   0  0  0  0  0  0  0  0  0  0  0  0
   -6.1160   25.9258  -24.1813 C   0  0  0  0  0  0  0  0  0  0  0  0
   -7.4003   25.4403  -24.4106 C   0  0  0  0  0  0  0  0  0  0  0  0
   -7.5806   24.5501  -25.4311 C   0  0  0  0  0  0  0  0  0  0  0  0
   -6.5049   24.1554  -26.2122 C   0  0  0  0  0  0  0  0  0  0  0  0
 16 17  1  0  0  0
 17 15  1  0  0  0
 15  9  1  0  0  0
  9 10  2  0  0  0
 10 11  1  0  0  0
 11 12  2  0  0  0
 12  1  1  0  0  0
  1  2  1  0  0  0
  1  3  1  0  0  0
  3  4  1  0  0  0
  4  5  1  0  0  0
  5 18  1  0  0  0
 18 19  1  0  0  0
 19 20  2  0  0  0
 20 21  1  0  0  0
 21 22  2  0  0  0
 22 23  1  0  0  0
 23 24  2  0  0  0
 18 25  1  0  0  0
 25 26  2  0  0  0
 26 27  1  0  0  0
 27 28  2  0  0  0
 28 29  1  0  0  0
 29 30  2  0  0  0
  5  6  1  0  0  0
  6  7  1  0  0  0
 12 13  1  0  0  0
 13 14  2  0  0  0
 14  9  1  0  0  0
  7  1  1  0  0  0
 24 19  1  0  0  0
 30 25  1  0  0  0
  2  8  1  0  0  0
M  END
> <minimizedAffinity>
-9.29821

> <CNNscore>
0.1915770620

> <CNNaffinity>
6.2604341507

> <CNN_VS>
1.1993556023

> <CNNaffinity_variance>
0.1125971824

$$$$
[H]OC1(c2c([H])c([H])c(C([H])([H])C([H])([H])C([H])([H])[H])c([H])c2[H])C([H])([H])C([H])([H])N(C([H])(c2c([H])c([H])c([H])c([H])c2[H])c2c([H])c([H])c([H])c([H])c2[H])C([H])([H])C1([H])[H]


 30 33  0  0  0  0  0  0  0  0999 V2000
   -4.6949   23.0650  -22.6330 C   0  0  0  0  0  0  0  0  0  0  0  0
   -4.2641   21.8635  -23.2381 O   0  0  0  0  0  0  0  0  0  0  0  0
   -5.9848   23.4444  -23.2529 C   0  0  0  0  0  0  0  0  0  0  0  0
   -5.7988   23.4714  -24.7455 C   0  0  0  0  0  0  0  0  0  0  0  0
   -4.4743   23.7445  -25.1634 N   0  0  0  0  0  0  0  0  0  0  0  0
   -3.5890   24.4614  -24.3770 C   0  0  0  0  0  0  0  0  0  0  0  0
   -3.6620   24.1151  -22.9083 C   0  0  0  0  0  0  0  0  0  0  0  0
   -4.5608   21.0913  -22.6926 H   0  0  0  0  0  0  0  0  0  0  0  0
   -5.2575   22.2824  -18.4555 C   0  0  0  0  0  0  0  0  0  0  0  0
   -4.3376   21.5547  -19.1859 C   0  0  0  0  0  0  0  0  0  0  0  0
   -4.1225   21.8029  -20.5402 C   0  0  0  0  0  0  0  0  0  0  0  0
   -4.8317   22.7930  -21.1959 C   0  0  0  0  0  0  0  0  0  0  0  0
   -5.7386   23.5051  -20.4434 C   0  0  0  0  0  0  0  0  0  0  0  0
   -5.9628   23.2732  -19.1072 C   0  0  0  0  0  0  0  0  0  0  0  0
   -5.5274   21.8996  -17.0542 C   0  0  0  0  0  0  0  0  0  0  0  0
   -4.4130   20.1777  -15.6773 C   0  0  0  0  0  0  0  0  0  0  0  0
   -5.3404   20.4070  -16.8399 C   0  0  0  0  0  0  0  0  0  0  0  0
   -4.0589   23.0558  -26.3201 C   0  0  0  0  0  0  0  0  0  0  0  0
   -4.5135   23.7120  -27.6134 C   0  0  0  0  0  0  0  0  0  0  0  0
   -4.9795   22.9235  -28.6681 C   0  0  0  0  0  0  0  0  0  0  0  0
   -5.3519   23.4778  -29.8613 C   0  0  0  0  0  0  0  0  0  0  0  0
   -5.2542   24.8508  -29.9964 C   0  0  0  0  0  0  0  0  0  0  0  0
   -4.8031   25.6216  -28.9656 C   0  0  0  0  0  0  0  0  0  0  0  0
   -4.4231   25.0417  -27.7438 C   0  0  0  0  0  0  0  0  0  0  0  0
   -2.6248   22.8511  -26.5158 C   0  0  0  0  0  0  0  0  0  0  0  0
   -1.8355   22.3325  -25.4929 C   0  0  0  0  0  0  0  0  0  0  0  0
   -0.5071   22.0620  -25.6603 C   0  0  0  0  0  0  0  0  0  0  0  0
    0.1104   22.2986  -26.8852 C   0  0  0  0  0  0  0  0  0  0  0  0
   -0.6458   22.8131  -27.9000 C   0  0  0  0  0  0  0  0  0  0  0  0
   -1.9919   23.0813  -27.7016 C   0  0  0  0  0  0  0  0  0  0  0  0
 16 17  1  0  0  0
 17 15  1  0  0  0
 15  9  1  0  0  0
  9 10  2  0  0  0
 10 11  1  0  0  0
 11 12  2  0  0  0
 12  1  1  0  0  0
  1  2  1  0  0  0
  1  3  1  0  0  0
  3  4  1  0  0  0
  4  5  1  0  0  0
  5 18  1  0  0  0
 18 19  1  0  0  0
 19 20  2  0  0  0
 20 21  1  0  0  0
 21 22  2  0  0  0
 22 23  1  0  0  0
 23 24  2  0  0  0
 18 25  1  0  0  0
 25 26  2  0  0  0
 26 27  1  0  0  0
 27 28  2  0  0  0
 28 29  1  0  0  0
 29 30  2  0  0  0
  5  6  1  0  0  0
  6  7  1  0  0  0
 12 13  1  0  0  0
 13 14  2  0  0  0
 14  9  1  0  0  0
  7  1  1  0  0  0
 24 19  1  0  0  0
 30 25  1  0  0  0
  2  8  1  0  0  0
M  END
> <minimizedAffinity>
-8.29743

> <CNNscore>
0.1681906432

> <CNNaffinity>
5.7957248688

> <CNN_VS>
0.9747866988

> <CNNaffinity_variance>
0.2422314435

$$$$
[H]OC1(c2c([H])c([H])c(C([H])([H])C([H])([H])C([H])([H])[H])c([H])c2[H])C([H])([H])C([H])([H])N(C([H])(c2c([H])c([H])c([H])c([H])c2[H])c2c([H])c([H])c([H])c([H])c2[H])C([H])([H])C1([H])[H]


 30 33  0  0  0  0  0  0  0  0999 V2000
   -5.6573   23.9569  -23.2650 C   0  0  0  0  0  0  0  0  0  0  0  0
   -5.2476   22.6587  -23.6423 O   0  0  0  0  0  0  0  0  0  0  0  0
   -6.8377   24.3128  -24.0847 C   0  0  0  0  0  0  0  0  0  0  0  0
   -6.4816   24.1136  -25.5327 C   0  0  0  0  0  0  0  0  0  0  0  0
   -5.1020   24.2504  -25.8182 N   0  0  0  0  0  0  0  0  0  0  0  0
   -4.2629   25.0238  -25.0348 C   0  0  0  0  0  0  0  0  0  0  0  0
   -4.5272   24.8979  -23.5526 C   0  0  0  0  0  0  0  0  0  0  0  0
   -5.6590   21.9910  -23.0368 H   0  0  0  0  0  0  0  0  0  0  0  0
   -6.4625   23.6955  -19.0622 C   0  0  0  0  0  0  0  0  0  0  0  0
   -6.4958   24.9176  -19.7062 C   0  0  0  0  0  0  0  0  0  0  0  0
   -6.2567   25.0264  -21.0748 C   0  0  0  0  0  0  0  0  0  0  0  0
   -5.9759   23.9034  -21.8320 C   0  0  0  0  0  0  0  0  0  0  0  0
   -5.9530   22.6987  -21.1657 C   0  0  0  0  0  0  0  0  0  0  0  0
   -6.1865   22.5739  -19.8170 C   0  0  0  0  0  0  0  0  0  0  0  0
   -6.6084   23.6533  -17.5925 C   0  0  0  0  0  0  0  0  0  0  0  0
   -4.2915   23.6393  -16.7354 C   0  0  0  0  0  0  0  0  0  0  0  0
   -5.5318   24.4747  -16.9032 C   0  0  0  0  0  0  0  0  0  0  0  0
   -4.6081   23.3799  -26.8099 C   0  0  0  0  0  0  0  0  0  0  0  0
   -4.8471   23.8757  -28.2265 C   0  0  0  0  0  0  0  0  0  0  0  0
   -4.5649   25.2034  -28.5567 C   0  0  0  0  0  0  0  0  0  0  0  0
   -4.8120   25.6940  -29.8088 C   0  0  0  0  0  0  0  0  0  0  0  0
   -5.3529   24.8335  -30.7467 C   0  0  0  0  0  0  0  0  0  0  0  0
   -5.6250   23.5360  -30.4262 C   0  0  0  0  0  0  0  0  0  0  0  0
   -5.3670   23.0421  -29.1366 C   0  0  0  0  0  0  0  0  0  0  0  0
   -3.1827   23.0566  -26.7872 C   0  0  0  0  0  0  0  0  0  0  0  0
   -2.6065   22.4652  -25.6663 C   0  0  0  0  0  0  0  0  0  0  0  0
   -1.2950   22.0849  -25.6333 C   0  0  0  0  0  0  0  0  0  0  0  0
   -0.4780   22.2783  -26.7437 C   0  0  0  0  0  0  0  0  0  0  0  0
   -1.0232   22.8626  -27.8516 C   0  0  0  0  0  0  0  0  0  0  0  0
   -2.3572   23.2419  -27.8567 C   0  0  0  0  0  0  0  0  0  0  0  0
 16 17  1  0  0  0
 17 15  1  0  0  0
 15  9  1  0  0  0
  9 10  2  0  0  0
 10 11  1  0  0  0
 11 12  2  0  0  0
 12  1  1  0  0  0
  1  2  1  0  0  0
  1  3  1  0  0  0
  3  4  1  0  0  0
  4  5  1  0  0  0
  5 18  1  0  0  0
 18 19  1  0  0  0
 19 20  2  0  0  0
 20 21  1  0  0  0
 21 22  2  0  0  0
 22 23  1  0  0  0
 23 24  2  0  0  0
 18 25  1  0  0  0
 25 26  2  0  0  0
 26 27  1  0  0  0
 27 28  2  0  0  0
 28 29  1  0  0  0
 29 30  2  0  0  0
  5  6  1  0  0  0
  6  7  1  0  0  0
 12 13  1  0  0  0
 13 14  2  0  0  0
 14  9  1  0  0  0
  7  1  1  0  0  0
 24 19  1  0  0  0
 30 25  1  0  0  0
  2  8  1  0  0  0
M  END
> <minimizedAffinity>
-9.23649

> <CNNscore>
0.1673834771

> <CNNaffinity>
5.8251962662

> <CNN_VS>
0.9750416279

> <CNNaffinity_variance>
0.2248797417

$$$$
[H]OC1(c2c([H])c([H])c(C([H])([H])C([H])([H])C([H])([H])[H])c([H])c2[H])C([H])([H])C([H])([H])N(C([H])(c2c([H])c([H])c([H])c([H])c2[H])c2c([H])c([H])c([H])c([H])c2[H])C([H])([H])C1([H])[H]


 30 33  0  0  0  0  0  0  0  0999 V2000
   -6.4915   23.5254  -24.0200 C   0  0  0  0  0  0  0  0  0  0  0  0
   -6.2096   22.2631  -24.5879 O   0  0  0  0  0  0  0  0  0  0  0  0
   -7.3899   24.2471  -24.9494 C   0  0  0  0  0  0  0  0  0  0  0  0
   -6.7526   24.2492  -26.3122 C   0  0  0  0  0  0  0  0  0  0  0  0
   -5.3397   24.1648  -26.2954 N   0  0  0  0  0  0  0  0  0  0  0  0
   -4.5903   24.6046  -25.2179 C   0  0  0  0  0  0  0  0  0  0  0  0
   -5.1963   24.2650  -23.8763 C   0  0  0  0  0  0  0  0  0  0  0  0
   -6.8429   21.5892  -24.2318 H   0  0  0  0  0  0  0  0  0  0  0  0
   -8.2173   22.7055  -20.1820 C   0  0  0  0  0  0  0  0  0  0  0  0
   -8.2875   23.9746  -20.7240 C   0  0  0  0  0  0  0  0  0  0  0  0
   -7.7515   24.2619  -21.9778 C   0  0  0  0  0  0  0  0  0  0  0  0
   -7.1278   23.2750  -22.7198 C   0  0  0  0  0  0  0  0  0  0  0  0
   -7.0755   22.0193  -22.1577 C   0  0  0  0  0  0  0  0  0  0  0  0
   -7.5991   21.7191  -20.9228 C   0  0  0  0  0  0  0  0  0  0  0  0
   -8.6984   22.4853  -18.8024 C   0  0  0  0  0  0  0  0  0  0  0  0
  -11.1505   22.7598  -18.6800 C   0  0  0  0  0  0  0  0  0  0  0  0
  -10.0326   21.7583  -18.7885 C   0  0  0  0  0  0  0  0  0  0  0  0
   -4.7740   23.4102  -27.3421 C   0  0  0  0  0  0  0  0  0  0  0  0
   -4.9121   24.0656  -28.7063 C   0  0  0  0  0  0  0  0  0  0  0  0
   -4.4227   25.3579  -28.9109 C   0  0  0  0  0  0  0  0  0  0  0  0
   -4.5720   25.9943  -30.1118 C   0  0  0  0  0  0  0  0  0  0  0  0
   -5.2255   25.3186  -31.1263 C   0  0  0  0  0  0  0  0  0  0  0  0
   -5.7000   24.0553  -30.9285 C   0  0  0  0  0  0  0  0  0  0  0  0
   -5.5411   23.4106  -29.6905 C   0  0  0  0  0  0  0  0  0  0  0  0
   -3.3532   23.0780  -27.2547 C   0  0  0  0  0  0  0  0  0  0  0  0
   -2.8551   22.3710  -26.1636 C   0  0  0  0  0  0  0  0  0  0  0  0
   -1.5485   21.9817  -26.0797 C   0  0  0  0  0  0  0  0  0  0  0  0
   -0.6569   22.2837  -27.1052 C   0  0  0  0  0  0  0  0  0  0  0  0
   -1.1250   22.9822  -28.1819 C   0  0  0  0  0  0  0  0  0  0  0  0
   -2.4559   23.3677  -28.2399 C   0  0  0  0  0  0  0  0  0  0  0  0
 16 17  1  0  0  0
 17 15  1  0  0  0
 15  9  1  0  0  0
  9 10  2  0  0  0
 10 11  1  0  0  0
 11 12  2  0  0  0
 12  1  1  0  0  0
  1  2  1  0  0  0
  1  3  1  0  0  0
  3  4  1  0  0  0
  4  5  1  0  0  0
  5 18  1  0  0  0
 18 19  1  0  0  0
 19 20  2  0  0  0
 20 21  1  0  0  0
 21 22  2  0  0  0
 22 23  1  0  0  0
 23 24  2  0  0  0
 18 25  1  0  0  0
 25 26  2  0  0  0
 26 27  1  0  0  0
 27 28  2  0  0  0
 28 29  1  0  0  0
 29 30  2  0  0  0
  5  6  1  0  0  0
  6  7  1  0  0  0
 12 13  1  0  0  0
 13 14  2  0  0  0
 14  9  1  0  0  0
  7  1  1  0  0  0
 24 19  1  0  0  0
 30 25  1  0  0  0
  2  8  1  0  0  0
M  END
> <minimizedAffinity>
-9.57990

> <CNNscore>
0.1603149921

> <CNNaffinity>
5.8327860832

> <CNN_VS>
0.9350830317

> <CNNaffinity_variance>
0.2109486759

$$$$
[H]OC1(c2c([H])c([H])c(C([H])([H])C([H])([H])C([H])([H])[H])c([H])c2[H])C([H])([H])C([H])([H])N(C([H])(c2c([H])c([H])c([H])c([H])c2[H])c2c([H])c([H])c([H])c([H])c2[H])C([H])([H])C1([H])[H]


 30 33  0  0  0  0  0  0  0  0999 V2000
   -5.8328   22.8807  -22.7478 C   0  0  0  0  0  0  0  0  0  0  0  0
   -5.8785   24.1166  -23.4303 O   0  0  0  0  0  0  0  0  0  0  0  0
   -4.5461   22.8161  -22.0182 C   0  0  0  0  0  0  0  0  0  0  0  0
   -3.4365   23.0856  -22.9978 C   0  0  0  0  0  0  0  0  0  0  0  0
   -3.7418   22.7365  -24.3352 N   0  0  0  0  0  0  0  0  0  0  0  0
   -4.6699   21.7575  -24.6454 C   0  0  0  0  0  0  0  0  0  0  0  0
   -5.9011   21.7874  -23.7703 C   0  0  0  0  0  0  0  0  0  0  0  0
   -6.3529   24.7860  -22.8747 H   0  0  0  0  0  0  0  0  0  0  0  0
   -9.2523   22.9399  -20.1625 C   0  0  0  0  0  0  0  0  0  0  0  0
   -8.8269   21.7553  -20.7328 C   0  0  0  0  0  0  0  0  0  0  0  0
   -7.7072   21.7065  -21.5609 C   0  0  0  0  0  0  0  0  0  0  0  0
   -6.9856   22.8538  -21.8376 C   0  0  0  0  0  0  0  0  0  0  0  0
   -7.4291   24.0188  -21.2532 C   0  0  0  0  0  0  0  0  0  0  0  0
   -8.5311   24.0843  -20.4342 C   0  0  0  0  0  0  0  0  0  0  0  0
  -10.5107   22.9537  -19.3882 C   0  0  0  0  0  0  0  0  0  0  0  0
   -9.4825   21.9450  -17.3812 C   0  0  0  0  0  0  0  0  0  0  0  0
  -10.5726   21.7947  -18.4075 C   0  0  0  0  0  0  0  0  0  0  0  0
   -3.2058   23.5965  -25.3141 C   0  0  0  0  0  0  0  0  0  0  0  0
   -1.9478   23.0561  -25.9737 C   0  0  0  0  0  0  0  0  0  0  0  0
   -0.9851   22.3988  -25.2039 C   0  0  0  0  0  0  0  0  0  0  0  0
    0.1789   21.9419  -25.7570 C   0  0  0  0  0  0  0  0  0  0  0  0
    0.3786   22.1495  -27.1097 C   0  0  0  0  0  0  0  0  0  0  0  0
   -0.5626   22.7876  -27.8627 C   0  0  0  0  0  0  0  0  0  0  0  0
   -1.7552   23.2530  -27.2842 C   0  0  0  0  0  0  0  0  0  0  0  0
   -4.0609   23.9672  -26.4403 C   0  0  0  0  0  0  0  0  0  0  0  0
   -4.4214   25.2953  -26.6511 C   0  0  0  0  0  0  0  0  0  0  0  0
   -5.1600   25.6896  -27.7302 C   0  0  0  0  0  0  0  0  0  0  0  0
   -5.5812   24.7568  -28.6737 C   0  0  0  0  0  0  0  0  0  0  0  0
   -5.2427   23.4473  -28.4816 C   0  0  0  0  0  0  0  0  0  0  0  0
   -4.4944   23.0741  -27.3753 C   0  0  0  0  0  0  0  0  0  0  0  0
 16 17  1  0  0  0
 17 15  1  0  0  0
 15  9  1  0  0  0
  9 10  2  0  0  0
 10 11  1  0  0  0
 11 12  2  0  0  0
 12  1  1  0  0  0
  1  2  1  0  0  0
  1  3  1  0  0  0
  3  4  1  0  0  0
  4  5  1  0  0  0
  5 18  1  0  0  0
 18 19  1  0  0  0
 19 20  2  0  0  0
 20 21  1  0  0  0
 21 22  2  0  0  0
 22 23  1  0  0  0
 23 24  2  0  0  0
 18 25  1  0  0  0
 25 26  2  0  0  0
 26 27  1  0  0  0
 27 28  2  0  0  0
 28 29  1  0  0  0
 29 30  2  0  0  0
  5  6  1  0  0  0
  6  7  1  0  0  0
 12 13  1  0  0  0
 13 14  2  0  0  0
 14  9  1  0  0  0
  7  1  1  0  0  0
 24 19  1  0  0  0
 30 25  1  0  0  0
  2  8  1  0  0  0
M  END
> <minimizedAffinity>
-8.66516

> <CNNscore>
0.1511203200

> <CNNaffinity>
5.6754879951

> <CNN_VS>
0.8576815724

> <CNNaffinity_variance>
0.1498622894

$$$$
[H]OC1(c2c([H])c([H])c(C([H])([H])C([H])([H])C([H])([H])[H])c([H])c2[H])C([H])([H])C([H])([H])N(C([H])(c2c([H])c([H])c([H])c([H])c2[H])c2c([H])c([H])c([H])c([H])c2[H])C([H])([H])C1([H])[H]


 30 33  0  0  0  0  0  0  0  0999 V2000
   -3.5935   22.5529  -23.2334 C   0  0  0  0  0  0  0  0  0  0  0  0
   -2.7765   21.7004  -24.0087 O   0  0  0  0  0  0  0  0  0  0  0  0
   -5.0043   22.2035  -23.5150 C   0  0  0  0  0  0  0  0  0  0  0  0
   -5.2104   22.2455  -25.0047 C   0  0  0  0  0  0  0  0  0  0  0  0
   -4.3373   23.1242  -25.6897 N   0  0  0  0  0  0  0  0  0  0  0  0
   -3.7714   24.2264  -25.0724 C   0  0  0  0  0  0  0  0  0  0  0  0
   -3.3175   23.9639  -23.6555 C   0  0  0  0  0  0  0  0  0  0  0  0
   -2.5128   20.9118  -23.4697 H   0  0  0  0  0  0  0  0  0  0  0  0
   -2.4031   21.9331  -19.1616 C   0  0  0  0  0  0  0  0  0  0  0  0
   -3.6381   22.4795  -19.4540 C   0  0  0  0  0  0  0  0  0  0  0  0
   -4.0560   22.6731  -20.7692 C   0  0  0  0  0  0  0  0  0  0  0  0
   -3.2373   22.3211  -21.8271 C   0  0  0  0  0  0  0  0  0  0  0  0
   -2.0144   21.7754  -21.5072 C   0  0  0  0  0  0  0  0  0  0  0  0
   -1.5870   21.5776  -20.2158 C   0  0  0  0  0  0  0  0  0  0  0  0
   -1.9656   21.8583  -17.7523 C   0  0  0  0  0  0  0  0  0  0  0  0
   -2.6210   21.3552  -15.4241 C   0  0  0  0  0  0  0  0  0  0  0  0
   -3.0500   21.2717  -16.8640 C   0  0  0  0  0  0  0  0  0  0  0  0
   -3.9171   22.6795  -26.9588 C   0  0  0  0  0  0  0  0  0  0  0  0
   -4.5341   23.4573  -28.1095 C   0  0  0  0  0  0  0  0  0  0  0  0
   -4.7425   24.8332  -27.9875 C   0  0  0  0  0  0  0  0  0  0  0  0
   -5.3378   25.5546  -28.9849 C   0  0  0  0  0  0  0  0  0  0  0  0
   -5.7306   24.8800  -30.1266 C   0  0  0  0  0  0  0  0  0  0  0  0
   -5.5237   23.5374  -30.2480 C   0  0  0  0  0  0  0  0  0  0  0  0
   -4.9110   22.8057  -29.2170 C   0  0  0  0  0  0  0  0  0  0  0  0
   -2.4848   22.6990  -27.2502 C   0  0  0  0  0  0  0  0  0  0  0  0
   -2.0081   23.2615  -28.4311 C   0  0  0  0  0  0  0  0  0  0  0  0
   -0.6740   23.3611  -28.7067 C   0  0  0  0  0  0  0  0  0  0  0  0
    0.2697   22.8966  -27.7949 C   0  0  0  0  0  0  0  0  0  0  0  0
   -0.1782   22.3358  -26.6325 C   0  0  0  0  0  0  0  0  0  0  0  0
   -1.5387   22.2444  -26.3796 C   0  0  0  0  0  0  0  0  0  0  0  0
 16 17  1  0  0  0
 17 15  1  0  0  0
 15  9  1  0  0  0
  9 10  2  0  0  0
 10 11  1  0  0  0
 11 12  2  0  0  0
 12  1  1  0  0  0
  1  2  1  0  0  0
  1  3  1  0  0  0
  3  4  1  0  0  0
  4  5  1  0  0  0
  5 18  1  0  0  0
 18 19  1  0  0  0
 19 20  2  0  0  0
 20 21  1  0  0  0
 21 22  2  0  0  0
 22 23  1  0  0  0
 23 24  2  0  0  0
 18 25  1  0  0  0
 25 26  2  0  0  0
 26 27  1  0  0  0
 27 28  2  0  0  0
 28 29  1  0  0  0
 29 30  2  0  0  0
  5  6  1  0  0  0
  6  7  1  0  0  0
 12 13  1  0  0  0
 13 14  2  0  0  0
 14  9  1  0  0  0
  7  1  1  0  0  0
 24 19  1  0  0  0
 30 25  1  0  0  0
  2  8  1  0  0  0
M  END
> <minimizedAffinity>
-8.41943

> <CNNscore>
0.1496914476

> <CNNaffinity>
5.8419380188

> <CNN_VS>
0.8744881749

> <CNNaffinity_variance>
0.1557503343

$$$$
[H]N=C(c1c([H])c([H])c([H])c(Oc2nc(Oc3c([H])c([H])c([H])c(N([H])C(=O)C([H])([H])[H])c3[H])c(F)c(C([H])([H])[H])c2F)c1[H])N([H])[H]


 34 36  0  0  0  0  0  0  0  0999 V2000
   -2.9505   22.2331  -25.3980 C   0  0  0  0  0  0  0  0  0  0  0  0
   -2.4885   22.4310  -24.1396 N   0  0  0  0  0  0  0  0  0  0  0  0
   -1.2002   22.5709  -23.8179 C   0  0  0  0  0  0  0  0  0  0  0  0
   -0.2607   22.5124  -24.8265 C   0  0  0  0  0  0  0  0  0  0  0  0
    1.0613   22.6533  -24.5188 F   0  0  0  0  0  0  0  0  0  0  0  0
   -0.6490   22.3141  -26.1314 C   0  0  0  0  0  0  0  0  0  0  0  0
    0.3431   22.2476  -27.2333 C   0  0  0  0  0  0  0  0  0  0  0  0
   -1.9948   22.1780  -26.3890 C   0  0  0  0  0  0  0  0  0  0  0  0
   -2.3292   21.9824  -27.6999 F   0  0  0  0  0  0  0  0  0  0  0  0
   -4.2819   22.0988  -25.6504 O   0  0  0  0  0  0  0  0  0  0  0  0
   -5.8625   24.9603  -27.3183 C   0  0  0  0  0  0  0  0  0  0  0  0
   -6.9165   25.1364  -26.4559 C   0  0  0  0  0  0  0  0  0  0  0  0
   -7.1329   24.3505  -25.3416 C   0  0  0  0  0  0  0  0  0  0  0  0
   -6.2728   23.3346  -25.0514 C   0  0  0  0  0  0  0  0  0  0  0  0
   -5.1981   23.1071  -25.8765 C   0  0  0  0  0  0  0  0  0  0  0  0
   -5.0085   23.9035  -26.9755 C   0  0  0  0  0  0  0  0  0  0  0  0
   -5.3625   26.4198  -30.8602 C   0  0  0  0  0  0  0  0  0  0  0  0
   -5.7237   25.4199  -29.8021 C   0  0  0  0  0  0  0  0  0  0  0  0
   -6.1366   24.3277  -30.2085 O   0  0  0  0  0  0  0  0  0  0  0  0
   -5.5870   25.7435  -28.4612 N   0  0  0  0  0  0  0  0  0  0  0  0
   -5.2132   26.7307  -28.2259 H   0  0  0  0  0  0  0  0  0  0  0  0
   -0.8283   22.7711  -22.4889 O   0  0  0  0  0  0  0  0  0  0  0  0
   -0.5684   21.7225  -21.6281 C   0  0  0  0  0  0  0  0  0  0  0  0
    0.5095   20.8616  -21.7838 C   0  0  0  0  0  0  0  0  0  0  0  0
    0.7258   19.8332  -20.9003 C   0  0  0  0  0  0  0  0  0  0  0  0
   -0.1360   19.6258  -19.8188 C   0  0  0  0  0  0  0  0  0  0  0  0
   -1.2020   20.4573  -19.6438 C   0  0  0  0  0  0  0  0  0  0  0  0
   -1.4008   21.5047  -20.5649 C   0  0  0  0  0  0  0  0  0  0  0  0
   -2.1336   20.2935  -18.5382 C   0  0  0  0  0  0  0  0  0  0  0  0
   -3.3351   19.9444  -18.7248 N   0  0  0  0  0  0  0  0  0  0  0  0
   -1.6880   20.5297  -17.2143 N   0  0  0  0  0  0  0  0  0  0  0  0
   -3.7301   19.7564  -19.6451 H   0  0  0  0  0  0  0  0  0  0  0  0
   -2.1796   21.2370  -16.6440 H   0  0  0  0  0  0  0  0  0  0  0  0
   -0.8858   19.9981  -16.8382 H   0  0  0  0  0  0  0  0  0  0  0  0
 17 18  1  0  0  0
 18 19  2  0  0  0
 18 20  1  0  0  0
 20 11  1  0  0  0
 11 12  2  0  0  0
 12 13  1  0  0  0
 13 14  2  0  0  0
 14 15  1  0  0  0
 15 10  1  0  0  0
 10  1  1  0  0  0
  1  2  2  0  0  0
  2  3  1  0  0  0
  3 22  1  0  0  0
 22 23  1  0  0  0
 23 24  2  0  0  0
 24 25  1  0  0  0
 25 26  2  0  0  0
 26 27  1  0  0  0
 27 29  1  0  0  0
 29 30  2  0  0  0
 29 31  1  0  0  0
 27 28  2  0  0  0
  3  4  2  0  0  0
  4  5  1  0  0  0
  4  6  1  0  0  0
  6  7  1  0  0  0
  6  8  2  0  0  0
  8  9  1  0  0  0
 15 16  2  0  0  0
 16 11  1  0  0  0
  8  1  1  0  0  0
 28 23  1  0  0  0
 20 21  1  0  0  0
 30 32  1  0  0  0
 31 33  1  0  0  0
 31 34  1  0  0  0
M  END
> <minimizedAffinity>
-8.46318

> <CNNscore>
0.2549507916

> <CNNaffinity>
6.2190332413

> <CNN_VS>
1.5855474472

> <CNNaffinity_variance>
0.4162083268

$$$$
[H]N=C(c1c([H])c([H])c([H])c(Oc2nc(Oc3c([H])c([H])c([H])c(N([H])C(=O)C([H])([H])[H])c3[H])c(F)c(C([H])([H])[H])c2F)c1[H])N([H])[H]


 34 36  0  0  0  0  0  0  0  0999 V2000
   -0.9882   22.1478  -25.5511 C   0  0  0  0  0  0  0  0  0  0  0  0
   -2.0728   21.9110  -24.7742 N   0  0  0  0  0  0  0  0  0  0  0  0
   -3.3363   22.1212  -25.1512 C   0  0  0  0  0  0  0  0  0  0  0  0
   -3.5709   22.6138  -26.4184 C   0  0  0  0  0  0  0  0  0  0  0  0
   -4.8551   22.8354  -26.8232 F   0  0  0  0  0  0  0  0  0  0  0  0
   -2.5226   22.8804  -27.2687 C   0  0  0  0  0  0  0  0  0  0  0  0
   -2.7500   23.4106  -28.6361 C   0  0  0  0  0  0  0  0  0  0  0  0
   -1.2460   22.6394  -26.8121 C   0  0  0  0  0  0  0  0  0  0  0  0
   -0.2399   22.9207  -27.6935 F   0  0  0  0  0  0  0  0  0  0  0  0
    0.2734   21.9088  -25.0975 O   0  0  0  0  0  0  0  0  0  0  0  0
   -0.0407   21.3553  -21.4831 C   0  0  0  0  0  0  0  0  0  0  0  0
    1.2464   20.9484  -21.2312 C   0  0  0  0  0  0  0  0  0  0  0  0
    2.2210   20.8469  -22.2039 C   0  0  0  0  0  0  0  0  0  0  0  0
    1.9239   21.1597  -23.4961 C   0  0  0  0  0  0  0  0  0  0  0  0
    0.6526   21.5735  -23.8126 C   0  0  0  0  0  0  0  0  0  0  0  0
   -0.2942   21.6648  -22.8261 C   0  0  0  0  0  0  0  0  0  0  0  0
   -2.5618   22.5086  -18.7926 C   0  0  0  0  0  0  0  0  0  0  0  0
   -1.4216   22.5943  -19.7634 C   0  0  0  0  0  0  0  0  0  0  0  0
   -0.8452   23.6863  -19.8255 O   0  0  0  0  0  0  0  0  0  0  0  0
   -1.0697   21.4908  -20.5247 N   0  0  0  0  0  0  0  0  0  0  0  0
   -1.6464   20.5870  -20.3825 H   0  0  0  0  0  0  0  0  0  0  0  0
   -4.3840   21.8443  -24.2736 O   0  0  0  0  0  0  0  0  0  0  0  0
   -4.8590   22.7767  -23.3719 C   0  0  0  0  0  0  0  0  0  0  0  0
   -4.4151   22.8579  -22.0590 C   0  0  0  0  0  0  0  0  0  0  0  0
   -4.9184   23.8036  -21.2002 C   0  0  0  0  0  0  0  0  0  0  0  0
   -5.8931   24.7109  -21.6267 C   0  0  0  0  0  0  0  0  0  0  0  0
   -6.3458   24.6520  -22.9112 C   0  0  0  0  0  0  0  0  0  0  0  0
   -5.8125   23.6719  -23.7716 C   0  0  0  0  0  0  0  0  0  0  0  0
   -7.3578   25.5683  -23.4143 C   0  0  0  0  0  0  0  0  0  0  0  0
   -7.1592   26.2844  -24.4380 N   0  0  0  0  0  0  0  0  0  0  0  0
   -8.6019   25.6648  -22.7435 N   0  0  0  0  0  0  0  0  0  0  0  0
   -6.2927   26.2719  -24.9741 H   0  0  0  0  0  0  0  0  0  0  0  0
   -8.9043   26.5867  -22.3889 H   0  0  0  0  0  0  0  0  0  0  0  0
   -9.1861   24.8218  -22.6177 H   0  0  0  0  0  0  0  0  0  0  0  0
 17 18  1  0  0  0
 18 19  2  0  0  0
 18 20  1  0  0  0
 20 11  1  0  0  0
 11 12  2  0  0  0
 12 13  1  0  0  0
 13 14  2  0  0  0
 14 15  1  0  0  0
 15 10  1  0  0  0
 10  1  1  0  0  0
  1  2  2  0  0  0
  2  3  1  0  0  0
  3 22  1  0  0  0
 22 23  1  0  0  0
 23 24  2  0  0  0
 24 25  1  0  0  0
 25 26  2  0  0  0
 26 27  1  0  0  0
 27 29  1  0  0  0
 29 30  2  0  0  0
 29 31  1  0  0  0
 27 28  2  0  0  0
  3  4  2  0  0  0
  4  5  1  0  0  0
  4  6  1  0  0  0
  6  7  1  0  0  0
  6  8  2  0  0  0
  8  9  1  0  0  0
 15 16  2  0  0  0
 16 11  1  0  0  0
  8  1  1  0  0  0
 28 23  1  0  0  0
 20 21  1  0  0  0
 30 32  1  0  0  0
 31 33  1  0  0  0
 31 34  1  0  0  0
M  END
> <minimizedAffinity>
-8.46028

> <CNNscore>
0.2438160628

> <CNNaffinity>
6.4086813927

> <CNN_VS>
1.5625394583

> <CNNaffinity_variance>
0.3635066152

$$$$
[H]N=C(c1c([H])c([H])c([H])c(Oc2nc(Oc3c([H])c([H])c([H])c(N([H])C(=O)C([H])([H])[H])c3[H])c(F)c(C([H])([H])[H])c2F)c1[H])N([H])[H]


 34 36  0  0  0  0  0  0  0  0999 V2000
   -3.2474   23.0549  -28.0243 C   0  0  0  0  0  0  0  0  0  0  0  0
   -4.4538   22.9938  -27.4102 N   0  0  0  0  0  0  0  0  0  0  0  0
   -5.4721   23.8220  -27.6550 C   0  0  0  0  0  0  0  0  0  0  0  0
   -5.3000   24.8151  -28.5969 C   0  0  0  0  0  0  0  0  0  0  0  0
   -6.3287   25.6718  -28.8619 F   0  0  0  0  0  0  0  0  0  0  0  0
   -4.1041   24.9440  -29.2648 C   0  0  0  0  0  0  0  0  0  0  0  0
   -3.8953   26.0042  -30.2821 C   0  0  0  0  0  0  0  0  0  0  0  0
   -3.0979   24.0543  -28.9609 C   0  0  0  0  0  0  0  0  0  0  0  0
   -1.9301   24.2242  -29.6505 F   0  0  0  0  0  0  0  0  0  0  0  0
   -2.2538   22.1741  -27.7221 O   0  0  0  0  0  0  0  0  0  0  0  0
   -1.5021   22.0257  -24.1330 C   0  0  0  0  0  0  0  0  0  0  0  0
   -0.1316   22.0460  -24.2154 C   0  0  0  0  0  0  0  0  0  0  0  0
    0.5625   22.1068  -25.4074 C   0  0  0  0  0  0  0  0  0  0  0  0
   -0.1184   22.1501  -26.5866 C   0  0  0  0  0  0  0  0  0  0  0  0
   -1.4921   22.1324  -26.5708 C   0  0  0  0  0  0  0  0  0  0  0  0
   -2.1541   22.0718  -25.3725 C   0  0  0  0  0  0  0  0  0  0  0  0
   -3.2628   22.6680  -20.7548 C   0  0  0  0  0  0  0  0  0  0  0  0
   -2.3967   22.9375  -21.9494 C   0  0  0  0  0  0  0  0  0  0  0  0
   -1.8376   24.0398  -21.9745 O   0  0  0  0  0  0  0  0  0  0  0  0
   -2.2602   21.9795  -22.9419 N   0  0  0  0  0  0  0  0  0  0  0  0
   -2.7971   21.0500  -22.8098 H   0  0  0  0  0  0  0  0  0  0  0  0
   -6.6758   23.6738  -26.9666 O   0  0  0  0  0  0  0  0  0  0  0  0
   -6.7361   23.6107  -25.5880 C   0  0  0  0  0  0  0  0  0  0  0  0
   -6.1659   22.5828  -24.8494 C   0  0  0  0  0  0  0  0  0  0  0  0
   -6.2526   22.5649  -23.4793 C   0  0  0  0  0  0  0  0  0  0  0  0
   -6.9191   23.5836  -22.7912 C   0  0  0  0  0  0  0  0  0  0  0  0
   -7.4877   24.6043  -23.4935 C   0  0  0  0  0  0  0  0  0  0  0  0
   -7.3839   24.5983  -24.8985 C   0  0  0  0  0  0  0  0  0  0  0  0
   -8.1937   25.6929  -22.8352 C   0  0  0  0  0  0  0  0  0  0  0  0
   -7.6062   26.4879  -22.0457 N   0  0  0  0  0  0  0  0  0  0  0  0
   -9.5772   25.8725  -23.0818 N   0  0  0  0  0  0  0  0  0  0  0  0
   -6.6151   26.4246  -21.8178 H   0  0  0  0  0  0  0  0  0  0  0  0
  -10.2299   25.8583  -22.2812 H   0  0  0  0  0  0  0  0  0  0  0  0
   -9.9141   26.0139  -24.0483 H   0  0  0  0  0  0  0  0  0  0  0  0
 17 18  1  0  0  0
 18 19  2  0  0  0
 18 20  1  0  0  0
 20 11  1  0  0  0
 11 12  2  0  0  0
 12 13  1  0  0  0
 13 14  2  0  0  0
 14 15  1  0  0  0
 15 10  1  0  0  0
 10  1  1  0  0  0
  1  2  2  0  0  0
  2  3  1  0  0  0
  3 22  1  0  0  0
 22 23  1  0  0  0
 23 24  2  0  0  0
 24 25  1  0  0  0
 25 26  2  0  0  0
 26 27  1  0  0  0
 27 29  1  0  0  0
 29 30  2  0  0  0
 29 31  1  0  0  0
 27 28  2  0  0  0
  3  4  2  0  0  0
  4  5  1  0  0  0
  4  6  1  0  0  0
  6  7  1  0  0  0
  6  8  2  0  0  0
  8  9  1  0  0  0
 15 16  2  0  0  0
 16 11  1  0  0  0
  8  1  1  0  0  0
 28 23  1  0  0  0
 20 21  1  0  0  0
 30 32  1  0  0  0
 31 33  1  0  0  0
 31 34  1  0  0  0
M  END
> <minimizedAffinity>
-9.88429

> <CNNscore>
0.2153031081

> <CNNaffinity>
6.2567415237

> <CNN_VS>
1.3470958471

> <CNNaffinity_variance>
0.7846066356

$$$$
[H]N=C(c1c([H])c([H])c([H])c(Oc2nc(Oc3c([H])c([H])c([H])c(N([H])C(=O)C([H])([H])[H])c3[H])c(F)c(C([H])([H])[H])c2F)c1[H])N([H])[H]


 34 36  0  0  0  0  0  0  0  0999 V2000
   -5.0532   24.3734  -26.5882 C   0  0  0  0  0  0  0  0  0  0  0  0
   -4.1017   23.4086  -26.5879 N   0  0  0  0  0  0  0  0  0  0  0  0
   -3.2264   23.2064  -27.5756 C   0  0  0  0  0  0  0  0  0  0  0  0
   -3.2813   24.0294  -28.6815 C   0  0  0  0  0  0  0  0  0  0  0  0
   -2.3954   23.8395  -29.7019 F   0  0  0  0  0  0  0  0  0  0  0  0
   -4.2191   25.0333  -28.7585 C   0  0  0  0  0  0  0  0  0  0  0  0
   -4.2976   25.9312  -29.9376 C   0  0  0  0  0  0  0  0  0  0  0  0
   -5.0898   25.1833  -27.7023 C   0  0  0  0  0  0  0  0  0  0  0  0
   -6.0021   26.1934  -27.8269 F   0  0  0  0  0  0  0  0  0  0  0  0
   -5.9133   24.5198  -25.5427 O   0  0  0  0  0  0  0  0  0  0  0  0
   -7.4128   23.1366  -22.4919 C   0  0  0  0  0  0  0  0  0  0  0  0
   -6.9203   21.8586  -22.5895 C   0  0  0  0  0  0  0  0  0  0  0  0
   -6.1107   21.4273  -23.6214 C   0  0  0  0  0  0  0  0  0  0  0  0
   -5.7615   22.2912  -24.6153 C   0  0  0  0  0  0  0  0  0  0  0  0
   -6.2228   23.5847  -24.5746 C   0  0  0  0  0  0  0  0  0  0  0  0
   -7.0247   23.9846  -23.5379 C   0  0  0  0  0  0  0  0  0  0  0  0
   -9.8657   23.6883  -19.5587 C   0  0  0  0  0  0  0  0  0  0  0  0
   -9.0821   22.9466  -20.6006 C   0  0  0  0  0  0  0  0  0  0  0  0
   -9.2520   21.7225  -20.6355 O   0  0  0  0  0  0  0  0  0  0  0  0
   -8.2303   23.6327  -21.4521 N   0  0  0  0  0  0  0  0  0  0  0  0
   -8.1650   24.7051  -21.3284 H   0  0  0  0  0  0  0  0  0  0  0  0
   -2.2841   22.1831  -27.4773 O   0  0  0  0  0  0  0  0  0  0  0  0
   -1.3436   22.1388  -26.4665 C   0  0  0  0  0  0  0  0  0  0  0  0
    0.0122   22.3457  -26.6813 C   0  0  0  0  0  0  0  0  0  0  0  0
    0.9085   22.2916  -25.6427 C   0  0  0  0  0  0  0  0  0  0  0  0
    0.4778   22.0260  -24.3391 C   0  0  0  0  0  0  0  0  0  0  0  0
   -0.8485   21.8192  -24.1018 C   0  0  0  0  0  0  0  0  0  0  0  0
   -1.7468   21.8803  -25.1854 C   0  0  0  0  0  0  0  0  0  0  0  0
   -1.3580   21.5393  -22.7680 C   0  0  0  0  0  0  0  0  0  0  0  0
   -0.6136   21.5862  -21.7463 N   0  0  0  0  0  0  0  0  0  0  0  0
   -2.7248   21.2049  -22.6031 N   0  0  0  0  0  0  0  0  0  0  0  0
    0.3779   21.8187  -21.7826 H   0  0  0  0  0  0  0  0  0  0  0  0
   -2.9652   20.3060  -22.1544 H   0  0  0  0  0  0  0  0  0  0  0  0
   -3.4575   21.8563  -22.9296 H   0  0  0  0  0  0  0  0  0  0  0  0
 17 18  1  0  0  0
 18 19  2  0  0  0
 18 20  1  0  0  0
 20 11  1  0  0  0
 11 12  2  0  0  0
 12 13  1  0  0  0
 13 14  2  0  0  0
 14 15  1  0  0  0
 15 10  1  0  0  0
 10  1  1  0  0  0
  1  2  2  0  0  0
  2  3  1  0  0  0
  3 22  1  0  0  0
 22 23  1  0  0  0
 23 24  2  0  0  0
 24 25  1  0  0  0
 25 26  2  0  0  0
 26 27  1  0  0  0
 27 29  1  0  0  0
 29 30  2  0  0  0
 29 31  1  0  0  0
 27 28  2  0  0  0
  3  4  2  0  0  0
  4  5  1  0  0  0
  4  6  1  0  0  0
  6  7  1  0  0  0
  6  8  2  0  0  0
  8  9  1  0  0  0
 15 16  2  0  0  0
 16 11  1  0  0  0
  8  1  1  0  0  0
 28 23  1  0  0  0
 20 21  1  0  0  0
 30 32  1  0  0  0
 31 33  1  0  0  0
 31 34  1  0  0  0
M  END
> <minimizedAffinity>
-9.01344

> <CNNscore>
0.1826788634

> <CNNaffinity>
6.3729753494

> <CNN_VS>
1.1642079353

> <CNNaffinity_variance>
0.1999123842

$$$$
[H]N=C(c1c([H])c([H])c([H])c(Oc2nc(Oc3c([H])c([H])c([H])c(N([H])C(=O)C([H])([H])[H])c3[H])c(F)c(C([H])([H])[H])c2F)c1[H])N([H])[H]


 34 36  0  0  0  0  0  0  0  0999 V2000
   -3.5203   23.0233  -27.8792 C   0  0  0  0  0  0  0  0  0  0  0  0
   -4.7348   23.0567  -27.2791 N   0  0  0  0  0  0  0  0  0  0  0  0
   -5.6911   23.9478  -27.5516 C   0  0  0  0  0  0  0  0  0  0  0  0
   -5.4408   24.9085  -28.5095 C   0  0  0  0  0  0  0  0  0  0  0  0
   -6.4052   25.8283  -28.8030 F   0  0  0  0  0  0  0  0  0  0  0  0
   -4.2315   24.9423  -29.1649 C   0  0  0  0  0  0  0  0  0  0  0  0
   -3.9392   25.9660  -30.1989 C   0  0  0  0  0  0  0  0  0  0  0  0
   -3.2923   23.9919  -28.8322 C   0  0  0  0  0  0  0  0  0  0  0  0
   -2.1080   24.0681  -29.5104 F   0  0  0  0  0  0  0  0  0  0  0  0
   -2.5930   22.0825  -27.5486 O   0  0  0  0  0  0  0  0  0  0  0  0
   -0.8998   22.0749  -24.2926 C   0  0  0  0  0  0  0  0  0  0  0  0
    0.3606   22.4100  -24.7225 C   0  0  0  0  0  0  0  0  0  0  0  0
    0.6816   22.6404  -26.0454 C   0  0  0  0  0  0  0  0  0  0  0  0
   -0.2808   22.5379  -27.0041 C   0  0  0  0  0  0  0  0  0  0  0  0
   -1.5624   22.2053  -26.6374 C   0  0  0  0  0  0  0  0  0  0  0  0
   -1.8518   21.9825  -25.3167 C   0  0  0  0  0  0  0  0  0  0  0  0
   -1.9606   22.2809  -20.5835 C   0  0  0  0  0  0  0  0  0  0  0  0
   -1.5720   22.7580  -21.9514 C   0  0  0  0  0  0  0  0  0  0  0  0
   -1.5310   23.9841  -22.1051 O   0  0  0  0  0  0  0  0  0  0  0  0
   -1.2845   21.8440  -22.9530 N   0  0  0  0  0  0  0  0  0  0  0  0
   -1.3520   20.7947  -22.6999 H   0  0  0  0  0  0  0  0  0  0  0  0
   -6.9096   23.8956  -26.8755 O   0  0  0  0  0  0  0  0  0  0  0  0
   -7.0584   24.3600  -25.5831 C   0  0  0  0  0  0  0  0  0  0  0  0
   -8.2848   24.7234  -25.0434 C   0  0  0  0  0  0  0  0  0  0  0  0
   -8.3812   25.1794  -23.7520 C   0  0  0  0  0  0  0  0  0  0  0  0
   -7.2442   25.2901  -22.9455 C   0  0  0  0  0  0  0  0  0  0  0  0
   -6.0280   24.9397  -23.4520 C   0  0  0  0  0  0  0  0  0  0  0  0
   -5.9573   24.4748  -24.7801 C   0  0  0  0  0  0  0  0  0  0  0  0
   -4.8092   25.0319  -22.6628 C   0  0  0  0  0  0  0  0  0  0  0  0
   -4.7111   24.4941  -21.5220 N   0  0  0  0  0  0  0  0  0  0  0  0
   -3.6984   25.7420  -23.1816 N   0  0  0  0  0  0  0  0  0  0  0  0
   -5.4641   23.9676  -21.0815 H   0  0  0  0  0  0  0  0  0  0  0  0
   -3.3139   26.5299  -22.6352 H   0  0  0  0  0  0  0  0  0  0  0  0
   -3.2900   25.4672  -24.0901 H   0  0  0  0  0  0  0  0  0  0  0  0
 17 18  1  0  0  0
 18 19  2  0  0  0
 18 20  1  0  0  0
 20 11  1  0  0  0
 11 12  2  0  0  0
 12 13  1  0  0  0
 13 14  2  0  0  0
 14 15  1  0  0  0
 15 10  1  0  0  0
 10  1  1  0  0  0
  1  2  2  0  0  0
  2  3  1  0  0  0
  3 22  1  0  0  0
 22 23  1  0  0  0
 23 24  2  0  0  0
 24 25  1  0  0  0
 25 26  2  0  0  0
 26 27  1  0  0  0
 27 29  1  0  0  0
 29 30  2  0  0  0
 29 31  1  0  0  0
 27 28  2  0  0  0
  3  4  2  0  0  0
  4  5  1  0  0  0
  4  6  1  0  0  0
  6  7  1  0  0  0
  6  8  2  0  0  0
  8  9  1  0  0  0
 15 16  2  0  0  0
 16 11  1  0  0  0
  8  1  1  0  0  0
 28 23  1  0  0  0
 20 21  1  0  0  0
 30 32  1  0  0  0
 31 33  1  0  0  0
 31 34  1  0  0  0
M  END
> <minimizedAffinity>
-9.55652

> <CNNscore>
0.1818708479

> <CNNaffinity>
6.1995668411

> <CNN_VS>
1.1275204420

> <CNNaffinity_variance>
0.7097992897

$$$$
[H]N=C(c1c([H])c([H])c([H])c(Oc2nc(Oc3c([H])c([H])c([H])c(N([H])C(=O)C([H])([H])[H])c3[H])c(F)c(C([H])([H])[H])c2F)c1[H])N([H])[H]


 34 36  0  0  0  0  0  0  0  0999 V2000
   -2.6958   22.1086  -24.0017 C   0  0  0  0  0  0  0  0  0  0  0  0
   -2.0233   22.6561  -22.9605 N   0  0  0  0  0  0  0  0  0  0  0  0
   -2.6007   23.2325  -21.9036 C   0  0  0  0  0  0  0  0  0  0  0  0
   -3.9785   23.2821  -21.8529 C   0  0  0  0  0  0  0  0  0  0  0  0
   -4.5882   23.8668  -20.7812 F   0  0  0  0  0  0  0  0  0  0  0  0
   -4.7340   22.7483  -22.8714 C   0  0  0  0  0  0  0  0  0  0  0  0
   -6.2172   22.7897  -22.8391 C   0  0  0  0  0  0  0  0  0  0  0  0
   -4.0704   22.1696  -23.9300 C   0  0  0  0  0  0  0  0  0  0  0  0
   -4.8651   21.6546  -24.9158 F   0  0  0  0  0  0  0  0  0  0  0  0
   -2.0375   21.5369  -25.0477 O   0  0  0  0  0  0  0  0  0  0  0  0
   -2.4676   23.1023  -28.3391 C   0  0  0  0  0  0  0  0  0  0  0  0
   -1.1435   23.3172  -28.6322 C   0  0  0  0  0  0  0  0  0  0  0  0
   -0.1068   22.9677  -27.7899 C   0  0  0  0  0  0  0  0  0  0  0  0
   -0.3765   22.3752  -26.5931 C   0  0  0  0  0  0  0  0  0  0  0  0
   -1.6825   22.1335  -26.2416 C   0  0  0  0  0  0  0  0  0  0  0  0
   -2.6907   22.4911  -27.0980 C   0  0  0  0  0  0  0  0  0  0  0  0
   -5.5189   24.6650  -30.1204 C   0  0  0  0  0  0  0  0  0  0  0  0
   -4.4026   24.5283  -29.1279 C   0  0  0  0  0  0  0  0  0  0  0  0
   -4.2974   25.4431  -28.3029 O   0  0  0  0  0  0  0  0  0  0  0  0
   -3.5635   23.4258  -29.1698 N   0  0  0  0  0  0  0  0  0  0  0  0
   -3.7543   22.6875  -29.9366 H   0  0  0  0  0  0  0  0  0  0  0  0
   -1.8161   23.7674  -20.8824 O   0  0  0  0  0  0  0  0  0  0  0  0
   -1.3284   22.9974  -19.8444 C   0  0  0  0  0  0  0  0  0  0  0  0
   -0.1751   23.3153  -19.1400 C   0  0  0  0  0  0  0  0  0  0  0  0
    0.2693   22.5175  -18.1149 C   0  0  0  0  0  0  0  0  0  0  0  0
   -0.4297   21.3616  -17.7533 C   0  0  0  0  0  0  0  0  0  0  0  0
   -1.5651   21.0272  -18.4295 C   0  0  0  0  0  0  0  0  0  0  0  0
   -1.9990   21.8634  -19.4772 C   0  0  0  0  0  0  0  0  0  0  0  0
   -2.3361   19.8381  -18.1002 C   0  0  0  0  0  0  0  0  0  0  0  0
   -1.9300   18.9944  -17.2496 N   0  0  0  0  0  0  0  0  0  0  0  0
   -3.5768   19.6142  -18.7466 N   0  0  0  0  0  0  0  0  0  0  0  0
   -1.0503   19.0845  -16.7433 H   0  0  0  0  0  0  0  0  0  0  0  0
   -3.7098   18.7364  -19.2748 H   0  0  0  0  0  0  0  0  0  0  0  0
   -4.3259   20.3230  -18.6834 H   0  0  0  0  0  0  0  0  0  0  0  0
 17 18  1  0  0  0
 18 19  2  0  0  0
 18 20  1  0  0  0
 20 11  1  0  0  0
 11 12  2  0  0  0
 12 13  1  0  0  0
 13 14  2  0  0  0
 14 15  1  0  0  0
 15 10  1  0  0  0
 10  1  1  0  0  0
  1  2  2  0  0  0
  2  3  1  0  0  0
  3 22  1  0  0  0
 22 23  1  0  0  0
 23 24  2  0  0  0
 24 25  1  0  0  0
 25 26  2  0  0  0
 26 27  1  0  0  0
 27 29  1  0  0  0
 29 30  2  0  0  0
 29 31  1  0  0  0
 27 28  2  0  0  0
  3  4  2  0  0  0
  4  5  1  0  0  0
  4  6  1  0  0  0
  6  7  1  0  0  0
  6  8  2  0  0  0
  8  9  1  0  0  0
 15 16  2  0  0  0
 16 11  1  0  0  0
  8  1  1  0  0  0
 28 23  1  0  0  0
 20 21  1  0  0  0
 30 32  1  0  0  0
 31 33  1  0  0  0
 31 34  1  0  0  0
M  END
> <minimizedAffinity>
-7.80955

> <CNNscore>
0.1699167937

> <CNNaffinity>
5.9904222488

> <CNN_VS>
1.0178732872

> <CNNaffinity_variance>
0.2760183811

$$$$
[H]N=C(c1c([H])c([H])c([H])c(Oc2nc(Oc3c([H])c([H])c([H])c(N([H])C(=O)C([H])([H])[H])c3[H])c(F)c(C([H])([H])[H])c2F)c1[H])N([H])[H]


 34 36  0  0  0  0  0  0  0  0999 V2000
   -4.6882   24.9103  -26.7754 C   0  0  0  0  0  0  0  0  0  0  0  0
   -3.7709   23.9217  -26.6440 N   0  0  0  0  0  0  0  0  0  0  0  0
   -3.4570   23.0461  -27.6019 C   0  0  0  0  0  0  0  0  0  0  0  0
   -4.1031   23.1415  -28.8171 C   0  0  0  0  0  0  0  0  0  0  0  0
   -3.7966   22.2564  -29.8095 F   0  0  0  0  0  0  0  0  0  0  0  0
   -5.0482   24.1184  -29.0303 C   0  0  0  0  0  0  0  0  0  0  0  0
   -5.7564   24.2409  -30.3288 C   0  0  0  0  0  0  0  0  0  0  0  0
   -5.3210   24.9867  -27.9970 C   0  0  0  0  0  0  0  0  0  0  0  0
   -6.2670   25.9381  -28.2581 F   0  0  0  0  0  0  0  0  0  0  0  0
   -4.9564   25.7678  -25.7521 O   0  0  0  0  0  0  0  0  0  0  0  0
   -7.6547   25.1882  -23.3331 C   0  0  0  0  0  0  0  0  0  0  0  0
   -6.8806   24.9034  -22.2353 C   0  0  0  0  0  0  0  0  0  0  0  0
   -5.5001   24.8933  -22.2545 C   0  0  0  0  0  0  0  0  0  0  0  0
   -4.8362   25.1768  -23.4099 C   0  0  0  0  0  0  0  0  0  0  0  0
   -5.5548   25.4697  -24.5437 C   0  0  0  0  0  0  0  0  0  0  0  0
   -6.9242   25.4723  -24.4947 C   0  0  0  0  0  0  0  0  0  0  0  0
  -11.4202   25.9043  -22.8502 C   0  0  0  0  0  0  0  0  0  0  0  0
   -9.9388   26.0421  -22.6598 C   0  0  0  0  0  0  0  0  0  0  0  0
   -9.5752   26.9076  -21.8552 O   0  0  0  0  0  0  0  0  0  0  0  0
   -9.0665   25.2271  -23.3642 N   0  0  0  0  0  0  0  0  0  0  0  0
   -9.5018   24.5034  -24.0398 H   0  0  0  0  0  0  0  0  0  0  0  0
   -2.4961   22.0637  -27.3648 O   0  0  0  0  0  0  0  0  0  0  0  0
   -1.6322   22.1192  -26.2884 C   0  0  0  0  0  0  0  0  0  0  0  0
   -0.3302   22.5916  -26.3834 C   0  0  0  0  0  0  0  0  0  0  0  0
    0.4906   22.6272  -25.2834 C   0  0  0  0  0  0  0  0  0  0  0  0
    0.0353   22.1874  -24.0365 C   0  0  0  0  0  0  0  0  0  0  0  0
   -1.2392   21.7189  -23.9168 C   0  0  0  0  0  0  0  0  0  0  0  0
   -2.0604   21.6933  -25.0613 C   0  0  0  0  0  0  0  0  0  0  0  0
   -1.7709   21.2480  -22.6469 C   0  0  0  0  0  0  0  0  0  0  0  0
   -1.0350   20.6931  -21.7804 N   0  0  0  0  0  0  0  0  0  0  0  0
   -3.1500   21.4134  -22.3677 N   0  0  0  0  0  0  0  0  0  0  0  0
   -0.0358   20.5384  -21.9066 H   0  0  0  0  0  0  0  0  0  0  0  0
   -3.7158   20.5773  -22.1488 H   0  0  0  0  0  0  0  0  0  0  0  0
   -3.5697   22.3574  -22.3859 H   0  0  0  0  0  0  0  0  0  0  0  0
 17 18  1  0  0  0
 18 19  2  0  0  0
 18 20  1  0  0  0
 20 11  1  0  0  0
 11 12  2  0  0  0
 12 13  1  0  0  0
 13 14  2  0  0  0
 14 15  1  0  0  0
 15 10  1  0  0  0
 10  1  1  0  0  0
  1  2  2  0  0  0
  2  3  1  0  0  0
  3 22  1  0  0  0
 22 23  1  0  0  0
 23 24  2  0  0  0
 24 25  1  0  0  0
 25 26  2  0  0  0
 26 27  1  0  0  0
 27 29  1  0  0  0
 29 30  2  0  0  0
 29 31  1  0  0  0
 27 28  2  0  0  0
  3  4  2  0  0  0
  4  5  1  0  0  0
  4  6  1  0  0  0
  6  7  1  0  0  0
  6  8  2  0  0  0
  8  9  1  0  0  0
 15 16  2  0  0  0
 16 11  1  0  0  0
  8  1  1  0  0  0
 28 23  1  0  0  0
 20 21  1  0  0  0
 30 32  1  0  0  0
 31 33  1  0  0  0
 31 34  1  0  0  0
M  END
> <minimizedAffinity>
-9.39543

> <CNNscore>
0.1552554816

> <CNNaffinity>
6.2856278419

> <CNN_VS>
0.9758781791

> <CNNaffinity_variance>
0.4496987760

$$$$
[H]N=C(c1c([H])c([H])c([H])c(Oc2nc(Oc3c([H])c([H])c([H])c(N([H])C(=O)C([H])([H])[H])c3[H])c(F)c(C([H])([H])[H])c2F)c1[H])N([H])[H]


 34 36  0  0  0  0  0  0  0  0999 V2000
   -1.8747   21.7028  -24.2150 C   0  0  0  0  0  0  0  0  0  0  0  0
   -3.0425   22.2052  -24.6840 N   0  0  0  0  0  0  0  0  0  0  0  0
   -3.1922   22.7917  -25.8741 C   0  0  0  0  0  0  0  0  0  0  0  0
   -2.0898   22.9015  -26.6962 C   0  0  0  0  0  0  0  0  0  0  0  0
   -2.2216   23.4974  -27.9167 F   0  0  0  0  0  0  0  0  0  0  0  0
   -0.8672   22.4161  -26.2928 C   0  0  0  0  0  0  0  0  0  0  0  0
    0.3329   22.5227  -27.1595 C   0  0  0  0  0  0  0  0  0  0  0  0
   -0.7872   21.8236  -25.0524 C   0  0  0  0  0  0  0  0  0  0  0  0
    0.4481   21.3583  -24.6978 F   0  0  0  0  0  0  0  0  0  0  0  0
   -1.7980   21.1173  -22.9879 O   0  0  0  0  0  0  0  0  0  0  0  0
    0.7337   21.3594  -20.3420 C   0  0  0  0  0  0  0  0  0  0  0  0
    0.2198   22.4429  -19.6730 C   0  0  0  0  0  0  0  0  0  0  0  0
   -0.9309   23.1030  -20.0555 C   0  0  0  0  0  0  0  0  0  0  0  0
   -1.6201   22.6831  -21.1532 C   0  0  0  0  0  0  0  0  0  0  0  0
   -1.1566   21.6037  -21.8657 C   0  0  0  0  0  0  0  0  0  0  0  0
   -0.0116   20.9680  -21.4623 C   0  0  0  0  0  0  0  0  0  0  0  0
    4.2697   19.8479  -19.9721 C   0  0  0  0  0  0  0  0  0  0  0  0
    3.1764   20.7231  -20.5092 C   0  0  0  0  0  0  0  0  0  0  0  0
    3.4989   21.4935  -21.4209 O   0  0  0  0  0  0  0  0  0  0  0  0
    1.8958   20.6398  -19.9852 N   0  0  0  0  0  0  0  0  0  0  0  0
    1.7321   19.9259  -19.1896 H   0  0  0  0  0  0  0  0  0  0  0  0
   -4.4403   23.2768  -26.2634 O   0  0  0  0  0  0  0  0  0  0  0  0
   -4.9109   24.5122  -25.8628 C   0  0  0  0  0  0  0  0  0  0  0  0
   -4.4241   25.7104  -26.3677 C   0  0  0  0  0  0  0  0  0  0  0  0
   -4.9252   26.9140  -25.9376 C   0  0  0  0  0  0  0  0  0  0  0  0
   -5.9409   26.9642  -24.9777 C   0  0  0  0  0  0  0  0  0  0  0  0
   -6.4361   25.8017  -24.4662 C   0  0  0  0  0  0  0  0  0  0  0  0
   -5.9040   24.5804  -24.9250 C   0  0  0  0  0  0  0  0  0  0  0  0
   -7.4927   25.7883  -23.4661 C   0  0  0  0  0  0  0  0  0  0  0  0
   -7.3289   26.2897  -22.3162 N   0  0  0  0  0  0  0  0  0  0  0  0
   -8.7416   25.1994  -23.7835 N   0  0  0  0  0  0  0  0  0  0  0  0
   -6.4618   26.7305  -22.0128 H   0  0  0  0  0  0  0  0  0  0  0  0
   -9.0916   24.4288  -23.1912 H   0  0  0  0  0  0  0  0  0  0  0  0
   -9.2820   25.5432  -24.5943 H   0  0  0  0  0  0  0  0  0  0  0  0
 17 18  1  0  0  0
 18 19  2  0  0  0
 18 20  1  0  0  0
 20 11  1  0  0  0
 11 12  2  0  0  0
 12 13  1  0  0  0
 13 14  2  0  0  0
 14 15  1  0  0  0
 15 10  1  0  0  0
 10  1  1  0  0  0
  1  2  2  0  0  0
  2  3  1  0  0  0
  3 22  1  0  0  0
 22 23  1  0  0  0
 23 24  2  0  0  0
 24 25  1  0  0  0
 25 26  2  0  0  0
 26 27  1  0  0  0
 27 29  1  0  0  0
 29 30  2  0  0  0
 29 31  1  0  0  0
 27 28  2  0  0  0
  3  4  2  0  0  0
  4  5  1  0  0  0
  4  6  1  0  0  0
  6  7  1  0  0  0
  6  8  2  0  0  0
  8  9  1  0  0  0
 15 16  2  0  0  0
 16 11  1  0  0  0
  8  1  1  0  0  0
 28 23  1  0  0  0
 20 21  1  0  0  0
 30 32  1  0  0  0
 31 33  1  0  0  0
 31 34  1  0  0  0
M  END
> <minimizedAffinity>
-8.75456

> <CNNscore>
0.1480669826

> <CNNaffinity>
5.9451684952

> <CNN_VS>
0.8802831769

> <CNNaffinity_variance>
0.3605050743

$$$$
[H]N=C(c1c([H])c([H])c([H])c(Oc2nc(Oc3c([H])c([H])c([H])c(N([H])C(=O)C([H])([H])[H])c3[H])c(F)c(C([H])([H])[H])c2F)c1[H])N([H])[H]


 34 36  0  0  0  0  0  0  0  0999 V2000
   -1.8097   22.1583  -25.0514 C   0  0  0  0  0  0  0  0  0  0  0  0
   -2.5135   22.4154  -23.9224 N   0  0  0  0  0  0  0  0  0  0  0  0
   -2.0072   22.3759  -22.6876 C   0  0  0  0  0  0  0  0  0  0  0  0
   -0.6750   22.0522  -22.5334 C   0  0  0  0  0  0  0  0  0  0  0  0
   -0.1380   22.0066  -21.2796 F   0  0  0  0  0  0  0  0  0  0  0  0
    0.1080   21.7774  -23.6308 C   0  0  0  0  0  0  0  0  0  0  0  0
    1.5433   21.4269  -23.4900 C   0  0  0  0  0  0  0  0  0  0  0  0
   -0.4817   21.8372  -24.8737 C   0  0  0  0  0  0  0  0  0  0  0  0
    0.3374   21.5555  -25.9310 F   0  0  0  0  0  0  0  0  0  0  0  0
   -2.3951   22.2180  -26.2795 O   0  0  0  0  0  0  0  0  0  0  0  0
   -5.0761   23.6964  -28.3032 C   0  0  0  0  0  0  0  0  0  0  0  0
   -6.0623   23.7105  -27.3478 C   0  0  0  0  0  0  0  0  0  0  0  0
   -5.8843   23.2523  -26.0576 C   0  0  0  0  0  0  0  0  0  0  0  0
   -4.6759   22.7513  -25.6770 C   0  0  0  0  0  0  0  0  0  0  0  0
   -3.6482   22.7099  -26.5878 C   0  0  0  0  0  0  0  0  0  0  0  0
   -3.8540   23.1719  -27.8614 C   0  0  0  0  0  0  0  0  0  0  0  0
   -5.5152   25.7261  -31.5608 C   0  0  0  0  0  0  0  0  0  0  0  0
   -5.4102   25.4567  -30.0890 C   0  0  0  0  0  0  0  0  0  0  0  0
   -5.5219   26.4413  -29.3497 O   0  0  0  0  0  0  0  0  0  0  0  0
   -5.2004   24.1659  -29.6297 N   0  0  0  0  0  0  0  0  0  0  0  0
   -5.1207   23.3833  -30.3719 H   0  0  0  0  0  0  0  0  0  0  0  0
   -2.8185   22.6579  -21.5890 O   0  0  0  0  0  0  0  0  0  0  0  0
   -4.1836   22.8351  -21.7043 C   0  0  0  0  0  0  0  0  0  0  0  0
   -5.1059   21.8400  -21.4101 C   0  0  0  0  0  0  0  0  0  0  0  0
   -6.4540   22.0652  -21.5403 C   0  0  0  0  0  0  0  0  0  0  0  0
   -6.9336   23.3052  -21.9737 C   0  0  0  0  0  0  0  0  0  0  0  0
   -6.0484   24.2989  -22.2690 C   0  0  0  0  0  0  0  0  0  0  0  0
   -4.6706   24.0412  -22.1267 C   0  0  0  0  0  0  0  0  0  0  0  0
   -6.4855   25.6100  -22.7238 C   0  0  0  0  0  0  0  0  0  0  0  0
   -7.3859   26.2601  -22.1179 N   0  0  0  0  0  0  0  0  0  0  0  0
   -5.8895   26.1793  -23.8761 N   0  0  0  0  0  0  0  0  0  0  0  0
   -7.8612   25.9191  -21.2836 H   0  0  0  0  0  0  0  0  0  0  0  0
   -6.4961   26.4437  -24.6694 H   0  0  0  0  0  0  0  0  0  0  0  0
   -4.8667   26.3221  -23.9099 H   0  0  0  0  0  0  0  0  0  0  0  0
 17 18  1  0  0  0
 18 19  2  0  0  0
 18 20  1  0  0  0
 20 11  1  0  0  0
 11 12  2  0  0  0
 12 13  1  0  0  0
 13 14  2  0  0  0
 14 15  1  0  0  0
 15 10  1  0  0  0
 10  1  1  0  0  0
  1  2  2  0  0  0
  2  3  1  0  0  0
  3 22  1  0  0  0
 22 23  1  0  0  0
 23 24  2  0  0  0
 24 25  1  0  0  0
 25 26  2  0  0  0
 26 27  1  0  0  0
 27 29  1  0  0  0
 29 30  2  0  0  0
 29 31  1  0  0  0
 27 28  2  0  0  0
  3  4  2  0  0  0
  4  5  1  0  0  0
  4  6  1  0  0  0
  6  7  1  0  0  0
  6  8  2  0  0  0
  8  9  1  0  0  0
 15 16  2  0  0  0
 16 11  1  0  0  0
  8  1  1  0  0  0
 28 23  1  0  0  0
 20 21  1  0  0  0
 30 32  1  0  0  0
 31 33  1  0  0  0
 31 34  1  0  0  0
M  END
> <minimizedAffinity>
-8.83168

> <CNNscore>
0.1456696987

> <CNNaffinity>
6.4949960709

> <CNN_VS>
0.9461241364

> <CNNaffinity_variance>
0.3114036620

$$$$
[H]c1c([H])c(C(N=[N+]=[N-])(C([H])([H])[H])C([H])([H])[H])c(Cl)c([H])c1C(F)(F)F


 17 17  0  0  0  0  0  0  0  0999 V2000
   -5.4485   23.6608  -27.7416 C   0  0  0  0  0  0  0  0  0  0  0  0
   -6.6911   23.9642  -27.1455 C   0  0  0  0  0  0  0  0  0  0  0  0
   -6.7926   23.6110  -25.8293 C   0  0  0  0  0  0  0  0  0  0  0  0
   -5.8671   23.0022  -25.0622 C   0  0  0  0  0  0  0  0  0  0  0  0
   -4.6259   22.6981  -25.6753 C   0  0  0  0  0  0  0  0  0  0  0  0
   -4.4464   23.0434  -27.0210 C   0  0  0  0  0  0  0  0  0  0  0  0
   -2.9019   22.6367  -27.7950 Cl  0  0  0  0  0  0  0  0  0  0  0  0
   -6.0314   22.6665  -23.6236 C   0  0  0  0  0  0  0  0  0  0  0  0
   -4.9514   23.0904  -22.8520 F   0  0  0  0  0  0  0  0  0  0  0  0
   -6.2968   21.3505  -23.4382 F   0  0  0  0  0  0  0  0  0  0  0  0
   -7.1037   23.3821  -23.0721 F   0  0  0  0  0  0  0  0  0  0  0  0
   -3.7285   24.6959  -29.1813 C   0  0  0  0  0  0  0  0  0  0  0  0
   -5.1747   24.0983  -29.1376 C   0  0  0  0  0  0  0  0  0  0  0  0
   -5.1876   22.9954  -30.1363 C   0  0  0  0  0  0  0  0  0  0  0  0
   -6.0702   25.1552  -29.5454 N   0  0  0  0  0  0  0  0  0  0  0  0
   -5.6655   26.0496  -30.2508 N   0  0  0  0  0  0  0  0  0  0  0  0
   -5.9248   27.1229  -30.8858 N   0  0  0  0  0  0  0  0  0  0  0  0
 12 13  1  0  0  0
 13 14  1  0  0  0
 13 15  1  0  0  0
 15 16  2  0  0  0
 16 17  2  0  0  0
 13  1  1  0  0  0
  1  2  2  0  0  0
  2  3  1  0  0  0
  3  4  2  0  0  0
  4  8  1  0  0  0
  8  9  1  0  0  0
  8 10  1  0  0  0
  8 11  1  0  0  0
  4  5  1  0  0  0
  5  6  2  0  0  0
  6  7  1  0  0  0
  6  1  1  0  0  0
M  CHG 1  16   1
M  CHG 1  17  -1
M  END
> <minimizedAffinity>
-6.94261

> <CNNscore>
0.6741747260

> <CNNaffinity>
5.9391212463

> <CNN_VS>
4.0040054321

> <CNNaffinity_variance>
0.2346413434

$$$$
[H]c1c([H])c(C(N=[N+]=[N-])(C([H])([H])[H])C([H])([H])[H])c(Cl)c([H])c1C(F)(F)F


 17 17  0  0  0  0  0  0  0  0999 V2000
   -4.7898   25.0186  -27.9615 C   0  0  0  0  0  0  0  0  0  0  0  0
   -5.3982   25.9306  -27.0730 C   0  0  0  0  0  0  0  0  0  0  0  0
   -5.0479   25.7684  -25.7621 C   0  0  0  0  0  0  0  0  0  0  0  0
   -4.2215   24.8440  -25.2348 C   0  0  0  0  0  0  0  0  0  0  0  0
   -3.6219   23.9307  -26.1379 C   0  0  0  0  0  0  0  0  0  0  0  0
   -3.9260   24.0460  -27.5004 C   0  0  0  0  0  0  0  0  0  0  0  0
   -3.1964   22.8842  -28.6263 Cl  0  0  0  0  0  0  0  0  0  0  0  0
   -3.8606   24.7364  -23.7969 C   0  0  0  0  0  0  0  0  0  0  0  0
   -2.7119   23.9747  -23.5926 F   0  0  0  0  0  0  0  0  0  0  0  0
   -4.8985   24.2933  -23.0465 F   0  0  0  0  0  0  0  0  0  0  0  0
   -3.4932   25.9902  -23.2881 F   0  0  0  0  0  0  0  0  0  0  0  0
   -3.6419   25.5918  -30.0725 C   0  0  0  0  0  0  0  0  0  0  0  0
   -5.0027   25.1647  -29.4273 C   0  0  0  0  0  0  0  0  0  0  0  0
   -5.3994   23.9060  -30.1146 C   0  0  0  0  0  0  0  0  0  0  0  0
   -5.9471   26.2165  -29.7219 N   0  0  0  0  0  0  0  0  0  0  0  0
   -5.8169   26.8805  -30.7237 N   0  0  0  0  0  0  0  0  0  0  0  0
   -6.2637   27.8181  -31.4611 N   0  0  0  0  0  0  0  0  0  0  0  0
 12 13  1  0  0  0
 13 14  1  0  0  0
 13 15  1  0  0  0
 15 16  2  0  0  0
 16 17  2  0  0  0
 13  1  1  0  0  0
  1  2  2  0  0  0
  2  3  1  0  0  0
  3  4  2  0  0  0
  4  8  1  0  0  0
  8  9  1  0  0  0
  8 10  1  0  0  0
  8 11  1  0  0  0
  4  5  1  0  0  0
  5  6  2  0  0  0
  6  7  1  0  0  0
  6  1  1  0  0  0
M  CHG 1  16   1
M  CHG 1  17  -1
M  END
> <minimizedAffinity>
-7.56372

> <CNNscore>
0.5922044516

> <CNNaffinity>
5.7870869637

> <CNN_VS>
3.4271385670

> <CNNaffinity_variance>
0.2530330122

$$$$
[H]c1c([H])c(C(N=[N+]=[N-])(C([H])([H])[H])C([H])([H])[H])c(Cl)c([H])c1C(F)(F)F


 17 17  0  0  0  0  0  0  0  0999 V2000
   -3.6227   22.9989  -27.0613 C   0  0  0  0  0  0  0  0  0  0  0  0
   -3.8078   22.4895  -25.7584 C   0  0  0  0  0  0  0  0  0  0  0  0
   -2.6534   22.1534  -25.1091 C   0  0  0  0  0  0  0  0  0  0  0  0
   -1.3903   22.2340  -25.5715 C   0  0  0  0  0  0  0  0  0  0  0  0
   -1.2195   22.7418  -26.8837 C   0  0  0  0  0  0  0  0  0  0  0  0
   -2.3597   23.1189  -27.6048 C   0  0  0  0  0  0  0  0  0  0  0  0
   -2.1463   23.7283  -29.2579 Cl  0  0  0  0  0  0  0  0  0  0  0  0
   -0.1705   21.8742  -24.8022 C   0  0  0  0  0  0  0  0  0  0  0  0
    0.8019   21.2725  -25.5983 F   0  0  0  0  0  0  0  0  0  0  0  0
   -0.4628   21.1247  -23.7116 F   0  0  0  0  0  0  0  0  0  0  0  0
    0.4786   23.0292  -24.3433 F   0  0  0  0  0  0  0  0  0  0  0  0
   -4.6052   25.0466  -28.0331 C   0  0  0  0  0  0  0  0  0  0  0  0
   -4.7937   23.5063  -27.8273 C   0  0  0  0  0  0  0  0  0  0  0  0
   -4.9268   22.9286  -29.1921 C   0  0  0  0  0  0  0  0  0  0  0  0
   -6.0225   23.3362  -27.0883 N   0  0  0  0  0  0  0  0  0  0  0  0
   -6.7427   24.2864  -26.8891 N   0  0  0  0  0  0  0  0  0  0  0  0
   -7.8261   24.7317  -26.3885 N   0  0  0  0  0  0  0  0  0  0  0  0
 12 13  1  0  0  0
 13 14  1  0  0  0
 13 15  1  0  0  0
 15 16  2  0  0  0
 16 17  2  0  0  0
 13  1  1  0  0  0
  1  2  2  0  0  0
  2  3  1  0  0  0
  3  4  2  0  0  0
  4  8  1  0  0  0
  8  9  1  0  0  0
  8 10  1  0  0  0
  8 11  1  0  0  0
  4  5  1  0  0  0
  5  6  2  0  0  0
  6  7  1  0  0  0
  6  1  1  0  0  0
M  CHG 1  16   1
M  CHG 1  17  -1
M  END
> <minimizedAffinity>
-7.23947

> <CNNscore>
0.4765307605

> <CNNaffinity>
5.5351634026

> <CNN_VS>
2.6376755238

> <CNNaffinity_variance>
0.2218206674

$$$$
[H]c1c([H])c(C(N=[N+]=[N-])(C([H])([H])[H])C([H])([H])[H])c(Cl)c([H])c1C(F)(F)F


 17 17  0  0  0  0  0  0  0  0999 V2000
   -3.6091   23.1412  -27.3188 C   0  0  0  0  0  0  0  0  0  0  0  0
   -3.8717   22.6437  -26.0246 C   0  0  0  0  0  0  0  0  0  0  0  0
   -2.7595   22.2893  -25.3142 C   0  0  0  0  0  0  0  0  0  0  0  0
   -1.4727   22.3425  -25.7106 C   0  0  0  0  0  0  0  0  0  0  0  0
   -1.2239   22.8387  -27.0148 C   0  0  0  0  0  0  0  0  0  0  0  0
   -2.3175   23.2333  -27.7963 C   0  0  0  0  0  0  0  0  0  0  0  0
   -2.0064   23.8280  -29.4392 Cl  0  0  0  0  0  0  0  0  0  0  0  0
   -0.3018   21.9639  -24.8769 C   0  0  0  0  0  0  0  0  0  0  0  0
    0.2207   23.0460  -24.1717 F   0  0  0  0  0  0  0  0  0  0  0  0
    0.6506   21.3278  -25.6013 F   0  0  0  0  0  0  0  0  0  0  0  0
   -0.6910   21.0881  -23.8534 F   0  0  0  0  0  0  0  0  0  0  0  0
   -4.8645   22.7517  -29.4104 C   0  0  0  0  0  0  0  0  0  0  0  0
   -4.7284   23.6664  -28.1474 C   0  0  0  0  0  0  0  0  0  0  0  0
   -6.0553   23.6285  -27.4751 C   0  0  0  0  0  0  0  0  0  0  0  0
   -4.4485   24.9980  -28.6307 N   0  0  0  0  0  0  0  0  0  0  0  0
   -5.1596   25.4959  -29.4719 N   0  0  0  0  0  0  0  0  0  0  0  0
   -5.4214   26.5070  -30.2010 N   0  0  0  0  0  0  0  0  0  0  0  0
 12 13  1  0  0  0
 13 14  1  0  0  0
 13 15  1  0  0  0
 15 16  2  0  0  0
 16 17  2  0  0  0
 13  1  1  0  0  0
  1  2  2  0  0  0
  2  3  1  0  0  0
  3  4  2  0  0  0
  4  8  1  0  0  0
  8  9  1  0  0  0
  8 10  1  0  0  0
  8 11  1  0  0  0
  4  5  1  0  0  0
  5  6  2  0  0  0
  6  7  1  0  0  0
  6  1  1  0  0  0
M  CHG 1  16   1
M  CHG 1  17  -1
M  END
> <minimizedAffinity>
-7.11220

> <CNNscore>
0.4571268559

> <CNNaffinity>
5.5457286835

> <CNN_VS>
2.5351014137

> <CNNaffinity_variance>
0.2263081074

$$$$
[H]c1c([H])c(C(N=[N+]=[N-])(C([H])([H])[H])C([H])([H])[H])c(Cl)c([H])c1C(F)(F)F


 17 17  0  0  0  0  0  0  0  0999 V2000
   -3.9144   23.6631  -27.6213 C   0  0  0  0  0  0  0  0  0  0  0  0
   -3.0232   23.0600  -28.5341 C   0  0  0  0  0  0  0  0  0  0  0  0
   -1.8379   22.6537  -27.9888 C   0  0  0  0  0  0  0  0  0  0  0  0
   -1.4284   22.7801  -26.7113 C   0  0  0  0  0  0  0  0  0  0  0  0
   -2.3311   23.3930  -25.8066 C   0  0  0  0  0  0  0  0  0  0  0  0
   -3.5718   23.8235  -26.2940 C   0  0  0  0  0  0  0  0  0  0  0  0
   -4.6898   24.6158  -25.1661 Cl  0  0  0  0  0  0  0  0  0  0  0  0
   -0.1312   22.2923  -26.1739 C   0  0  0  0  0  0  0  0  0  0  0  0
    0.6211   21.6168  -27.1326 F   0  0  0  0  0  0  0  0  0  0  0  0
   -0.2950   21.5531  -25.0499 F   0  0  0  0  0  0  0  0  0  0  0  0
    0.6974   23.3720  -25.8368 F   0  0  0  0  0  0  0  0  0  0  0  0
   -5.5853   23.2778  -29.3996 C   0  0  0  0  0  0  0  0  0  0  0  0
   -5.2816   24.0447  -28.0692 C   0  0  0  0  0  0  0  0  0  0  0  0
   -6.3634   23.6590  -27.1232 C   0  0  0  0  0  0  0  0  0  0  0  0
   -5.3628   25.4531  -28.3772 N   0  0  0  0  0  0  0  0  0  0  0  0
   -5.5054   25.8125  -29.5226 N   0  0  0  0  0  0  0  0  0  0  0  0
   -5.6462   26.7799  -30.3392 N   0  0  0  0  0  0  0  0  0  0  0  0
 12 13  1  0  0  0
 13 14  1  0  0  0
 13 15  1  0  0  0
 15 16  2  0  0  0
 16 17  2  0  0  0
 13  1  1  0  0  0
  1  2  2  0  0  0
  2  3  1  0  0  0
  3  4  2  0  0  0
  4  8  1  0  0  0
  8  9  1  0  0  0
  8 10  1  0  0  0
  8 11  1  0  0  0
  4  5  1  0  0  0
  5  6  2  0  0  0
  6  7  1  0  0  0
  6  1  1  0  0  0
M  CHG 1  16   1
M  CHG 1  17  -1
M  END
> <minimizedAffinity>
-7.36745

> <CNNscore>
0.4490635693

> <CNNaffinity>
5.6336765289

> <CNN_VS>
2.5298788548

> <CNNaffinity_variance>
0.3597881794

$$$$
[H]c1c([H])c(C(N=[N+]=[N-])(C([H])([H])[H])C([H])([H])[H])c(Cl)c([H])c1C(F)(F)F


 17 17  0  0  0  0  0  0  0  0999 V2000
   -5.0597   22.9370  -25.5501 C   0  0  0  0  0  0  0  0  0  0  0  0
   -6.2331   23.5132  -26.0813 C   0  0  0  0  0  0  0  0  0  0  0  0
   -6.1732   23.7992  -27.4162 C   0  0  0  0  0  0  0  0  0  0  0  0
   -5.1359   23.6145  -28.2562 C   0  0  0  0  0  0  0  0  0  0  0  0
   -3.9617   23.0404  -27.7080 C   0  0  0  0  0  0  0  0  0  0  0  0
   -3.9559   22.7096  -26.3468 C   0  0  0  0  0  0  0  0  0  0  0  0
   -2.4753   22.0167  -25.6558 Cl  0  0  0  0  0  0  0  0  0  0  0  0
   -5.1434   23.9248  -29.7099 C   0  0  0  0  0  0  0  0  0  0  0  0
   -5.2190   22.7783  -30.4979 F   0  0  0  0  0  0  0  0  0  0  0  0
   -4.0985   24.7116  -30.0647 F   0  0  0  0  0  0  0  0  0  0  0  0
   -6.3128   24.6156  -30.0580 F   0  0  0  0  0  0  0  0  0  0  0  0
   -4.7170   20.9449  -24.1300 C   0  0  0  0  0  0  0  0  0  0  0  0
   -5.0405   22.4765  -24.1348 C   0  0  0  0  0  0  0  0  0  0  0  0
   -3.9879   23.1154  -23.2995 C   0  0  0  0  0  0  0  0  0  0  0  0
   -6.3349   22.6267  -23.5127 N   0  0  0  0  0  0  0  0  0  0  0  0
   -6.7210   21.8020  -22.7176 N   0  0  0  0  0  0  0  0  0  0  0  0
   -7.6357   21.4226  -21.9165 N   0  0  0  0  0  0  0  0  0  0  0  0
 12 13  1  0  0  0
 13 14  1  0  0  0
 13 15  1  0  0  0
 15 16  2  0  0  0
 16 17  2  0  0  0
 13  1  1  0  0  0
  1  2  2  0  0  0
  2  3  1  0  0  0
  3  4  2  0  0  0
  4  8  1  0  0  0
  8  9  1  0  0  0
  8 10  1  0  0  0
  8 11  1  0  0  0
  4  5  1  0  0  0
  5  6  2  0  0  0
  6  7  1  0  0  0
  6  1  1  0  0  0
M  CHG 1  16   1
M  CHG 1  17  -1
M  END
> <minimizedAffinity>
-6.67553

> <CNNscore>
0.3976293504

> <CNNaffinity>
5.3495049477

> <CNN_VS>
2.1271202564

> <CNNaffinity_variance>
0.3873818815

$$$$
[H]c1c([H])c(C(N=[N+]=[N-])(C([H])([H])[H])C([H])([H])[H])c(Cl)c([H])c1C(F)(F)F


 17 17  0  0  0  0  0  0  0  0999 V2000
   -3.9671   23.4172  -27.3650 C   0  0  0  0  0  0  0  0  0  0  0  0
   -2.6233   23.1095  -27.0637 C   0  0  0  0  0  0  0  0  0  0  0  0
   -2.4199   22.6189  -25.8046 C   0  0  0  0  0  0  0  0  0  0  0  0
   -3.3355   22.4203  -24.8361 C   0  0  0  0  0  0  0  0  0  0  0  0
   -4.6803   22.7391  -25.1504 C   0  0  0  0  0  0  0  0  0  0  0  0
   -4.9649   23.2356  -26.4289 C   0  0  0  0  0  0  0  0  0  0  0  0
   -6.6450   23.6607  -26.8115 Cl  0  0  0  0  0  0  0  0  0  0  0  0
   -3.0519   21.8576  -23.4899 C   0  0  0  0  0  0  0  0  0  0  0  0
   -3.9510   20.8550  -23.1325 F   0  0  0  0  0  0  0  0  0  0  0  0
   -2.9738   22.8245  -22.5435 F   0  0  0  0  0  0  0  0  0  0  0  0
   -1.8224   21.1835  -23.4890 F   0  0  0  0  0  0  0  0  0  0  0  0
   -3.0083   24.1150  -29.5321 C   0  0  0  0  0  0  0  0  0  0  0  0
   -4.3330   23.8513  -28.7409 C   0  0  0  0  0  0  0  0  0  0  0  0
   -5.0769   22.8292  -29.5256 C   0  0  0  0  0  0  0  0  0  0  0  0
   -5.0596   25.0991  -28.7255 N   0  0  0  0  0  0  0  0  0  0  0  0
   -5.2366   25.7064  -29.7557 N   0  0  0  0  0  0  0  0  0  0  0  0
   -5.7446   26.7204  -30.3356 N   0  0  0  0  0  0  0  0  0  0  0  0
 12 13  1  0  0  0
 13 14  1  0  0  0
 13 15  1  0  0  0
 15 16  2  0  0  0
 16 17  2  0  0  0
 13  1  1  0  0  0
  1  2  2  0  0  0
  2  3  1  0  0  0
  3  4  2  0  0  0
  4  8  1  0  0  0
  8  9  1  0  0  0
  8 10  1  0  0  0
  8 11  1  0  0  0
  4  5  1  0  0  0
  5  6  2  0  0  0
  6  7  1  0  0  0
  6  1  1  0  0  0
M  CHG 1  16   1
M  CHG 1  17  -1
M  END
> <minimizedAffinity>
-6.23121

> <CNNscore>
0.3874760568

> <CNNaffinity>
5.6864895821

> <CNN_VS>
2.2033786774

> <CNNaffinity_variance>
0.2049715072

$$$$
[H]c1c([H])c(C(N=[N+]=[N-])(C([H])([H])[H])C([H])([H])[H])c(Cl)c([H])c1C(F)(F)F


 17 17  0  0  0  0  0  0  0  0999 V2000
   -4.0395   23.4167  -27.1526 C   0  0  0  0  0  0  0  0  0  0  0  0
   -3.7092   22.6572  -26.0101 C   0  0  0  0  0  0  0  0  0  0  0  0
   -2.3886   22.3193  -25.9132 C   0  0  0  0  0  0  0  0  0  0  0  0
   -1.3953   22.6073  -26.7769 C   0  0  0  0  0  0  0  0  0  0  0  0
   -1.7423   23.3657  -27.9230 C   0  0  0  0  0  0  0  0  0  0  0  0
   -3.0776   23.7583  -28.0815 C   0  0  0  0  0  0  0  0  0  0  0  0
   -3.5158   24.6838  -29.5311 Cl  0  0  0  0  0  0  0  0  0  0  0  0
    0.0316   22.2303  -26.6000 C   0  0  0  0  0  0  0  0  0  0  0  0
    0.5333   21.5219  -27.6899 F   0  0  0  0  0  0  0  0  0  0  0  0
    0.2404   21.5733  -25.4332 F   0  0  0  0  0  0  0  0  0  0  0  0
    0.8420   23.3742  -26.5766 F   0  0  0  0  0  0  0  0  0  0  0  0
   -5.9759   23.4333  -28.6866 C   0  0  0  0  0  0  0  0  0  0  0  0
   -5.4227   23.9422  -27.3134 C   0  0  0  0  0  0  0  0  0  0  0  0
   -6.3829   23.4574  -26.2853 C   0  0  0  0  0  0  0  0  0  0  0  0
   -5.4364   25.3849  -27.3723 N   0  0  0  0  0  0  0  0  0  0  0  0
   -5.2407   26.0310  -26.3695 N   0  0  0  0  0  0  0  0  0  0  0  0
   -5.1213   27.1807  -25.8342 N   0  0  0  0  0  0  0  0  0  0  0  0
 12 13  1  0  0  0
 13 14  1  0  0  0
 13 15  1  0  0  0
 15 16  2  0  0  0
 16 17  2  0  0  0
 13  1  1  0  0  0
  1  2  2  0  0  0
  2  3  1  0  0  0
  3  4  2  0  0  0
  4  8  1  0  0  0
  8  9  1  0  0  0
  8 10  1  0  0  0
  8 11  1  0  0  0
  4  5  1  0  0  0
  5  6  2  0  0  0
  6  7  1  0  0  0
  6  1  1  0  0  0
M  CHG 1  16   1
M  CHG 1  17  -1
M  END
> <minimizedAffinity>
-7.04494

> <CNNscore>
0.3822951019

> <CNNaffinity>
5.3885526657

> <CNN_VS>
2.0600173473

> <CNNaffinity_variance>
0.3896895945

$$$$
[H]c1c([H])c(C(N=[N+]=[N-])(C([H])([H])[H])C([H])([H])[H])c(Cl)c([H])c1C(F)(F)F


 17 17  0  0  0  0  0  0  0  0999 V2000
   -4.4031   23.7383  -26.5681 C   0  0  0  0  0  0  0  0  0  0  0  0
   -4.5865   23.3562  -25.2222 C   0  0  0  0  0  0  0  0  0  0  0  0
   -3.4745   22.8372  -24.6209 C   0  0  0  0  0  0  0  0  0  0  0  0
   -2.2577   22.6366  -25.1640 C   0  0  0  0  0  0  0  0  0  0  0  0
   -2.0893   23.0194  -26.5182 C   0  0  0  0  0  0  0  0  0  0  0  0
   -3.1848   23.5713  -27.1947 C   0  0  0  0  0  0  0  0  0  0  0  0
   -2.9802   24.0242  -28.8985 Cl  0  0  0  0  0  0  0  0  0  0  0  0
   -1.0774   22.0888  -24.4455 C   0  0  0  0  0  0  0  0  0  0  0  0
   -0.4151   23.0577  -23.6947 F   0  0  0  0  0  0  0  0  0  0  0  0
   -0.2339   21.4365  -25.2820 F   0  0  0  0  0  0  0  0  0  0  0  0
   -1.4815   21.1661  -23.4701 F   0  0  0  0  0  0  0  0  0  0  0  0
   -6.7565   24.4588  -26.3554 C   0  0  0  0  0  0  0  0  0  0  0  0
   -5.5066   24.4210  -27.2972 C   0  0  0  0  0  0  0  0  0  0  0  0
   -5.2208   25.8384  -27.6482 C   0  0  0  0  0  0  0  0  0  0  0  0
   -5.8991   23.6818  -28.4740 N   0  0  0  0  0  0  0  0  0  0  0  0
   -6.0138   24.2521  -29.5337 N   0  0  0  0  0  0  0  0  0  0  0  0
   -6.2767   24.1729  -30.7775 N   0  0  0  0  0  0  0  0  0  0  0  0
 12 13  1  0  0  0
 13 14  1  0  0  0
 13 15  1  0  0  0
 15 16  2  0  0  0
 16 17  2  0  0  0
 13  1  1  0  0  0
  1  2  2  0  0  0
  2  3  1  0  0  0
  3  4  2  0  0  0
  4  8  1  0  0  0
  8  9  1  0  0  0
  8 10  1  0  0  0
  8 11  1  0  0  0
  4  5  1  0  0  0
  5  6  2  0  0  0
  6  7  1  0  0  0
  6  1  1  0  0  0
M  CHG 1  16   1
M  CHG 1  17  -1
M  END
> <minimizedAffinity>
-6.52928

> <CNNscore>
0.3568544388

> <CNNaffinity>
5.4935088158

> <CNN_VS>
1.9603830576

> <CNNaffinity_variance>
0.2484695464

$$$$
[H]c1c([H])c(C([H])([H])OC([H])([H])C2([H])C([H])([H])C([H])([H])N(C([H])([H])C([H])([H])C([H])([H])C([H])([H])C([H])([H])[H])C([H])([H])C2([H])[H])c([H])c([H])c1F


 21 22  0  0  0  0  0  0  0  0999 V2000
   -5.7453   25.7780  -26.3772 N   0  0  0  0  0  0  0  0  0  0  0  0
   -6.5748   24.6513  -26.2019 C   0  0  0  0  0  0  0  0  0  0  0  0
   -6.5444   23.9805  -24.8828 C   0  0  0  0  0  0  0  0  0  0  0  0
   -5.0883   23.6625  -24.5641 C   0  0  0  0  0  0  0  0  0  0  0  0
   -4.4168   25.0124  -24.4376 C   0  0  0  0  0  0  0  0  0  0  0  0
   -4.5707   25.8902  -25.6182 C   0  0  0  0  0  0  0  0  0  0  0  0
   -5.5727   26.0057  -27.7888 C   0  0  0  0  0  0  0  0  0  0  0  0
   -4.5465   25.1455  -28.4356 C   0  0  0  0  0  0  0  0  0  0  0  0
   -4.6632   25.1603  -29.9386 C   0  0  0  0  0  0  0  0  0  0  0  0
   -5.2175   22.7943  -29.6133 C   0  0  0  0  0  0  0  0  0  0  0  0
   -5.5007   24.0169  -30.4510 C   0  0  0  0  0  0  0  0  0  0  0  0
   -4.9636   22.9485  -23.2391 C   0  0  0  0  0  0  0  0  0  0  0  0
   -3.9338   22.0080  -23.3046 O   0  0  0  0  0  0  0  0  0  0  0  0
   -3.9388   21.3968  -24.5555 C   0  0  0  0  0  0  0  0  0  0  0  0
   -2.6800   21.7772  -25.2668 C   0  0  0  0  0  0  0  0  0  0  0  0
   -1.4611   21.7768  -24.6129 C   0  0  0  0  0  0  0  0  0  0  0  0
   -0.2854   22.1237  -25.2464 C   0  0  0  0  0  0  0  0  0  0  0  0
   -0.2877   22.4888  -26.5770 C   0  0  0  0  0  0  0  0  0  0  0  0
    0.8616   22.8364  -27.2271 F   0  0  0  0  0  0  0  0  0  0  0  0
   -1.4997   22.4913  -27.2346 C   0  0  0  0  0  0  0  0  0  0  0  0
   -2.6865   22.1417  -26.5970 C   0  0  0  0  0  0  0  0  0  0  0  0
 10 11  1  0  0  0
 11  9  1  0  0  0
  9  8  1  0  0  0
  8  7  1  0  0  0
  7  1  1  0  0  0
  1  2  1  0  0  0
  2  3  1  0  0  0
  3  4  1  0  0  0
  4 12  1  0  0  0
 12 13  1  0  0  0
 13 14  1  0  0  0
 14 15  1  0  0  0
 15 16  2  0  0  0
 16 17  1  0  0  0
 17 18  2  0  0  0
 18 19  1  0  0  0
 18 20  1  0  0  0
 20 21  2  0  0  0
  4  5  1  0  0  0
  5  6  1  0  0  0
  6  1  1  0  0  0
 21 15  1  0  0  0
M  END
> <minimizedAffinity>
-6.92820

> <CNNscore>
0.2477037758

> <CNNaffinity>
5.4908647537

> <CNN_VS>
1.3601078987

> <CNNaffinity_variance>
0.5750788450

$$$$
[H]c1c([H])c(C([H])([H])OC([H])([H])C2([H])C([H])([H])C([H])([H])N(C([H])([H])C([H])([H])C([H])([H])C([H])([H])C([H])([H])[H])C([H])([H])C2([H])[H])c([H])c([H])c1F


 21 22  0  0  0  0  0  0  0  0999 V2000
   -7.0470   25.6818  -24.7067 N   0  0  0  0  0  0  0  0  0  0  0  0
   -5.8957   26.4081  -25.0745 C   0  0  0  0  0  0  0  0  0  0  0  0
   -5.3534   26.1845  -26.4336 C   0  0  0  0  0  0  0  0  0  0  0  0
   -5.1508   24.6838  -26.6048 C   0  0  0  0  0  0  0  0  0  0  0  0
   -6.5431   24.0955  -26.5350 C   0  0  0  0  0  0  0  0  0  0  0  0
   -7.2968   24.4400  -25.3098 C   0  0  0  0  0  0  0  0  0  0  0  0
   -7.1518   25.6843  -23.2703 C   0  0  0  0  0  0  0  0  0  0  0  0
   -6.8194   24.3884  -22.6212 C   0  0  0  0  0  0  0  0  0  0  0  0
   -5.4416   24.4001  -22.0094 C   0  0  0  0  0  0  0  0  0  0  0  0
   -3.2853   24.6455  -23.1502 C   0  0  0  0  0  0  0  0  0  0  0  0
   -4.4308   23.7009  -22.8815 C   0  0  0  0  0  0  0  0  0  0  0  0
   -4.5716   24.3631  -27.9623 C   0  0  0  0  0  0  0  0  0  0  0  0
   -4.0512   23.0676  -27.9597 O   0  0  0  0  0  0  0  0  0  0  0  0
   -2.7531   23.0852  -28.4627 C   0  0  0  0  0  0  0  0  0  0  0  0
   -1.8196   22.6971  -27.3611 C   0  0  0  0  0  0  0  0  0  0  0  0
   -2.2975   22.3031  -26.1244 C   0  0  0  0  0  0  0  0  0  0  0  0
   -1.4573   21.9403  -25.0917 C   0  0  0  0  0  0  0  0  0  0  0  0
   -0.0883   21.9592  -25.2626 C   0  0  0  0  0  0  0  0  0  0  0  0
    0.7647   21.6050  -24.2570 F   0  0  0  0  0  0  0  0  0  0  0  0
    0.3946   22.3512  -26.4932 C   0  0  0  0  0  0  0  0  0  0  0  0
   -0.4516   22.7175  -27.5359 C   0  0  0  0  0  0  0  0  0  0  0  0
 10 11  1  0  0  0
 11  9  1  0  0  0
  9  8  1  0  0  0
  8  7  1  0  0  0
  7  1  1  0  0  0
  1  2  1  0  0  0
  2  3  1  0  0  0
  3  4  1  0  0  0
  4 12  1  0  0  0
 12 13  1  0  0  0
 13 14  1  0  0  0
 14 15  1  0  0  0
 15 16  2  0  0  0
 16 17  1  0  0  0
 17 18  2  0  0  0
 18 19  1  0  0  0
 18 20  1  0  0  0
 20 21  2  0  0  0
  4  5  1  0  0  0
  5  6  1  0  0  0
  6  1  1  0  0  0
 21 15  1  0  0  0
M  END
> <minimizedAffinity>
-6.59818

> <CNNscore>
0.2432206720

> <CNNaffinity>
5.1985383034

> <CNN_VS>
1.2643920183

> <CNNaffinity_variance>
0.8604496121

$$$$
[H]c1c([H])c(C([H])([H])OC([H])([H])C2([H])C([H])([H])C([H])([H])N(C([H])([H])C([H])([H])C([H])([H])C([H])([H])C([H])([H])[H])C([H])([H])C2([H])[H])c([H])c([H])c1F


 21 22  0  0  0  0  0  0  0  0999 V2000
   -6.3456   24.2575  -24.4356 N   0  0  0  0  0  0  0  0  0  0  0  0
   -5.4923   24.8501  -23.4822 C   0  0  0  0  0  0  0  0  0  0  0  0
   -4.2408   24.1338  -23.1481 C   0  0  0  0  0  0  0  0  0  0  0  0
   -4.6183   22.7098  -22.7576 C   0  0  0  0  0  0  0  0  0  0  0  0
   -5.2019   22.1059  -24.0162 C   0  0  0  0  0  0  0  0  0  0  0  0
   -6.3317   22.8638  -24.5967 C   0  0  0  0  0  0  0  0  0  0  0  0
   -7.6583   24.8335  -24.2977 C   0  0  0  0  0  0  0  0  0  0  0  0
   -7.8950   25.5383  -23.0099 C   0  0  0  0  0  0  0  0  0  0  0  0
   -9.0892   24.9852  -22.2746 C   0  0  0  0  0  0  0  0  0  0  0  0
   -8.7969   26.7023  -20.5491 C   0  0  0  0  0  0  0  0  0  0  0  0
   -8.9992   25.2265  -20.7897 C   0  0  0  0  0  0  0  0  0  0  0  0
   -3.3975   21.9082  -22.3729 C   0  0  0  0  0  0  0  0  0  0  0  0
   -2.8383   21.3238  -23.5109 O   0  0  0  0  0  0  0  0  0  0  0  0
   -1.4762   21.6080  -23.5600 C   0  0  0  0  0  0  0  0  0  0  0  0
   -1.1318   22.0066  -24.9592 C   0  0  0  0  0  0  0  0  0  0  0  0
   -2.1193   22.2770  -25.8892 C   0  0  0  0  0  0  0  0  0  0  0  0
   -1.8280   22.6467  -27.1864 C   0  0  0  0  0  0  0  0  0  0  0  0
   -0.5183   22.7606  -27.6051 C   0  0  0  0  0  0  0  0  0  0  0  0
   -0.2032   23.1246  -28.8829 F   0  0  0  0  0  0  0  0  0  0  0  0
    0.4710   22.4923  -26.6828 C   0  0  0  0  0  0  0  0  0  0  0  0
    0.1788   22.1193  -25.3740 C   0  0  0  0  0  0  0  0  0  0  0  0
 10 11  1  0  0  0
 11  9  1  0  0  0
  9  8  1  0  0  0
  8  7  1  0  0  0
  7  1  1  0  0  0
  1  2  1  0  0  0
  2  3  1  0  0  0
  3  4  1  0  0  0
  4 12  1  0  0  0
 12 13  1  0  0  0
 13 14  1  0  0  0
 14 15  1  0  0  0
 15 16  2  0  0  0
 16 17  1  0  0  0
 17 18  2  0  0  0
 18 19  1  0  0  0
 18 20  1  0  0  0
 20 21  2  0  0  0
  4  5  1  0  0  0
  5  6  1  0  0  0
  6  1  1  0  0  0
 21 15  1  0  0  0
M  END
> <minimizedAffinity>
-6.12865

> <CNNscore>
0.2234439403

> <CNNaffinity>
4.9476227760

> <CNN_VS>
1.1055163145

> <CNNaffinity_variance>
0.3870721459

$$$$
[H]c1c([H])c(C([H])([H])OC([H])([H])C2([H])C([H])([H])C([H])([H])N(C([H])([H])C([H])([H])C([H])([H])C([H])([H])C([H])([H])[H])C([H])([H])C2([H])[H])c([H])c([H])c1F


 21 22  0  0  0  0  0  0  0  0999 V2000
   -0.1241   21.6932  -18.4359 N   0  0  0  0  0  0  0  0  0  0  0  0
    0.0291   22.7295  -19.3799 C   0  0  0  0  0  0  0  0  0  0  0  0
   -1.1905   23.2145  -20.0643 C   0  0  0  0  0  0  0  0  0  0  0  0
   -1.8901   22.0024  -20.6675 C   0  0  0  0  0  0  0  0  0  0  0  0
   -2.3024   21.1627  -19.4783 C   0  0  0  0  0  0  0  0  0  0  0  0
   -1.1948   20.7964  -18.5689 C   0  0  0  0  0  0  0  0  0  0  0  0
    1.1578   21.0717  -18.2245 C   0  0  0  0  0  0  0  0  0  0  0  0
    1.5547   20.0949  -19.2731 C   0  0  0  0  0  0  0  0  0  0  0  0
    2.9281   20.3841  -19.8234 C   0  0  0  0  0  0  0  0  0  0  0  0
    1.5722   20.5680  -21.8579 C   0  0  0  0  0  0  0  0  0  0  0  0
    2.8679   20.9827  -21.2052 C   0  0  0  0  0  0  0  0  0  0  0  0
   -3.1392   22.4087  -21.4129 C   0  0  0  0  0  0  0  0  0  0  0  0
   -2.8179   22.7310  -22.7327 O   0  0  0  0  0  0  0  0  0  0  0  0
   -2.7755   21.5697  -23.4996 C   0  0  0  0  0  0  0  0  0  0  0  0
   -1.9191   21.8311  -24.6969 C   0  0  0  0  0  0  0  0  0  0  0  0
   -0.5415   21.8955  -24.5904 C   0  0  0  0  0  0  0  0  0  0  0  0
    0.2709   22.1353  -25.6797 C   0  0  0  0  0  0  0  0  0  0  0  0
   -0.2747   22.3220  -26.9331 C   0  0  0  0  0  0  0  0  0  0  0  0
    0.5069   22.5608  -28.0270 F   0  0  0  0  0  0  0  0  0  0  0  0
   -1.6475   22.2590  -27.0461 C   0  0  0  0  0  0  0  0  0  0  0  0
   -2.4684   22.0172  -25.9483 C   0  0  0  0  0  0  0  0  0  0  0  0
 10 11  1  0  0  0
 11  9  1  0  0  0
  9  8  1  0  0  0
  8  7  1  0  0  0
  7  1  1  0  0  0
  1  2  1  0  0  0
  2  3  1  0  0  0
  3  4  1  0  0  0
  4 12  1  0  0  0
 12 13  1  0  0  0
 13 14  1  0  0  0
 14 15  1  0  0  0
 15 16  2  0  0  0
 16 17  1  0  0  0
 17 18  2  0  0  0
 18 19  1  0  0  0
 18 20  1  0  0  0
 20 21  2  0  0  0
  4  5  1  0  0  0
  5  6  1  0  0  0
  6  1  1  0  0  0
 21 15  1  0  0  0
M  END
> <minimizedAffinity>
-4.96605

> <CNNscore>
0.2106296569

> <CNNaffinity>
4.5114240646

> <CNN_VS>
0.9502397180

> <CNNaffinity_variance>
0.4474506378

$$$$
[H]c1c([H])c(C([H])([H])OC([H])([H])C2([H])C([H])([H])C([H])([H])N(C([H])([H])C([H])([H])C([H])([H])C([H])([H])C([H])([H])[H])C([H])([H])C2([H])[H])c([H])c([H])c1F


 21 22  0  0  0  0  0  0  0  0999 V2000
   -5.6531   25.7348  -26.7209 N   0  0  0  0  0  0  0  0  0  0  0  0
   -6.7377   24.8390  -26.6239 C   0  0  0  0  0  0  0  0  0  0  0  0
   -6.9066   24.1077  -25.3481 C   0  0  0  0  0  0  0  0  0  0  0  0
   -5.5816   23.4235  -25.0335 C   0  0  0  0  0  0  0  0  0  0  0  0
   -4.6031   24.5571  -24.8173 C   0  0  0  0  0  0  0  0  0  0  0  0
   -4.5068   25.5111  -25.9435 C   0  0  0  0  0  0  0  0  0  0  0  0
   -5.3937   25.9925  -28.1139 C   0  0  0  0  0  0  0  0  0  0  0  0
   -5.5523   24.8118  -29.0038 C   0  0  0  0  0  0  0  0  0  0  0  0
   -4.2275   24.1749  -29.3386 C   0  0  0  0  0  0  0  0  0  0  0  0
   -2.5248   22.9744  -28.0459 C   0  0  0  0  0  0  0  0  0  0  0  0
   -3.9629   22.9495  -28.5021 C   0  0  0  0  0  0  0  0  0  0  0  0
   -5.6698   22.6269  -23.7534 C   0  0  0  0  0  0  0  0  0  0  0  0
   -4.4932   22.7827  -23.0182 O   0  0  0  0  0  0  0  0  0  0  0  0
   -3.9273   21.5344  -22.7731 C   0  0  0  0  0  0  0  0  0  0  0  0
   -2.4922   21.5818  -23.1896 C   0  0  0  0  0  0  0  0  0  0  0  0
   -2.1367   21.8304  -24.5030 C   0  0  0  0  0  0  0  0  0  0  0  0
   -0.8200   21.8793  -24.9129 C   0  0  0  0  0  0  0  0  0  0  0  0
    0.2031   21.6779  -24.0093 C   0  0  0  0  0  0  0  0  0  0  0  0
    1.5139   21.7210  -24.3891 F   0  0  0  0  0  0  0  0  0  0  0  0
   -0.1447   21.4295  -22.6984 C   0  0  0  0  0  0  0  0  0  0  0  0
   -1.4723   21.3799  -22.2833 C   0  0  0  0  0  0  0  0  0  0  0  0
 10 11  1  0  0  0
 11  9  1  0  0  0
  9  8  1  0  0  0
  8  7  1  0  0  0
  7  1  1  0  0  0
  1  2  1  0  0  0
  2  3  1  0  0  0
  3  4  1  0  0  0
  4 12  1  0  0  0
 12 13  1  0  0  0
 13 14  1  0  0  0
 14 15  1  0  0  0
 15 16  2  0  0  0
 16 17  1  0  0  0
 17 18  2  0  0  0
 18 19  1  0  0  0
 18 20  1  0  0  0
 20 21  2  0  0  0
  4  5  1  0  0  0
  5  6  1  0  0  0
  6  1  1  0  0  0
 21 15  1  0  0  0
M  END
> <minimizedAffinity>
-5.94813

> <CNNscore>
0.2103584856

> <CNNaffinity>
5.3025569916

> <CNN_VS>
1.1154378653

> <CNNaffinity_variance>
0.3871662915

$$$$
[H]c1c([H])c(C([H])([H])OC([H])([H])C2([H])C([H])([H])C([H])([H])N(C([H])([H])C([H])([H])C([H])([H])C([H])([H])C([H])([H])[H])C([H])([H])C2([H])[H])c([H])c([H])c1F


 21 22  0  0  0  0  0  0  0  0999 V2000
   -5.3882   24.0419  -22.8711 N   0  0  0  0  0  0  0  0  0  0  0  0
   -4.2450   24.7973  -22.5383 C   0  0  0  0  0  0  0  0  0  0  0  0
   -2.9340   24.1124  -22.5964 C   0  0  0  0  0  0  0  0  0  0  0  0
   -3.0395   22.8488  -21.7509 C   0  0  0  0  0  0  0  0  0  0  0  0
   -4.0659   21.9934  -22.4610 C   0  0  0  0  0  0  0  0  0  0  0  0
   -5.3721   22.6522  -22.6795 C   0  0  0  0  0  0  0  0  0  0  0  0
   -6.5493   24.7084  -22.3402 C   0  0  0  0  0  0  0  0  0  0  0  0
   -7.6670   24.8730  -23.3069 C   0  0  0  0  0  0  0  0  0  0  0  0
   -7.1928   25.4141  -24.6318 C   0  0  0  0  0  0  0  0  0  0  0  0
   -6.6818   23.5896  -26.1877 C   0  0  0  0  0  0  0  0  0  0  0  0
   -7.7207   24.6096  -25.7916 C   0  0  0  0  0  0  0  0  0  0  0  0
   -1.7308   22.0951  -21.7312 C   0  0  0  0  0  0  0  0  0  0  0  0
   -0.8819   22.5970  -22.7195 O   0  0  0  0  0  0  0  0  0  0  0  0
   -0.4925   21.5645  -23.5686 C   0  0  0  0  0  0  0  0  0  0  0  0
   -0.7300   22.0034  -24.9779 C   0  0  0  0  0  0  0  0  0  0  0  0
   -1.9999   21.9925  -25.5259 C   0  0  0  0  0  0  0  0  0  0  0  0
   -2.2456   22.3924  -26.8235 C   0  0  0  0  0  0  0  0  0  0  0  0
   -1.2134   22.8239  -27.6310 C   0  0  0  0  0  0  0  0  0  0  0  0
   -1.4296   23.2248  -28.9182 F   0  0  0  0  0  0  0  0  0  0  0  0
    0.0552   22.8371  -27.0907 C   0  0  0  0  0  0  0  0  0  0  0  0
    0.3046   22.4340  -25.7820 C   0  0  0  0  0  0  0  0  0  0  0  0
 10 11  1  0  0  0
 11  9  1  0  0  0
  9  8  1  0  0  0
  8  7  1  0  0  0
  7  1  1  0  0  0
  1  2  1  0  0  0
  2  3  1  0  0  0
  3  4  1  0  0  0
  4 12  1  0  0  0
 12 13  1  0  0  0
 13 14  1  0  0  0
 14 15  1  0  0  0
 15 16  2  0  0  0
 16 17  1  0  0  0
 17 18  2  0  0  0
 18 19  1  0  0  0
 18 20  1  0  0  0
 20 21  2  0  0  0
  4  5  1  0  0  0
  5  6  1  0  0  0
  6  1  1  0  0  0
 21 15  1  0  0  0
M  END
> <minimizedAffinity>
-6.41928

> <CNNscore>
0.2079838216

> <CNNaffinity>
5.0240101814

> <CNN_VS>
1.0449128151

> <CNNaffinity_variance>
0.4017115533

$$$$
[H]c1c([H])c(C([H])([H])OC([H])([H])C2([H])C([H])([H])C([H])([H])N(C([H])([H])C([H])([H])C([H])([H])C([H])([H])C([H])([H])[H])C([H])([H])C2([H])[H])c([H])c([H])c1F


 21 22  0  0  0  0  0  0  0  0999 V2000
   -7.4011   25.4066  -24.2321 N   0  0  0  0  0  0  0  0  0  0  0  0
   -6.1635   25.6211  -23.5913 C   0  0  0  0  0  0  0  0  0  0  0  0
   -4.9355   25.3929  -24.3857 C   0  0  0  0  0  0  0  0  0  0  0  0
   -5.0272   23.9919  -24.9784 C   0  0  0  0  0  0  0  0  0  0  0  0
   -6.2106   24.0472  -25.9196 C   0  0  0  0  0  0  0  0  0  0  0  0
   -7.4748   24.4930  -25.2943 C   0  0  0  0  0  0  0  0  0  0  0  0
   -8.4168   25.2401  -23.2246 C   0  0  0  0  0  0  0  0  0  0  0  0
   -7.9042   24.8485  -21.8849 C   0  0  0  0  0  0  0  0  0  0  0  0
   -8.1846   23.4002  -21.5742 C   0  0  0  0  0  0  0  0  0  0  0  0
   -6.7932   21.7506  -22.7378 C   0  0  0  0  0  0  0  0  0  0  0  0
   -6.9192   22.5862  -21.4878 C   0  0  0  0  0  0  0  0  0  0  0  0
   -3.7962   23.6611  -25.7887 C   0  0  0  0  0  0  0  0  0  0  0  0
   -4.1321   22.7831  -26.8209 O   0  0  0  0  0  0  0  0  0  0  0  0
   -3.2560   22.9607  -27.8883 C   0  0  0  0  0  0  0  0  0  0  0  0
   -3.9616   23.7466  -28.9465 C   0  0  0  0  0  0  0  0  0  0  0  0
   -5.0581   23.2277  -29.6110 C   0  0  0  0  0  0  0  0  0  0  0  0
   -5.7266   23.9323  -30.5911 C   0  0  0  0  0  0  0  0  0  0  0  0
   -5.3151   25.2004  -30.9465 C   0  0  0  0  0  0  0  0  0  0  0  0
   -5.9590   25.9186  -31.9130 F   0  0  0  0  0  0  0  0  0  0  0  0
   -4.2224   25.7234  -30.2879 C   0  0  0  0  0  0  0  0  0  0  0  0
   -3.5471   25.0140  -29.2990 C   0  0  0  0  0  0  0  0  0  0  0  0
 10 11  1  0  0  0
 11  9  1  0  0  0
  9  8  1  0  0  0
  8  7  1  0  0  0
  7  1  1  0  0  0
  1  2  1  0  0  0
  2  3  1  0  0  0
  3  4  1  0  0  0
  4 12  1  0  0  0
 12 13  1  0  0  0
 13 14  1  0  0  0
 14 15  1  0  0  0
 15 16  2  0  0  0
 16 17  1  0  0  0
 17 18  2  0  0  0
 18 19  1  0  0  0
 18 20  1  0  0  0
 20 21  2  0  0  0
  4  5  1  0  0  0
  5  6  1  0  0  0
  6  1  1  0  0  0
 21 15  1  0  0  0
M  END
> <minimizedAffinity>
-6.45950

> <CNNscore>
0.2004103363

> <CNNaffinity>
5.3251600266

> <CNN_VS>
1.0672171116

> <CNNaffinity_variance>
0.3394330144

$$$$
[H]c1c([H])c(C([H])([H])OC([H])([H])C2([H])C([H])([H])C([H])([H])N(C([H])([H])C([H])([H])C([H])([H])C([H])([H])C([H])([H])[H])C([H])([H])C2([H])[H])c([H])c([H])c1F


 21 22  0  0  0  0  0  0  0  0999 V2000
   -2.3793   21.9895  -22.8962 N   0  0  0  0  0  0  0  0  0  0  0  0
   -2.3028   23.3930  -22.7840 C   0  0  0  0  0  0  0  0  0  0  0  0
   -3.5464   24.1640  -23.0084 C   0  0  0  0  0  0  0  0  0  0  0  0
   -4.1129   23.7371  -24.3572 C   0  0  0  0  0  0  0  0  0  0  0  0
   -4.4719   22.2778  -24.1811 C   0  0  0  0  0  0  0  0  0  0  0  0
   -3.3564   21.4196  -23.7261 C   0  0  0  0  0  0  0  0  0  0  0  0
   -1.0495   21.4714  -23.0900 C   0  0  0  0  0  0  0  0  0  0  0  0
   -0.1651   22.3275  -23.9241 C   0  0  0  0  0  0  0  0  0  0  0  0
   -0.1260   21.8692  -25.3598 C   0  0  0  0  0  0  0  0  0  0  0  0
   -1.8428   21.9560  -27.1080 C   0  0  0  0  0  0  0  0  0  0  0  0
   -0.9054   22.7866  -26.2666 C   0  0  0  0  0  0  0  0  0  0  0  0
   -5.3770   24.4970  -24.6827 C   0  0  0  0  0  0  0  0  0  0  0  0
   -5.1361   25.3874  -25.7307 O   0  0  0  0  0  0  0  0  0  0  0  0
   -4.0776   24.9208  -26.5056 C   0  0  0  0  0  0  0  0  0  0  0  0
   -4.5954   24.6295  -27.8775 C   0  0  0  0  0  0  0  0  0  0  0  0
   -5.0711   23.3742  -28.2106 C   0  0  0  0  0  0  0  0  0  0  0  0
   -5.5541   23.0797  -29.4693 C   0  0  0  0  0  0  0  0  0  0  0  0
   -5.5784   24.0458  -30.4541 C   0  0  0  0  0  0  0  0  0  0  0  0
   -6.0511   23.7803  -31.7073 F   0  0  0  0  0  0  0  0  0  0  0  0
   -5.1055   25.2994  -30.1284 C   0  0  0  0  0  0  0  0  0  0  0  0
   -4.6180   25.5980  -28.8593 C   0  0  0  0  0  0  0  0  0  0  0  0
 10 11  1  0  0  0
 11  9  1  0  0  0
  9  8  1  0  0  0
  8  7  1  0  0  0
  7  1  1  0  0  0
  1  2  1  0  0  0
  2  3  1  0  0  0
  3  4  1  0  0  0
  4 12  1  0  0  0
 12 13  1  0  0  0
 13 14  1  0  0  0
 14 15  1  0  0  0
 15 16  2  0  0  0
 16 17  1  0  0  0
 17 18  2  0  0  0
 18 19  1  0  0  0
 18 20  1  0  0  0
 20 21  2  0  0  0
  4  5  1  0  0  0
  5  6  1  0  0  0
  6  1  1  0  0  0
 21 15  1  0  0  0
M  END
> <minimizedAffinity>
-6.52059

> <CNNscore>
0.1966710836

> <CNNaffinity>
5.3768205643

> <CNN_VS>
1.0574650764

> <CNNaffinity_variance>
0.3795504570

$$$$
[H]c1c([H])c(C([H])([H])OC([H])([H])C2([H])C([H])([H])C([H])([H])N(C([H])([H])C([H])([H])C([H])([H])C([H])([H])C([H])([H])[H])C([H])([H])C2([H])[H])c([H])c([H])c1F


 21 22  0  0  0  0  0  0  0  0999 V2000
   -5.8045   22.6900  -22.2949 N   0  0  0  0  0  0  0  0  0  0  0  0
   -4.8545   23.7293  -22.3696 C   0  0  0  0  0  0  0  0  0  0  0  0
   -4.7982   24.5133  -23.6240 C   0  0  0  0  0  0  0  0  0  0  0  0
   -4.6441   23.5259  -24.7746 C   0  0  0  0  0  0  0  0  0  0  0  0
   -5.9232   22.7178  -24.7644 C   0  0  0  0  0  0  0  0  0  0  0  0
   -6.2253   22.0587  -23.4751 C   0  0  0  0  0  0  0  0  0  0  0  0
   -5.4197   21.7916  -21.2371 C   0  0  0  0  0  0  0  0  0  0  0  0
   -6.4312   21.6324  -20.1589 C   0  0  0  0  0  0  0  0  0  0  0  0
   -7.5424   22.6449  -20.2730 C   0  0  0  0  0  0  0  0  0  0  0  0
   -9.9654   22.8819  -19.9830 C   0  0  0  0  0  0  0  0  0  0  0  0
   -8.8763   21.9923  -20.5301 C   0  0  0  0  0  0  0  0  0  0  0  0
   -4.5511   24.2437  -26.1002 C   0  0  0  0  0  0  0  0  0  0  0  0
   -3.3171   23.9771  -26.6962 O   0  0  0  0  0  0  0  0  0  0  0  0
   -3.4872   23.0631  -27.7327 C   0  0  0  0  0  0  0  0  0  0  0  0
   -4.1277   23.7734  -28.8819 C   0  0  0  0  0  0  0  0  0  0  0  0
   -3.6467   24.9912  -29.3276 C   0  0  0  0  0  0  0  0  0  0  0  0
   -4.2197   25.6668  -30.3856 C   0  0  0  0  0  0  0  0  0  0  0  0
   -5.3109   25.1395  -31.0451 C   0  0  0  0  0  0  0  0  0  0  0  0
   -5.8963   25.7877  -32.0947 F   0  0  0  0  0  0  0  0  0  0  0  0
   -5.7954   23.9256  -30.6056 C   0  0  0  0  0  0  0  0  0  0  0  0
   -5.2185   23.2430  -29.5386 C   0  0  0  0  0  0  0  0  0  0  0  0
 10 11  1  0  0  0
 11  9  1  0  0  0
  9  8  1  0  0  0
  8  7  1  0  0  0
  7  1  1  0  0  0
  1  2  1  0  0  0
  2  3  1  0  0  0
  3  4  1  0  0  0
  4 12  1  0  0  0
 12 13  1  0  0  0
 13 14  1  0  0  0
 14 15  1  0  0  0
 15 16  2  0  0  0
 16 17  1  0  0  0
 17 18  2  0  0  0
 18 19  1  0  0  0
 18 20  1  0  0  0
 20 21  2  0  0  0
  4  5  1  0  0  0
  5  6  1  0  0  0
  6  1  1  0  0  0
 21 15  1  0  0  0
M  END
> <minimizedAffinity>
-6.16487

> <CNNscore>
0.1811085790

> <CNNaffinity>
4.9774618149

> <CNN_VS>
0.9014610648

> <CNNaffinity_variance>
0.2344940454

$$$$
[H]c1c([H])c([H])c([C@@]2([H])C([H])([H])[C@]2([H])N([H])C([H])([H])C2([H])C([H])([H])C([H])([H])N([H])C([H])([H])C2([H])[H])c([H])c1[H]


 19 21  0  0  0  0  0  0  0  0999 V2000
   -2.8688   22.7434  -25.6160 N   0  0  0  0  0  0  0  0  0  0  0  0
   -1.9610   22.8487  -25.1356 H   0  0  0  0  0  0  0  0  0  0  0  0
   -3.4622   22.7897  -28.0978 C   0  0  0  0  0  0  0  0  0  0  0  0
   -1.9487   22.9196  -27.9010 C   0  0  0  0  0  0  0  0  0  0  0  0
   -2.9530   23.4564  -26.8756 C   0  0  0  0  0  0  0  0  0  0  0  0
   -5.2980   25.4296  -30.9614 C   0  0  0  0  0  0  0  0  0  0  0  0
   -4.1770   25.8012  -30.2498 C   0  0  0  0  0  0  0  0  0  0  0  0
   -3.5990   24.9283  -29.3265 C   0  0  0  0  0  0  0  0  0  0  0  0
   -4.1145   23.6780  -29.0896 C   0  0  0  0  0  0  0  0  0  0  0  0
   -5.2358   23.3130  -29.8049 C   0  0  0  0  0  0  0  0  0  0  0  0
   -5.8173   24.1783  -30.7269 C   0  0  0  0  0  0  0  0  0  0  0  0
   -3.9937   23.1799  -24.8150 C   0  0  0  0  0  0  0  0  0  0  0  0
   -5.2447   22.3879  -25.0571 C   0  0  0  0  0  0  0  0  0  0  0  0
   -6.3962   23.3348  -25.2408 C   0  0  0  0  0  0  0  0  0  0  0  0
   -6.7645   24.1094  -24.0174 C   0  0  0  0  0  0  0  0  0  0  0  0
   -6.3291   23.4679  -22.7891 N   0  0  0  0  0  0  0  0  0  0  0  0
   -6.5953   22.0336  -22.9788 C   0  0  0  0  0  0  0  0  0  0  0  0
   -5.4511   21.5042  -23.8317 C   0  0  0  0  0  0  0  0  0  0  0  0
   -6.8552   23.8501  -21.9968 H   0  0  0  0  0  0  0  0  0  0  0  0
  6  7  2  0  0  0
  7  8  1  0  0  0
  8  9  2  0  0  0
  9  3  1  0  0  0
  3  4  1  0  0  0
  4  5  1  0  0  0
  5  1  1  0  0  0
  1 12  1  0  0  0
 12 13  1  0  0  0
 13 14  1  0  0  0
 14 15  1  0  0  0
 15 16  1  0  0  0
 16 17  1  0  0  0
 17 18  1  0  0  0
  9 10  1  0  0  0
 10 11  2  0  0  0
 11  6  1  0  0  0
  5  3  1  0  0  0
 18 13  1  0  0  0
  1  2  1  0  0  0
 16 19  1  0  0  0
M  END
> <minimizedAffinity>
-7.07283

> <CNNscore>
0.2416485995

> <CNNaffinity>
4.9691185951

> <CNN_VS>
1.2007805109

> <CNNaffinity_variance>
0.2166192532

$$$$
[H]c1c([H])c([H])c([C@@]2([H])C([H])([H])[C@]2([H])N([H])C([H])([H])C2([H])C([H])([H])C([H])([H])N([H])C([H])([H])C2([H])[H])c([H])c1[H]


 19 21  0  0  0  0  0  0  0  0999 V2000
   -4.0192   23.5268  -22.6506 N   0  0  0  0  0  0  0  0  0  0  0  0
   -3.9008   23.6047  -21.6279 H   0  0  0  0  0  0  0  0  0  0  0  0
   -2.6687   22.0908  -24.2717 C   0  0  0  0  0  0  0  0  0  0  0  0
   -2.0976   21.9890  -22.8540 C   0  0  0  0  0  0  0  0  0  0  0  0
   -2.7869   23.2583  -23.3658 C   0  0  0  0  0  0  0  0  0  0  0  0
    0.0332   22.5598  -27.5912 C   0  0  0  0  0  0  0  0  0  0  0  0
   -1.3222   22.7742  -27.7258 C   0  0  0  0  0  0  0  0  0  0  0  0
   -2.1790   22.6160  -26.6352 C   0  0  0  0  0  0  0  0  0  0  0  0
   -1.7159   22.2451  -25.3971 C   0  0  0  0  0  0  0  0  0  0  0  0
   -0.3591   22.0323  -25.2698 C   0  0  0  0  0  0  0  0  0  0  0  0
    0.5008   22.1881  -26.3529 C   0  0  0  0  0  0  0  0  0  0  0  0
   -4.5990   24.7104  -23.2510 C   0  0  0  0  0  0  0  0  0  0  0  0
   -4.8450   24.5754  -24.7248 C   0  0  0  0  0  0  0  0  0  0  0  0
   -4.6621   25.9161  -25.3769 C   0  0  0  0  0  0  0  0  0  0  0  0
   -5.6841   26.9370  -24.9953 C   0  0  0  0  0  0  0  0  0  0  0  0
   -6.9189   26.3470  -24.5085 N   0  0  0  0  0  0  0  0  0  0  0  0
   -7.1782   25.1964  -25.3876 C   0  0  0  0  0  0  0  0  0  0  0  0
   -6.2764   24.0762  -24.8889 C   0  0  0  0  0  0  0  0  0  0  0  0
   -7.6730   27.0394  -24.5570 H   0  0  0  0  0  0  0  0  0  0  0  0
  6  7  2  0  0  0
  7  8  1  0  0  0
  8  9  2  0  0  0
  9  3  1  0  0  0
  3  4  1  0  0  0
  4  5  1  0  0  0
  5  1  1  0  0  0
  1 12  1  0  0  0
 12 13  1  0  0  0
 13 14  1  0  0  0
 14 15  1  0  0  0
 15 16  1  0  0  0
 16 17  1  0  0  0
 17 18  1  0  0  0
  9 10  1  0  0  0
 10 11  2  0  0  0
 11  6  1  0  0  0
  5  3  1  0  0  0
 18 13  1  0  0  0
  1  2  1  0  0  0
 16 19  1  0  0  0
M  END
> <minimizedAffinity>
-6.71323

> <CNNscore>
0.2296735197

> <CNNaffinity>
4.6988325119

> <CNN_VS>
1.0791974068

> <CNNaffinity_variance>
0.4139268994

$$$$
[H]c1c([H])c([H])c([C@@]2([H])C([H])([H])[C@]2([H])N([H])C([H])([H])C2([H])C([H])([H])C([H])([H])N([H])C([H])([H])C2([H])[H])c([H])c1[H]


 19 21  0  0  0  0  0  0  0  0999 V2000
   -3.7834   23.1192  -25.4147 N   0  0  0  0  0  0  0  0  0  0  0  0
   -2.9048   22.9888  -24.8883 H   0  0  0  0  0  0  0  0  0  0  0  0
   -3.9951   23.0383  -27.9568 C   0  0  0  0  0  0  0  0  0  0  0  0
   -2.5222   23.0361  -27.5363 C   0  0  0  0  0  0  0  0  0  0  0  0
   -3.6041   23.7416  -26.7118 C   0  0  0  0  0  0  0  0  0  0  0  0
   -5.2171   25.5112  -31.2630 C   0  0  0  0  0  0  0  0  0  0  0  0
   -5.8356   24.3091  -30.9914 C   0  0  0  0  0  0  0  0  0  0  0  0
   -5.4222   23.5242  -29.9137 C   0  0  0  0  0  0  0  0  0  0  0  0
   -4.3953   23.9094  -29.0879 C   0  0  0  0  0  0  0  0  0  0  0  0
   -3.7813   25.1128  -29.3655 C   0  0  0  0  0  0  0  0  0  0  0  0
   -4.1883   25.9004  -30.4383 C   0  0  0  0  0  0  0  0  0  0  0  0
   -4.7635   23.9140  -24.7038 C   0  0  0  0  0  0  0  0  0  0  0  0
   -6.1266   23.2885  -24.6633 C   0  0  0  0  0  0  0  0  0  0  0  0
   -6.8661   23.6435  -25.9217 C   0  0  0  0  0  0  0  0  0  0  0  0
   -7.2055   25.0924  -26.0549 C   0  0  0  0  0  0  0  0  0  0  0  0
   -7.2404   25.7850  -24.7785 N   0  0  0  0  0  0  0  0  0  0  0  0
   -7.8983   24.8573  -23.8455 C   0  0  0  0  0  0  0  0  0  0  0  0
   -6.8332   23.8506  -23.4346 C   0  0  0  0  0  0  0  0  0  0  0  0
   -7.7648   26.6602  -24.8768 H   0  0  0  0  0  0  0  0  0  0  0  0
  6  7  2  0  0  0
  7  8  1  0  0  0
  8  9  2  0  0  0
  9  3  1  0  0  0
  3  4  1  0  0  0
  4  5  1  0  0  0
  5  1  1  0  0  0
  1 12  1  0  0  0
 12 13  1  0  0  0
 13 14  1  0  0  0
 14 15  1  0  0  0
 15 16  1  0  0  0
 16 17  1  0  0  0
 17 18  1  0  0  0
  9 10  1  0  0  0
 10 11  2  0  0  0
 11  6  1  0  0  0
  5  3  1  0  0  0
 18 13  1  0  0  0
  1  2  1  0  0  0
 16 19  1  0  0  0
M  END
> <minimizedAffinity>
-7.44757

> <CNNscore>
0.2288491577

> <CNNaffinity>
4.8035821915

> <CNN_VS>
1.0992957354

> <CNNaffinity_variance>
0.4105589986

$$$$
[H]c1c([H])c([H])c([C@@]2([H])C([H])([H])[C@]2([H])N([H])C([H])([H])C2([H])C([H])([H])C([H])([H])N([H])C([H])([H])C2([H])[H])c([H])c1[H]


 19 21  0  0  0  0  0  0  0  0999 V2000
   -2.5617   22.4675  -22.3678 N   0  0  0  0  0  0  0  0  0  0  0  0
   -2.2784   23.0162  -21.5403 H   0  0  0  0  0  0  0  0  0  0  0  0
   -1.5911   21.6998  -24.5999 C   0  0  0  0  0  0  0  0  0  0  0  0
   -0.4789   21.8943  -23.5647 C   0  0  0  0  0  0  0  0  0  0  0  0
   -1.7627   22.7309  -23.5487 C   0  0  0  0  0  0  0  0  0  0  0  0
   -0.8450   23.1885  -28.5707 C   0  0  0  0  0  0  0  0  0  0  0  0
    0.1855   22.8908  -27.7042 C   0  0  0  0  0  0  0  0  0  0  0  0
   -0.0807   22.4092  -26.4213 C   0  0  0  0  0  0  0  0  0  0  0  0
   -1.3631   22.2134  -25.9720 C   0  0  0  0  0  0  0  0  0  0  0  0
   -2.3889   22.5132  -26.8439 C   0  0  0  0  0  0  0  0  0  0  0  0
   -2.1307   22.9938  -28.1243 C   0  0  0  0  0  0  0  0  0  0  0  0
   -3.9441   22.6756  -22.7461 C   0  0  0  0  0  0  0  0  0  0  0  0
   -4.1982   24.0137  -23.3753 C   0  0  0  0  0  0  0  0  0  0  0  0
   -4.8790   24.9041  -22.3753 C   0  0  0  0  0  0  0  0  0  0  0  0
   -6.2630   24.4793  -22.0064 C   0  0  0  0  0  0  0  0  0  0  0  0
   -6.8842   23.6377  -23.0143 N   0  0  0  0  0  0  0  0  0  0  0  0
   -6.5118   24.2325  -24.3071 C   0  0  0  0  0  0  0  0  0  0  0  0
   -5.0896   23.7685  -24.5879 C   0  0  0  0  0  0  0  0  0  0  0  0
   -7.9000   23.6311  -22.8779 H   0  0  0  0  0  0  0  0  0  0  0  0
  6  7  2  0  0  0
  7  8  1  0  0  0
  8  9  2  0  0  0
  9  3  1  0  0  0
  3  4  1  0  0  0
  4  5  1  0  0  0
  5  1  1  0  0  0
  1 12  1  0  0  0
 12 13  1  0  0  0
 13 14  1  0  0  0
 14 15  1  0  0  0
 15 16  1  0  0  0
 16 17  1  0  0  0
 17 18  1  0  0  0
  9 10  1  0  0  0
 10 11  2  0  0  0
 11  6  1  0  0  0
  5  3  1  0  0  0
 18 13  1  0  0  0
  1  2  1  0  0  0
 16 19  1  0  0  0
M  END
> <minimizedAffinity>
-6.13237

> <CNNscore>
0.2286259085

> <CNNaffinity>
4.5644583702

> <CNN_VS>
1.0435534716

> <CNNaffinity_variance>
0.1539560556

$$$$
[H]c1c([H])c([H])c([C@@]2([H])C([H])([H])[C@]2([H])N([H])C([H])([H])C2([H])C([H])([H])C([H])([H])N([H])C([H])([H])C2([H])[H])c([H])c1[H]


 19 21  0  0  0  0  0  0  0  0999 V2000
   -4.4516   23.3060  -23.1134 N   0  0  0  0  0  0  0  0  0  0  0  0
   -4.4643   24.0502  -22.3978 H   0  0  0  0  0  0  0  0  0  0  0  0
   -2.9215   21.9682  -24.6570 C   0  0  0  0  0  0  0  0  0  0  0  0
   -2.5094   21.7828  -23.1934 C   0  0  0  0  0  0  0  0  0  0  0  0
   -3.1464   23.0802  -23.7027 C   0  0  0  0  0  0  0  0  0  0  0  0
    0.2440   22.5880  -27.5092 C   0  0  0  0  0  0  0  0  0  0  0  0
    0.5043   22.1935  -26.2139 C   0  0  0  0  0  0  0  0  0  0  0  0
   -0.5385   21.9987  -25.3066 C   0  0  0  0  0  0  0  0  0  0  0  0
   -1.8516   22.1887  -25.6594 C   0  0  0  0  0  0  0  0  0  0  0  0
   -2.1046   22.5832  -26.9566 C   0  0  0  0  0  0  0  0  0  0  0  0
   -1.0698   22.7794  -27.8663 C   0  0  0  0  0  0  0  0  0  0  0  0
   -5.3661   23.5510  -24.2094 C   0  0  0  0  0  0  0  0  0  0  0  0
   -5.4572   24.9961  -24.6021 C   0  0  0  0  0  0  0  0  0  0  0  0
   -6.8942   25.4298  -24.5445 C   0  0  0  0  0  0  0  0  0  0  0  0
   -7.7784   24.7867  -25.5628 C   0  0  0  0  0  0  0  0  0  0  0  0
   -7.0462   24.2888  -26.7143 N   0  0  0  0  0  0  0  0  0  0  0  0
   -6.0398   25.3186  -27.0157 C   0  0  0  0  0  0  0  0  0  0  0  0
   -4.9084   25.1029  -26.0207 C   0  0  0  0  0  0  0  0  0  0  0  0
   -7.6921   24.1484  -27.4977 H   0  0  0  0  0  0  0  0  0  0  0  0
  6  7  2  0  0  0
  7  8  1  0  0  0
  8  9  2  0  0  0
  9  3  1  0  0  0
  3  4  1  0  0  0
  4  5  1  0  0  0
  5  1  1  0  0  0
  1 12  1  0  0  0
 12 13  1  0  0  0
 13 14  1  0  0  0
 14 15  1  0  0  0
 15 16  1  0  0  0
 16 17  1  0  0  0
 17 18  1  0  0  0
  9 10  1  0  0  0
 10 11  2  0  0  0
 11  6  1  0  0  0
  5  3  1  0  0  0
 18 13  1  0  0  0
  1  2  1  0  0  0
 16 19  1  0  0  0
M  END
> <minimizedAffinity>
-6.52432

> <CNNscore>
0.2073109895

> <CNNaffinity>
4.7547836304

> <CNN_VS>
0.9857189059

> <CNNaffinity_variance>
0.3261846900

$$$$
[H]c1c([H])c([H])c([C@@]2([H])C([H])([H])[C@]2([H])N([H])C([H])([H])C2([H])C([H])([H])C([H])([H])N([H])C([H])([H])C2([H])[H])c([H])c1[H]


 19 21  0  0  0  0  0  0  0  0999 V2000
   -4.7773   23.2306  -23.4139 N   0  0  0  0  0  0  0  0  0  0  0  0
   -4.9724   23.9971  -22.7502 H   0  0  0  0  0  0  0  0  0  0  0  0
   -2.8119   21.9998  -24.4796 C   0  0  0  0  0  0  0  0  0  0  0  0
   -2.4710   22.4267  -23.0486 C   0  0  0  0  0  0  0  0  0  0  0  0
   -3.4244   23.2350  -23.9351 C   0  0  0  0  0  0  0  0  0  0  0  0
    0.2309   22.5660  -27.4731 C   0  0  0  0  0  0  0  0  0  0  0  0
    0.5459   22.1996  -26.1816 C   0  0  0  0  0  0  0  0  0  0  0  0
   -0.4578   22.0217  -25.2280 C   0  0  0  0  0  0  0  0  0  0  0  0
   -1.7850   22.2014  -25.5300 C   0  0  0  0  0  0  0  0  0  0  0  0
   -2.0927   22.5678  -26.8235 C   0  0  0  0  0  0  0  0  0  0  0  0
   -1.0971   22.7470  -27.7793 C   0  0  0  0  0  0  0  0  0  0  0  0
   -5.6641   23.2261  -24.5589 C   0  0  0  0  0  0  0  0  0  0  0  0
   -7.0417   23.7347  -24.2517 C   0  0  0  0  0  0  0  0  0  0  0  0
   -7.3419   24.9057  -25.1434 C   0  0  0  0  0  0  0  0  0  0  0  0
   -6.5094   26.1176  -24.8784 C   0  0  0  0  0  0  0  0  0  0  0  0
   -5.9581   26.1426  -23.5348 N   0  0  0  0  0  0  0  0  0  0  0  0
   -7.0382   25.6654  -22.6575 C   0  0  0  0  0  0  0  0  0  0  0  0
   -7.0417   24.1486  -22.7841 C   0  0  0  0  0  0  0  0  0  0  0  0
   -5.6714   27.0980  -23.2987 H   0  0  0  0  0  0  0  0  0  0  0  0
  6  7  2  0  0  0
  7  8  1  0  0  0
  8  9  2  0  0  0
  9  3  1  0  0  0
  3  4  1  0  0  0
  4  5  1  0  0  0
  5  1  1  0  0  0
  1 12  1  0  0  0
 12 13  1  0  0  0
 13 14  1  0  0  0
 14 15  1  0  0  0
 15 16  1  0  0  0
 16 17  1  0  0  0
 17 18  1  0  0  0
  9 10  1  0  0  0
 10 11  2  0  0  0
 11  6  1  0  0  0
  5  3  1  0  0  0
 18 13  1  0  0  0
  1  2  1  0  0  0
 16 19  1  0  0  0
M  END
> <minimizedAffinity>
-6.45320

> <CNNscore>
0.2021307200

> <CNNaffinity>
4.5613946915

> <CNN_VS>
0.9219979644

> <CNNaffinity_variance>
0.2339319885

$$$$
[H]c1c([H])c([H])c([C@@]2([H])C([H])([H])[C@]2([H])N([H])C([H])([H])C2([H])C([H])([H])C([H])([H])N([H])C([H])([H])C2([H])[H])c([H])c1[H]


 19 21  0  0  0  0  0  0  0  0999 V2000
   -5.4710   26.0184  -23.8168 N   0  0  0  0  0  0  0  0  0  0  0  0
   -6.1767   26.5931  -23.3292 H   0  0  0  0  0  0  0  0  0  0  0  0
   -4.4839   25.7041  -26.1493 C   0  0  0  0  0  0  0  0  0  0  0  0
   -4.9187   27.1575  -25.9372 C   0  0  0  0  0  0  0  0  0  0  0  0
   -5.6339   25.9853  -25.2571 C   0  0  0  0  0  0  0  0  0  0  0  0
   -5.4221   23.8997  -29.9445 C   0  0  0  0  0  0  0  0  0  0  0  0
   -4.8640   25.1577  -29.8598 C   0  0  0  0  0  0  0  0  0  0  0  0
   -4.5682   25.7224  -28.6180 C   0  0  0  0  0  0  0  0  0  0  0  0
   -4.8168   25.0589  -27.4420 C   0  0  0  0  0  0  0  0  0  0  0  0
   -5.3752   23.8012  -27.5342 C   0  0  0  0  0  0  0  0  0  0  0  0
   -5.6727   23.2322  -28.7690 C   0  0  0  0  0  0  0  0  0  0  0  0
   -5.4465   24.6413  -23.3691 C   0  0  0  0  0  0  0  0  0  0  0  0
   -6.6805   23.8704  -23.7350 C   0  0  0  0  0  0  0  0  0  0  0  0
   -7.7813   24.2237  -22.7761 C   0  0  0  0  0  0  0  0  0  0  0  0
   -7.5507   23.7702  -21.3713 C   0  0  0  0  0  0  0  0  0  0  0  0
   -6.6151   22.6629  -21.2807 N   0  0  0  0  0  0  0  0  0  0  0  0
   -6.9529   21.7699  -22.3998 C   0  0  0  0  0  0  0  0  0  0  0  0
   -6.3215   22.3916  -23.6374 C   0  0  0  0  0  0  0  0  0  0  0  0
   -6.7235   22.1947  -20.3753 H   0  0  0  0  0  0  0  0  0  0  0  0
  6  7  2  0  0  0
  7  8  1  0  0  0
  8  9  2  0  0  0
  9  3  1  0  0  0
  3  4  1  0  0  0
  4  5  1  0  0  0
  5  1  1  0  0  0
  1 12  1  0  0  0
 12 13  1  0  0  0
 13 14  1  0  0  0
 14 15  1  0  0  0
 15 16  1  0  0  0
 16 17  1  0  0  0
 17 18  1  0  0  0
  9 10  1  0  0  0
 10 11  2  0  0  0
 11  6  1  0  0  0
  5  3  1  0  0  0
 18 13  1  0  0  0
  1  2  1  0  0  0
 16 19  1  0  0  0
M  END
> <minimizedAffinity>
-6.22640

> <CNNscore>
0.2009260803

> <CNNaffinity>
4.5647311211

> <CNN_VS>
0.9171735048

> <CNNaffinity_variance>
0.2887014747

$$$$
[H]c1c([H])c([H])c([C@@]2([H])C([H])([H])[C@]2([H])N([H])C([H])([H])C2([H])C([H])([H])C([H])([H])N([H])C([H])([H])C2([H])[H])c([H])c1[H]


 19 21  0  0  0  0  0  0  0  0999 V2000
   -4.3799   24.0380  -27.1540 N   0  0  0  0  0  0  0  0  0  0  0  0
   -5.3713   23.7547  -27.2095 H   0  0  0  0  0  0  0  0  0  0  0  0
   -2.0438   23.1698  -26.6042 C   0  0  0  0  0  0  0  0  0  0  0  0
   -2.7537   22.2297  -27.5833 C   0  0  0  0  0  0  0  0  0  0  0  0
   -3.5196   23.0471  -26.5376 C   0  0  0  0  0  0  0  0  0  0  0  0
    0.0501   21.4036  -23.2822 C   0  0  0  0  0  0  0  0  0  0  0  0
   -1.3194   21.5633  -23.2717 C   0  0  0  0  0  0  0  0  0  0  0  0
   -1.9767   22.1386  -24.3606 C   0  0  0  0  0  0  0  0  0  0  0  0
   -1.2975   22.5650  -25.4748 C   0  0  0  0  0  0  0  0  0  0  0  0
    0.0721   22.4023  -25.4784 C   0  0  0  0  0  0  0  0  0  0  0  0
    0.7339   21.8296  -24.3963 C   0  0  0  0  0  0  0  0  0  0  0  0
   -4.1782   25.2741  -26.4268 C   0  0  0  0  0  0  0  0  0  0  0  0
   -5.4053   26.1343  -26.3555 C   0  0  0  0  0  0  0  0  0  0  0  0
   -5.6076   26.5828  -24.9363 C   0  0  0  0  0  0  0  0  0  0  0  0
   -5.9546   25.4868  -23.9820 C   0  0  0  0  0  0  0  0  0  0  0  0
   -6.5332   24.3274  -24.6383 N   0  0  0  0  0  0  0  0  0  0  0  0
   -7.4483   24.8672  -25.6557 C   0  0  0  0  0  0  0  0  0  0  0  0
   -6.5730   25.2769  -26.8316 C   0  0  0  0  0  0  0  0  0  0  0  0
   -7.0286   23.7536  -23.9482 H   0  0  0  0  0  0  0  0  0  0  0  0
  6  7  2  0  0  0
  7  8  1  0  0  0
  8  9  2  0  0  0
  9  3  1  0  0  0
  3  4  1  0  0  0
  4  5  1  0  0  0
  5  1  1  0  0  0
  1 12  1  0  0  0
 12 13  1  0  0  0
 13 14  1  0  0  0
 14 15  1  0  0  0
 15 16  1  0  0  0
 16 17  1  0  0  0
 17 18  1  0  0  0
  9 10  1  0  0  0
 10 11  2  0  0  0
 11  6  1  0  0  0
  5  3  1  0  0  0
 18 13  1  0  0  0
  1  2  1  0  0  0
 16 19  1  0  0  0
M  END
> <minimizedAffinity>
-6.21312

> <CNNscore>
0.1918569654

> <CNNaffinity>
4.6673192978

> <CNN_VS>
0.8954577446

> <CNNaffinity_variance>
0.3775275350

$$$$
[H]c1c([H])c([H])c([C@@]2([H])C([H])([H])[C@]2([H])N([H])C([H])([H])C2([H])C([H])([H])C([H])([H])N([H])C([H])([H])C2([H])[H])c([H])c1[H]


 19 21  0  0  0  0  0  0  0  0999 V2000
   -4.2231   22.0047  -22.1755 N   0  0  0  0  0  0  0  0  0  0  0  0
   -4.7190   21.2141  -21.7338 H   0  0  0  0  0  0  0  0  0  0  0  0
   -3.4147   22.3859  -24.5660 C   0  0  0  0  0  0  0  0  0  0  0  0
   -4.2173   21.0849  -24.4673 C   0  0  0  0  0  0  0  0  0  0  0  0
   -3.3872   21.6213  -23.2963 C   0  0  0  0  0  0  0  0  0  0  0  0
    0.2801   22.3305  -26.7763 C   0  0  0  0  0  0  0  0  0  0  0  0
    0.2537   22.1693  -25.4072 C   0  0  0  0  0  0  0  0  0  0  0  0
   -0.9565   22.1908  -24.7118 C   0  0  0  0  0  0  0  0  0  0  0  0
   -2.1576   22.3709  -25.3520 C   0  0  0  0  0  0  0  0  0  0  0  0
   -2.1236   22.5315  -26.7214 C   0  0  0  0  0  0  0  0  0  0  0  0
   -0.9207   22.5113  -27.4210 C   0  0  0  0  0  0  0  0  0  0  0  0
   -3.3758   22.7343  -21.2550 C   0  0  0  0  0  0  0  0  0  0  0  0
   -2.1996   21.9413  -20.7667 C   0  0  0  0  0  0  0  0  0  0  0  0
   -2.6144   21.1375  -19.5674 C   0  0  0  0  0  0  0  0  0  0  0  0
   -2.9489   21.9511  -18.3598 C   0  0  0  0  0  0  0  0  0  0  0  0
   -2.3373   23.2684  -18.3779 N   0  0  0  0  0  0  0  0  0  0  0  0
   -0.9747   23.0624  -18.8926 C   0  0  0  0  0  0  0  0  0  0  0  0
   -1.1108   22.9455  -20.4041 C   0  0  0  0  0  0  0  0  0  0  0  0
   -2.3301   23.6570  -17.4294 H   0  0  0  0  0  0  0  0  0  0  0  0
  6  7  2  0  0  0
  7  8  1  0  0  0
  8  9  2  0  0  0
  9  3  1  0  0  0
  3  4  1  0  0  0
  4  5  1  0  0  0
  5  1  1  0  0  0
  1 12  1  0  0  0
 12 13  1  0  0  0
 13 14  1  0  0  0
 14 15  1  0  0  0
 15 16  1  0  0  0
 16 17  1  0  0  0
 17 18  1  0  0  0
  9 10  1  0  0  0
 10 11  2  0  0  0
 11  6  1  0  0  0
  5  3  1  0  0  0
 18 13  1  0  0  0
  1  2  1  0  0  0
 16 19  1  0  0  0
M  END
> <minimizedAffinity>
-5.87501

> <CNNscore>
0.1889511645

> <CNNaffinity>
4.2256665230

> <CNN_VS>
0.7984446287

> <CNNaffinity_variance>
0.0763841122

$$$$
[H]OC([H])([H])C(F)(F)C([H])([H])N1[C@]([H])(c2c(F)c([H])nc(OC([H])([H])C([H])([H])N([H])C([H])([H])C([H])([H])C([H])([H])F)c2F)c2c(c3c([H])c([H])c([H])c([H])c3n2[H])C([H])([H])[C@@]1([H])C([H])([H])[H]


 39 42  0  0  0  0  0  0  0  0999 V2000
   -8.1604   25.1579  -25.8918 C   0  0  0  0  0  0  0  0  0  0  0  0
   -6.7981   25.4526  -25.3236 C   0  0  0  0  0  0  0  0  0  0  0  0
   -6.0877   26.1512  -26.5200 C   0  0  0  0  0  0  0  0  0  0  0  0
   -5.8793   25.0806  -27.5121 C   0  0  0  0  0  0  0  0  0  0  0  0
   -5.6877   23.7862  -27.1024 C   0  0  0  0  0  0  0  0  0  0  0  0
   -5.5325   23.0621  -28.2326 N   0  0  0  0  0  0  0  0  0  0  0  0
   -5.6156   23.8280  -29.3260 C   0  0  0  0  0  0  0  0  0  0  0  0
   -5.5295   23.5916  -30.6854 C   0  0  0  0  0  0  0  0  0  0  0  0
   -5.6616   24.6238  -31.5864 C   0  0  0  0  0  0  0  0  0  0  0  0
   -5.8857   25.9354  -31.1547 C   0  0  0  0  0  0  0  0  0  0  0  0
   -5.9668   26.1399  -29.7959 C   0  0  0  0  0  0  0  0  0  0  0  0
   -5.8365   25.1177  -28.8867 C   0  0  0  0  0  0  0  0  0  0  0  0
   -5.6686   23.3564  -25.6739 C   0  0  0  0  0  0  0  0  0  0  0  0
   -6.0541   24.4132  -24.7919 N   0  0  0  0  0  0  0  0  0  0  0  0
   -5.3682   22.0345  -28.2634 H   0  0  0  0  0  0  0  0  0  0  0  0
   -4.5028   22.5554  -25.3384 C   0  0  0  0  0  0  0  0  0  0  0  0
   -4.5835   21.3803  -24.6227 C   0  0  0  0  0  0  0  0  0  0  0  0
   -5.7762   20.9621  -24.2184 F   0  0  0  0  0  0  0  0  0  0  0  0
   -3.4677   20.6233  -24.3120 C   0  0  0  0  0  0  0  0  0  0  0  0
   -2.2572   21.0434  -24.7197 N   0  0  0  0  0  0  0  0  0  0  0  0
   -2.0884   22.1762  -25.4211 C   0  0  0  0  0  0  0  0  0  0  0  0
   -3.2163   22.9214  -25.7232 C   0  0  0  0  0  0  0  0  0  0  0  0
   -3.0044   24.0610  -26.4329 F   0  0  0  0  0  0  0  0  0  0  0  0
   -0.8330   22.5546  -25.8103 O   0  0  0  0  0  0  0  0  0  0  0  0
    0.3880   22.1358  -25.2863 C   0  0  0  0  0  0  0  0  0  0  0  0
    0.6451   22.5237  -23.8718 C   0  0  0  0  0  0  0  0  0  0  0  0
    0.5017   21.4083  -22.9521 N   0  0  0  0  0  0  0  0  0  0  0  0
    0.3996   20.4954  -23.4104 H   0  0  0  0  0  0  0  0  0  0  0  0
   -0.4752   21.6420  -21.9289 C   0  0  0  0  0  0  0  0  0  0  0  0
   -1.1628   22.9767  -22.0737 C   0  0  0  0  0  0  0  0  0  0  0  0
   -2.3261   23.1553  -21.1431 C   0  0  0  0  0  0  0  0  0  0  0  0
   -2.4450   22.1500  -20.2099 F   0  0  0  0  0  0  0  0  0  0  0  0
   -5.6653   24.2909  -23.4800 C   0  0  0  0  0  0  0  0  0  0  0  0
   -6.4957   24.0479  -22.3134 C   0  0  0  0  0  0  0  0  0  0  0  0
   -7.1948   22.8414  -22.3340 F   0  0  0  0  0  0  0  0  0  0  0  0
   -5.6102   23.7607  -21.1805 F   0  0  0  0  0  0  0  0  0  0  0  0
   -7.3818   25.0877  -21.7382 C   0  0  0  0  0  0  0  0  0  0  0  0
   -8.3798   24.7339  -20.8951 O   0  0  0  0  0  0  0  0  0  0  0  0
   -8.1018   24.7380  -19.9496 H   0  0  0  0  0  0  0  0  0  0  0  0
  1  2  1  0  0  0
  2  3  1  0  0  0
  3  4  1  0  0  0
  4  5  2  0  0  0
  5  6  1  0  0  0
  6  7  1  0  0  0
  7  8  2  0  0  0
  8  9  1  0  0  0
  9 10  2  0  0  0
 10 11  1  0  0  0
 11 12  2  0  0  0
  5 13  1  0  0  0
 13 16  1  0  0  0
 16 17  2  0  0  0
 17 18  1  0  0  0
 17 19  1  0  0  0
 19 20  2  0  0  0
 20 21  1  0  0  0
 21 24  1  0  0  0
 24 25  1  0  0  0
 25 26  1  0  0  0
 26 27  1  0  0  0
 27 29  1  0  0  0
 29 30  1  0  0  0
 30 31  1  0  0  0
 31 32  1  0  0  0
 21 22  2  0  0  0
 22 23  1  0  0  0
 13 14  1  0  0  0
 14 33  1  0  0  0
 33 34  1  0  0  0
 34 35  1  0  0  0
 34 36  1  0  0  0
 34 37  1  0  0  0
 37 38  1  0  0  0
 14  2  1  0  0  0
 12  4  1  0  0  0
 22 16  1  0  0  0
 12  7  1  0  0  0
  6 15  1  0  0  0
 27 28  1  0  0  0
 38 39  1  0  0  0
M  END
> <minimizedAffinity>
-6.26450

> <CNNscore>
0.2001496106

> <CNNaffinity>
7.0029969215

> <CNN_VS>
1.4016470909

> <CNNaffinity_variance>
0.1810905486

$$$$
[H]OC([H])([H])C(F)(F)C([H])([H])N1[C@]([H])(c2c(F)c([H])nc(OC([H])([H])C([H])([H])N([H])C([H])([H])C([H])([H])C([H])([H])F)c2F)c2c(c3c([H])c([H])c([H])c([H])c3n2[H])C([H])([H])[C@@]1([H])C([H])([H])[H]


 39 42  0  0  0  0  0  0  0  0999 V2000
   -0.5576   23.1856  -25.8359 C   0  0  0  0  0  0  0  0  0  0  0  0
   -1.4829   22.0466  -25.5015 C   0  0  0  0  0  0  0  0  0  0  0  0
   -2.3760   21.9650  -26.7742 C   0  0  0  0  0  0  0  0  0  0  0  0
   -3.2107   23.1795  -26.7275 C   0  0  0  0  0  0  0  0  0  0  0  0
   -3.5694   23.7259  -25.5221 C   0  0  0  0  0  0  0  0  0  0  0  0
   -4.3170   24.8117  -25.8187 N   0  0  0  0  0  0  0  0  0  0  0  0
   -4.4474   24.9766  -27.1396 C   0  0  0  0  0  0  0  0  0  0  0  0
   -5.0905   25.8992  -27.9437 C   0  0  0  0  0  0  0  0  0  0  0  0
   -5.0359   25.7929  -29.3149 C   0  0  0  0  0  0  0  0  0  0  0  0
   -4.3318   24.7532  -29.9315 C   0  0  0  0  0  0  0  0  0  0  0  0
   -3.7018   23.8503  -29.1055 C   0  0  0  0  0  0  0  0  0  0  0  0
   -3.7491   23.9458  -27.7353 C   0  0  0  0  0  0  0  0  0  0  0  0
   -3.1694   23.1650  -24.1988 C   0  0  0  0  0  0  0  0  0  0  0  0
   -2.2214   22.1036  -24.3319 N   0  0  0  0  0  0  0  0  0  0  0  0
   -4.7446   25.4499  -25.1161 H   0  0  0  0  0  0  0  0  0  0  0  0
   -4.2938   22.9895  -23.2942 C   0  0  0  0  0  0  0  0  0  0  0  0
   -5.2718   22.0389  -23.4924 C   0  0  0  0  0  0  0  0  0  0  0  0
   -5.1869   21.2509  -24.5566 F   0  0  0  0  0  0  0  0  0  0  0  0
   -6.3360   21.8777  -22.6229 C   0  0  0  0  0  0  0  0  0  0  0  0
   -6.4260   22.6740  -21.5433 N   0  0  0  0  0  0  0  0  0  0  0  0
   -5.5172   23.6257  -21.2747 C   0  0  0  0  0  0  0  0  0  0  0  0
   -4.4585   23.7730  -22.1557 C   0  0  0  0  0  0  0  0  0  0  0  0
   -3.5609   24.7468  -21.8504 F   0  0  0  0  0  0  0  0  0  0  0  0
   -5.6589   24.4067  -20.1608 O   0  0  0  0  0  0  0  0  0  0  0  0
   -6.3014   25.6382  -20.0553 C   0  0  0  0  0  0  0  0  0  0  0  0
   -7.6474   25.7151  -20.6879 C   0  0  0  0  0  0  0  0  0  0  0  0
   -7.6190   26.3736  -21.9826 N   0  0  0  0  0  0  0  0  0  0  0  0
   -7.9787   27.3351  -21.9736 H   0  0  0  0  0  0  0  0  0  0  0  0
   -8.1690   25.5717  -23.0363 C   0  0  0  0  0  0  0  0  0  0  0  0
   -7.2022   25.3633  -24.1751 C   0  0  0  0  0  0  0  0  0  0  0  0
   -7.8239   24.7170  -25.3780 C   0  0  0  0  0  0  0  0  0  0  0  0
   -7.1881   23.5616  -25.7736 F   0  0  0  0  0  0  0  0  0  0  0  0
   -2.1132   21.2399  -23.2691 C   0  0  0  0  0  0  0  0  0  0  0  0
   -1.1476   21.2630  -22.1844 C   0  0  0  0  0  0  0  0  0  0  0  0
   -0.6124   20.0192  -21.8509 F   0  0  0  0  0  0  0  0  0  0  0  0
    0.0781   21.8943  -22.6840 F   0  0  0  0  0  0  0  0  0  0  0  0
   -1.3786   22.0198  -20.9309 C   0  0  0  0  0  0  0  0  0  0  0  0
   -1.0435   23.3293  -20.8608 O   0  0  0  0  0  0  0  0  0  0  0  0
   -1.7827   23.9281  -21.1179 H   0  0  0  0  0  0  0  0  0  0  0  0
  1  2  1  0  0  0
  2  3  1  0  0  0
  3  4  1  0  0  0
  4  5  2  0  0  0
  5  6  1  0  0  0
  6  7  1  0  0  0
  7  8  2  0  0  0
  8  9  1  0  0  0
  9 10  2  0  0  0
 10 11  1  0  0  0
 11 12  2  0  0  0
  5 13  1  0  0  0
 13 16  1  0  0  0
 16 17  2  0  0  0
 17 18  1  0  0  0
 17 19  1  0  0  0
 19 20  2  0  0  0
 20 21  1  0  0  0
 21 24  1  0  0  0
 24 25  1  0  0  0
 25 26  1  0  0  0
 26 27  1  0  0  0
 27 29  1  0  0  0
 29 30  1  0  0  0
 30 31  1  0  0  0
 31 32  1  0  0  0
 21 22  2  0  0  0
 22 23  1  0  0  0
 13 14  1  0  0  0
 14 33  1  0  0  0
 33 34  1  0  0  0
 34 35  1  0  0  0
 34 36  1  0  0  0
 34 37  1  0  0  0
 37 38  1  0  0  0
 14  2  1  0  0  0
 12  4  1  0  0  0
 22 16  1  0  0  0
 12  7  1  0  0  0
  6 15  1  0  0  0
 27 28  1  0  0  0
 38 39  1  0  0  0
M  END
> <minimizedAffinity>
-8.07914

> <CNNscore>
0.1866128743

> <CNNaffinity>
6.7400627136

> <CNN_VS>
1.2577824593

> <CNNaffinity_variance>
0.3718891144

$$$$
[H]OC([H])([H])C(F)(F)C([H])([H])N1[C@]([H])(c2c(F)c([H])nc(OC([H])([H])C([H])([H])N([H])C([H])([H])C([H])([H])C([H])([H])F)c2F)c2c(c3c([H])c([H])c([H])c([H])c3n2[H])C([H])([H])[C@@]1([H])C([H])([H])[H]


 39 42  0  0  0  0  0  0  0  0999 V2000
   -3.6622   21.9086  -29.0168 C   0  0  0  0  0  0  0  0  0  0  0  0
   -3.6052   23.4106  -28.9395 C   0  0  0  0  0  0  0  0  0  0  0  0
   -2.1906   23.6547  -28.3365 C   0  0  0  0  0  0  0  0  0  0  0  0
   -2.2905   23.1903  -26.9407 C   0  0  0  0  0  0  0  0  0  0  0  0
   -3.4819   23.2758  -26.2673 C   0  0  0  0  0  0  0  0  0  0  0  0
   -3.2444   22.7745  -25.0351 N   0  0  0  0  0  0  0  0  0  0  0  0
   -1.9735   22.3805  -24.8981 C   0  0  0  0  0  0  0  0  0  0  0  0
   -1.2373   21.8172  -23.8723 C   0  0  0  0  0  0  0  0  0  0  0  0
    0.0946   21.5176  -24.0478 C   0  0  0  0  0  0  0  0  0  0  0  0
    0.7386   21.7730  -25.2630 C   0  0  0  0  0  0  0  0  0  0  0  0
   -0.0197   22.3339  -26.2654 C   0  0  0  0  0  0  0  0  0  0  0  0
   -1.3501   22.6377  -26.1023 C   0  0  0  0  0  0  0  0  0  0  0  0
   -4.7367   23.8271  -26.8565 C   0  0  0  0  0  0  0  0  0  0  0  0
   -4.6023   24.0854  -28.2560 N   0  0  0  0  0  0  0  0  0  0  0  0
   -3.9534   22.6982  -24.2768 H   0  0  0  0  0  0  0  0  0  0  0  0
   -5.3625   24.8347  -26.0161 C   0  0  0  0  0  0  0  0  0  0  0  0
   -4.8921   26.1267  -25.9210 C   0  0  0  0  0  0  0  0  0  0  0  0
   -3.8191   26.4665  -26.6238 F   0  0  0  0  0  0  0  0  0  0  0  0
   -5.4978   27.0792  -25.1207 C   0  0  0  0  0  0  0  0  0  0  0  0
   -6.5853   26.7392  -24.4068 N   0  0  0  0  0  0  0  0  0  0  0  0
   -7.1094   25.5031  -24.4408 C   0  0  0  0  0  0  0  0  0  0  0  0
   -6.4903   24.5623  -25.2473 C   0  0  0  0  0  0  0  0  0  0  0  0
   -7.0493   23.3235  -25.2539 F   0  0  0  0  0  0  0  0  0  0  0  0
   -8.2180   25.2135  -23.6938 O   0  0  0  0  0  0  0  0  0  0  0  0
   -8.2676   24.7167  -22.3932 C   0  0  0  0  0  0  0  0  0  0  0  0
   -7.8015   25.6516  -21.3319 C   0  0  0  0  0  0  0  0  0  0  0  0
   -6.3536   25.6911  -21.2194 N   0  0  0  0  0  0  0  0  0  0  0  0
   -5.8996   26.3525  -21.8599 H   0  0  0  0  0  0  0  0  0  0  0  0
   -5.7509   24.3901  -21.2259 C   0  0  0  0  0  0  0  0  0  0  0  0
   -4.5327   24.3169  -22.1123 C   0  0  0  0  0  0  0  0  0  0  0  0
   -3.3727   23.6067  -21.4788 C   0  0  0  0  0  0  0  0  0  0  0  0
   -2.1475   24.1197  -21.8411 F   0  0  0  0  0  0  0  0  0  0  0  0
   -5.4958   24.9724  -28.8054 C   0  0  0  0  0  0  0  0  0  0  0  0
   -5.6157   25.3876  -30.1921 C   0  0  0  0  0  0  0  0  0  0  0  0
   -6.3952   26.5257  -30.3967 F   0  0  0  0  0  0  0  0  0  0  0  0
   -4.3229   25.9375  -30.6124 F   0  0  0  0  0  0  0  0  0  0  0  0
   -5.8978   24.4291  -31.2870 C   0  0  0  0  0  0  0  0  0  0  0  0
   -6.6457   24.8153  -32.3469 O   0  0  0  0  0  0  0  0  0  0  0  0
   -6.1045   25.1830  -33.0839 H   0  0  0  0  0  0  0  0  0  0  0  0
  1  2  1  0  0  0
  2  3  1  0  0  0
  3  4  1  0  0  0
  4  5  2  0  0  0
  5  6  1  0  0  0
  6  7  1  0  0  0
  7  8  2  0  0  0
  8  9  1  0  0  0
  9 10  2  0  0  0
 10 11  1  0  0  0
 11 12  2  0  0  0
  5 13  1  0  0  0
 13 16  1  0  0  0
 16 17  2  0  0  0
 17 18  1  0  0  0
 17 19  1  0  0  0
 19 20  2  0  0  0
 20 21  1  0  0  0
 21 24  1  0  0  0
 24 25  1  0  0  0
 25 26  1  0  0  0
 26 27  1  0  0  0
 27 29  1  0  0  0
 29 30  1  0  0  0
 30 31  1  0  0  0
 31 32  1  0  0  0
 21 22  2  0  0  0
 22 23  1  0  0  0
 13 14  1  0  0  0
 14 33  1  0  0  0
 33 34  1  0  0  0
 34 35  1  0  0  0
 34 36  1  0  0  0
 34 37  1  0  0  0
 37 38  1  0  0  0
 14  2  1  0  0  0
 12  4  1  0  0  0
 22 16  1  0  0  0
 12  7  1  0  0  0
  6 15  1  0  0  0
 27 28  1  0  0  0
 38 39  1  0  0  0
M  END
> <minimizedAffinity>
-8.52912

> <CNNscore>
0.1543393284

> <CNNaffinity>
6.9492006302

> <CNN_VS>
1.0725349188

> <CNNaffinity_variance>
0.4071718752

$$$$
[H]OC([H])([H])C(F)(F)C([H])([H])N1[C@]([H])(c2c(F)c([H])nc(OC([H])([H])C([H])([H])N([H])C([H])([H])C([H])([H])C([H])([H])F)c2F)c2c(c3c([H])c([H])c([H])c([H])c3n2[H])C([H])([H])[C@@]1([H])C([H])([H])[H]


 39 42  0  0  0  0  0  0  0  0999 V2000
   -0.8768   23.0074  -27.2603 C   0  0  0  0  0  0  0  0  0  0  0  0
   -1.7617   22.0198  -26.5483 C   0  0  0  0  0  0  0  0  0  0  0  0
   -2.9472   21.8632  -27.5453 C   0  0  0  0  0  0  0  0  0  0  0  0
   -3.6630   23.1508  -27.4851 C   0  0  0  0  0  0  0  0  0  0  0  0
   -3.6735   23.8824  -26.3254 C   0  0  0  0  0  0  0  0  0  0  0  0
   -4.3991   24.9897  -26.5960 N   0  0  0  0  0  0  0  0  0  0  0  0
   -4.8437   24.9937  -27.8575 C   0  0  0  0  0  0  0  0  0  0  0  0
   -5.6054   25.8636  -28.6153 C   0  0  0  0  0  0  0  0  0  0  0  0
   -5.9015   25.5750  -29.9282 C   0  0  0  0  0  0  0  0  0  0  0  0
   -5.4425   24.3988  -30.5306 C   0  0  0  0  0  0  0  0  0  0  0  0
   -4.6867   23.5524  -29.7515 C   0  0  0  0  0  0  0  0  0  0  0  0
   -4.3845   23.8295  -28.4398 C   0  0  0  0  0  0  0  0  0  0  0  0
   -2.9936   23.4612  -25.0660 C   0  0  0  0  0  0  0  0  0  0  0  0
   -2.1799   22.3019  -25.2591 N   0  0  0  0  0  0  0  0  0  0  0  0
   -4.5955   25.7534  -25.9163 H   0  0  0  0  0  0  0  0  0  0  0  0
   -3.8659   23.5181  -23.9045 C   0  0  0  0  0  0  0  0  0  0  0  0
   -3.6943   24.4287  -22.8842 C   0  0  0  0  0  0  0  0  0  0  0  0
   -2.6873   25.2893  -22.9621 F   0  0  0  0  0  0  0  0  0  0  0  0
   -4.5329   24.4768  -21.7847 C   0  0  0  0  0  0  0  0  0  0  0  0
   -5.5545   23.6065  -21.7016 N   0  0  0  0  0  0  0  0  0  0  0  0
   -5.7938   22.6868  -22.6506 C   0  0  0  0  0  0  0  0  0  0  0  0
   -4.9443   22.6529  -23.7443 C   0  0  0  0  0  0  0  0  0  0  0  0
   -5.2184   21.7081  -24.6820 F   0  0  0  0  0  0  0  0  0  0  0  0
   -6.8486   21.8269  -22.5140 O   0  0  0  0  0  0  0  0  0  0  0  0
   -7.8250   21.8214  -21.5203 C   0  0  0  0  0  0  0  0  0  0  0  0
   -7.4240   21.1925  -20.2314 C   0  0  0  0  0  0  0  0  0  0  0  0
   -6.9283   22.1606  -19.2683 N   0  0  0  0  0  0  0  0  0  0  0  0
   -6.8301   23.1122  -19.6405 H   0  0  0  0  0  0  0  0  0  0  0  0
   -5.7687   21.7069  -18.5572 C   0  0  0  0  0  0  0  0  0  0  0  0
   -4.8639   20.8486  -19.4054 C   0  0  0  0  0  0  0  0  0  0  0  0
   -3.5125   21.4557  -19.6433 C   0  0  0  0  0  0  0  0  0  0  0  0
   -3.1595   21.5116  -20.9729 F   0  0  0  0  0  0  0  0  0  0  0  0
   -1.8667   21.5773  -24.1348 C   0  0  0  0  0  0  0  0  0  0  0  0
   -0.7183   21.7264  -23.2581 C   0  0  0  0  0  0  0  0  0  0  0  0
   -0.8147   22.7723  -22.3407 F   0  0  0  0  0  0  0  0  0  0  0  0
   -0.7273   20.6094  -22.3081 F   0  0  0  0  0  0  0  0  0  0  0  0
    0.6758   21.6756  -23.7590 C   0  0  0  0  0  0  0  0  0  0  0  0
    1.1160   22.6151  -24.6283 O   0  0  0  0  0  0  0  0  0  0  0  0
    1.5222   23.3923  -24.1788 H   0  0  0  0  0  0  0  0  0  0  0  0
  1  2  1  0  0  0
  2  3  1  0  0  0
  3  4  1  0  0  0
  4  5  2  0  0  0
  5  6  1  0  0  0
  6  7  1  0  0  0
  7  8  2  0  0  0
  8  9  1  0  0  0
  9 10  2  0  0  0
 10 11  1  0  0  0
 11 12  2  0  0  0
  5 13  1  0  0  0
 13 16  1  0  0  0
 16 17  2  0  0  0
 17 18  1  0  0  0
 17 19  1  0  0  0
 19 20  2  0  0  0
 20 21  1  0  0  0
 21 24  1  0  0  0
 24 25  1  0  0  0
 25 26  1  0  0  0
 26 27  1  0  0  0
 27 29  1  0  0  0
 29 30  1  0  0  0
 30 31  1  0  0  0
 31 32  1  0  0  0
 21 22  2  0  0  0
 22 23  1  0  0  0
 13 14  1  0  0  0
 14 33  1  0  0  0
 33 34  1  0  0  0
 34 35  1  0  0  0
 34 36  1  0  0  0
 34 37  1  0  0  0
 37 38  1  0  0  0
 14  2  1  0  0  0
 12  4  1  0  0  0
 22 16  1  0  0  0
 12  7  1  0  0  0
  6 15  1  0  0  0
 27 28  1  0  0  0
 38 39  1  0  0  0
M  END
> <minimizedAffinity>
-7.41253

> <CNNscore>
0.1287252456

> <CNNaffinity>
6.8548002243

> <CNN_VS>
0.8823858500

> <CNNaffinity_variance>
0.1134768948

$$$$
[H]OC([H])([H])C(F)(F)C([H])([H])N1[C@]([H])(c2c(F)c([H])nc(OC([H])([H])C([H])([H])N([H])C([H])([H])C([H])([H])C([H])([H])F)c2F)c2c(c3c([H])c([H])c([H])c([H])c3n2[H])C([H])([H])[C@@]1([H])C([H])([H])[H]


 39 42  0  0  0  0  0  0  0  0999 V2000
   -1.0857   22.9708  -26.8239 C   0  0  0  0  0  0  0  0  0  0  0  0
   -2.0259   22.0605  -26.0805 C   0  0  0  0  0  0  0  0  0  0  0  0
   -3.1382   21.8024  -27.1390 C   0  0  0  0  0  0  0  0  0  0  0  0
   -3.8477   23.0890  -27.2616 C   0  0  0  0  0  0  0  0  0  0  0  0
   -3.9361   23.9350  -26.1862 C   0  0  0  0  0  0  0  0  0  0  0  0
   -4.6330   25.0086  -26.6194 N   0  0  0  0  0  0  0  0  0  0  0  0
   -4.9862   24.8837  -27.9035 C   0  0  0  0  0  0  0  0  0  0  0  0
   -5.6858   25.6714  -28.7986 C   0  0  0  0  0  0  0  0  0  0  0  0
   -5.8892   25.2503  -30.0932 C   0  0  0  0  0  0  0  0  0  0  0  0
   -5.3962   24.0191  -30.5383 C   0  0  0  0  0  0  0  0  0  0  0  0
   -4.7038   23.2570  -29.6249 C   0  0  0  0  0  0  0  0  0  0  0  0
   -4.4944   23.6665  -28.3298 C   0  0  0  0  0  0  0  0  0  0  0  0
   -3.3510   23.6447  -24.8449 C   0  0  0  0  0  0  0  0  0  0  0  0
   -2.5334   22.4723  -24.8601 N   0  0  0  0  0  0  0  0  0  0  0  0
   -4.8724   25.8374  -26.0368 H   0  0  0  0  0  0  0  0  0  0  0  0
   -4.3037   23.8193  -23.7609 C   0  0  0  0  0  0  0  0  0  0  0  0
   -4.2079   24.8383  -22.8378 C   0  0  0  0  0  0  0  0  0  0  0  0
   -3.2008   25.6963  -22.9393 F   0  0  0  0  0  0  0  0  0  0  0  0
   -5.1227   24.9976  -21.8119 C   0  0  0  0  0  0  0  0  0  0  0  0
   -6.1447   24.1305  -21.7053 N   0  0  0  0  0  0  0  0  0  0  0  0
   -6.3130   23.1095  -22.5614 C   0  0  0  0  0  0  0  0  0  0  0  0
   -5.3879   22.9651  -23.5823 C   0  0  0  0  0  0  0  0  0  0  0  0
   -5.5916   21.9199  -24.4268 F   0  0  0  0  0  0  0  0  0  0  0  0
   -7.3720   22.2582  -22.4050 O   0  0  0  0  0  0  0  0  0  0  0  0
   -7.8787   21.7314  -21.2191 C   0  0  0  0  0  0  0  0  0  0  0  0
   -9.0607   22.4410  -20.6562 C   0  0  0  0  0  0  0  0  0  0  0  0
   -8.7062   23.6973  -20.0185 N   0  0  0  0  0  0  0  0  0  0  0  0
   -8.3470   23.5971  -19.0620 H   0  0  0  0  0  0  0  0  0  0  0  0
   -9.7243   24.6996  -20.1402 C   0  0  0  0  0  0  0  0  0  0  0  0
  -10.2139   24.8636  -21.5574 C   0  0  0  0  0  0  0  0  0  0  0  0
   -9.2573   25.6113  -22.4389 C   0  0  0  0  0  0  0  0  0  0  0  0
   -9.0692   25.0252  -23.6704 F   0  0  0  0  0  0  0  0  0  0  0  0
   -2.3063   21.8662  -23.6484 C   0  0  0  0  0  0  0  0  0  0  0  0
   -1.1945   22.0664  -22.7355 C   0  0  0  0  0  0  0  0  0  0  0  0
   -0.2129   21.0770  -22.7832 F   0  0  0  0  0  0  0  0  0  0  0  0
   -0.3921   23.1856  -23.2394 F   0  0  0  0  0  0  0  0  0  0  0  0
   -1.3897   22.4583  -21.3193 C   0  0  0  0  0  0  0  0  0  0  0  0
   -1.5392   23.7636  -20.9940 O   0  0  0  0  0  0  0  0  0  0  0  0
   -2.4816   24.0519  -20.9907 H   0  0  0  0  0  0  0  0  0  0  0  0
  1  2  1  0  0  0
  2  3  1  0  0  0
  3  4  1  0  0  0
  4  5  2  0  0  0
  5  6  1  0  0  0
  6  7  1  0  0  0
  7  8  2  0  0  0
  8  9  1  0  0  0
  9 10  2  0  0  0
 10 11  1  0  0  0
 11 12  2  0  0  0
  5 13  1  0  0  0
 13 16  1  0  0  0
 16 17  2  0  0  0
 17 18  1  0  0  0
 17 19  1  0  0  0
 19 20  2  0  0  0
 20 21  1  0  0  0
 21 24  1  0  0  0
 24 25  1  0  0  0
 25 26  1  0  0  0
 26 27  1  0  0  0
 27 29  1  0  0  0
 29 30  1  0  0  0
 30 31  1  0  0  0
 31 32  1  0  0  0
 21 22  2  0  0  0
 22 23  1  0  0  0
 13 14  1  0  0  0
 14 33  1  0  0  0
 33 34  1  0  0  0
 34 35  1  0  0  0
 34 36  1  0  0  0
 34 37  1  0  0  0
 37 38  1  0  0  0
 14  2  1  0  0  0
 12  4  1  0  0  0
 22 16  1  0  0  0
 12  7  1  0  0  0
  6 15  1  0  0  0
 27 28  1  0  0  0
 38 39  1  0  0  0
M  END
> <minimizedAffinity>
-7.87665

> <CNNscore>
0.1137239113

> <CNNaffinity>
6.6408615112

> <CNN_VS>
0.7552247643

> <CNNaffinity_variance>
0.2519945502

$$$$
[H]OC([H])([H])C(F)(F)C([H])([H])N1[C@]([H])(c2c(F)c([H])nc(OC([H])([H])C([H])([H])N([H])C([H])([H])C([H])([H])C([H])([H])F)c2F)c2c(c3c([H])c([H])c([H])c([H])c3n2[H])C([H])([H])[C@@]1([H])C([H])([H])[H]


 39 42  0  0  0  0  0  0  0  0999 V2000
   -1.9285   21.4730  -26.6765 C   0  0  0  0  0  0  0  0  0  0  0  0
   -2.1667   22.8745  -26.1821 C   0  0  0  0  0  0  0  0  0  0  0  0
   -0.9174   23.1234  -25.2869 C   0  0  0  0  0  0  0  0  0  0  0  0
   -1.1142   22.2515  -24.1143 C   0  0  0  0  0  0  0  0  0  0  0  0
   -2.3796   21.9612  -23.6732 C   0  0  0  0  0  0  0  0  0  0  0  0
   -2.2191   21.1514  -22.6034 N   0  0  0  0  0  0  0  0  0  0  0  0
   -0.9268   20.9183  -22.3490 C   0  0  0  0  0  0  0  0  0  0  0  0
   -0.2419   20.1827  -21.3997 C   0  0  0  0  0  0  0  0  0  0  0  0
    1.1339   20.1411  -21.4034 C   0  0  0  0  0  0  0  0  0  0  0  0
    1.8752   20.8386  -22.3631 C   0  0  0  0  0  0  0  0  0  0  0  0
    1.1660   21.5618  -23.2950 C   0  0  0  0  0  0  0  0  0  0  0  0
   -0.2074   21.6111  -23.3016 C   0  0  0  0  0  0  0  0  0  0  0  0
   -3.6253   22.4810  -24.3086 C   0  0  0  0  0  0  0  0  0  0  0  0
   -3.3556   23.1644  -25.5348 N   0  0  0  0  0  0  0  0  0  0  0  0
   -2.9962   20.7511  -22.0381 H   0  0  0  0  0  0  0  0  0  0  0  0
   -4.5369   23.0901  -23.3540 C   0  0  0  0  0  0  0  0  0  0  0  0
   -4.2394   24.2495  -22.6707 C   0  0  0  0  0  0  0  0  0  0  0  0
   -3.0688   24.8347  -22.8898 F   0  0  0  0  0  0  0  0  0  0  0  0
   -5.1161   24.8230  -21.7668 C   0  0  0  0  0  0  0  0  0  0  0  0
   -6.3033   24.2333  -21.5417 N   0  0  0  0  0  0  0  0  0  0  0  0
   -6.6732   23.1021  -22.1641 C   0  0  0  0  0  0  0  0  0  0  0  0
   -5.7832   22.5418  -23.0657 C   0  0  0  0  0  0  0  0  0  0  0  0
   -6.1932   21.3976  -23.6739 F   0  0  0  0  0  0  0  0  0  0  0  0
   -7.8940   22.5464  -21.8964 O   0  0  0  0  0  0  0  0  0  0  0  0
   -8.3505   22.0252  -20.6879 C   0  0  0  0  0  0  0  0  0  0  0  0
   -9.4282   22.8059  -20.0196 C   0  0  0  0  0  0  0  0  0  0  0  0
   -9.0336   24.1757  -19.7394 N   0  0  0  0  0  0  0  0  0  0  0  0
   -8.6881   24.3272  -18.7846 H   0  0  0  0  0  0  0  0  0  0  0  0
  -10.0122   25.1404  -20.1486 C   0  0  0  0  0  0  0  0  0  0  0  0
  -10.3716   25.0224  -21.6087 C   0  0  0  0  0  0  0  0  0  0  0  0
   -9.4211   25.7421  -22.5196 C   0  0  0  0  0  0  0  0  0  0  0  0
   -9.1022   25.0324  -23.6556 F   0  0  0  0  0  0  0  0  0  0  0  0
   -4.3185   24.0399  -25.9746 C   0  0  0  0  0  0  0  0  0  0  0  0
   -5.1640   23.9325  -27.1506 C   0  0  0  0  0  0  0  0  0  0  0  0
   -4.8719   22.8536  -27.9846 F   0  0  0  0  0  0  0  0  0  0  0  0
   -6.4967   23.5063  -26.7115 F   0  0  0  0  0  0  0  0  0  0  0  0
   -5.4940   25.1005  -28.0015 C   0  0  0  0  0  0  0  0  0  0  0  0
   -6.7707   25.5439  -28.0746 O   0  0  0  0  0  0  0  0  0  0  0  0
   -6.9755   26.2343  -27.4020 H   0  0  0  0  0  0  0  0  0  0  0  0
  1  2  1  0  0  0
  2  3  1  0  0  0
  3  4  1  0  0  0
  4  5  2  0  0  0
  5  6  1  0  0  0
  6  7  1  0  0  0
  7  8  2  0  0  0
  8  9  1  0  0  0
  9 10  2  0  0  0
 10 11  1  0  0  0
 11 12  2  0  0  0
  5 13  1  0  0  0
 13 16  1  0  0  0
 16 17  2  0  0  0
 17 18  1  0  0  0
 17 19  1  0  0  0
 19 20  2  0  0  0
 20 21  1  0  0  0
 21 24  1  0  0  0
 24 25  1  0  0  0
 25 26  1  0  0  0
 26 27  1  0  0  0
 27 29  1  0  0  0
 29 30  1  0  0  0
 30 31  1  0  0  0
 31 32  1  0  0  0
 21 22  2  0  0  0
 22 23  1  0  0  0
 13 14  1  0  0  0
 14 33  1  0  0  0
 33 34  1  0  0  0
 34 35  1  0  0  0
 34 36  1  0  0  0
 34 37  1  0  0  0
 37 38  1  0  0  0
 14  2  1  0  0  0
 12  4  1  0  0  0
 22 16  1  0  0  0
 12  7  1  0  0  0
  6 15  1  0  0  0
 27 28  1  0  0  0
 38 39  1  0  0  0
M  END
> <minimizedAffinity>
-7.35274

> <CNNscore>
0.1115448177

> <CNNaffinity>
6.4678621292

> <CNN_VS>
0.7214565277

> <CNNaffinity_variance>
0.1946440488

$$$$
[H]OC([H])([H])C(F)(F)C([H])([H])N1[C@]([H])(c2c(F)c([H])nc(OC([H])([H])C([H])([H])N([H])C([H])([H])C([H])([H])C([H])([H])F)c2F)c2c(c3c([H])c([H])c([H])c([H])c3n2[H])C([H])([H])[C@@]1([H])C([H])([H])[H]


 39 42  0  0  0  0  0  0  0  0999 V2000
   -5.4333   21.3240  -24.2461 C   0  0  0  0  0  0  0  0  0  0  0  0
   -5.2427   22.5121  -23.3420 C   0  0  0  0  0  0  0  0  0  0  0  0
   -4.2398   23.3842  -24.1533 C   0  0  0  0  0  0  0  0  0  0  0  0
   -2.9675   22.6408  -24.1031 C   0  0  0  0  0  0  0  0  0  0  0  0
   -2.6651   21.8604  -23.0169 C   0  0  0  0  0  0  0  0  0  0  0  0
   -1.4535   21.3219  -23.2772 N   0  0  0  0  0  0  0  0  0  0  0  0
   -0.9797   21.7200  -24.4630 C   0  0  0  0  0  0  0  0  0  0  0  0
    0.1756   21.4702  -25.1800 C   0  0  0  0  0  0  0  0  0  0  0  0
    0.3751   22.0496  -26.4125 C   0  0  0  0  0  0  0  0  0  0  0  0
   -0.5807   22.9039  -26.9724 C   0  0  0  0  0  0  0  0  0  0  0  0
   -1.7204   23.1336  -26.2356 C   0  0  0  0  0  0  0  0  0  0  0  0
   -1.9309   22.5611  -25.0041 C   0  0  0  0  0  0  0  0  0  0  0  0
   -3.5553   21.6991  -21.8307 C   0  0  0  0  0  0  0  0  0  0  0  0
   -4.8349   22.3024  -22.0358 N   0  0  0  0  0  0  0  0  0  0  0  0
   -0.9407   20.6754  -22.6425 H   0  0  0  0  0  0  0  0  0  0  0  0
   -2.8677   21.9283  -20.5706 C   0  0  0  0  0  0  0  0  0  0  0  0
   -3.1398   21.2070  -19.4280 C   0  0  0  0  0  0  0  0  0  0  0  0
   -4.0722   20.2643  -19.4777 F   0  0  0  0  0  0  0  0  0  0  0  0
   -2.4765   21.4308  -18.2345 C   0  0  0  0  0  0  0  0  0  0  0  0
   -1.5310   22.3853  -18.1797 N   0  0  0  0  0  0  0  0  0  0  0  0
   -1.2035   23.1342  -19.2453 C   0  0  0  0  0  0  0  0  0  0  0  0
   -1.8776   22.8966  -20.4319 C   0  0  0  0  0  0  0  0  0  0  0  0
   -1.5189   23.6752  -21.4865 F   0  0  0  0  0  0  0  0  0  0  0  0
   -0.2328   24.0911  -19.1318 O   0  0  0  0  0  0  0  0  0  0  0  0
    0.9994   23.9881  -18.4900 C   0  0  0  0  0  0  0  0  0  0  0  0
    1.9342   22.9765  -19.0562 C   0  0  0  0  0  0  0  0  0  0  0  0
    1.6661   21.6343  -18.5691 N   0  0  0  0  0  0  0  0  0  0  0  0
    2.1031   21.4194  -17.6654 H   0  0  0  0  0  0  0  0  0  0  0  0
    1.8826   20.6203  -19.5596 C   0  0  0  0  0  0  0  0  0  0  0  0
    1.2816   20.9744  -20.8969 C   0  0  0  0  0  0  0  0  0  0  0  0
    2.2109   20.7421  -22.0516 C   0  0  0  0  0  0  0  0  0  0  0  0
    3.4650   21.2796  -21.8669 F   0  0  0  0  0  0  0  0  0  0  0  0
   -5.5597   22.6036  -20.9084 C   0  0  0  0  0  0  0  0  0  0  0  0
   -6.5411   23.6583  -20.7236 C   0  0  0  0  0  0  0  0  0  0  0  0
   -7.7028   23.5157  -21.4818 F   0  0  0  0  0  0  0  0  0  0  0  0
   -7.1348   23.4948  -19.3928 F   0  0  0  0  0  0  0  0  0  0  0  0
   -6.1713   25.0936  -20.7067 C   0  0  0  0  0  0  0  0  0  0  0  0
   -5.0879   25.5204  -21.3965 O   0  0  0  0  0  0  0  0  0  0  0  0
   -5.3047   25.7973  -22.3171 H   0  0  0  0  0  0  0  0  0  0  0  0
  1  2  1  0  0  0
  2  3  1  0  0  0
  3  4  1  0  0  0
  4  5  2  0  0  0
  5  6  1  0  0  0
  6  7  1  0  0  0
  7  8  2  0  0  0
  8  9  1  0  0  0
  9 10  2  0  0  0
 10 11  1  0  0  0
 11 12  2  0  0  0
  5 13  1  0  0  0
 13 16  1  0  0  0
 16 17  2  0  0  0
 17 18  1  0  0  0
 17 19  1  0  0  0
 19 20  2  0  0  0
 20 21  1  0  0  0
 21 24  1  0  0  0
 24 25  1  0  0  0
 25 26  1  0  0  0
 26 27  1  0  0  0
 27 29  1  0  0  0
 29 30  1  0  0  0
 30 31  1  0  0  0
 31 32  1  0  0  0
 21 22  2  0  0  0
 22 23  1  0  0  0
 13 14  1  0  0  0
 14 33  1  0  0  0
 33 34  1  0  0  0
 34 35  1  0  0  0
 34 36  1  0  0  0
 34 37  1  0  0  0
 37 38  1  0  0  0
 14  2  1  0  0  0
 12  4  1  0  0  0
 22 16  1  0  0  0
 12  7  1  0  0  0
  6 15  1  0  0  0
 27 28  1  0  0  0
 38 39  1  0  0  0
M  END
> <minimizedAffinity>
-6.57066

> <CNNscore>
0.1043833867

> <CNNaffinity>
6.0077714920

> <CNN_VS>
0.6271115541

> <CNNaffinity_variance>
0.5498164892

$$$$
[H]OC([H])([H])C(F)(F)C([H])([H])N1[C@]([H])(c2c(F)c([H])nc(OC([H])([H])C([H])([H])N([H])C([H])([H])C([H])([H])C([H])([H])F)c2F)c2c(c3c([H])c([H])c([H])c([H])c3n2[H])C([H])([H])[C@@]1([H])C([H])([H])[H]


 39 42  0  0  0  0  0  0  0  0999 V2000
   -7.7750   24.7484  -25.4817 C   0  0  0  0  0  0  0  0  0  0  0  0
   -7.2076   25.3349  -24.2170 C   0  0  0  0  0  0  0  0  0  0  0  0
   -5.6992   25.4845  -24.5726 C   0  0  0  0  0  0  0  0  0  0  0  0
   -5.1872   24.1032  -24.6324 C   0  0  0  0  0  0  0  0  0  0  0  0
   -5.7385   23.1267  -23.8433 C   0  0  0  0  0  0  0  0  0  0  0  0
   -5.0600   21.9943  -24.1319 N   0  0  0  0  0  0  0  0  0  0  0  0
   -4.1159   22.2053  -25.0556 C   0  0  0  0  0  0  0  0  0  0  0  0
   -3.1751   21.4085  -25.6813 C   0  0  0  0  0  0  0  0  0  0  0  0
   -2.3183   21.9395  -26.6185 C   0  0  0  0  0  0  0  0  0  0  0  0
   -2.3744   23.2941  -26.9634 C   0  0  0  0  0  0  0  0  0  0  0  0
   -3.3210   24.0621  -26.3242 C   0  0  0  0  0  0  0  0  0  0  0  0
   -4.1818   23.5436  -25.3867 C   0  0  0  0  0  0  0  0  0  0  0  0
   -6.8590   23.3599  -22.8864 C   0  0  0  0  0  0  0  0  0  0  0  0
   -7.4120   24.6713  -23.0193 N   0  0  0  0  0  0  0  0  0  0  0  0
   -5.2395   21.0657  -23.6970 H   0  0  0  0  0  0  0  0  0  0  0  0
   -6.5822   22.8491  -21.5539 C   0  0  0  0  0  0  0  0  0  0  0  0
   -5.6401   23.4099  -20.7187 C   0  0  0  0  0  0  0  0  0  0  0  0
   -4.9524   24.4598  -21.1494 F   0  0  0  0  0  0  0  0  0  0  0  0
   -5.3871   22.9180  -19.4504 C   0  0  0  0  0  0  0  0  0  0  0  0
   -6.0816   21.8542  -19.0100 N   0  0  0  0  0  0  0  0  0  0  0  0
   -7.0171   21.2471  -19.7583 C   0  0  0  0  0  0  0  0  0  0  0  0
   -7.2574   21.7528  -21.0253 C   0  0  0  0  0  0  0  0  0  0  0  0
   -8.2099   21.1110  -21.7517 F   0  0  0  0  0  0  0  0  0  0  0  0
   -7.6935   20.1685  -19.2583 O   0  0  0  0  0  0  0  0  0  0  0  0
   -7.9524   19.8643  -17.9238 C   0  0  0  0  0  0  0  0  0  0  0  0
   -8.6283   18.5593  -17.6835 C   0  0  0  0  0  0  0  0  0  0  0  0
   -8.0685   17.4847  -18.4851 N   0  0  0  0  0  0  0  0  0  0  0  0
   -8.5951   17.2809  -19.3424 H   0  0  0  0  0  0  0  0  0  0  0  0
   -7.7549   16.3135  -17.7197 C   0  0  0  0  0  0  0  0  0  0  0  0
   -7.2932   15.1627  -18.5785 C   0  0  0  0  0  0  0  0  0  0  0  0
   -6.1239   15.5013  -19.4556 C   0  0  0  0  0  0  0  0  0  0  0  0
   -6.3729   15.3260  -20.7983 F   0  0  0  0  0  0  0  0  0  0  0  0
   -8.1202   25.1510  -21.9444 C   0  0  0  0  0  0  0  0  0  0  0  0
   -9.5370   25.0033  -21.6608 C   0  0  0  0  0  0  0  0  0  0  0  0
   -9.9566   23.6911  -21.4443 F   0  0  0  0  0  0  0  0  0  0  0  0
   -9.7857   25.5302  -20.3151 F   0  0  0  0  0  0  0  0  0  0  0  0
  -10.5819   25.7005  -22.4477 C   0  0  0  0  0  0  0  0  0  0  0  0
  -10.3143   26.9016  -23.0113 O   0  0  0  0  0  0  0  0  0  0  0  0
   -9.9635   26.8244  -23.9290 H   0  0  0  0  0  0  0  0  0  0  0  0
  1  2  1  0  0  0
  2  3  1  0  0  0
  3  4  1  0  0  0
  4  5  2  0  0  0
  5  6  1  0  0  0
  6  7  1  0  0  0
  7  8  2  0  0  0
  8  9  1  0  0  0
  9 10  2  0  0  0
 10 11  1  0  0  0
 11 12  2  0  0  0
  5 13  1  0  0  0
 13 16  1  0  0  0
 16 17  2  0  0  0
 17 18  1  0  0  0
 17 19  1  0  0  0
 19 20  2  0  0  0
 20 21  1  0  0  0
 21 24  1  0  0  0
 24 25  1  0  0  0
 25 26  1  0  0  0
 26 27  1  0  0  0
 27 29  1  0  0  0
 29 30  1  0  0  0
 30 31  1  0  0  0
 31 32  1  0  0  0
 21 22  2  0  0  0
 22 23  1  0  0  0
 13 14  1  0  0  0
 14 33  1  0  0  0
 33 34  1  0  0  0
 34 35  1  0  0  0
 34 36  1  0  0  0
 34 37  1  0  0  0
 37 38  1  0  0  0
 14  2  1  0  0  0
 12  4  1  0  0  0
 22 16  1  0  0  0
 12  7  1  0  0  0
  6 15  1  0  0  0
 27 28  1  0  0  0
 38 39  1  0  0  0
M  END
> <minimizedAffinity>
-7.06787

> <CNNscore>
0.1023467630

> <CNNaffinity>
6.1459932327

> <CNN_VS>
0.6290225387

> <CNNaffinity_variance>
0.1365596056

$$$$
[H]OC([H])([H])C(F)(F)C([H])([H])N1[C@]([H])(c2c(F)c([H])nc(OC([H])([H])C([H])([H])N([H])C([H])([H])C([H])([H])C([H])([H])F)c2F)c2c(c3c([H])c([H])c([H])c([H])c3n2[H])C([H])([H])[C@@]1([H])C([H])([H])[H]


 39 42  0  0  0  0  0  0  0  0999 V2000
   -4.6373   20.5202  -24.4148 C   0  0  0  0  0  0  0  0  0  0  0  0
   -4.5508   21.7301  -23.5237 C   0  0  0  0  0  0  0  0  0  0  0  0
   -4.0133   22.8182  -24.4990 C   0  0  0  0  0  0  0  0  0  0  0  0
   -2.6180   22.4258  -24.7696 C   0  0  0  0  0  0  0  0  0  0  0  0
   -1.8886   21.7641  -23.8156 C   0  0  0  0  0  0  0  0  0  0  0  0
   -0.6730   21.5498  -24.3655 N   0  0  0  0  0  0  0  0  0  0  0  0
   -0.5991   22.0392  -25.6081 C   0  0  0  0  0  0  0  0  0  0  0  0
    0.3863   22.0833  -26.5768 C   0  0  0  0  0  0  0  0  0  0  0  0
    0.1460   22.6772  -27.7950 C   0  0  0  0  0  0  0  0  0  0  0  0
   -1.0962   23.2506  -28.0867 C   0  0  0  0  0  0  0  0  0  0  0  0
   -2.0573   23.1914  -27.1032 C   0  0  0  0  0  0  0  0  0  0  0  0
   -1.8293   22.6014  -25.8831 C   0  0  0  0  0  0  0  0  0  0  0  0
   -2.4136   21.3970  -22.4683 C   0  0  0  0  0  0  0  0  0  0  0  0
   -3.8158   21.6499  -22.3533 N   0  0  0  0  0  0  0  0  0  0  0  0
    0.1173   21.0650  -23.8922 H   0  0  0  0  0  0  0  0  0  0  0  0
   -1.5367   21.8121  -21.3858 C   0  0  0  0  0  0  0  0  0  0  0  0
   -1.4946   23.1055  -20.9115 C   0  0  0  0  0  0  0  0  0  0  0  0
   -2.2858   24.0135  -21.4684 F   0  0  0  0  0  0  0  0  0  0  0  0
   -0.6587   23.4892  -19.8778 C   0  0  0  0  0  0  0  0  0  0  0  0
    0.1448   22.5723  -19.3106 N   0  0  0  0  0  0  0  0  0  0  0  0
    0.1673   21.2906  -19.7112 C   0  0  0  0  0  0  0  0  0  0  0  0
   -0.6760   20.9241  -20.7472 C   0  0  0  0  0  0  0  0  0  0  0  0
   -0.6234   19.6195  -21.1245 F   0  0  0  0  0  0  0  0  0  0  0  0
    1.0049   20.4007  -19.0970 O   0  0  0  0  0  0  0  0  0  0  0  0
    1.9224   20.6514  -18.0792 C   0  0  0  0  0  0  0  0  0  0  0  0
    1.4414   20.3681  -16.6987 C   0  0  0  0  0  0  0  0  0  0  0  0
    2.0019   21.2779  -15.7145 N   0  0  0  0  0  0  0  0  0  0  0  0
    1.3221   21.6272  -15.0290 H   0  0  0  0  0  0  0  0  0  0  0  0
    2.8052   22.3137  -16.2957 C   0  0  0  0  0  0  0  0  0  0  0  0
    3.0371   23.4688  -15.3539 C   0  0  0  0  0  0  0  0  0  0  0  0
    2.2148   23.3947  -14.1011 C   0  0  0  0  0  0  0  0  0  0  0  0
    2.6411   24.2503  -13.1103 F   0  0  0  0  0  0  0  0  0  0  0  0
   -4.3155   21.7714  -21.0795 C   0  0  0  0  0  0  0  0  0  0  0  0
   -5.3018   22.7160  -20.5852 C   0  0  0  0  0  0  0  0  0  0  0  0
   -4.9992   23.2841  -19.3480 F   0  0  0  0  0  0  0  0  0  0  0  0
   -5.2144   23.9299  -21.4032 F   0  0  0  0  0  0  0  0  0  0  0  0
   -6.7574   22.4386  -20.6247 C   0  0  0  0  0  0  0  0  0  0  0  0
   -7.2139   21.3072  -21.2107 O   0  0  0  0  0  0  0  0  0  0  0  0
   -7.2949   20.5548  -20.5794 H   0  0  0  0  0  0  0  0  0  0  0  0
  1  2  1  0  0  0
  2  3  1  0  0  0
  3  4  1  0  0  0
  4  5  2  0  0  0
  5  6  1  0  0  0
  6  7  1  0  0  0
  7  8  2  0  0  0
  8  9  1  0  0  0
  9 10  2  0  0  0
 10 11  1  0  0  0
 11 12  2  0  0  0
  5 13  1  0  0  0
 13 16  1  0  0  0
 16 17  2  0  0  0
 17 18  1  0  0  0
 17 19  1  0  0  0
 19 20  2  0  0  0
 20 21  1  0  0  0
 21 24  1  0  0  0
 24 25  1  0  0  0
 25 26  1  0  0  0
 26 27  1  0  0  0
 27 29  1  0  0  0
 29 30  1  0  0  0
 30 31  1  0  0  0
 31 32  1  0  0  0
 21 22  2  0  0  0
 22 23  1  0  0  0
 13 14  1  0  0  0
 14 33  1  0  0  0
 33 34  1  0  0  0
 34 35  1  0  0  0
 34 36  1  0  0  0
 34 37  1  0  0  0
 37 38  1  0  0  0
 14  2  1  0  0  0
 12  4  1  0  0  0
 22 16  1  0  0  0
 12  7  1  0  0  0
  6 15  1  0  0  0
 27 28  1  0  0  0
 38 39  1  0  0  0
M  END
> <minimizedAffinity>
-6.63460

> <CNNscore>
0.0956743434

> <CNNaffinity>
6.2802300453

> <CNN_VS>
0.6008569002

> <CNNaffinity_variance>
0.0145607339

$$$$
[H]c1c([H])c(C([H])(C(=O)N([H])C([H])([H])c2c([H])c([H])c(C(F)(F)F)c([H])c2C2([H])C([H])([H])C([H])([H])C([H])([H])C([H])([H])C2([H])[H])C([H])([H])[H])c([H])c(F)c1N([H])S(=O)(=O)C([H])([H])[H]


 36 38  0  0  0  0  0  0  0  0999 V2000
   -1.3690   22.7308  -23.7646 C   0  0  0  0  0  0  0  0  0  0  0  0
   -0.6221   23.5274  -23.6872 O   0  0  0  0  0  0  0  0  0  0  0  0
   -2.5213   22.0789  -23.3093 N   0  0  0  0  0  0  0  0  0  0  0  0
   -2.6909   23.0665  -22.3271 H   0  0  0  0  0  0  0  0  0  0  0  0
    0.2524   21.7845  -25.1210 C   0  0  0  0  0  0  0  0  0  0  0  0
   -1.2853   21.6455  -25.0262 C   0  0  0  0  0  0  0  0  0  0  0  0
   -1.8956   22.2139  -26.1741 C   0  0  0  0  0  0  0  0  0  0  0  0
   -3.2045   22.4591  -26.2831 C   0  0  0  0  0  0  0  0  0  0  0  0
   -3.7710   23.1067  -27.2955 C   0  0  0  0  0  0  0  0  0  0  0  0
   -2.9197   23.5611  -28.3839 C   0  0  0  0  0  0  0  0  0  0  0  0
   -1.6408   23.3050  -28.2835 C   0  0  0  0  0  0  0  0  0  0  0  0
   -0.8458   23.6358  -29.3908 F   0  0  0  0  0  0  0  0  0  0  0  0
   -1.0168   22.6609  -27.2364 C   0  0  0  0  0  0  0  0  0  0  0  0
   -3.6561   24.4457  -29.1952 N   0  0  0  0  0  0  0  0  0  0  0  0
   -2.9587   25.2629  -29.5704 H   0  0  0  0  0  0  0  0  0  0  0  0
   -5.1929   24.4975  -29.7842 S   0  0  0  0  0  0  0  0  0  0  0  0
   -5.2894   25.5559  -31.2315 C   0  0  0  0  0  0  0  0  0  0  0  0
   -6.1843   24.7892  -28.7282 O   0  0  0  0  0  0  0  0  0  0  0  0
   -5.4947   23.0735  -30.3562 O   0  0  0  0  0  0  0  0  0  0  0  0
   -3.5506   21.5019  -22.8969 C   0  0  0  0  0  0  0  0  0  0  0  0
   -4.5698   21.8882  -21.8877 C   0  0  0  0  0  0  0  0  0  0  0  0
   -4.6747   21.4844  -20.5823 C   0  0  0  0  0  0  0  0  0  0  0  0
   -5.9201   21.5251  -19.8799 C   0  0  0  0  0  0  0  0  0  0  0  0
   -6.9646   21.9715  -20.5491 C   0  0  0  0  0  0  0  0  0  0  0  0
   -6.8898   22.3758  -21.8753 C   0  0  0  0  0  0  0  0  0  0  0  0
   -5.7479   22.3477  -22.5312 C   0  0  0  0  0  0  0  0  0  0  0  0
   -5.4105   22.9342  -23.8695 C   0  0  0  0  0  0  0  0  0  0  0  0
   -5.1205   24.4430  -23.7105 C   0  0  0  0  0  0  0  0  0  0  0  0
   -6.2353   25.2913  -23.3011 C   0  0  0  0  0  0  0  0  0  0  0  0
   -7.4305   25.1180  -24.2076 C   0  0  0  0  0  0  0  0  0  0  0  0
   -7.1463   24.1182  -25.2998 C   0  0  0  0  0  0  0  0  0  0  0  0
   -6.5637   22.8194  -24.8477 C   0  0  0  0  0  0  0  0  0  0  0  0
   -8.3933   21.7439  -20.0011 C   0  0  0  0  0  0  0  0  0  0  0  0
   -9.3670   21.8800  -20.8316 F   0  0  0  0  0  0  0  0  0  0  0  0
   -8.4929   22.5082  -18.8601 F   0  0  0  0  0  0  0  0  0  0  0  0
   -8.3696   20.4033  -19.5045 F   0  0  0  0  0  0  0  0  0  0  0  0
  5  6  1  0  0  0
  6  1  1  0  0  0
  1  2  2  0  0  0
  1  3  1  0  0  0
  3 20  1  0  0  0
 20 21  1  0  0  0
 21 22  2  0  0  0
 22 23  1  0  0  0
 23 24  2  0  0  0
 24 33  1  0  0  0
 33 34  1  0  0  0
 33 35  1  0  0  0
 33 36  1  0  0  0
 24 25  1  0  0  0
 25 26  2  0  0  0
 26 27  1  0  0  0
 27 28  1  0  0  0
 28 29  1  0  0  0
 29 30  1  0  0  0
 30 31  1  0  0  0
 31 32  1  0  0  0
  6  7  1  0  0  0
  7  8  2  0  0  0
  8  9  1  0  0  0
  9 10  2  0  0  0
 10 14  1  0  0  0
 14 16  1  0  0  0
 16 17  1  0  0  0
 16 18  2  0  0  0
 16 19  2  0  0  0
 10 11  1  0  0  0
 11 12  1  0  0  0
 11 13  2  0  0  0
 26 21  1  0  0  0
 32 27  1  0  0  0
 13  7  1  0  0  0
  3  4  1  0  0  0
 14 15  1  0  0  0
M  END
> <minimizedAffinity>
-8.80699

> <CNNscore>
0.3960158527

> <CNNaffinity>
7.2876992226

> <CNN_VS>
2.8860445023

> <CNNaffinity_variance>
0.0965997353

$$$$
[H]c1c([H])c(C([H])(C(=O)N([H])C([H])([H])c2c([H])c([H])c(C(F)(F)F)c([H])c2C2([H])C([H])([H])C([H])([H])C([H])([H])C([H])([H])C2([H])[H])C([H])([H])[H])c([H])c(F)c1N([H])S(=O)(=O)C([H])([H])[H]


 36 38  0  0  0  0  0  0  0  0999 V2000
   -3.5222   23.9873  -28.7135 C   0  0  0  0  0  0  0  0  0  0  0  0
   -3.4626   24.8582  -29.3740 O   0  0  0  0  0  0  0  0  0  0  0  0
   -2.9268   23.0453  -27.8660 N   0  0  0  0  0  0  0  0  0  0  0  0
   -1.6947   23.7027  -28.0025 H   0  0  0  0  0  0  0  0  0  0  0  0
   -5.5348   23.6503  -29.8091 C   0  0  0  0  0  0  0  0  0  0  0  0
   -5.0043   23.2930  -28.4006 C   0  0  0  0  0  0  0  0  0  0  0  0
   -5.6824   24.0596  -27.4179 C   0  0  0  0  0  0  0  0  0  0  0  0
   -6.6739   23.5910  -26.6544 C   0  0  0  0  0  0  0  0  0  0  0  0
   -7.2294   24.2534  -25.6455 C   0  0  0  0  0  0  0  0  0  0  0  0
   -6.7529   25.5976  -25.3598 C   0  0  0  0  0  0  0  0  0  0  0  0
   -5.7940   26.0612  -26.1194 C   0  0  0  0  0  0  0  0  0  0  0  0
   -5.4255   27.3996  -25.9180 F   0  0  0  0  0  0  0  0  0  0  0  0
   -5.1770   25.3923  -27.1550 C   0  0  0  0  0  0  0  0  0  0  0  0
   -7.2634   26.0028  -24.1115 N   0  0  0  0  0  0  0  0  0  0  0  0
   -6.7845   26.9949  -23.8262 H   0  0  0  0  0  0  0  0  0  0  0  0
   -8.4210   25.4499  -23.0793 S   0  0  0  0  0  0  0  0  0  0  0  0
   -7.8094   24.0664  -22.1118 C   0  0  0  0  0  0  0  0  0  0  0  0
   -9.7098   25.2147  -23.7626 O   0  0  0  0  0  0  0  0  0  0  0  0
   -8.6333   26.5727  -22.0115 O   0  0  0  0  0  0  0  0  0  0  0  0
   -2.3882   22.2074  -27.1108 C   0  0  0  0  0  0  0  0  0  0  0  0
   -1.4733   22.3588  -25.9504 C   0  0  0  0  0  0  0  0  0  0  0  0
   -0.1039   22.3107  -25.9308 C   0  0  0  0  0  0  0  0  0  0  0  0
    0.6207   21.9849  -24.7414 C   0  0  0  0  0  0  0  0  0  0  0  0
   -0.0931   21.7333  -23.6618 C   0  0  0  0  0  0  0  0  0  0  0  0
   -1.4813   21.7631  -23.6557 C   0  0  0  0  0  0  0  0  0  0  0  0
   -2.1595   22.0665  -24.7433 C   0  0  0  0  0  0  0  0  0  0  0  0
   -3.6214   22.3648  -24.8946 C   0  0  0  0  0  0  0  0  0  0  0  0
   -3.9769   23.6218  -24.0703 C   0  0  0  0  0  0  0  0  0  0  0  0
   -3.8566   23.5173  -22.6196 C   0  0  0  0  0  0  0  0  0  0  0  0
   -4.6367   22.3431  -22.0783 C   0  0  0  0  0  0  0  0  0  0  0  0
   -5.3387   21.5977  -23.1850 C   0  0  0  0  0  0  0  0  0  0  0  0
   -4.4891   21.2415  -24.3606 C   0  0  0  0  0  0  0  0  0  0  0  0
    0.5645   21.0558  -22.4364 C   0  0  0  0  0  0  0  0  0  0  0  0
    1.8142   20.7627  -22.5305 F   0  0  0  0  0  0  0  0  0  0  0  0
   -0.2542   20.0026  -22.0948 F   0  0  0  0  0  0  0  0  0  0  0  0
    0.3693   21.9900  -21.3716 F   0  0  0  0  0  0  0  0  0  0  0  0
  5  6  1  0  0  0
  6  1  1  0  0  0
  1  2  2  0  0  0
  1  3  1  0  0  0
  3 20  1  0  0  0
 20 21  1  0  0  0
 21 22  2  0  0  0
 22 23  1  0  0  0
 23 24  2  0  0  0
 24 33  1  0  0  0
 33 34  1  0  0  0
 33 35  1  0  0  0
 33 36  1  0  0  0
 24 25  1  0  0  0
 25 26  2  0  0  0
 26 27  1  0  0  0
 27 28  1  0  0  0
 28 29  1  0  0  0
 29 30  1  0  0  0
 30 31  1  0  0  0
 31 32  1  0  0  0
  6  7  1  0  0  0
  7  8  2  0  0  0
  8  9  1  0  0  0
  9 10  2  0  0  0
 10 14  1  0  0  0
 14 16  1  0  0  0
 16 17  1  0  0  0
 16 18  2  0  0  0
 16 19  2  0  0  0
 10 11  1  0  0  0
 11 12  1  0  0  0
 11 13  2  0  0  0
 26 21  1  0  0  0
 32 27  1  0  0  0
 13  7  1  0  0  0
  3  4  1  0  0  0
 14 15  1  0  0  0
M  END
> <minimizedAffinity>
-9.82156

> <CNNscore>
0.3636308014

> <CNNaffinity>
7.2175278664

> <CNN_VS>
2.6245155334

> <CNNaffinity_variance>
0.1841159761

$$$$
[H]c1c([H])c(C([H])(C(=O)N([H])C([H])([H])c2c([H])c([H])c(C(F)(F)F)c([H])c2C2([H])C([H])([H])C([H])([H])C([H])([H])C([H])([H])C2([H])[H])C([H])([H])[H])c([H])c(F)c1N([H])S(=O)(=O)C([H])([H])[H]


 36 38  0  0  0  0  0  0  0  0999 V2000
   -0.3622   21.9885  -26.4278 C   0  0  0  0  0  0  0  0  0  0  0  0
    0.3469   21.1549  -26.4504 O   0  0  0  0  0  0  0  0  0  0  0  0
   -1.4043   22.7306  -26.9965 N   0  0  0  0  0  0  0  0  0  0  0  0
   -1.4833   21.8091  -28.0518 H   0  0  0  0  0  0  0  0  0  0  0  0
    1.0826   22.7186  -24.7714 C   0  0  0  0  0  0  0  0  0  0  0  0
   -0.4025   22.9974  -25.1022 C   0  0  0  0  0  0  0  0  0  0  0  0
   -1.2368   22.4280  -24.1057 C   0  0  0  0  0  0  0  0  0  0  0  0
   -1.0418   22.5742  -22.7919 C   0  0  0  0  0  0  0  0  0  0  0  0
   -1.8829   22.1577  -21.8514 C   0  0  0  0  0  0  0  0  0  0  0  0
   -3.0924   21.4656  -22.2679 C   0  0  0  0  0  0  0  0  0  0  0  0
   -3.2731   21.3083  -23.5540 C   0  0  0  0  0  0  0  0  0  0  0  0
   -4.3764   20.5341  -23.9425 F   0  0  0  0  0  0  0  0  0  0  0  0
   -2.4364   21.7509  -24.5563 C   0  0  0  0  0  0  0  0  0  0  0  0
   -3.9577   21.3612  -21.1618 N   0  0  0  0  0  0  0  0  0  0  0  0
   -3.6753   20.4351  -20.5638 H   0  0  0  0  0  0  0  0  0  0  0  0
   -5.1502   22.2910  -20.5104 S   0  0  0  0  0  0  0  0  0  0  0  0
   -6.7453   21.8823  -21.2265 C   0  0  0  0  0  0  0  0  0  0  0  0
   -4.8070   23.7281  -20.5260 O   0  0  0  0  0  0  0  0  0  0  0  0
   -5.2966   21.8410  -19.0198 O   0  0  0  0  0  0  0  0  0  0  0  0
   -2.3346   23.3884  -27.5106 C   0  0  0  0  0  0  0  0  0  0  0  0
   -3.4533   24.1618  -26.9131 C   0  0  0  0  0  0  0  0  0  0  0  0
   -3.5757   24.6357  -25.6331 C   0  0  0  0  0  0  0  0  0  0  0  0
   -4.8528   24.9199  -25.0548 C   0  0  0  0  0  0  0  0  0  0  0  0
   -5.9091   24.7046  -25.8139 C   0  0  0  0  0  0  0  0  0  0  0  0
   -5.8153   24.2139  -27.1094 C   0  0  0  0  0  0  0  0  0  0  0  0
   -4.6449   23.9532  -27.6545 C   0  0  0  0  0  0  0  0  0  0  0  0
   -4.3160   23.6341  -29.0824 C   0  0  0  0  0  0  0  0  0  0  0  0
   -3.6787   24.8719  -29.7514 C   0  0  0  0  0  0  0  0  0  0  0  0
   -4.5278   26.0481  -29.9111 C   0  0  0  0  0  0  0  0  0  0  0  0
   -5.8138   25.7146  -30.6289 C   0  0  0  0  0  0  0  0  0  0  0  0
   -5.8706   24.2532  -30.9956 C   0  0  0  0  0  0  0  0  0  0  0  0
   -5.5551   23.2996  -29.8902 C   0  0  0  0  0  0  0  0  0  0  0  0
   -7.3215   24.6594  -25.1845 C   0  0  0  0  0  0  0  0  0  0  0  0
   -7.5339   23.7610  -24.2877 F   0  0  0  0  0  0  0  0  0  0  0  0
   -8.2102   24.6506  -26.2363 F   0  0  0  0  0  0  0  0  0  0  0  0
   -7.4931   25.9586  -24.6127 F   0  0  0  0  0  0  0  0  0  0  0  0
  5  6  1  0  0  0
  6  1  1  0  0  0
  1  2  2  0  0  0
  1  3  1  0  0  0
  3 20  1  0  0  0
 20 21  1  0  0  0
 21 22  2  0  0  0
 22 23  1  0  0  0
 23 24  2  0  0  0
 24 33  1  0  0  0
 33 34  1  0  0  0
 33 35  1  0  0  0
 33 36  1  0  0  0
 24 25  1  0  0  0
 25 26  2  0  0  0
 26 27  1  0  0  0
 27 28  1  0  0  0
 28 29  1  0  0  0
 29 30  1  0  0  0
 30 31  1  0  0  0
 31 32  1  0  0  0
  6  7  1  0  0  0
  7  8  2  0  0  0
  8  9  1  0  0  0
  9 10  2  0  0  0
 10 14  1  0  0  0
 14 16  1  0  0  0
 16 17  1  0  0  0
 16 18  2  0  0  0
 16 19  2  0  0  0
 10 11  1  0  0  0
 11 12  1  0  0  0
 11 13  2  0  0  0
 26 21  1  0  0  0
 32 27  1  0  0  0
 13  7  1  0  0  0
  3  4  1  0  0  0
 14 15  1  0  0  0
M  END
> <minimizedAffinity>
-8.58496

> <CNNscore>
0.2891440690

> <CNNaffinity>
7.1472039223

> <CNN_VS>
2.0665717125

> <CNNaffinity_variance>
0.2248713076

$$$$
[H]c1c([H])c(C([H])(C(=O)N([H])C([H])([H])c2c([H])c([H])c(C(F)(F)F)c([H])c2C2([H])C([H])([H])C([H])([H])C([H])([H])C([H])([H])C2([H])[H])C([H])([H])[H])c([H])c(F)c1N([H])S(=O)(=O)C([H])([H])[H]


 36 38  0  0  0  0  0  0  0  0999 V2000
   -0.0363   21.9657  -26.3293 C   0  0  0  0  0  0  0  0  0  0  0  0
    0.9207   21.6995  -26.7893 O   0  0  0  0  0  0  0  0  0  0  0  0
   -1.4363   21.9788  -26.3263 N   0  0  0  0  0  0  0  0  0  0  0  0
   -1.4452   21.2095  -27.4998 H   0  0  0  0  0  0  0  0  0  0  0  0
    1.0150   23.7546  -25.3004 C   0  0  0  0  0  0  0  0  0  0  0  0
   -0.0522   22.7299  -24.8487 C   0  0  0  0  0  0  0  0  0  0  0  0
    0.4931   21.8618  -23.8678 C   0  0  0  0  0  0  0  0  0  0  0  0
    1.7774   21.4962  -23.8213 C   0  0  0  0  0  0  0  0  0  0  0  0
    2.3280   20.7909  -22.8391 C   0  0  0  0  0  0  0  0  0  0  0  0
    1.4758   20.3547  -21.7442 C   0  0  0  0  0  0  0  0  0  0  0  0
    0.2150   20.6990  -21.8001 C   0  0  0  0  0  0  0  0  0  0  0  0
   -0.6240   20.1720  -20.8071 F   0  0  0  0  0  0  0  0  0  0  0  0
   -0.3828   21.4519  -22.7882 C   0  0  0  0  0  0  0  0  0  0  0  0
    2.2903   19.8772  -20.6994 N   0  0  0  0  0  0  0  0  0  0  0  0
    2.8217   18.9349  -21.0525 H   0  0  0  0  0  0  0  0  0  0  0  0
    2.7119   20.4109  -19.1998 S   0  0  0  0  0  0  0  0  0  0  0  0
    3.0930   22.1653  -19.2273 C   0  0  0  0  0  0  0  0  0  0  0  0
    3.7422   19.5563  -18.5740 O   0  0  0  0  0  0  0  0  0  0  0  0
    1.4182   20.3351  -18.3243 O   0  0  0  0  0  0  0  0  0  0  0  0
   -2.6863   21.9869  -26.3306 C   0  0  0  0  0  0  0  0  0  0  0  0
   -3.6731   23.0957  -26.2746 C   0  0  0  0  0  0  0  0  0  0  0  0
   -3.9478   24.0432  -27.2259 C   0  0  0  0  0  0  0  0  0  0  0  0
   -4.5331   25.3033  -26.8860 C   0  0  0  0  0  0  0  0  0  0  0  0
   -4.7973   25.5102  -25.6110 C   0  0  0  0  0  0  0  0  0  0  0  0
   -4.5188   24.5733  -24.6248 C   0  0  0  0  0  0  0  0  0  0  0  0
   -3.9846   23.4077  -24.9259 C   0  0  0  0  0  0  0  0  0  0  0  0
   -3.8113   22.1944  -24.0616 C   0  0  0  0  0  0  0  0  0  0  0  0
   -4.9985   21.2316  -24.2842 C   0  0  0  0  0  0  0  0  0  0  0  0
   -6.3155   21.6966  -23.8608 C   0  0  0  0  0  0  0  0  0  0  0  0
   -6.3129   22.1412  -22.4177 C   0  0  0  0  0  0  0  0  0  0  0  0
   -4.9480   21.9767  -21.7987 C   0  0  0  0  0  0  0  0  0  0  0  0
   -3.8120   22.5430  -22.5857 C   0  0  0  0  0  0  0  0  0  0  0  0
   -5.1112   26.9379  -25.1046 C   0  0  0  0  0  0  0  0  0  0  0  0
   -6.0539   27.0567  -24.2365 F   0  0  0  0  0  0  0  0  0  0  0  0
   -5.2555   27.7205  -26.2284 F   0  0  0  0  0  0  0  0  0  0  0  0
   -3.8779   27.3891  -24.5391 F   0  0  0  0  0  0  0  0  0  0  0  0
  5  6  1  0  0  0
  6  1  1  0  0  0
  1  2  2  0  0  0
  1  3  1  0  0  0
  3 20  1  0  0  0
 20 21  1  0  0  0
 21 22  2  0  0  0
 22 23  1  0  0  0
 23 24  2  0  0  0
 24 33  1  0  0  0
 33 34  1  0  0  0
 33 35  1  0  0  0
 33 36  1  0  0  0
 24 25  1  0  0  0
 25 26  2  0  0  0
 26 27  1  0  0  0
 27 28  1  0  0  0
 28 29  1  0  0  0
 29 30  1  0  0  0
 30 31  1  0  0  0
 31 32  1  0  0  0
  6  7  1  0  0  0
  7  8  2  0  0  0
  8  9  1  0  0  0
  9 10  2  0  0  0
 10 14  1  0  0  0
 14 16  1  0  0  0
 16 17  1  0  0  0
 16 18  2  0  0  0
 16 19  2  0  0  0
 10 11  1  0  0  0
 11 12  1  0  0  0
 11 13  2  0  0  0
 26 21  1  0  0  0
 32 27  1  0  0  0
 13  7  1  0  0  0
  3  4  1  0  0  0
 14 15  1  0  0  0
M  END
> <minimizedAffinity>
-7.69262

> <CNNscore>
0.2851282060

> <CNNaffinity>
6.8276968002

> <CNN_VS>
1.9467689991

> <CNNaffinity_variance>
0.1691913456

$$$$
[H]c1c([H])c(C([H])(C(=O)N([H])C([H])([H])c2c([H])c([H])c(C(F)(F)F)c([H])c2C2([H])C([H])([H])C([H])([H])C([H])([H])C([H])([H])C2([H])[H])C([H])([H])[H])c([H])c(F)c1N([H])S(=O)(=O)C([H])([H])[H]


 36 38  0  0  0  0  0  0  0  0999 V2000
   -0.8346   21.9913  -27.0366 C   0  0  0  0  0  0  0  0  0  0  0  0
    0.0229   21.4577  -27.4587 O   0  0  0  0  0  0  0  0  0  0  0  0
   -2.2051   22.2741  -26.9927 N   0  0  0  0  0  0  0  0  0  0  0  0
   -2.4371   21.2977  -27.9735 H   0  0  0  0  0  0  0  0  0  0  0  0
    0.7231   23.5588  -26.3432 C   0  0  0  0  0  0  0  0  0  0  0  0
   -0.6060   23.0303  -25.7541 C   0  0  0  0  0  0  0  0  0  0  0  0
   -0.3503   22.2757  -24.5800 C   0  0  0  0  0  0  0  0  0  0  0  0
    0.8569   21.8244  -24.2274 C   0  0  0  0  0  0  0  0  0  0  0  0
    1.1344   21.2303  -23.0718 C   0  0  0  0  0  0  0  0  0  0  0  0
    0.0486   21.0243  -22.1261 C   0  0  0  0  0  0  0  0  0  0  0  0
   -1.1359   21.4515  -22.4805 C   0  0  0  0  0  0  0  0  0  0  0  0
   -2.1987   21.1402  -21.6195 F   0  0  0  0  0  0  0  0  0  0  0  0
   -1.4534   22.0953  -23.6575 C   0  0  0  0  0  0  0  0  0  0  0  0
    0.5954   20.6440  -20.8853 N   0  0  0  0  0  0  0  0  0  0  0  0
    1.1359   21.5386  -20.4353 H   0  0  0  0  0  0  0  0  0  0  0  0
    0.5350   19.2995  -19.9367 S   0  0  0  0  0  0  0  0  0  0  0  0
   -0.8335   19.3932  -18.7781 C   0  0  0  0  0  0  0  0  0  0  0  0
    1.8462   18.9851  -19.3325 O   0  0  0  0  0  0  0  0  0  0  0  0
    0.1342   18.1145  -20.8754 O   0  0  0  0  0  0  0  0  0  0  0  0
   -3.4299   22.5217  -26.9595 C   0  0  0  0  0  0  0  0  0  0  0  0
   -4.3539   23.1033  -27.9666 C   0  0  0  0  0  0  0  0  0  0  0  0
   -4.7470   22.5770  -29.1693 C   0  0  0  0  0  0  0  0  0  0  0  0
   -5.2231   23.4055  -30.2337 C   0  0  0  0  0  0  0  0  0  0  0  0
   -5.2670   24.7027  -30.0019 C   0  0  0  0  0  0  0  0  0  0  0  0
   -4.8641   25.2643  -28.7976 C   0  0  0  0  0  0  0  0  0  0  0  0
   -4.4286   24.5114  -27.8085 C   0  0  0  0  0  0  0  0  0  0  0  0
   -4.1592   24.8862  -26.3816 C   0  0  0  0  0  0  0  0  0  0  0  0
   -5.1186   24.1060  -25.4560 C   0  0  0  0  0  0  0  0  0  0  0  0
   -6.5409   24.4135  -25.5672 C   0  0  0  0  0  0  0  0  0  0  0  0
   -6.8062   25.8916  -25.4090 C   0  0  0  0  0  0  0  0  0  0  0  0
   -5.5270   26.6529  -25.1697 C   0  0  0  0  0  0  0  0  0  0  0  0
   -4.4151   26.3584  -26.1225 C   0  0  0  0  0  0  0  0  0  0  0  0
   -5.4423   25.6958  -31.1750 C   0  0  0  0  0  0  0  0  0  0  0  0
   -6.1491   25.3006  -32.1754 F   0  0  0  0  0  0  0  0  0  0  0  0
   -4.1782   26.1373  -31.4962 F   0  0  0  0  0  0  0  0  0  0  0  0
   -6.0547   26.8412  -30.5770 F   0  0  0  0  0  0  0  0  0  0  0  0
  5  6  1  0  0  0
  6  1  1  0  0  0
  1  2  2  0  0  0
  1  3  1  0  0  0
  3 20  1  0  0  0
 20 21  1  0  0  0
 21 22  2  0  0  0
 22 23  1  0  0  0
 23 24  2  0  0  0
 24 33  1  0  0  0
 33 34  1  0  0  0
 33 35  1  0  0  0
 33 36  1  0  0  0
 24 25  1  0  0  0
 25 26  2  0  0  0
 26 27  1  0  0  0
 27 28  1  0  0  0
 28 29  1  0  0  0
 29 30  1  0  0  0
 30 31  1  0  0  0
 31 32  1  0  0  0
  6  7  1  0  0  0
  7  8  2  0  0  0
  8  9  1  0  0  0
  9 10  2  0  0  0
 10 14  1  0  0  0
 14 16  1  0  0  0
 16 17  1  0  0  0
 16 18  2  0  0  0
 16 19  2  0  0  0
 10 11  1  0  0  0
 11 12  1  0  0  0
 11 13  2  0  0  0
 26 21  1  0  0  0
 32 27  1  0  0  0
 13  7  1  0  0  0
  3  4  1  0  0  0
 14 15  1  0  0  0
M  END
> <minimizedAffinity>
-8.70809

> <CNNscore>
0.2241039425

> <CNNaffinity>
6.9858422279

> <CNN_VS>
1.5655547380

> <CNNaffinity_variance>
0.2639631927

$$$$
[H]c1c([H])c(C([H])(C(=O)N([H])C([H])([H])c2c([H])c([H])c(C(F)(F)F)c([H])c2C2([H])C([H])([H])C([H])([H])C([H])([H])C([H])([H])C2([H])[H])C([H])([H])[H])c([H])c(F)c1N([H])S(=O)(=O)C([H])([H])[H]


 36 38  0  0  0  0  0  0  0  0999 V2000
   -0.1957   22.0086  -26.3517 C   0  0  0  0  0  0  0  0  0  0  0  0
    0.7485   21.4916  -26.5503 O   0  0  0  0  0  0  0  0  0  0  0  0
   -1.5324   22.2872  -26.6612 N   0  0  0  0  0  0  0  0  0  0  0  0
   -1.4871   21.3453  -27.7004 H   0  0  0  0  0  0  0  0  0  0  0  0
    1.0766   23.6110  -25.2663 C   0  0  0  0  0  0  0  0  0  0  0  0
   -0.3243   23.0026  -25.0205 C   0  0  0  0  0  0  0  0  0  0  0  0
   -0.3100   22.2117  -23.8426 C   0  0  0  0  0  0  0  0  0  0  0  0
   -1.4084   21.8095  -23.1967 C   0  0  0  0  0  0  0  0  0  0  0  0
   -1.4161   20.9649  -22.1710 C   0  0  0  0  0  0  0  0  0  0  0  0
   -0.1413   20.4573  -21.6885 C   0  0  0  0  0  0  0  0  0  0  0  0
    0.9341   20.8657  -22.3112 C   0  0  0  0  0  0  0  0  0  0  0  0
    2.1640   20.4706  -21.7645 F   0  0  0  0  0  0  0  0  0  0  0  0
    0.9767   21.7181  -23.3939 C   0  0  0  0  0  0  0  0  0  0  0  0
   -0.3854   19.3895  -20.8034 N   0  0  0  0  0  0  0  0  0  0  0  0
   -0.7894   18.5075  -21.3983 H   0  0  0  0  0  0  0  0  0  0  0  0
   -0.1245   19.1066  -19.2024 S   0  0  0  0  0  0  0  0  0  0  0  0
    1.5058   18.4043  -18.9327 C   0  0  0  0  0  0  0  0  0  0  0  0
   -1.2381   18.3610  -18.5801 O   0  0  0  0  0  0  0  0  0  0  0  0
   -0.0329   20.5087  -18.5155 O   0  0  0  0  0  0  0  0  0  0  0  0
   -2.7253   22.5313  -26.9438 C   0  0  0  0  0  0  0  0  0  0  0  0
   -3.6912   23.5232  -26.4057 C   0  0  0  0  0  0  0  0  0  0  0  0
   -3.8529   23.9420  -25.1109 C   0  0  0  0  0  0  0  0  0  0  0  0
   -5.0860   24.5008  -24.6492 C   0  0  0  0  0  0  0  0  0  0  0  0
   -6.0618   24.5949  -25.5307 C   0  0  0  0  0  0  0  0  0  0  0  0
   -5.9299   24.1679  -26.8453 C   0  0  0  0  0  0  0  0  0  0  0  0
   -4.7980   23.6563  -27.2835 C   0  0  0  0  0  0  0  0  0  0  0  0
   -4.3823   23.3445  -28.6903 C   0  0  0  0  0  0  0  0  0  0  0  0
   -3.6214   24.5522  -29.2805 C   0  0  0  0  0  0  0  0  0  0  0  0
   -4.3822   25.7824  -29.4748 C   0  0  0  0  0  0  0  0  0  0  0  0
   -5.6283   25.5443  -30.2938 C   0  0  0  0  0  0  0  0  0  0  0  0
   -5.7468   24.0967  -30.6984 C   0  0  0  0  0  0  0  0  0  0  0  0
   -5.5750   23.1042  -29.5956 C   0  0  0  0  0  0  0  0  0  0  0  0
   -7.5103   24.8657  -25.0600 C   0  0  0  0  0  0  0  0  0  0  0  0
   -8.4515   24.6551  -25.9122 F   0  0  0  0  0  0  0  0  0  0  0  0
   -7.5036   26.1248  -24.5025 F   0  0  0  0  0  0  0  0  0  0  0  0
   -7.6808   24.0021  -23.9332 F   0  0  0  0  0  0  0  0  0  0  0  0
  5  6  1  0  0  0
  6  1  1  0  0  0
  1  2  2  0  0  0
  1  3  1  0  0  0
  3 20  1  0  0  0
 20 21  1  0  0  0
 21 22  2  0  0  0
 22 23  1  0  0  0
 23 24  2  0  0  0
 24 33  1  0  0  0
 33 34  1  0  0  0
 33 35  1  0  0  0
 33 36  1  0  0  0
 24 25  1  0  0  0
 25 26  2  0  0  0
 26 27  1  0  0  0
 27 28  1  0  0  0
 28 29  1  0  0  0
 29 30  1  0  0  0
 30 31  1  0  0  0
 31 32  1  0  0  0
  6  7  1  0  0  0
  7  8  2  0  0  0
  8  9  1  0  0  0
  9 10  2  0  0  0
 10 14  1  0  0  0
 14 16  1  0  0  0
 16 17  1  0  0  0
 16 18  2  0  0  0
 16 19  2  0  0  0
 10 11  1  0  0  0
 11 12  1  0  0  0
 11 13  2  0  0  0
 26 21  1  0  0  0
 32 27  1  0  0  0
 13  7  1  0  0  0
  3  4  1  0  0  0
 14 15  1  0  0  0
M  END
> <minimizedAffinity>
-8.46769

> <CNNscore>
0.2193760276

> <CNNaffinity>
6.7757630348

> <CNN_VS>
1.4864399433

> <CNNaffinity_variance>
0.4156433642

$$$$
[H]c1c([H])c(C([H])(C(=O)N([H])C([H])([H])c2c([H])c([H])c(C(F)(F)F)c([H])c2C2([H])C([H])([H])C([H])([H])C([H])([H])C([H])([H])C2([H])[H])C([H])([H])[H])c([H])c(F)c1N([H])S(=O)(=O)C([H])([H])[H]


 36 38  0  0  0  0  0  0  0  0999 V2000
   -0.2616   21.9716  -26.4371 C   0  0  0  0  0  0  0  0  0  0  0  0
    0.5981   21.2967  -26.4986 O   0  0  0  0  0  0  0  0  0  0  0  0
   -1.4765   22.4617  -26.9313 N   0  0  0  0  0  0  0  0  0  0  0  0
   -1.4531   21.4931  -27.9465 H   0  0  0  0  0  0  0  0  0  0  0  0
    1.1157   23.3374  -25.1715 C   0  0  0  0  0  0  0  0  0  0  0  0
   -0.3969   23.0147  -25.1447 C   0  0  0  0  0  0  0  0  0  0  0  0
   -0.7146   22.2744  -23.9767 C   0  0  0  0  0  0  0  0  0  0  0  0
    0.1956   21.7300  -23.1639 C   0  0  0  0  0  0  0  0  0  0  0  0
   -0.0801   21.1470  -22.0023 C   0  0  0  0  0  0  0  0  0  0  0  0
   -1.4718   21.0631  -21.5879 C   0  0  0  0  0  0  0  0  0  0  0  0
   -2.3629   21.5815  -22.3932 C   0  0  0  0  0  0  0  0  0  0  0  0
   -3.7087   21.3883  -22.0477 F   0  0  0  0  0  0  0  0  0  0  0  0
   -2.1102   22.2168  -23.5903 C   0  0  0  0  0  0  0  0  0  0  0  0
   -1.5186   20.6721  -20.2359 N   0  0  0  0  0  0  0  0  0  0  0  0
   -0.9189   19.7128  -20.1127 H   0  0  0  0  0  0  0  0  0  0  0  0
   -2.1195   21.3178  -18.8456 S   0  0  0  0  0  0  0  0  0  0  0  0
   -3.6476   20.5045  -18.3689 C   0  0  0  0  0  0  0  0  0  0  0  0
   -2.1862   22.7929  -18.9002 O   0  0  0  0  0  0  0  0  0  0  0  0
   -1.1254   20.9168  -17.7067 O   0  0  0  0  0  0  0  0  0  0  0  0
   -2.5605   22.8943  -27.3787 C   0  0  0  0  0  0  0  0  0  0  0  0
   -3.5777   23.8115  -26.8037 C   0  0  0  0  0  0  0  0  0  0  0  0
   -3.6998   24.2482  -25.5105 C   0  0  0  0  0  0  0  0  0  0  0  0
   -4.9486   24.7087  -24.9866 C   0  0  0  0  0  0  0  0  0  0  0  0
   -5.9789   24.6940  -25.8091 C   0  0  0  0  0  0  0  0  0  0  0  0
   -5.8867   24.2459  -27.1201 C   0  0  0  0  0  0  0  0  0  0  0  0
   -4.7414   23.8242  -27.6154 C   0  0  0  0  0  0  0  0  0  0  0  0
   -4.3827   23.5133  -29.0380 C   0  0  0  0  0  0  0  0  0  0  0  0
   -3.6144   24.7071  -29.6464 C   0  0  0  0  0  0  0  0  0  0  0  0
   -4.3519   25.9564  -29.8056 C   0  0  0  0  0  0  0  0  0  0  0  0
   -5.6313   25.7540  -30.5818 C   0  0  0  0  0  0  0  0  0  0  0  0
   -5.7984   24.3127  -30.9917 C   0  0  0  0  0  0  0  0  0  0  0  0
   -5.6118   23.3081  -29.9024 C   0  0  0  0  0  0  0  0  0  0  0  0
   -7.4157   24.8491  -25.2571 C   0  0  0  0  0  0  0  0  0  0  0  0
   -8.3839   24.6325  -26.0768 F   0  0  0  0  0  0  0  0  0  0  0  0
   -7.4538   26.0716  -24.6243 F   0  0  0  0  0  0  0  0  0  0  0  0
   -7.4808   23.9124  -24.1788 F   0  0  0  0  0  0  0  0  0  0  0  0
  5  6  1  0  0  0
  6  1  1  0  0  0
  1  2  2  0  0  0
  1  3  1  0  0  0
  3 20  1  0  0  0
 20 21  1  0  0  0
 21 22  2  0  0  0
 22 23  1  0  0  0
 23 24  2  0  0  0
 24 33  1  0  0  0
 33 34  1  0  0  0
 33 35  1  0  0  0
 33 36  1  0  0  0
 24 25  1  0  0  0
 25 26  2  0  0  0
 26 27  1  0  0  0
 27 28  1  0  0  0
 28 29  1  0  0  0
 29 30  1  0  0  0
 30 31  1  0  0  0
 31 32  1  0  0  0
  6  7  1  0  0  0
  7  8  2  0  0  0
  8  9  1  0  0  0
  9 10  2  0  0  0
 10 14  1  0  0  0
 14 16  1  0  0  0
 16 17  1  0  0  0
 16 18  2  0  0  0
 16 19  2  0  0  0
 10 11  1  0  0  0
 11 12  1  0  0  0
 11 13  2  0  0  0
 26 21  1  0  0  0
 32 27  1  0  0  0
 13  7  1  0  0  0
  3  4  1  0  0  0
 14 15  1  0  0  0
M  END
> <minimizedAffinity>
-8.62048

> <CNNscore>
0.2143598050

> <CNNaffinity>
6.8784232140

> <CNN_VS>
1.4744575024

> <CNNaffinity_variance>
0.3678601384

$$$$
[H]c1c([H])c(C([H])(C(=O)N([H])C([H])([H])c2c([H])c([H])c(C(F)(F)F)c([H])c2C2([H])C([H])([H])C([H])([H])C([H])([H])C([H])([H])C2([H])[H])C([H])([H])[H])c([H])c(F)c1N([H])S(=O)(=O)C([H])([H])[H]


 36 38  0  0  0  0  0  0  0  0999 V2000
   -0.9767   22.0785  -26.9778 C   0  0  0  0  0  0  0  0  0  0  0  0
   -0.0762   21.5670  -27.3325 O   0  0  0  0  0  0  0  0  0  0  0  0
   -2.3605   22.2901  -27.0047 N   0  0  0  0  0  0  0  0  0  0  0  0
   -2.5011   21.2462  -27.9318 H   0  0  0  0  0  0  0  0  0  0  0  0
    0.6865   23.2505  -25.8712 C   0  0  0  0  0  0  0  0  0  0  0  0
   -0.8552   23.2025  -25.7537 C   0  0  0  0  0  0  0  0  0  0  0  0
   -1.2297   22.5993  -24.5252 C   0  0  0  0  0  0  0  0  0  0  0  0
   -0.5970   21.5570  -23.9786 C   0  0  0  0  0  0  0  0  0  0  0  0
   -0.8538   21.0645  -22.7716 C   0  0  0  0  0  0  0  0  0  0  0  0
   -1.9174   21.6767  -21.9909 C   0  0  0  0  0  0  0  0  0  0  0  0
   -2.5471   22.6861  -22.5348 C   0  0  0  0  0  0  0  0  0  0  0  0
   -3.6498   23.1911  -21.8301 F   0  0  0  0  0  0  0  0  0  0  0  0
   -2.2890   23.2393  -23.7709 C   0  0  0  0  0  0  0  0  0  0  0  0
   -1.8397   21.1998  -20.6682 N   0  0  0  0  0  0  0  0  0  0  0  0
   -0.8511   20.6520  -20.5354 H   0  0  0  0  0  0  0  0  0  0  0  0
   -2.7586   21.3466  -19.3098 S   0  0  0  0  0  0  0  0  0  0  0  0
   -2.0228   20.4517  -17.9380 C   0  0  0  0  0  0  0  0  0  0  0  0
   -4.1817   21.0415  -19.5647 O   0  0  0  0  0  0  0  0  0  0  0  0
   -2.6530   22.8421  -18.8647 O   0  0  0  0  0  0  0  0  0  0  0  0
   -3.5965   22.4738  -27.0345 C   0  0  0  0  0  0  0  0  0  0  0  0
   -4.4772   23.1510  -28.0205 C   0  0  0  0  0  0  0  0  0  0  0  0
   -4.8863   22.7029  -29.2493 C   0  0  0  0  0  0  0  0  0  0  0  0
   -5.3057   23.6043  -30.2776 C   0  0  0  0  0  0  0  0  0  0  0  0
   -5.2809   24.8899  -29.9863 C   0  0  0  0  0  0  0  0  0  0  0  0
   -4.8600   25.3726  -28.7543 C   0  0  0  0  0  0  0  0  0  0  0  0
   -4.4762   24.5523  -27.7979 C   0  0  0  0  0  0  0  0  0  0  0  0
   -4.2012   24.8459  -26.3531 C   0  0  0  0  0  0  0  0  0  0  0  0
   -5.2601   24.1425  -25.4757 C   0  0  0  0  0  0  0  0  0  0  0  0
   -6.6381   24.6060  -25.6028 C   0  0  0  0  0  0  0  0  0  0  0  0
   -6.7464   26.0978  -25.3950 C   0  0  0  0  0  0  0  0  0  0  0  0
   -5.3985   26.7072  -25.1031 C   0  0  0  0  0  0  0  0  0  0  0  0
   -4.3031   26.3272  -26.0446 C   0  0  0  0  0  0  0  0  0  0  0  0
   -5.3898   25.9439  -31.1134 C   0  0  0  0  0  0  0  0  0  0  0  0
   -5.8029   27.1163  -30.7801 F   0  0  0  0  0  0  0  0  0  0  0  0
   -6.0999   25.3461  -32.1305 F   0  0  0  0  0  0  0  0  0  0  0  0
   -4.0633   26.0338  -31.6397 F   0  0  0  0  0  0  0  0  0  0  0  0
  5  6  1  0  0  0
  6  1  1  0  0  0
  1  2  2  0  0  0
  1  3  1  0  0  0
  3 20  1  0  0  0
 20 21  1  0  0  0
 21 22  2  0  0  0
 22 23  1  0  0  0
 23 24  2  0  0  0
 24 33  1  0  0  0
 33 34  1  0  0  0
 33 35  1  0  0  0
 33 36  1  0  0  0
 24 25  1  0  0  0
 25 26  2  0  0  0
 26 27  1  0  0  0
 27 28  1  0  0  0
 28 29  1  0  0  0
 29 30  1  0  0  0
 30 31  1  0  0  0
 31 32  1  0  0  0
  6  7  1  0  0  0
  7  8  2  0  0  0
  8  9  1  0  0  0
  9 10  2  0  0  0
 10 14  1  0  0  0
 14 16  1  0  0  0
 16 17  1  0  0  0
 16 18  2  0  0  0
 16 19  2  0  0  0
 10 11  1  0  0  0
 11 12  1  0  0  0
 11 13  2  0  0  0
 26 21  1  0  0  0
 32 27  1  0  0  0
 13  7  1  0  0  0
  3  4  1  0  0  0
 14 15  1  0  0  0
M  END
> <minimizedAffinity>
-8.97299

> <CNNscore>
0.1977166682

> <CNNaffinity>
7.1406555176

> <CNN_VS>
1.4118266106

> <CNNaffinity_variance>
0.2534270883

$$$$
[H]c1c([H])c(C([H])(C(=O)N([H])C([H])([H])c2c([H])c([H])c(C(F)(F)F)c([H])c2C2([H])C([H])([H])C([H])([H])C([H])([H])C([H])([H])C2([H])[H])C([H])([H])[H])c([H])c(F)c1N([H])S(=O)(=O)C([H])([H])[H]


 36 38  0  0  0  0  0  0  0  0999 V2000
   -1.4188   23.1908  -20.6701 C   0  0  0  0  0  0  0  0  0  0  0  0
   -0.8158   23.7034  -19.9138 O   0  0  0  0  0  0  0  0  0  0  0  0
   -2.4124   23.1916  -21.6565 N   0  0  0  0  0  0  0  0  0  0  0  0
   -2.5550   24.5799  -21.5104 H   0  0  0  0  0  0  0  0  0  0  0  0
   -1.3969   21.1893  -19.5049 C   0  0  0  0  0  0  0  0  0  0  0  0
   -1.1477   21.5765  -20.9817 C   0  0  0  0  0  0  0  0  0  0  0  0
    0.2196   21.3860  -21.3093 C   0  0  0  0  0  0  0  0  0  0  0  0
    1.1846   21.1809  -20.4080 C   0  0  0  0  0  0  0  0  0  0  0  0
    2.4428   20.8735  -20.7038 C   0  0  0  0  0  0  0  0  0  0  0  0
    2.8163   20.7790  -22.1064 C   0  0  0  0  0  0  0  0  0  0  0  0
    1.8742   20.9970  -22.9873 C   0  0  0  0  0  0  0  0  0  0  0  0
    2.2681   21.0258  -24.3333 F   0  0  0  0  0  0  0  0  0  0  0  0
    0.5548   21.2906  -22.7161 C   0  0  0  0  0  0  0  0  0  0  0  0
    4.0893   20.1836  -22.1965 N   0  0  0  0  0  0  0  0  0  0  0  0
    4.8235   20.9520  -22.6035 H   0  0  0  0  0  0  0  0  0  0  0  0
    4.7437   18.7366  -21.7616 S   0  0  0  0  0  0  0  0  0  0  0  0
    3.7098   17.3747  -22.3097 C   0  0  0  0  0  0  0  0  0  0  0  0
    5.1187   18.7021  -20.3328 O   0  0  0  0  0  0  0  0  0  0  0  0
    6.0457   18.5675  -22.6114 O   0  0  0  0  0  0  0  0  0  0  0  0
   -3.3008   23.1999  -22.5358 C   0  0  0  0  0  0  0  0  0  0  0  0
   -3.3092   22.7290  -23.9445 C   0  0  0  0  0  0  0  0  0  0  0  0
   -2.4481   21.8575  -24.5587 C   0  0  0  0  0  0  0  0  0  0  0  0
   -2.2580   21.8612  -25.9764 C   0  0  0  0  0  0  0  0  0  0  0  0
   -2.9529   22.7442  -26.6661 C   0  0  0  0  0  0  0  0  0  0  0  0
   -3.8232   23.6466  -26.0692 C   0  0  0  0  0  0  0  0  0  0  0  0
   -4.0104   23.6497  -24.7654 C   0  0  0  0  0  0  0  0  0  0  0  0
   -5.0465   24.3753  -23.9598 C   0  0  0  0  0  0  0  0  0  0  0  0
   -6.4234   23.7094  -24.1750 C   0  0  0  0  0  0  0  0  0  0  0  0
   -6.9959   23.7919  -25.5150 C   0  0  0  0  0  0  0  0  0  0  0  0
   -7.0626   25.2182  -26.0063 C   0  0  0  0  0  0  0  0  0  0  0  0
   -6.5257   26.1766  -24.9735 C   0  0  0  0  0  0  0  0  0  0  0  0
   -5.1957   25.8204  -24.3949 C   0  0  0  0  0  0  0  0  0  0  0  0
   -2.5776   23.0520  -28.1349 C   0  0  0  0  0  0  0  0  0  0  0  0
   -3.0535   22.2672  -29.0371 F   0  0  0  0  0  0  0  0  0  0  0  0
   -1.2088   23.2001  -28.1583 F   0  0  0  0  0  0  0  0  0  0  0  0
   -3.0612   24.3803  -28.3502 F   0  0  0  0  0  0  0  0  0  0  0  0
  5  6  1  0  0  0
  6  1  1  0  0  0
  1  2  2  0  0  0
  1  3  1  0  0  0
  3 20  1  0  0  0
 20 21  1  0  0  0
 21 22  2  0  0  0
 22 23  1  0  0  0
 23 24  2  0  0  0
 24 33  1  0  0  0
 33 34  1  0  0  0
 33 35  1  0  0  0
 33 36  1  0  0  0
 24 25  1  0  0  0
 25 26  2  0  0  0
 26 27  1  0  0  0
 27 28  1  0  0  0
 28 29  1  0  0  0
 29 30  1  0  0  0
 30 31  1  0  0  0
 31 32  1  0  0  0
  6  7  1  0  0  0
  7  8  2  0  0  0
  8  9  1  0  0  0
  9 10  2  0  0  0
 10 14  1  0  0  0
 14 16  1  0  0  0
 16 17  1  0  0  0
 16 18  2  0  0  0
 16 19  2  0  0  0
 10 11  1  0  0  0
 11 12  1  0  0  0
 11 13  2  0  0  0
 26 21  1  0  0  0
 32 27  1  0  0  0
 13  7  1  0  0  0
  3  4  1  0  0  0
 14 15  1  0  0  0
M  END
> <minimizedAffinity>
-8.59387

> <CNNscore>
0.1827386916

> <CNNaffinity>
6.5632004738

> <CNN_VS>
1.1993507147

> <CNNaffinity_variance>
0.2238756418

$$$$
[H]OC(=O)C([H])([H])N(C([H])([H])c1c([H])c([H])c([H])c(OC([H])([H])C([H])([H])c2nc(-c3c([H])c([H])c([H])c([H])c3[H])oc2C([H])([H])[H])c1[H])C([H])([H])c1c([H])c([H])c2c([H])c([H])c([H])c([H])c2c1[H]


 39 43  0  0  0  0  0  0  0  0999 V2000
   -4.4084   21.6119  -23.6562 C   0  0  0  0  0  0  0  0  0  0  0  0
   -3.7227   21.4244  -22.4894 C   0  0  0  0  0  0  0  0  0  0  0  0
   -4.3087   21.7610  -21.2924 C   0  0  0  0  0  0  0  0  0  0  0  0
   -5.5778   22.2874  -21.2069 C   0  0  0  0  0  0  0  0  0  0  0  0
   -6.2954   22.4885  -22.3628 C   0  0  0  0  0  0  0  0  0  0  0  0
   -5.7008   22.1497  -23.5495 C   0  0  0  0  0  0  0  0  0  0  0  0
   -3.9054   21.3098  -24.8784 O   0  0  0  0  0  0  0  0  0  0  0  0
   -3.5376   22.0466  -25.9630 C   0  0  0  0  0  0  0  0  0  0  0  0
   -2.5348   23.1356  -25.7715 C   0  0  0  0  0  0  0  0  0  0  0  0
   -0.0818   22.6914  -27.6778 C   0  0  0  0  0  0  0  0  0  0  0  0
   -0.0982   22.3835  -26.2363 C   0  0  0  0  0  0  0  0  0  0  0  0
    0.8833   21.8843  -25.5191 O   0  0  0  0  0  0  0  0  0  0  0  0
    0.5076   21.7447  -24.2724 C   0  0  0  0  0  0  0  0  0  0  0  0
   -0.7656   22.1751  -24.2023 N   0  0  0  0  0  0  0  0  0  0  0  0
   -1.1883   22.5831  -25.4002 C   0  0  0  0  0  0  0  0  0  0  0  0
    1.2970   21.2280  -23.1627 C   0  0  0  0  0  0  0  0  0  0  0  0
    2.6429   20.9685  -23.3157 C   0  0  0  0  0  0  0  0  0  0  0  0
    3.4182   20.4729  -22.2707 C   0  0  0  0  0  0  0  0  0  0  0  0
    2.8372   20.2309  -21.0471 C   0  0  0  0  0  0  0  0  0  0  0  0
    1.5066   20.4799  -20.8709 C   0  0  0  0  0  0  0  0  0  0  0  0
    0.7409   20.9776  -21.9294 C   0  0  0  0  0  0  0  0  0  0  0  0
   -7.6467   23.0540  -22.2804 C   0  0  0  0  0  0  0  0  0  0  0  0
   -7.7331   24.4740  -22.2320 N   0  0  0  0  0  0  0  0  0  0  0  0
   -6.5779   25.0819  -21.6752 C   0  0  0  0  0  0  0  0  0  0  0  0
   -6.7250   25.6008  -20.3090 C   0  0  0  0  0  0  0  0  0  0  0  0
   -5.8471   25.6356  -19.4303 O   0  0  0  0  0  0  0  0  0  0  0  0
   -7.9836   26.1150  -19.9405 O   0  0  0  0  0  0  0  0  0  0  0  0
   -8.5574   25.6000  -19.2878 H   0  0  0  0  0  0  0  0  0  0  0  0
   -8.2381   25.0628  -23.4364 C   0  0  0  0  0  0  0  0  0  0  0  0
   -7.2642   25.2715  -24.5036 C   0  0  0  0  0  0  0  0  0  0  0  0
   -6.3620   26.3073  -24.5802 C   0  0  0  0  0  0  0  0  0  0  0  0
   -5.4788   26.4203  -25.6430 C   0  0  0  0  0  0  0  0  0  0  0  0
   -5.4586   25.5055  -26.6724 C   0  0  0  0  0  0  0  0  0  0  0  0
   -4.5663   25.6506  -27.7136 C   0  0  0  0  0  0  0  0  0  0  0  0
   -4.5395   24.7394  -28.7503 C   0  0  0  0  0  0  0  0  0  0  0  0
   -5.4312   23.6901  -28.7034 C   0  0  0  0  0  0  0  0  0  0  0  0
   -6.3335   23.5451  -27.6481 C   0  0  0  0  0  0  0  0  0  0  0  0
   -6.3572   24.4597  -26.6113 C   0  0  0  0  0  0  0  0  0  0  0  0
   -7.2342   24.3517  -25.5515 C   0  0  0  0  0  0  0  0  0  0  0  0
 10 11  1  0  0  0
 11 12  1  0  0  0
 12 13  1  0  0  0
 13 16  1  0  0  0
 16 17  2  0  0  0
 17 18  1  0  0  0
 18 19  2  0  0  0
 19 20  1  0  0  0
 20 21  2  0  0  0
 13 14  2  0  0  0
 14 15  1  0  0  0
 15  9  1  0  0  0
  9  8  1  0  0  0
  8  7  1  0  0  0
  7  1  1  0  0  0
  1  2  2  0  0  0
  2  3  1  0  0  0
  3  4  2  0  0  0
  4  5  1  0  0  0
  5 22  1  0  0  0
 22 23  1  0  0  0
 23 24  1  0  0  0
 24 25  1  0  0  0
 25 26  2  0  0  0
 25 27  1  0  0  0
 23 29  1  0  0  0
 29 30  1  0  0  0
 30 31  2  0  0  0
 31 32  1  0  0  0
 32 33  2  0  0  0
 33 34  1  0  0  0
 34 35  2  0  0  0
 35 36  1  0  0  0
 36 37  2  0  0  0
 37 38  1  0  0  0
 38 39  2  0  0  0
  5  6  2  0  0  0
 15 11  2  0  0  0
  6  1  1  0  0  0
 21 16  1  0  0  0
 39 30  1  0  0  0
 38 33  1  0  0  0
 27 28  1  0  0  0
M  END
> <minimizedAffinity>
-8.92183

> <CNNscore>
0.5680899024

> <CNNaffinity>
7.2213630676

> <CNN_VS>
4.1023836136

> <CNNaffinity_variance>
0.1950729042

$$$$
[H]OC(=O)C([H])([H])N(C([H])([H])c1c([H])c([H])c([H])c(OC([H])([H])C([H])([H])c2nc(-c3c([H])c([H])c([H])c([H])c3[H])oc2C([H])([H])[H])c1[H])C([H])([H])c1c([H])c([H])c2c([H])c([H])c([H])c([H])c2c1[H]


 39 43  0  0  0  0  0  0  0  0999 V2000
   -4.2148   21.7426  -21.9196 C   0  0  0  0  0  0  0  0  0  0  0  0
   -4.0682   21.2478  -23.1847 C   0  0  0  0  0  0  0  0  0  0  0  0
   -5.1172   21.3177  -24.0702 C   0  0  0  0  0  0  0  0  0  0  0  0
   -6.3331   21.8731  -23.7413 C   0  0  0  0  0  0  0  0  0  0  0  0
   -6.5138   22.3807  -22.4760 C   0  0  0  0  0  0  0  0  0  0  0  0
   -5.4614   22.3050  -21.6023 C   0  0  0  0  0  0  0  0  0  0  0  0
   -3.2339   21.7122  -20.9841 O   0  0  0  0  0  0  0  0  0  0  0  0
   -2.5766   22.6641  -20.2657 C   0  0  0  0  0  0  0  0  0  0  0  0
   -1.1318   22.8994  -20.5582 C   0  0  0  0  0  0  0  0  0  0  0  0
    0.6220   20.3852  -21.2307 C   0  0  0  0  0  0  0  0  0  0  0  0
    0.0160   21.2843  -22.2295 C   0  0  0  0  0  0  0  0  0  0  0  0
    0.1018   21.1920  -23.5375 O   0  0  0  0  0  0  0  0  0  0  0  0
   -0.5641   22.1666  -24.1049 C   0  0  0  0  0  0  0  0  0  0  0  0
   -1.0917   22.9039  -23.1104 N   0  0  0  0  0  0  0  0  0  0  0  0
   -0.7586   22.3948  -21.9229 C   0  0  0  0  0  0  0  0  0  0  0  0
   -0.7172   22.4210  -25.5308 C   0  0  0  0  0  0  0  0  0  0  0  0
   -1.9691   22.4702  -26.1076 C   0  0  0  0  0  0  0  0  0  0  0  0
   -2.1413   22.7102  -27.4683 C   0  0  0  0  0  0  0  0  0  0  0  0
   -1.0402   22.9049  -28.2702 C   0  0  0  0  0  0  0  0  0  0  0  0
    0.2096   22.8610  -27.7225 C   0  0  0  0  0  0  0  0  0  0  0  0
    0.3667   22.6191  -26.3545 C   0  0  0  0  0  0  0  0  0  0  0  0
   -7.8086   22.9697  -22.1161 C   0  0  0  0  0  0  0  0  0  0  0  0
   -7.8926   24.3894  -22.1753 N   0  0  0  0  0  0  0  0  0  0  0  0
   -6.7371   25.0358  -21.6645 C   0  0  0  0  0  0  0  0  0  0  0  0
   -6.8617   25.5901  -20.3100 C   0  0  0  0  0  0  0  0  0  0  0  0
   -7.8223   26.2362  -19.8584 O   0  0  0  0  0  0  0  0  0  0  0  0
   -5.7916   25.3770  -19.4190 O   0  0  0  0  0  0  0  0  0  0  0  0
   -5.2009   26.1542  -19.1593 H   0  0  0  0  0  0  0  0  0  0  0  0
   -8.3952   24.8862  -23.4215 C   0  0  0  0  0  0  0  0  0  0  0  0
   -7.3936   25.1972  -24.4368 C   0  0  0  0  0  0  0  0  0  0  0  0
   -6.5375   26.2741  -24.4212 C   0  0  0  0  0  0  0  0  0  0  0  0
   -5.6223   26.4854  -25.4410 C   0  0  0  0  0  0  0  0  0  0  0  0
   -5.5226   25.6321  -26.5175 C   0  0  0  0  0  0  0  0  0  0  0  0
   -4.6004   25.8746  -27.5135 C   0  0  0  0  0  0  0  0  0  0  0  0
   -4.4942   25.0255  -28.5968 C   0  0  0  0  0  0  0  0  0  0  0  0
   -5.3380   23.9373  -28.6423 C   0  0  0  0  0  0  0  0  0  0  0  0
   -6.2707   23.6937  -27.6326 C   0  0  0  0  0  0  0  0  0  0  0  0
   -6.3741   24.5463  -26.5489 C   0  0  0  0  0  0  0  0  0  0  0  0
   -7.2833   24.3403  -25.5316 C   0  0  0  0  0  0  0  0  0  0  0  0
 10 11  1  0  0  0
 11 12  1  0  0  0
 12 13  1  0  0  0
 13 16  1  0  0  0
 16 17  2  0  0  0
 17 18  1  0  0  0
 18 19  2  0  0  0
 19 20  1  0  0  0
 20 21  2  0  0  0
 13 14  2  0  0  0
 14 15  1  0  0  0
 15  9  1  0  0  0
  9  8  1  0  0  0
  8  7  1  0  0  0
  7  1  1  0  0  0
  1  2  2  0  0  0
  2  3  1  0  0  0
  3  4  2  0  0  0
  4  5  1  0  0  0
  5 22  1  0  0  0
 22 23  1  0  0  0
 23 24  1  0  0  0
 24 25  1  0  0  0
 25 26  2  0  0  0
 25 27  1  0  0  0
 23 29  1  0  0  0
 29 30  1  0  0  0
 30 31  2  0  0  0
 31 32  1  0  0  0
 32 33  2  0  0  0
 33 34  1  0  0  0
 34 35  2  0  0  0
 35 36  1  0  0  0
 36 37  2  0  0  0
 37 38  1  0  0  0
 38 39  2  0  0  0
  5  6  2  0  0  0
 15 11  2  0  0  0
  6  1  1  0  0  0
 21 16  1  0  0  0
 39 30  1  0  0  0
 38 33  1  0  0  0
 27 28  1  0  0  0
M  END
> <minimizedAffinity>
-9.41502

> <CNNscore>
0.3164304495

> <CNNaffinity>
6.5824861526

> <CNN_VS>
2.0828990936

> <CNNaffinity_variance>
0.8023053408

$$$$
[H]OC(=O)C([H])([H])N(C([H])([H])c1c([H])c([H])c([H])c(OC([H])([H])C([H])([H])c2nc(-c3c([H])c([H])c([H])c([H])c3[H])oc2C([H])([H])[H])c1[H])C([H])([H])c1c([H])c([H])c2c([H])c([H])c([H])c([H])c2c1[H]


 39 43  0  0  0  0  0  0  0  0999 V2000
   -4.6533   25.3840  -23.6815 C   0  0  0  0  0  0  0  0  0  0  0  0
   -3.9062   26.5091  -23.8876 C   0  0  0  0  0  0  0  0  0  0  0  0
   -4.0770   27.2397  -25.0395 C   0  0  0  0  0  0  0  0  0  0  0  0
   -4.9815   26.8891  -26.0161 C   0  0  0  0  0  0  0  0  0  0  0  0
   -5.7497   25.7620  -25.8396 C   0  0  0  0  0  0  0  0  0  0  0  0
   -5.5704   25.0420  -24.6881 C   0  0  0  0  0  0  0  0  0  0  0  0
   -4.5473   24.6053  -22.5767 O   0  0  0  0  0  0  0  0  0  0  0  0
   -3.5892   23.7667  -22.0939 C   0  0  0  0  0  0  0  0  0  0  0  0
   -3.9715   22.3563  -21.7893 C   0  0  0  0  0  0  0  0  0  0  0  0
   -5.7841   21.3084  -24.1270 C   0  0  0  0  0  0  0  0  0  0  0  0
   -6.2728   21.7210  -22.7989 C   0  0  0  0  0  0  0  0  0  0  0  0
   -7.5166   21.7213  -22.3746 O   0  0  0  0  0  0  0  0  0  0  0  0
   -7.5735   22.1527  -21.1394 C   0  0  0  0  0  0  0  0  0  0  0  0
   -6.3106   22.4358  -20.7707 N   0  0  0  0  0  0  0  0  0  0  0  0
   -5.4635   22.1837  -21.7702 C   0  0  0  0  0  0  0  0  0  0  0  0
   -8.7602   22.3037  -20.3085 C   0  0  0  0  0  0  0  0  0  0  0  0
   -9.0391   21.3979  -19.3065 C   0  0  0  0  0  0  0  0  0  0  0  0
  -10.1677   21.5198  -18.5003 C   0  0  0  0  0  0  0  0  0  0  0  0
  -11.0365   22.5681  -18.6989 C   0  0  0  0  0  0  0  0  0  0  0  0
  -10.7821   23.4779  -19.6844 C   0  0  0  0  0  0  0  0  0  0  0  0
   -9.6447   23.3425  -20.4860 C   0  0  0  0  0  0  0  0  0  0  0  0
   -6.7125   25.3787  -26.8783 C   0  0  0  0  0  0  0  0  0  0  0  0
   -6.1773   24.7182  -28.0200 N   0  0  0  0  0  0  0  0  0  0  0  0
   -5.2887   25.5340  -28.7677 C   0  0  0  0  0  0  0  0  0  0  0  0
   -5.7401   25.9001  -30.1166 C   0  0  0  0  0  0  0  0  0  0  0  0
   -5.5904   26.9996  -30.6760 O   0  0  0  0  0  0  0  0  0  0  0  0
   -6.4136   24.9161  -30.8666 O   0  0  0  0  0  0  0  0  0  0  0  0
   -7.4051   25.0131  -31.0341 H   0  0  0  0  0  0  0  0  0  0  0  0
   -5.7376   23.3800  -27.7591 C   0  0  0  0  0  0  0  0  0  0  0  0
   -4.2927   23.1823  -27.6959 C   0  0  0  0  0  0  0  0  0  0  0  0
   -3.4156   23.3047  -28.7487 C   0  0  0  0  0  0  0  0  0  0  0  0
   -2.0557   23.0892  -28.5862 C   0  0  0  0  0  0  0  0  0  0  0  0
   -1.5144   22.7434  -27.3677 C   0  0  0  0  0  0  0  0  0  0  0  0
   -0.1569   22.5364  -27.2440 C   0  0  0  0  0  0  0  0  0  0  0  0
    0.3944   22.1883  -26.0271 C   0  0  0  0  0  0  0  0  0  0  0  0
   -0.4577   22.0573  -24.9524 C   0  0  0  0  0  0  0  0  0  0  0  0
   -1.8319   22.2676  -25.0801 C   0  0  0  0  0  0  0  0  0  0  0  0
   -2.3804   22.6164  -26.3005 C   0  0  0  0  0  0  0  0  0  0  0  0
   -3.7331   22.8319  -26.4675 C   0  0  0  0  0  0  0  0  0  0  0  0
 10 11  1  0  0  0
 11 12  1  0  0  0
 12 13  1  0  0  0
 13 16  1  0  0  0
 16 17  2  0  0  0
 17 18  1  0  0  0
 18 19  2  0  0  0
 19 20  1  0  0  0
 20 21  2  0  0  0
 13 14  2  0  0  0
 14 15  1  0  0  0
 15  9  1  0  0  0
  9  8  1  0  0  0
  8  7  1  0  0  0
  7  1  1  0  0  0
  1  2  2  0  0  0
  2  3  1  0  0  0
  3  4  2  0  0  0
  4  5  1  0  0  0
  5 22  1  0  0  0
 22 23  1  0  0  0
 23 24  1  0  0  0
 24 25  1  0  0  0
 25 26  2  0  0  0
 25 27  1  0  0  0
 23 29  1  0  0  0
 29 30  1  0  0  0
 30 31  2  0  0  0
 31 32  1  0  0  0
 32 33  2  0  0  0
 33 34  1  0  0  0
 34 35  2  0  0  0
 35 36  1  0  0  0
 36 37  2  0  0  0
 37 38  1  0  0  0
 38 39  2  0  0  0
  5  6  2  0  0  0
 15 11  2  0  0  0
  6  1  1  0  0  0
 21 16  1  0  0  0
 39 30  1  0  0  0
 38 33  1  0  0  0
 27 28  1  0  0  0
M  END
> <minimizedAffinity>
-10.08115

> <CNNscore>
0.2962601185

> <CNNaffinity>
6.9103393555

> <CNN_VS>
2.0472579002

> <CNNaffinity_variance>
0.4192872941

$$$$
[H]OC(=O)C([H])([H])N(C([H])([H])c1c([H])c([H])c([H])c(OC([H])([H])C([H])([H])c2nc(-c3c([H])c([H])c([H])c([H])c3[H])oc2C([H])([H])[H])c1[H])C([H])([H])c1c([H])c([H])c2c([H])c([H])c([H])c([H])c2c1[H]


 39 43  0  0  0  0  0  0  0  0999 V2000
   -7.9456   23.6852  -21.9800 C   0  0  0  0  0  0  0  0  0  0  0  0
   -8.7251   23.1185  -21.0116 C   0  0  0  0  0  0  0  0  0  0  0  0
   -8.2753   22.0087  -20.3368 C   0  0  0  0  0  0  0  0  0  0  0  0
   -7.0538   21.4271  -20.5912 C   0  0  0  0  0  0  0  0  0  0  0  0
   -6.2443   21.9730  -21.5598 C   0  0  0  0  0  0  0  0  0  0  0  0
   -6.7035   23.0786  -22.2258 C   0  0  0  0  0  0  0  0  0  0  0  0
   -8.3126   24.7775  -22.6943 O   0  0  0  0  0  0  0  0  0  0  0  0
   -7.9533   25.2852  -23.9058 C   0  0  0  0  0  0  0  0  0  0  0  0
   -6.7612   26.1812  -23.9722 C   0  0  0  0  0  0  0  0  0  0  0  0
   -3.9176   27.3066  -24.6761 C   0  0  0  0  0  0  0  0  0  0  0  0
   -4.7523   26.4946  -25.5799 C   0  0  0  0  0  0  0  0  0  0  0  0
   -4.4593   26.1113  -26.8023 O   0  0  0  0  0  0  0  0  0  0  0  0
   -5.4400   25.4012  -27.3014 C   0  0  0  0  0  0  0  0  0  0  0  0
   -6.3911   25.3349  -26.3517 N   0  0  0  0  0  0  0  0  0  0  0  0
   -6.0097   26.0008  -25.2602 C   0  0  0  0  0  0  0  0  0  0  0  0
   -5.5084   24.7924  -28.6229 C   0  0  0  0  0  0  0  0  0  0  0  0
   -5.3865   23.4273  -28.7773 C   0  0  0  0  0  0  0  0  0  0  0  0
   -5.4469   22.8221  -30.0298 C   0  0  0  0  0  0  0  0  0  0  0  0
   -5.6326   23.5964  -31.1520 C   0  0  0  0  0  0  0  0  0  0  0  0
   -5.7560   24.9500  -31.0249 C   0  0  0  0  0  0  0  0  0  0  0  0
   -5.6935   25.5434  -29.7607 C   0  0  0  0  0  0  0  0  0  0  0  0
   -4.9431   21.3559  -21.8405 C   0  0  0  0  0  0  0  0  0  0  0  0
   -3.7988   22.1756  -21.6288 N   0  0  0  0  0  0  0  0  0  0  0  0
   -3.6274   22.5498  -20.2706 C   0  0  0  0  0  0  0  0  0  0  0  0
   -2.8405   21.6221  -19.4472 C   0  0  0  0  0  0  0  0  0  0  0  0
   -1.7247   21.8395  -18.9455 O   0  0  0  0  0  0  0  0  0  0  0  0
   -3.3925   20.3517  -19.1907 O   0  0  0  0  0  0  0  0  0  0  0  0
   -2.9888   19.5378  -19.6323 H   0  0  0  0  0  0  0  0  0  0  0  0
   -2.6255   21.7156  -22.3100 C   0  0  0  0  0  0  0  0  0  0  0  0
   -2.5270   22.0678  -23.7232 C   0  0  0  0  0  0  0  0  0  0  0  0
   -3.5679   22.4692  -24.5283 C   0  0  0  0  0  0  0  0  0  0  0  0
   -3.3709   22.7768  -25.8658 C   0  0  0  0  0  0  0  0  0  0  0  0
   -2.1286   22.6974  -26.4552 C   0  0  0  0  0  0  0  0  0  0  0  0
   -1.9707   23.0107  -27.7887 C   0  0  0  0  0  0  0  0  0  0  0  0
   -0.7297   22.9328  -28.3884 C   0  0  0  0  0  0  0  0  0  0  0  0
    0.3338   22.5334  -27.6088 C   0  0  0  0  0  0  0  0  0  0  0  0
    0.1717   22.2169  -26.2589 C   0  0  0  0  0  0  0  0  0  0  0  0
   -1.0730   22.2963  -25.6617 C   0  0  0  0  0  0  0  0  0  0  0  0
   -1.2742   21.9912  -24.3311 C   0  0  0  0  0  0  0  0  0  0  0  0
 10 11  1  0  0  0
 11 12  1  0  0  0
 12 13  1  0  0  0
 13 16  1  0  0  0
 16 17  2  0  0  0
 17 18  1  0  0  0
 18 19  2  0  0  0
 19 20  1  0  0  0
 20 21  2  0  0  0
 13 14  2  0  0  0
 14 15  1  0  0  0
 15  9  1  0  0  0
  9  8  1  0  0  0
  8  7  1  0  0  0
  7  1  1  0  0  0
  1  2  2  0  0  0
  2  3  1  0  0  0
  3  4  2  0  0  0
  4  5  1  0  0  0
  5 22  1  0  0  0
 22 23  1  0  0  0
 23 24  1  0  0  0
 24 25  1  0  0  0
 25 26  2  0  0  0
 25 27  1  0  0  0
 23 29  1  0  0  0
 29 30  1  0  0  0
 30 31  2  0  0  0
 31 32  1  0  0  0
 32 33  2  0  0  0
 33 34  1  0  0  0
 34 35  2  0  0  0
 35 36  1  0  0  0
 36 37  2  0  0  0
 37 38  1  0  0  0
 38 39  2  0  0  0
  5  6  2  0  0  0
 15 11  2  0  0  0
  6  1  1  0  0  0
 21 16  1  0  0  0
 39 30  1  0  0  0
 38 33  1  0  0  0
 27 28  1  0  0  0
M  END
> <minimizedAffinity>
-9.46893

> <CNNscore>
0.2489824742

> <CNNaffinity>
6.8288564682

> <CNN_VS>
1.7002655268

> <CNNaffinity_variance>
0.5025592446

$$$$
[H]OC(=O)C([H])([H])N(C([H])([H])c1c([H])c([H])c([H])c(OC([H])([H])C([H])([H])c2nc(-c3c([H])c([H])c([H])c([H])c3[H])oc2C([H])([H])[H])c1[H])C([H])([H])c1c([H])c([H])c2c([H])c([H])c([H])c([H])c2c1[H]


 39 43  0  0  0  0  0  0  0  0999 V2000
   -4.5176   21.6952  -22.4236 C   0  0  0  0  0  0  0  0  0  0  0  0
   -3.9669   21.6146  -21.1759 C   0  0  0  0  0  0  0  0  0  0  0  0
   -4.7812   21.6314  -20.0686 C   0  0  0  0  0  0  0  0  0  0  0  0
   -6.1518   21.7263  -20.1539 C   0  0  0  0  0  0  0  0  0  0  0  0
   -6.7384   21.8088  -21.3952 C   0  0  0  0  0  0  0  0  0  0  0  0
   -5.9166   21.7915  -22.4911 C   0  0  0  0  0  0  0  0  0  0  0  0
   -3.7889   21.6877  -23.5669 O   0  0  0  0  0  0  0  0  0  0  0  0
   -2.7859   22.4661  -24.0593 C   0  0  0  0  0  0  0  0  0  0  0  0
   -1.8278   21.8565  -25.0282 C   0  0  0  0  0  0  0  0  0  0  0  0
    0.4197   22.2361  -27.1853 C   0  0  0  0  0  0  0  0  0  0  0  0
   -0.9922   22.6229  -27.3591 C   0  0  0  0  0  0  0  0  0  0  0  0
   -1.5398   23.1773  -28.4172 O   0  0  0  0  0  0  0  0  0  0  0  0
   -2.8175   23.3791  -28.2126 C   0  0  0  0  0  0  0  0  0  0  0  0
   -3.0851   22.9319  -26.9718 N   0  0  0  0  0  0  0  0  0  0  0  0
   -1.9801   22.4513  -26.3991 C   0  0  0  0  0  0  0  0  0  0  0  0
   -3.7789   23.9696  -29.1337 C   0  0  0  0  0  0  0  0  0  0  0  0
   -4.8962   23.2664  -29.5331 C   0  0  0  0  0  0  0  0  0  0  0  0
   -5.8285   23.8084  -30.4137 C   0  0  0  0  0  0  0  0  0  0  0  0
   -5.6412   25.0794  -30.9064 C   0  0  0  0  0  0  0  0  0  0  0  0
   -4.5430   25.7955  -30.5259 C   0  0  0  0  0  0  0  0  0  0  0  0
   -3.6155   25.2381  -29.6408 C   0  0  0  0  0  0  0  0  0  0  0  0
   -8.1983   21.9154  -21.4944 C   0  0  0  0  0  0  0  0  0  0  0  0
   -8.8087   22.9421  -20.7201 N   0  0  0  0  0  0  0  0  0  0  0  0
   -8.2431   23.0712  -19.4249 C   0  0  0  0  0  0  0  0  0  0  0  0
   -9.0173   22.4756  -18.3278 C   0  0  0  0  0  0  0  0  0  0  0  0
   -8.7186   22.4798  -17.1217 O   0  0  0  0  0  0  0  0  0  0  0  0
  -10.2242   21.8293  -18.6595 O   0  0  0  0  0  0  0  0  0  0  0  0
  -10.2798   20.8225  -18.5991 H   0  0  0  0  0  0  0  0  0  0  0  0
   -9.0187   24.1616  -21.4418 C   0  0  0  0  0  0  0  0  0  0  0  0
   -7.8983   24.6248  -22.2549 C   0  0  0  0  0  0  0  0  0  0  0  0
   -6.6917   25.0828  -21.7783 C   0  0  0  0  0  0  0  0  0  0  0  0
   -5.6893   25.5079  -22.6366 C   0  0  0  0  0  0  0  0  0  0  0  0
   -5.8483   25.4936  -24.0047 C   0  0  0  0  0  0  0  0  0  0  0  0
   -4.8293   25.9247  -24.8274 C   0  0  0  0  0  0  0  0  0  0  0  0
   -4.9801   25.9152  -26.1996 C   0  0  0  0  0  0  0  0  0  0  0  0
   -6.1776   25.4623  -26.7087 C   0  0  0  0  0  0  0  0  0  0  0  0
   -7.2078   25.0261  -25.8738 C   0  0  0  0  0  0  0  0  0  0  0  0
   -7.0530   25.0370  -24.4998 C   0  0  0  0  0  0  0  0  0  0  0  0
   -8.0476   24.6149  -23.6415 C   0  0  0  0  0  0  0  0  0  0  0  0
 10 11  1  0  0  0
 11 12  1  0  0  0
 12 13  1  0  0  0
 13 16  1  0  0  0
 16 17  2  0  0  0
 17 18  1  0  0  0
 18 19  2  0  0  0
 19 20  1  0  0  0
 20 21  2  0  0  0
 13 14  2  0  0  0
 14 15  1  0  0  0
 15  9  1  0  0  0
  9  8  1  0  0  0
  8  7  1  0  0  0
  7  1  1  0  0  0
  1  2  2  0  0  0
  2  3  1  0  0  0
  3  4  2  0  0  0
  4  5  1  0  0  0
  5 22  1  0  0  0
 22 23  1  0  0  0
 23 24  1  0  0  0
 24 25  1  0  0  0
 25 26  2  0  0  0
 25 27  1  0  0  0
 23 29  1  0  0  0
 29 30  1  0  0  0
 30 31  2  0  0  0
 31 32  1  0  0  0
 32 33  2  0  0  0
 33 34  1  0  0  0
 34 35  2  0  0  0
 35 36  1  0  0  0
 36 37  2  0  0  0
 37 38  1  0  0  0
 38 39  2  0  0  0
  5  6  2  0  0  0
 15 11  2  0  0  0
  6  1  1  0  0  0
 21 16  1  0  0  0
 39 30  1  0  0  0
 38 33  1  0  0  0
 27 28  1  0  0  0
M  END
> <minimizedAffinity>
-9.00378

> <CNNscore>
0.2357949466

> <CNNaffinity>
6.6172461510

> <CNN_VS>
1.5603132248

> <CNNaffinity_variance>
0.4222324491

$$$$
[H]OC(=O)C([H])([H])N(C([H])([H])c1c([H])c([H])c([H])c(OC([H])([H])C([H])([H])c2nc(-c3c([H])c([H])c([H])c([H])c3[H])oc2C([H])([H])[H])c1[H])C([H])([H])c1c([H])c([H])c2c([H])c([H])c([H])c([H])c2c1[H]


 39 43  0  0  0  0  0  0  0  0999 V2000
   -2.7640   23.0674  -21.3299 C   0  0  0  0  0  0  0  0  0  0  0  0
   -2.1438   23.7750  -22.3205 C   0  0  0  0  0  0  0  0  0  0  0  0
   -2.8394   24.7428  -23.0053 C   0  0  0  0  0  0  0  0  0  0  0  0
   -4.1560   25.0428  -22.7382 C   0  0  0  0  0  0  0  0  0  0  0  0
   -4.8099   24.3493  -21.7467 C   0  0  0  0  0  0  0  0  0  0  0  0
   -4.1065   23.3870  -21.0716 C   0  0  0  0  0  0  0  0  0  0  0  0
   -2.1539   22.0958  -20.6075 O   0  0  0  0  0  0  0  0  0  0  0  0
   -1.5336   20.9252  -20.9229 C   0  0  0  0  0  0  0  0  0  0  0  0
   -0.0562   20.9423  -21.1358 C   0  0  0  0  0  0  0  0  0  0  0  0
    2.7786   20.7856  -22.4729 C   0  0  0  0  0  0  0  0  0  0  0  0
    1.5395   21.1860  -23.1639 C   0  0  0  0  0  0  0  0  0  0  0  0
    1.4099   21.5363  -24.4238 O   0  0  0  0  0  0  0  0  0  0  0  0
    0.1602   21.8269  -24.6867 C   0  0  0  0  0  0  0  0  0  0  0  0
   -0.5259   21.6516  -23.5423 N   0  0  0  0  0  0  0  0  0  0  0  0
    0.2892   21.2527  -22.5643 C   0  0  0  0  0  0  0  0  0  0  0  0
   -0.3992   22.2569  -25.9609 C   0  0  0  0  0  0  0  0  0  0  0  0
   -1.7634   22.3699  -26.1297 C   0  0  0  0  0  0  0  0  0  0  0  0
   -2.3221   22.7772  -27.3382 C   0  0  0  0  0  0  0  0  0  0  0  0
   -1.5014   23.0780  -28.4009 C   0  0  0  0  0  0  0  0  0  0  0  0
   -0.1477   22.9739  -28.2584 C   0  0  0  0  0  0  0  0  0  0  0  0
    0.3989   22.5637  -27.0388 C   0  0  0  0  0  0  0  0  0  0  0  0
   -6.2148   24.6596  -21.4594 C   0  0  0  0  0  0  0  0  0  0  0  0
   -7.1717   24.1658  -22.3904 N   0  0  0  0  0  0  0  0  0  0  0  0
   -8.1269   23.2994  -21.7980 C   0  0  0  0  0  0  0  0  0  0  0  0
   -7.7694   21.8748  -21.7755 C   0  0  0  0  0  0  0  0  0  0  0  0
   -6.9517   21.3035  -22.5165 O   0  0  0  0  0  0  0  0  0  0  0  0
   -8.4101   21.0584  -20.8230 O   0  0  0  0  0  0  0  0  0  0  0  0
   -9.0962   20.3837  -21.1301 H   0  0  0  0  0  0  0  0  0  0  0  0
   -7.6902   25.1691  -23.2717 C   0  0  0  0  0  0  0  0  0  0  0  0
   -6.9584   25.3643  -24.5197 C   0  0  0  0  0  0  0  0  0  0  0  0
   -6.2896   26.5077  -24.8914 C   0  0  0  0  0  0  0  0  0  0  0  0
   -5.6273   26.5957  -26.1063 C   0  0  0  0  0  0  0  0  0  0  0  0
   -5.6041   25.5478  -26.9998 C   0  0  0  0  0  0  0  0  0  0  0  0
   -4.9354   25.6719  -28.1992 C   0  0  0  0  0  0  0  0  0  0  0  0
   -4.9078   24.6274  -29.1015 C   0  0  0  0  0  0  0  0  0  0  0  0
   -5.5687   23.4680  -28.7590 C   0  0  0  0  0  0  0  0  0  0  0  0
   -6.2449   23.3446  -27.5440 C   0  0  0  0  0  0  0  0  0  0  0  0
   -6.2702   24.3929  -26.6425 C   0  0  0  0  0  0  0  0  0  0  0  0
   -6.9279   24.3103  -25.4324 C   0  0  0  0  0  0  0  0  0  0  0  0
 10 11  1  0  0  0
 11 12  1  0  0  0
 12 13  1  0  0  0
 13 16  1  0  0  0
 16 17  2  0  0  0
 17 18  1  0  0  0
 18 19  2  0  0  0
 19 20  1  0  0  0
 20 21  2  0  0  0
 13 14  2  0  0  0
 14 15  1  0  0  0
 15  9  1  0  0  0
  9  8  1  0  0  0
  8  7  1  0  0  0
  7  1  1  0  0  0
  1  2  2  0  0  0
  2  3  1  0  0  0
  3  4  2  0  0  0
  4  5  1  0  0  0
  5 22  1  0  0  0
 22 23  1  0  0  0
 23 24  1  0  0  0
 24 25  1  0  0  0
 25 26  2  0  0  0
 25 27  1  0  0  0
 23 29  1  0  0  0
 29 30  1  0  0  0
 30 31  2  0  0  0
 31 32  1  0  0  0
 32 33  2  0  0  0
 33 34  1  0  0  0
 34 35  2  0  0  0
 35 36  1  0  0  0
 36 37  2  0  0  0
 37 38  1  0  0  0
 38 39  2  0  0  0
  5  6  2  0  0  0
 15 11  2  0  0  0
  6  1  1  0  0  0
 21 16  1  0  0  0
 39 30  1  0  0  0
 38 33  1  0  0  0
 27 28  1  0  0  0
M  END
> <minimizedAffinity>
-9.24854

> <CNNscore>
0.2186192423

> <CNNaffinity>
6.6832566261

> <CNN_VS>
1.4610885382

> <CNNaffinity_variance>
0.5668183565

$$$$
[H]OC(=O)C([H])([H])N(C([H])([H])c1c([H])c([H])c([H])c(OC([H])([H])C([H])([H])c2nc(-c3c([H])c([H])c([H])c([H])c3[H])oc2C([H])([H])[H])c1[H])C([H])([H])c1c([H])c([H])c2c([H])c([H])c([H])c([H])c2c1[H]


 39 43  0  0  0  0  0  0  0  0999 V2000
   -5.2469   21.9825  -22.5813 C   0  0  0  0  0  0  0  0  0  0  0  0
   -6.5972   22.0303  -22.7835 C   0  0  0  0  0  0  0  0  0  0  0  0
   -7.4526   21.8524  -21.7223 C   0  0  0  0  0  0  0  0  0  0  0  0
   -7.0093   21.6245  -20.4391 C   0  0  0  0  0  0  0  0  0  0  0  0
   -5.6558   21.5707  -20.2010 C   0  0  0  0  0  0  0  0  0  0  0  0
   -4.8134   21.7491  -21.2664 C   0  0  0  0  0  0  0  0  0  0  0  0
   -4.3342   22.1450  -23.5705 O   0  0  0  0  0  0  0  0  0  0  0  0
   -3.0908   21.6428  -23.8078 C   0  0  0  0  0  0  0  0  0  0  0  0
   -2.0297   22.5774  -24.2863 C   0  0  0  0  0  0  0  0  0  0  0  0
    0.2086   22.1717  -26.4482 C   0  0  0  0  0  0  0  0  0  0  0  0
   -1.1580   22.6493  -26.7263 C   0  0  0  0  0  0  0  0  0  0  0  0
   -1.6625   22.9782  -27.8943 O   0  0  0  0  0  0  0  0  0  0  0  0
   -2.9087   23.3574  -27.7586 C   0  0  0  0  0  0  0  0  0  0  0  0
   -3.2006   23.2627  -26.4483 N   0  0  0  0  0  0  0  0  0  0  0  0
   -2.1422   22.8260  -25.7634 C   0  0  0  0  0  0  0  0  0  0  0  0
   -3.8187   23.7984  -28.8069 C   0  0  0  0  0  0  0  0  0  0  0  0
   -3.7320   25.0736  -29.3252 C   0  0  0  0  0  0  0  0  0  0  0  0
   -4.5912   25.5189  -30.3262 C   0  0  0  0  0  0  0  0  0  0  0  0
   -5.5577   24.6731  -30.8201 C   0  0  0  0  0  0  0  0  0  0  0  0
   -5.6633   23.4060  -30.3233 C   0  0  0  0  0  0  0  0  0  0  0  0
   -4.7933   22.9729  -29.3182 C   0  0  0  0  0  0  0  0  0  0  0  0
   -5.1754   21.3231  -18.8370 C   0  0  0  0  0  0  0  0  0  0  0  0
   -4.7267   22.4623  -18.1111 N   0  0  0  0  0  0  0  0  0  0  0  0
   -5.7611   23.0923  -17.3714 C   0  0  0  0  0  0  0  0  0  0  0  0
   -5.9960   24.5088  -17.6813 C   0  0  0  0  0  0  0  0  0  0  0  0
   -6.7721   24.9615  -18.5396 O   0  0  0  0  0  0  0  0  0  0  0  0
   -5.2757   25.4651  -16.9390 O   0  0  0  0  0  0  0  0  0  0  0  0
   -4.5389   25.9894  -17.3893 H   0  0  0  0  0  0  0  0  0  0  0  0
   -3.4908   22.2543  -17.4170 C   0  0  0  0  0  0  0  0  0  0  0  0
   -2.5014   21.4308  -18.1054 C   0  0  0  0  0  0  0  0  0  0  0  0
   -2.1142   20.1621  -17.7404 C   0  0  0  0  0  0  0  0  0  0  0  0
   -1.1575   19.4626  -18.4600 C   0  0  0  0  0  0  0  0  0  0  0  0
   -0.5480   19.9989  -19.5726 C   0  0  0  0  0  0  0  0  0  0  0  0
    0.4000   19.2737  -20.2631 C   0  0  0  0  0  0  0  0  0  0  0  0
    1.0171   19.8034  -21.3786 C   0  0  0  0  0  0  0  0  0  0  0  0
    0.6515   21.0729  -21.7701 C   0  0  0  0  0  0  0  0  0  0  0  0
   -0.3086   21.8051  -21.0696 C   0  0  0  0  0  0  0  0  0  0  0  0
   -0.9248   21.2711  -19.9528 C   0  0  0  0  0  0  0  0  0  0  0  0
   -1.8774   21.9631  -19.2334 C   0  0  0  0  0  0  0  0  0  0  0  0
 10 11  1  0  0  0
 11 12  1  0  0  0
 12 13  1  0  0  0
 13 16  1  0  0  0
 16 17  2  0  0  0
 17 18  1  0  0  0
 18 19  2  0  0  0
 19 20  1  0  0  0
 20 21  2  0  0  0
 13 14  2  0  0  0
 14 15  1  0  0  0
 15  9  1  0  0  0
  9  8  1  0  0  0
  8  7  1  0  0  0
  7  1  1  0  0  0
  1  2  2  0  0  0
  2  3  1  0  0  0
  3  4  2  0  0  0
  4  5  1  0  0  0
  5 22  1  0  0  0
 22 23  1  0  0  0
 23 24  1  0  0  0
 24 25  1  0  0  0
 25 26  2  0  0  0
 25 27  1  0  0  0
 23 29  1  0  0  0
 29 30  1  0  0  0
 30 31  2  0  0  0
 31 32  1  0  0  0
 32 33  2  0  0  0
 33 34  1  0  0  0
 34 35  2  0  0  0
 35 36  1  0  0  0
 36 37  2  0  0  0
 37 38  1  0  0  0
 38 39  2  0  0  0
  5  6  2  0  0  0
 15 11  2  0  0  0
  6  1  1  0  0  0
 21 16  1  0  0  0
 39 30  1  0  0  0
 38 33  1  0  0  0
 27 28  1  0  0  0
M  END
> <minimizedAffinity>
-8.27586

> <CNNscore>
0.2131868303

> <CNNaffinity>
6.3258600235

> <CNN_VS>
1.3485900164

> <CNNaffinity_variance>
0.4164598882

$$$$
[H]OC(=O)C([H])([H])N(C([H])([H])c1c([H])c([H])c([H])c(OC([H])([H])C([H])([H])c2nc(-c3c([H])c([H])c([H])c([H])c3[H])oc2C([H])([H])[H])c1[H])C([H])([H])c1c([H])c([H])c2c([H])c([H])c([H])c([H])c2c1[H]


 39 43  0  0  0  0  0  0  0  0999 V2000
   -3.1693   21.6686  -21.8186 C   0  0  0  0  0  0  0  0  0  0  0  0
   -2.0144   21.7964  -21.1000 C   0  0  0  0  0  0  0  0  0  0  0  0
   -2.0668   22.2273  -19.7958 C   0  0  0  0  0  0  0  0  0  0  0  0
   -3.2480   22.5425  -19.1629 C   0  0  0  0  0  0  0  0  0  0  0  0
   -4.4288   22.4244  -19.8579 C   0  0  0  0  0  0  0  0  0  0  0  0
   -4.3639   21.9945  -21.1569 C   0  0  0  0  0  0  0  0  0  0  0  0
   -3.2078   21.2531  -23.1086 O   0  0  0  0  0  0  0  0  0  0  0  0
   -3.1306   21.8845  -24.3127 C   0  0  0  0  0  0  0  0  0  0  0  0
   -1.8828   21.7254  -25.1164 C   0  0  0  0  0  0  0  0  0  0  0  0
    0.4103   22.2362  -27.1971 C   0  0  0  0  0  0  0  0  0  0  0  0
   -1.0044   22.6018  -27.3922 C   0  0  0  0  0  0  0  0  0  0  0  0
   -1.5363   23.1878  -28.4412 O   0  0  0  0  0  0  0  0  0  0  0  0
   -2.8227   23.3560  -28.2621 C   0  0  0  0  0  0  0  0  0  0  0  0
   -3.1124   22.8538  -27.0477 N   0  0  0  0  0  0  0  0  0  0  0  0
   -2.0126   22.3722  -26.4659 C   0  0  0  0  0  0  0  0  0  0  0  0
   -3.7725   23.9643  -29.1838 C   0  0  0  0  0  0  0  0  0  0  0  0
   -3.5361   25.2144  -29.7165 C   0  0  0  0  0  0  0  0  0  0  0  0
   -4.4293   25.8174  -30.5980 C   0  0  0  0  0  0  0  0  0  0  0  0
   -5.5833   25.1584  -30.9551 C   0  0  0  0  0  0  0  0  0  0  0  0
   -5.8396   23.9199  -30.4412 C   0  0  0  0  0  0  0  0  0  0  0  0
   -4.9332   23.3271  -29.5572 C   0  0  0  0  0  0  0  0  0  0  0  0
   -5.6916   22.7634  -19.1920 C   0  0  0  0  0  0  0  0  0  0  0  0
   -6.7522   23.1965  -20.0367 N   0  0  0  0  0  0  0  0  0  0  0  0
   -8.0327   22.8090  -19.5631 C   0  0  0  0  0  0  0  0  0  0  0  0
   -8.5384   21.5253  -20.0672 C   0  0  0  0  0  0  0  0  0  0  0  0
   -8.5221   21.1331  -21.2461 O   0  0  0  0  0  0  0  0  0  0  0  0
   -9.1032   20.6362  -19.1318 O   0  0  0  0  0  0  0  0  0  0  0  0
  -10.1011   20.4792  -19.1375 H   0  0  0  0  0  0  0  0  0  0  0  0
   -6.6248   24.5552  -20.4725 C   0  0  0  0  0  0  0  0  0  0  0  0
   -6.7339   24.7784  -21.9110 C   0  0  0  0  0  0  0  0  0  0  0  0
   -7.8824   24.6636  -22.6596 C   0  0  0  0  0  0  0  0  0  0  0  0
   -7.8803   24.8917  -24.0272 C   0  0  0  0  0  0  0  0  0  0  0  0
   -6.7337   25.2436  -24.7043 C   0  0  0  0  0  0  0  0  0  0  0  0
   -6.7696   25.4620  -26.0653 C   0  0  0  0  0  0  0  0  0  0  0  0
   -5.6253   25.8139  -26.7526 C   0  0  0  0  0  0  0  0  0  0  0  0
   -4.4578   25.9367  -26.0313 C   0  0  0  0  0  0  0  0  0  0  0  0
   -4.4239   25.7154  -24.6534 C   0  0  0  0  0  0  0  0  0  0  0  0
   -5.5723   25.3632  -23.9683 C   0  0  0  0  0  0  0  0  0  0  0  0
   -5.5795   25.1352  -22.6075 C   0  0  0  0  0  0  0  0  0  0  0  0
 10 11  1  0  0  0
 11 12  1  0  0  0
 12 13  1  0  0  0
 13 16  1  0  0  0
 16 17  2  0  0  0
 17 18  1  0  0  0
 18 19  2  0  0  0
 19 20  1  0  0  0
 20 21  2  0  0  0
 13 14  2  0  0  0
 14 15  1  0  0  0
 15  9  1  0  0  0
  9  8  1  0  0  0
  8  7  1  0  0  0
  7  1  1  0  0  0
  1  2  2  0  0  0
  2  3  1  0  0  0
  3  4  2  0  0  0
  4  5  1  0  0  0
  5 22  1  0  0  0
 22 23  1  0  0  0
 23 24  1  0  0  0
 24 25  1  0  0  0
 25 26  2  0  0  0
 25 27  1  0  0  0
 23 29  1  0  0  0
 29 30  1  0  0  0
 30 31  2  0  0  0
 31 32  1  0  0  0
 32 33  2  0  0  0
 33 34  1  0  0  0
 34 35  2  0  0  0
 35 36  1  0  0  0
 36 37  2  0  0  0
 37 38  1  0  0  0
 38 39  2  0  0  0
  5  6  2  0  0  0
 15 11  2  0  0  0
  6  1  1  0  0  0
 21 16  1  0  0  0
 39 30  1  0  0  0
 38 33  1  0  0  0
 27 28  1  0  0  0
M  END
> <minimizedAffinity>
-9.43782

> <CNNscore>
0.2034052312

> <CNNaffinity>
6.4373602867

> <CNN_VS>
1.3093928099

> <CNNaffinity_variance>
0.9358494878

$$$$
[H]OC(=O)C([H])([H])N(C([H])([H])c1c([H])c([H])c([H])c(OC([H])([H])C([H])([H])c2nc(-c3c([H])c([H])c([H])c([H])c3[H])oc2C([H])([H])[H])c1[H])C([H])([H])c1c([H])c([H])c2c([H])c([H])c([H])c([H])c2c1[H]


 39 43  0  0  0  0  0  0  0  0999 V2000
   -7.0067   23.7530  -21.5672 C   0  0  0  0  0  0  0  0  0  0  0  0
   -7.1742   24.3125  -20.3321 C   0  0  0  0  0  0  0  0  0  0  0  0
   -6.2527   24.0680  -19.3419 C   0  0  0  0  0  0  0  0  0  0  0  0
   -5.1461   23.2722  -19.5349 C   0  0  0  0  0  0  0  0  0  0  0  0
   -4.9476   22.6938  -20.7668 C   0  0  0  0  0  0  0  0  0  0  0  0
   -5.8728   22.9445  -21.7454 C   0  0  0  0  0  0  0  0  0  0  0  0
   -7.8671   23.9398  -22.5981 O   0  0  0  0  0  0  0  0  0  0  0  0
   -8.1611   24.9916  -23.4116 C   0  0  0  0  0  0  0  0  0  0  0  0
   -7.0987   26.0095  -23.6637 C   0  0  0  0  0  0  0  0  0  0  0  0
   -4.0061   25.4782  -23.6202 C   0  0  0  0  0  0  0  0  0  0  0  0
   -4.8628   25.3839  -24.8161 C   0  0  0  0  0  0  0  0  0  0  0  0
   -4.4915   25.0694  -26.0368 O   0  0  0  0  0  0  0  0  0  0  0  0
   -5.5240   25.0852  -26.8424 C   0  0  0  0  0  0  0  0  0  0  0  0
   -6.5911   25.4242  -26.0957 N   0  0  0  0  0  0  0  0  0  0  0  0
   -6.2306   25.6209  -24.8263 C   0  0  0  0  0  0  0  0  0  0  0  0
   -5.5374   24.7952  -28.2697 C   0  0  0  0  0  0  0  0  0  0  0  0
   -5.4956   25.8156  -29.1968 C   0  0  0  0  0  0  0  0  0  0  0  0
   -5.5090   25.5640  -30.5661 C   0  0  0  0  0  0  0  0  0  0  0  0
   -5.5655   24.2661  -31.0195 C   0  0  0  0  0  0  0  0  0  0  0  0
   -5.6076   23.2388  -30.1214 C   0  0  0  0  0  0  0  0  0  0  0  0
   -5.5934   23.5070  -28.7494 C   0  0  0  0  0  0  0  0  0  0  0  0
   -3.7733   21.8401  -20.9790 C   0  0  0  0  0  0  0  0  0  0  0  0
   -2.7918   22.3333  -21.8843 N   0  0  0  0  0  0  0  0  0  0  0  0
   -2.0005   23.3741  -21.3325 C   0  0  0  0  0  0  0  0  0  0  0  0
   -1.1507   22.9960  -20.1957 C   0  0  0  0  0  0  0  0  0  0  0  0
   -0.1450   22.2671  -20.2316 O   0  0  0  0  0  0  0  0  0  0  0  0
   -1.4973   23.5024  -18.9277 O   0  0  0  0  0  0  0  0  0  0  0  0
   -1.8744   22.8764  -18.2303 H   0  0  0  0  0  0  0  0  0  0  0  0
   -2.0823   21.3035  -22.5833 C   0  0  0  0  0  0  0  0  0  0  0  0
   -1.4279   21.7069  -23.8242 C   0  0  0  0  0  0  0  0  0  0  0  0
   -0.0726   21.8524  -24.0103 C   0  0  0  0  0  0  0  0  0  0  0  0
    0.4516   22.2479  -25.2315 C   0  0  0  0  0  0  0  0  0  0  0  0
   -0.3535   22.5141  -26.3168 C   0  0  0  0  0  0  0  0  0  0  0  0
    0.2035   22.9059  -27.5158 C   0  0  0  0  0  0  0  0  0  0  0  0
   -0.5955   23.1759  -28.6087 C   0  0  0  0  0  0  0  0  0  0  0  0
   -1.9579   23.0399  -28.4547 C   0  0  0  0  0  0  0  0  0  0  0  0
   -2.5195   22.6429  -27.2399 C   0  0  0  0  0  0  0  0  0  0  0  0
   -1.7160   22.3730  -26.1475 C   0  0  0  0  0  0  0  0  0  0  0  0
   -2.2328   21.9792  -24.9302 C   0  0  0  0  0  0  0  0  0  0  0  0
 10 11  1  0  0  0
 11 12  1  0  0  0
 12 13  1  0  0  0
 13 16  1  0  0  0
 16 17  2  0  0  0
 17 18  1  0  0  0
 18 19  2  0  0  0
 19 20  1  0  0  0
 20 21  2  0  0  0
 13 14  2  0  0  0
 14 15  1  0  0  0
 15  9  1  0  0  0
  9  8  1  0  0  0
  8  7  1  0  0  0
  7  1  1  0  0  0
  1  2  2  0  0  0
  2  3  1  0  0  0
  3  4  2  0  0  0
  4  5  1  0  0  0
  5 22  1  0  0  0
 22 23  1  0  0  0
 23 24  1  0  0  0
 24 25  1  0  0  0
 25 26  2  0  0  0
 25 27  1  0  0  0
 23 29  1  0  0  0
 29 30  1  0  0  0
 30 31  2  0  0  0
 31 32  1  0  0  0
 32 33  2  0  0  0
 33 34  1  0  0  0
 34 35  2  0  0  0
 35 36  1  0  0  0
 36 37  2  0  0  0
 37 38  1  0  0  0
 38 39  2  0  0  0
  5  6  2  0  0  0
 15 11  2  0  0  0
  6  1  1  0  0  0
 21 16  1  0  0  0
 39 30  1  0  0  0
 38 33  1  0  0  0
 27 28  1  0  0  0
M  END
> <minimizedAffinity>
-9.79271

> <CNNscore>
0.1888570487

> <CNNaffinity>
6.4696092606

> <CNN_VS>
1.2218313217

> <CNNaffinity_variance>
1.2595496178

$$$$
[H]c1nc([H])c(N([H])C2([H])C([H])([H])N(C(=O)c3c(C([H])([H])[H])noc3C([H])([H])[H])C2([H])[H])c([H])c1N1C(=O)c2c([H])c([H])c(Cl)c([H])c2C([H])([H])C1([H])[H]


 33 37  0  0  0  0  0  0  0  0999 V2000
   -0.8098   21.0625  -22.0002 C   0  0  0  0  0  0  0  0  0  0  0  0
    0.5872   20.9409  -21.9662 C   0  0  0  0  0  0  0  0  0  0  0  0
    1.3219   21.3330  -23.0180 N   0  0  0  0  0  0  0  0  0  0  0  0
    0.7488   21.8518  -24.1318 C   0  0  0  0  0  0  0  0  0  0  0  0
   -0.6201   22.0020  -24.2375 C   0  0  0  0  0  0  0  0  0  0  0  0
   -1.3764   21.5910  -23.1377 C   0  0  0  0  0  0  0  0  0  0  0  0
   -1.2276   22.5553  -25.3932 N   0  0  0  0  0  0  0  0  0  0  0  0
   -0.4630   22.5518  -26.6209 C   0  0  0  0  0  0  0  0  0  0  0  0
   -1.3015   22.3509  -27.8373 C   0  0  0  0  0  0  0  0  0  0  0  0
   -2.6801   22.8608  -27.7026 C   0  0  0  0  0  0  0  0  0  0  0  0
   -3.4021   22.9859  -28.8877 C   0  0  0  0  0  0  0  0  0  0  0  0
   -4.7158   23.4663  -28.8747 C   0  0  0  0  0  0  0  0  0  0  0  0
   -5.6380   23.6269  -30.3585 Cl  0  0  0  0  0  0  0  0  0  0  0  0
   -5.3372   23.8315  -27.6896 C   0  0  0  0  0  0  0  0  0  0  0  0
   -4.5861   23.6928  -26.5286 C   0  0  0  0  0  0  0  0  0  0  0  0
   -3.2938   23.2187  -26.5476 C   0  0  0  0  0  0  0  0  0  0  0  0
   -2.5534   23.0723  -25.2932 C   0  0  0  0  0  0  0  0  0  0  0  0
   -3.0831   23.3922  -24.2060 O   0  0  0  0  0  0  0  0  0  0  0  0
   -1.5483   20.6469  -20.8710 N   0  0  0  0  0  0  0  0  0  0  0  0
   -1.7901   19.6304  -20.7819 H   0  0  0  0  0  0  0  0  0  0  0  0
   -5.1795   22.1630  -20.9554 C   0  0  0  0  0  0  0  0  0  0  0  0
   -5.8899   21.2175  -20.3324 O   0  0  0  0  0  0  0  0  0  0  0  0
   -3.8853   22.2318  -20.4256 N   0  0  0  0  0  0  0  0  0  0  0  0
   -3.3098   21.4141  -19.3001 C   0  0  0  0  0  0  0  0  0  0  0  0
   -1.9481   21.6226  -19.8742 C   0  0  0  0  0  0  0  0  0  0  0  0
   -2.6199   22.8513  -20.4942 C   0  0  0  0  0  0  0  0  0  0  0  0
   -6.2343   25.0532  -20.6094 C   0  0  0  0  0  0  0  0  0  0  0  0
   -6.3369   24.1881  -21.8189 C   0  0  0  0  0  0  0  0  0  0  0  0
   -6.9148   24.5612  -22.9694 N   0  0  0  0  0  0  0  0  0  0  0  0
   -6.8396   23.6109  -23.8029 O   0  0  0  0  0  0  0  0  0  0  0  0
   -6.2091   22.5581  -23.2535 C   0  0  0  0  0  0  0  0  0  0  0  0
   -5.9806   21.3174  -23.9969 C   0  0  0  0  0  0  0  0  0  0  0  0
   -5.8639   22.8697  -21.9820 C   0  0  0  0  0  0  0  0  0  0  0  0
 27 28  1  0  0  0
 28 29  2  0  0  0
 29 30  1  0  0  0
 30 31  1  0  0  0
 31 32  1  0  0  0
 31 33  2  0  0  0
 33 21  1  0  0  0
 21 22  2  0  0  0
 21 23  1  0  0  0
 23 24  1  0  0  0
 24 25  1  0  0  0
 25 19  1  0  0  0
 19  1  1  0  0  0
  1  2  2  0  0  0
  2  3  1  0  0  0
  3  4  2  0  0  0
  4  5  1  0  0  0
  5  7  1  0  0  0
  7  8  1  0  0  0
  8  9  1  0  0  0
  9 10  1  0  0  0
 10 11  2  0  0  0
 11 12  1  0  0  0
 12 13  1  0  0  0
 12 14  2  0  0  0
 14 15  1  0  0  0
 15 16  2  0  0  0
 16 17  1  0  0  0
 17 18  2  0  0  0
  5  6  2  0  0  0
 25 26  1  0  0  0
 33 28  1  0  0  0
 26 23  1  0  0  0
  6  1  1  0  0  0
 17  7  1  0  0  0
 16 10  1  0  0  0
 19 20  1  0  0  0
M  END
> <minimizedAffinity>
-9.41008

> <CNNscore>
0.3128195405

> <CNNaffinity>
6.7583494186

> <CNN_VS>
2.1141438484

> <CNNaffinity_variance>
0.1580410600

$$$$
[H]c1nc([H])c(N([H])C2([H])C([H])([H])N(C(=O)c3c(C([H])([H])[H])noc3C([H])([H])[H])C2([H])[H])c([H])c1N1C(=O)c2c([H])c([H])c(Cl)c([H])c2C([H])([H])C1([H])[H]


 33 37  0  0  0  0  0  0  0  0999 V2000
   -3.9952   21.7397  -20.0856 C   0  0  0  0  0  0  0  0  0  0  0  0
   -4.8398   22.0046  -18.9974 C   0  0  0  0  0  0  0  0  0  0  0  0
   -5.8119   22.9224  -19.1087 N   0  0  0  0  0  0  0  0  0  0  0  0
   -6.0083   23.6142  -20.2580 C   0  0  0  0  0  0  0  0  0  0  0  0
   -5.2166   23.4072  -21.3707 C   0  0  0  0  0  0  0  0  0  0  0  0
   -4.2074   22.4501  -21.2452 C   0  0  0  0  0  0  0  0  0  0  0  0
   -5.4225   24.1168  -22.5811 N   0  0  0  0  0  0  0  0  0  0  0  0
   -4.8797   25.4541  -22.6763 C   0  0  0  0  0  0  0  0  0  0  0  0
   -4.4011   25.8002  -24.0453 C   0  0  0  0  0  0  0  0  0  0  0  0
   -5.1290   25.1055  -25.1252 C   0  0  0  0  0  0  0  0  0  0  0  0
   -4.9455   25.6145  -26.4092 C   0  0  0  0  0  0  0  0  0  0  0  0
   -5.5943   25.0355  -27.5050 C   0  0  0  0  0  0  0  0  0  0  0  0
   -5.3710   25.6638  -29.1276 Cl  0  0  0  0  0  0  0  0  0  0  0  0
   -6.4356   23.9437  -27.3491 C   0  0  0  0  0  0  0  0  0  0  0  0
   -6.5938   23.4641  -26.0545 C   0  0  0  0  0  0  0  0  0  0  0  0
   -5.9521   24.0377  -24.9800 C   0  0  0  0  0  0  0  0  0  0  0  0
   -6.1370   23.4803  -23.6390 C   0  0  0  0  0  0  0  0  0  0  0  0
   -6.8888   22.4962  -23.4621 O   0  0  0  0  0  0  0  0  0  0  0  0
   -2.9891   20.7611  -19.9329 N   0  0  0  0  0  0  0  0  0  0  0  0
   -3.2560   19.7528  -20.0407 H   0  0  0  0  0  0  0  0  0  0  0  0
   -0.8765   22.6723  -22.6488 C   0  0  0  0  0  0  0  0  0  0  0  0
   -1.3000   23.9308  -22.4952 O   0  0  0  0  0  0  0  0  0  0  0  0
   -0.8857   21.9994  -21.4209 N   0  0  0  0  0  0  0  0  0  0  0  0
   -1.2754   22.5507  -20.0753 C   0  0  0  0  0  0  0  0  0  0  0  0
   -1.6285   21.1689  -19.6359 C   0  0  0  0  0  0  0  0  0  0  0  0
   -0.6465   20.7840  -20.7464 C   0  0  0  0  0  0  0  0  0  0  0  0
    1.8612   21.4258  -23.3812 C   0  0  0  0  0  0  0  0  0  0  0  0
    0.7269   21.7289  -24.2995 C   0  0  0  0  0  0  0  0  0  0  0  0
    0.7346   21.4856  -25.6178 N   0  0  0  0  0  0  0  0  0  0  0  0
   -0.3708   21.8494  -26.1169 O   0  0  0  0  0  0  0  0  0  0  0  0
   -1.1709   22.3522  -25.1604 C   0  0  0  0  0  0  0  0  0  0  0  0
   -2.5159   22.8491  -25.4575 C   0  0  0  0  0  0  0  0  0  0  0  0
   -0.5202   22.3011  -23.9742 C   0  0  0  0  0  0  0  0  0  0  0  0
 27 28  1  0  0  0
 28 29  2  0  0  0
 29 30  1  0  0  0
 30 31  1  0  0  0
 31 32  1  0  0  0
 31 33  2  0  0  0
 33 21  1  0  0  0
 21 22  2  0  0  0
 21 23  1  0  0  0
 23 24  1  0  0  0
 24 25  1  0  0  0
 25 19  1  0  0  0
 19  1  1  0  0  0
  1  2  2  0  0  0
  2  3  1  0  0  0
  3  4  2  0  0  0
  4  5  1  0  0  0
  5  7  1  0  0  0
  7  8  1  0  0  0
  8  9  1  0  0  0
  9 10  1  0  0  0
 10 11  2  0  0  0
 11 12  1  0  0  0
 12 13  1  0  0  0
 12 14  2  0  0  0
 14 15  1  0  0  0
 15 16  2  0  0  0
 16 17  1  0  0  0
 17 18  2  0  0  0
  5  6  2  0  0  0
 25 26  1  0  0  0
 33 28  1  0  0  0
 26 23  1  0  0  0
  6  1  1  0  0  0
 17  7  1  0  0  0
 16 10  1  0  0  0
 19 20  1  0  0  0
M  END
> <minimizedAffinity>
-8.28090

> <CNNscore>
0.2883251011

> <CNNaffinity>
6.8209753036

> <CNN_VS>
1.9666583538

> <CNNaffinity_variance>
0.2013302594

$$$$
[H]c1nc([H])c(N([H])C2([H])C([H])([H])N(C(=O)c3c(C([H])([H])[H])noc3C([H])([H])[H])C2([H])[H])c([H])c1N1C(=O)c2c([H])c([H])c(Cl)c([H])c2C([H])([H])C1([H])[H]


 33 37  0  0  0  0  0  0  0  0999 V2000
    1.0165   21.0547  -21.6237 C   0  0  0  0  0  0  0  0  0  0  0  0
    2.0973   20.7869  -22.4769 C   0  0  0  0  0  0  0  0  0  0  0  0
    3.3545   20.8748  -22.0171 N   0  0  0  0  0  0  0  0  0  0  0  0
    3.6194   21.2196  -20.7330 C   0  0  0  0  0  0  0  0  0  0  0  0
    2.6071   21.4973  -19.8354 C   0  0  0  0  0  0  0  0  0  0  0  0
    1.3019   21.4034  -20.3232 C   0  0  0  0  0  0  0  0  0  0  0  0
    2.8740   21.8465  -18.4872 N   0  0  0  0  0  0  0  0  0  0  0  0
    3.9103   22.8246  -18.2392 C   0  0  0  0  0  0  0  0  0  0  0  0
    3.6215   23.7068  -17.0724 C   0  0  0  0  0  0  0  0  0  0  0  0
    2.7988   23.0650  -16.0284 C   0  0  0  0  0  0  0  0  0  0  0  0
    2.7610   23.7155  -14.7968 C   0  0  0  0  0  0  0  0  0  0  0  0
    2.0173   23.1894  -13.7353 C   0  0  0  0  0  0  0  0  0  0  0  0
    1.9582   23.9985  -12.1798 Cl  0  0  0  0  0  0  0  0  0  0  0  0
    1.2989   22.0109  -13.8739 C   0  0  0  0  0  0  0  0  0  0  0  0
    1.3605   21.3910  -15.1161 C   0  0  0  0  0  0  0  0  0  0  0  0
    2.0937   21.9140  -16.1573 C   0  0  0  0  0  0  0  0  0  0  0  0
    2.1082   21.2318  -17.4525 C   0  0  0  0  0  0  0  0  0  0  0  0
    1.4718   20.1667  -17.6127 O   0  0  0  0  0  0  0  0  0  0  0  0
   -0.2922   20.9438  -22.1417 N   0  0  0  0  0  0  0  0  0  0  0  0
   -0.5544   20.0620  -22.6450 H   0  0  0  0  0  0  0  0  0  0  0  0
   -2.5838   22.0631  -25.1395 C   0  0  0  0  0  0  0  0  0  0  0  0
   -3.5834   21.1784  -25.0704 O   0  0  0  0  0  0  0  0  0  0  0  0
   -2.0938   22.3491  -23.8594 N   0  0  0  0  0  0  0  0  0  0  0  0
   -2.5853   21.8027  -22.5455 C   0  0  0  0  0  0  0  0  0  0  0  0
   -1.2301   22.0370  -21.9662 C   0  0  0  0  0  0  0  0  0  0  0  0
   -1.1478   23.0660  -23.0974 C   0  0  0  0  0  0  0  0  0  0  0  0
   -4.6662   23.1775  -27.1412 C   0  0  0  0  0  0  0  0  0  0  0  0
   -3.1990   23.0193  -27.3515 C   0  0  0  0  0  0  0  0  0  0  0  0
   -2.5548   23.3592  -28.4769 N   0  0  0  0  0  0  0  0  0  0  0  0
   -1.3209   23.1073  -28.3451 O   0  0  0  0  0  0  0  0  0  0  0  0
   -1.0787   22.5884  -27.1286 C   0  0  0  0  0  0  0  0  0  0  0  0
    0.2692   22.2048  -26.7041 C   0  0  0  0  0  0  0  0  0  0  0  0
   -2.2458   22.5079  -26.4470 C   0  0  0  0  0  0  0  0  0  0  0  0
 27 28  1  0  0  0
 28 29  2  0  0  0
 29 30  1  0  0  0
 30 31  1  0  0  0
 31 32  1  0  0  0
 31 33  2  0  0  0
 33 21  1  0  0  0
 21 22  2  0  0  0
 21 23  1  0  0  0
 23 24  1  0  0  0
 24 25  1  0  0  0
 25 19  1  0  0  0
 19  1  1  0  0  0
  1  2  2  0  0  0
  2  3  1  0  0  0
  3  4  2  0  0  0
  4  5  1  0  0  0
  5  7  1  0  0  0
  7  8  1  0  0  0
  8  9  1  0  0  0
  9 10  1  0  0  0
 10 11  2  0  0  0
 11 12  1  0  0  0
 12 13  1  0  0  0
 12 14  2  0  0  0
 14 15  1  0  0  0
 15 16  2  0  0  0
 16 17  1  0  0  0
 17 18  2  0  0  0
  5  6  2  0  0  0
 25 26  1  0  0  0
 33 28  1  0  0  0
 26 23  1  0  0  0
  6  1  1  0  0  0
 17  7  1  0  0  0
 16 10  1  0  0  0
 19 20  1  0  0  0
M  END
> <minimizedAffinity>
-8.25297

> <CNNscore>
0.2408398390

> <CNNaffinity>
5.9023900032

> <CNN_VS>
1.4215306044

> <CNNaffinity_variance>
0.2900878489

$$$$
[H]c1nc([H])c(N([H])C2([H])C([H])([H])N(C(=O)c3c(C([H])([H])[H])noc3C([H])([H])[H])C2([H])[H])c([H])c1N1C(=O)c2c([H])c([H])c(Cl)c([H])c2C([H])([H])C1([H])[H]


 33 37  0  0  0  0  0  0  0  0999 V2000
    0.5047   20.7003  -21.5018 C   0  0  0  0  0  0  0  0  0  0  0  0
    1.8886   20.5460  -21.6712 C   0  0  0  0  0  0  0  0  0  0  0  0
    2.4733   20.9340  -22.8146 N   0  0  0  0  0  0  0  0  0  0  0  0
    1.7585   21.4797  -23.8291 C   0  0  0  0  0  0  0  0  0  0  0  0
    0.3928   21.6630  -23.7344 C   0  0  0  0  0  0  0  0  0  0  0  0
   -0.2069   21.2559  -22.5406 C   0  0  0  0  0  0  0  0  0  0  0  0
   -0.3613   22.2445  -24.7852 N   0  0  0  0  0  0  0  0  0  0  0  0
    0.3021   22.4502  -26.0539 C   0  0  0  0  0  0  0  0  0  0  0  0
   -0.5986   22.2641  -27.2273 C   0  0  0  0  0  0  0  0  0  0  0  0
   -2.0124   22.5869  -26.9515 C   0  0  0  0  0  0  0  0  0  0  0  0
   -2.8328   22.7343  -28.0680 C   0  0  0  0  0  0  0  0  0  0  0  0
   -4.1881   23.0474  -27.9203 C   0  0  0  0  0  0  0  0  0  0  0  0
   -5.2339   23.2335  -29.3166 Cl  0  0  0  0  0  0  0  0  0  0  0  0
   -4.7546   23.2204  -26.6660 C   0  0  0  0  0  0  0  0  0  0  0  0
   -3.9056   23.0656  -25.5768 C   0  0  0  0  0  0  0  0  0  0  0  0
   -2.5726   22.7567  -25.7284 C   0  0  0  0  0  0  0  0  0  0  0  0
   -1.7261   22.5841  -24.5466 C   0  0  0  0  0  0  0  0  0  0  0  0
   -2.2040   22.7329  -23.4000 O   0  0  0  0  0  0  0  0  0  0  0  0
   -0.0732   20.2878  -20.2815 N   0  0  0  0  0  0  0  0  0  0  0  0
   -0.0529   19.2672  -20.0418 H   0  0  0  0  0  0  0  0  0  0  0  0
    2.1960   22.3439  -17.8087 C   0  0  0  0  0  0  0  0  0  0  0  0
    2.6595   23.3162  -18.6003 O   0  0  0  0  0  0  0  0  0  0  0  0
    0.8999   21.9775  -18.1910 N   0  0  0  0  0  0  0  0  0  0  0  0
    0.0707   22.5639  -19.3024 C   0  0  0  0  0  0  0  0  0  0  0  0
   -0.6717   21.2729  -19.3999 C   0  0  0  0  0  0  0  0  0  0  0  0
   -0.1985   21.1258  -17.9508 C   0  0  0  0  0  0  0  0  0  0  0  0
    4.3467   20.1612  -18.2507 C   0  0  0  0  0  0  0  0  0  0  0  0
    4.0641   20.9165  -16.9972 C   0  0  0  0  0  0  0  0  0  0  0  0
    4.7346   20.7534  -15.8479 N   0  0  0  0  0  0  0  0  0  0  0  0
    4.2627   21.5380  -14.9731 O   0  0  0  0  0  0  0  0  0  0  0  0
    3.2565   22.2632  -15.4921 C   0  0  0  0  0  0  0  0  0  0  0  0
    2.5277   23.2557  -14.6996 C   0  0  0  0  0  0  0  0  0  0  0  0
    3.0834   21.9077  -16.7870 C   0  0  0  0  0  0  0  0  0  0  0  0
 27 28  1  0  0  0
 28 29  2  0  0  0
 29 30  1  0  0  0
 30 31  1  0  0  0
 31 32  1  0  0  0
 31 33  2  0  0  0
 33 21  1  0  0  0
 21 22  2  0  0  0
 21 23  1  0  0  0
 23 24  1  0  0  0
 24 25  1  0  0  0
 25 19  1  0  0  0
 19  1  1  0  0  0
  1  2  2  0  0  0
  2  3  1  0  0  0
  3  4  2  0  0  0
  4  5  1  0  0  0
  5  7  1  0  0  0
  7  8  1  0  0  0
  8  9  1  0  0  0
  9 10  1  0  0  0
 10 11  2  0  0  0
 11 12  1  0  0  0
 12 13  1  0  0  0
 12 14  2  0  0  0
 14 15  1  0  0  0
 15 16  2  0  0  0
 16 17  1  0  0  0
 17 18  2  0  0  0
  5  6  2  0  0  0
 25 26  1  0  0  0
 33 28  1  0  0  0
 26 23  1  0  0  0
  6  1  1  0  0  0
 17  7  1  0  0  0
 16 10  1  0  0  0
 19 20  1  0  0  0
M  END
> <minimizedAffinity>
-8.32867

> <CNNscore>
0.2255997658

> <CNNaffinity>
6.0080041885

> <CNN_VS>
1.3554043770

> <CNNaffinity_variance>
0.1124393344

$$$$
[H]c1nc([H])c(N([H])C2([H])C([H])([H])N(C(=O)c3c(C([H])([H])[H])noc3C([H])([H])[H])C2([H])[H])c([H])c1N1C(=O)c2c([H])c([H])c(Cl)c([H])c2C([H])([H])C1([H])[H]


 33 37  0  0  0  0  0  0  0  0999 V2000
   -4.6732   23.0681  -25.8138 C   0  0  0  0  0  0  0  0  0  0  0  0
   -4.2680   23.0226  -27.1560 C   0  0  0  0  0  0  0  0  0  0  0  0
   -2.9877   22.7653  -27.4633 N   0  0  0  0  0  0  0  0  0  0  0  0
   -2.0568   22.5438  -26.5030 C   0  0  0  0  0  0  0  0  0  0  0  0
   -2.3816   22.5723  -25.1608 C   0  0  0  0  0  0  0  0  0  0  0  0
   -3.7165   22.8412  -24.8508 C   0  0  0  0  0  0  0  0  0  0  0  0
   -1.4175   22.3295  -24.1497 N   0  0  0  0  0  0  0  0  0  0  0  0
   -1.8868   22.2228  -22.7858 C   0  0  0  0  0  0  0  0  0  0  0  0
   -1.1165   21.2389  -21.9724 C   0  0  0  0  0  0  0  0  0  0  0  0
    0.2890   21.0846  -22.3963 C   0  0  0  0  0  0  0  0  0  0  0  0
    1.1283   20.4304  -21.4968 C   0  0  0  0  0  0  0  0  0  0  0  0
    2.4811   20.2369  -21.7959 C   0  0  0  0  0  0  0  0  0  0  0  0
    3.5494   19.4129  -20.6745 Cl  0  0  0  0  0  0  0  0  0  0  0  0
    3.0264   20.6875  -22.9891 C   0  0  0  0  0  0  0  0  0  0  0  0
    2.1588   21.3349  -23.8605 C   0  0  0  0  0  0  0  0  0  0  0  0
    0.8282   21.5218  -23.5610 C   0  0  0  0  0  0  0  0  0  0  0  0
   -0.0477   22.1922  -24.5236 C   0  0  0  0  0  0  0  0  0  0  0  0
    0.4107   22.6114  -25.6095 O   0  0  0  0  0  0  0  0  0  0  0  0
   -6.0305   23.3337  -25.5302 N   0  0  0  0  0  0  0  0  0  0  0  0
   -6.6757   22.5204  -25.3824 H   0  0  0  0  0  0  0  0  0  0  0  0
   -7.2068   24.8090  -22.0761 C   0  0  0  0  0  0  0  0  0  0  0  0
   -6.0454   25.1545  -21.5116 O   0  0  0  0  0  0  0  0  0  0  0  0
   -7.1424   24.9685  -23.4656 N   0  0  0  0  0  0  0  0  0  0  0  0
   -5.9810   25.4759  -24.2782 C   0  0  0  0  0  0  0  0  0  0  0  0
   -6.4932   24.7067  -25.4500 C   0  0  0  0  0  0  0  0  0  0  0  0
   -7.8198   24.8342  -24.6955 C   0  0  0  0  0  0  0  0  0  0  0  0
   -9.0197   26.7530  -20.4888 C   0  0  0  0  0  0  0  0  0  0  0  0
   -9.0454   25.2629  -20.4638 C   0  0  0  0  0  0  0  0  0  0  0  0
   -9.8959   24.5329  -19.7284 N   0  0  0  0  0  0  0  0  0  0  0  0
   -9.6699   23.3026  -19.9255 O   0  0  0  0  0  0  0  0  0  0  0  0
   -8.6604   23.1487  -20.8002 C   0  0  0  0  0  0  0  0  0  0  0  0
   -8.1880   21.8256  -21.2133 C   0  0  0  0  0  0  0  0  0  0  0  0
   -8.2199   24.3714  -21.1795 C   0  0  0  0  0  0  0  0  0  0  0  0
 27 28  1  0  0  0
 28 29  2  0  0  0
 29 30  1  0  0  0
 30 31  1  0  0  0
 31 32  1  0  0  0
 31 33  2  0  0  0
 33 21  1  0  0  0
 21 22  2  0  0  0
 21 23  1  0  0  0
 23 24  1  0  0  0
 24 25  1  0  0  0
 25 19  1  0  0  0
 19  1  1  0  0  0
  1  2  2  0  0  0
  2  3  1  0  0  0
  3  4  2  0  0  0
  4  5  1  0  0  0
  5  7  1  0  0  0
  7  8  1  0  0  0
  8  9  1  0  0  0
  9 10  1  0  0  0
 10 11  2  0  0  0
 11 12  1  0  0  0
 12 13  1  0  0  0
 12 14  2  0  0  0
 14 15  1  0  0  0
 15 16  2  0  0  0
 16 17  1  0  0  0
 17 18  2  0  0  0
  5  6  2  0  0  0
 25 26  1  0  0  0
 33 28  1  0  0  0
 26 23  1  0  0  0
  6  1  1  0  0  0
 17  7  1  0  0  0
 16 10  1  0  0  0
 19 20  1  0  0  0
M  END
> <minimizedAffinity>
-8.66114

> <CNNscore>
0.1691599935

> <CNNaffinity>
6.3877763748

> <CNN_VS>
1.0805561543

> <CNNaffinity_variance>
0.1737758517

$$$$
[H]c1nc([H])c(N([H])C2([H])C([H])([H])N(C(=O)c3c(C([H])([H])[H])noc3C([H])([H])[H])C2([H])[H])c([H])c1N1C(=O)c2c([H])c([H])c(Cl)c([H])c2C([H])([H])C1([H])[H]


 33 37  0  0  0  0  0  0  0  0999 V2000
   -0.4269   20.8347  -21.7533 C   0  0  0  0  0  0  0  0  0  0  0  0
    0.9723   20.7354  -21.7606 C   0  0  0  0  0  0  0  0  0  0  0  0
    1.6716   21.1702  -22.8197 N   0  0  0  0  0  0  0  0  0  0  0  0
    1.0601   21.7117  -23.9017 C   0  0  0  0  0  0  0  0  0  0  0  0
   -0.3135   21.8422  -23.9660 C   0  0  0  0  0  0  0  0  0  0  0  0
   -1.0328   21.3867  -22.8590 C   0  0  0  0  0  0  0  0  0  0  0  0
   -0.9611   22.4187  -25.0880 N   0  0  0  0  0  0  0  0  0  0  0  0
   -0.1822   22.6004  -26.2932 C   0  0  0  0  0  0  0  0  0  0  0  0
   -0.9745   22.4096  -27.5418 C   0  0  0  0  0  0  0  0  0  0  0  0
   -2.4032   22.7523  -27.4001 C   0  0  0  0  0  0  0  0  0  0  0  0
   -3.1164   22.8947  -28.5885 C   0  0  0  0  0  0  0  0  0  0  0  0
   -4.4755   23.2253  -28.5689 C   0  0  0  0  0  0  0  0  0  0  0  0
   -5.3871   23.4055  -30.0570 Cl  0  0  0  0  0  0  0  0  0  0  0  0
   -5.1518   23.4212  -27.3737 C   0  0  0  0  0  0  0  0  0  0  0  0
   -4.4077   23.2705  -26.2098 C   0  0  0  0  0  0  0  0  0  0  0  0
   -3.0704   22.9443  -26.2353 C   0  0  0  0  0  0  0  0  0  0  0  0
   -2.3375   22.7772  -24.9791 C   0  0  0  0  0  0  0  0  0  0  0  0
   -2.9161   22.9464  -23.8829 O   0  0  0  0  0  0  0  0  0  0  0  0
   -1.1275   20.3740  -20.6175 N   0  0  0  0  0  0  0  0  0  0  0  0
   -1.9368   19.7233  -20.7628 H   0  0  0  0  0  0  0  0  0  0  0  0
   -3.7817   21.8713  -18.1265 C   0  0  0  0  0  0  0  0  0  0  0  0
   -4.3306   20.7677  -17.6091 O   0  0  0  0  0  0  0  0  0  0  0  0
   -2.4295   21.6548  -18.4184 N   0  0  0  0  0  0  0  0  0  0  0  0
   -1.6303   20.4001  -18.1872 C   0  0  0  0  0  0  0  0  0  0  0  0
   -0.7154   20.8052  -19.2946 C   0  0  0  0  0  0  0  0  0  0  0  0
   -1.2398   22.2007  -18.9440 C   0  0  0  0  0  0  0  0  0  0  0  0
   -4.9550   22.7807  -20.8434 C   0  0  0  0  0  0  0  0  0  0  0  0
   -5.1889   23.3908  -19.5036 C   0  0  0  0  0  0  0  0  0  0  0  0
   -5.9768   24.4527  -19.2827 N   0  0  0  0  0  0  0  0  0  0  0  0
   -5.9720   24.7273  -18.0466 O   0  0  0  0  0  0  0  0  0  0  0  0
   -5.1837   23.8653  -17.3809 C   0  0  0  0  0  0  0  0  0  0  0  0
   -4.9950   23.9488  -15.9312 C   0  0  0  0  0  0  0  0  0  0  0  0
   -4.6541   22.9856  -18.2634 C   0  0  0  0  0  0  0  0  0  0  0  0
 27 28  1  0  0  0
 28 29  2  0  0  0
 29 30  1  0  0  0
 30 31  1  0  0  0
 31 32  1  0  0  0
 31 33  2  0  0  0
 33 21  1  0  0  0
 21 22  2  0  0  0
 21 23  1  0  0  0
 23 24  1  0  0  0
 24 25  1  0  0  0
 25 19  1  0  0  0
 19  1  1  0  0  0
  1  2  2  0  0  0
  2  3  1  0  0  0
  3  4  2  0  0  0
  4  5  1  0  0  0
  5  7  1  0  0  0
  7  8  1  0  0  0
  8  9  1  0  0  0
  9 10  1  0  0  0
 10 11  2  0  0  0
 11 12  1  0  0  0
 12 13  1  0  0  0
 12 14  2  0  0  0
 14 15  1  0  0  0
 15 16  2  0  0  0
 16 17  1  0  0  0
 17 18  2  0  0  0
  5  6  2  0  0  0
 25 26  1  0  0  0
 33 28  1  0  0  0
 26 23  1  0  0  0
  6  1  1  0  0  0
 17  7  1  0  0  0
 16 10  1  0  0  0
 19 20  1  0  0  0
M  END
> <minimizedAffinity>
-9.02085

> <CNNscore>
0.1669544280

> <CNNaffinity>
6.1209053993

> <CNN_VS>
1.0219122171

> <CNNaffinity_variance>
0.1637078375

$$$$
[H]c1nc([H])c(N([H])C2([H])C([H])([H])N(C(=O)c3c(C([H])([H])[H])noc3C([H])([H])[H])C2([H])[H])c([H])c1N1C(=O)c2c([H])c([H])c(Cl)c([H])c2C([H])([H])C1([H])[H]


 33 37  0  0  0  0  0  0  0  0999 V2000
   -3.9860   23.9065  -26.9786 C   0  0  0  0  0  0  0  0  0  0  0  0
   -3.5839   23.3194  -28.1874 C   0  0  0  0  0  0  0  0  0  0  0  0
   -2.5139   22.5108  -28.2188 N   0  0  0  0  0  0  0  0  0  0  0  0
   -1.7962   22.2376  -27.1015 C   0  0  0  0  0  0  0  0  0  0  0  0
   -2.1322   22.7789  -25.8760 C   0  0  0  0  0  0  0  0  0  0  0  0
   -3.2473   23.6194  -25.8534 C   0  0  0  0  0  0  0  0  0  0  0  0
   -1.3952   22.4890  -24.6997 N   0  0  0  0  0  0  0  0  0  0  0  0
   -2.1309   22.3580  -23.4613 C   0  0  0  0  0  0  0  0  0  0  0  0
   -1.5563   21.3368  -22.5393 C   0  0  0  0  0  0  0  0  0  0  0  0
   -0.0971   21.1622  -22.6771 C   0  0  0  0  0  0  0  0  0  0  0  0
    0.5334   20.4669  -21.6474 C   0  0  0  0  0  0  0  0  0  0  0  0
    1.9152   20.2511  -21.6747 C   0  0  0  0  0  0  0  0  0  0  0  0
    2.7224   19.3752  -20.3866 Cl  0  0  0  0  0  0  0  0  0  0  0  0
    2.6966   20.7197  -22.7205 C   0  0  0  0  0  0  0  0  0  0  0  0
    2.0329   21.4082  -23.7288 C   0  0  0  0  0  0  0  0  0  0  0  0
    0.6725   21.6169  -23.6968 C   0  0  0  0  0  0  0  0  0  0  0  0
    0.0193   22.3308  -24.7953 C   0  0  0  0  0  0  0  0  0  0  0  0
    0.6935   22.7674  -25.7544 O   0  0  0  0  0  0  0  0  0  0  0  0
   -5.1218   24.7451  -26.9839 N   0  0  0  0  0  0  0  0  0  0  0  0
   -4.9769   25.7775  -27.0970 H   0  0  0  0  0  0  0  0  0  0  0  0
   -6.9760   24.9470  -23.5179 C   0  0  0  0  0  0  0  0  0  0  0  0
   -7.5045   26.1742  -23.5567 O   0  0  0  0  0  0  0  0  0  0  0  0
   -6.9348   24.3909  -24.8023 N   0  0  0  0  0  0  0  0  0  0  0  0
   -7.4204   25.0095  -26.0861 C   0  0  0  0  0  0  0  0  0  0  0  0
   -6.4441   24.1659  -26.8360 C   0  0  0  0  0  0  0  0  0  0  0  0
   -6.5603   23.2827  -25.5904 C   0  0  0  0  0  0  0  0  0  0  0  0
   -4.0536   25.0420  -22.5002 C   0  0  0  0  0  0  0  0  0  0  0  0
   -5.2525   24.5378  -21.7720 C   0  0  0  0  0  0  0  0  0  0  0  0
   -5.2293   24.0456  -20.5254 N   0  0  0  0  0  0  0  0  0  0  0  0
   -6.4014   23.7054  -20.1879 O   0  0  0  0  0  0  0  0  0  0  0  0
   -7.2646   23.9528  -21.1886 C   0  0  0  0  0  0  0  0  0  0  0  0
   -8.6938   23.6568  -21.0700 C   0  0  0  0  0  0  0  0  0  0  0  0
   -6.5849   24.4866  -22.2308 C   0  0  0  0  0  0  0  0  0  0  0  0
 27 28  1  0  0  0
 28 29  2  0  0  0
 29 30  1  0  0  0
 30 31  1  0  0  0
 31 32  1  0  0  0
 31 33  2  0  0  0
 33 21  1  0  0  0
 21 22  2  0  0  0
 21 23  1  0  0  0
 23 24  1  0  0  0
 24 25  1  0  0  0
 25 19  1  0  0  0
 19  1  1  0  0  0
  1  2  2  0  0  0
  2  3  1  0  0  0
  3  4  2  0  0  0
  4  5  1  0  0  0
  5  7  1  0  0  0
  7  8  1  0  0  0
  8  9  1  0  0  0
  9 10  1  0  0  0
 10 11  2  0  0  0
 11 12  1  0  0  0
 12 13  1  0  0  0
 12 14  2  0  0  0
 14 15  1  0  0  0
 15 16  2  0  0  0
 16 17  1  0  0  0
 17 18  2  0  0  0
  5  6  2  0  0  0
 25 26  1  0  0  0
 33 28  1  0  0  0
 26 23  1  0  0  0
  6  1  1  0  0  0
 17  7  1  0  0  0
 16 10  1  0  0  0
 19 20  1  0  0  0
M  END
> <minimizedAffinity>
-9.00568

> <CNNscore>
0.1667800695

> <CNNaffinity>
6.7083497047

> <CNN_VS>
1.1188189983

> <CNNaffinity_variance>
0.2112970650

$$$$
[H]c1nc([H])c(N([H])C2([H])C([H])([H])N(C(=O)c3c(C([H])([H])[H])noc3C([H])([H])[H])C2([H])[H])c([H])c1N1C(=O)c2c([H])c([H])c(Cl)c([H])c2C([H])([H])C1([H])[H]


 33 37  0  0  0  0  0  0  0  0999 V2000
    0.5254   20.5703  -21.4439 C   0  0  0  0  0  0  0  0  0  0  0  0
    1.7890   20.7033  -22.0383 C   0  0  0  0  0  0  0  0  0  0  0  0
    1.9194   21.3607  -23.2005 N   0  0  0  0  0  0  0  0  0  0  0  0
    0.8518   21.9102  -23.8300 C   0  0  0  0  0  0  0  0  0  0  0  0
   -0.4225   21.8199  -23.3050 C   0  0  0  0  0  0  0  0  0  0  0  0
   -0.5482   21.1336  -22.0952 C   0  0  0  0  0  0  0  0  0  0  0  0
   -1.5432   22.4022  -23.9498 N   0  0  0  0  0  0  0  0  0  0  0  0
   -1.9713   21.8244  -25.2047 C   0  0  0  0  0  0  0  0  0  0  0  0
   -3.4491   21.8639  -25.3984 C   0  0  0  0  0  0  0  0  0  0  0  0
   -4.1095   22.9974  -24.7218 C   0  0  0  0  0  0  0  0  0  0  0  0
   -5.4186   23.2643  -25.1173 C   0  0  0  0  0  0  0  0  0  0  0  0
   -6.1347   24.3209  -24.5450 C   0  0  0  0  0  0  0  0  0  0  0  0
   -7.7845   24.6674  -25.0310 Cl  0  0  0  0  0  0  0  0  0  0  0  0
   -5.5680   25.1315  -23.5724 C   0  0  0  0  0  0  0  0  0  0  0  0
   -4.2614   24.8349  -23.2039 C   0  0  0  0  0  0  0  0  0  0  0  0
   -3.5618   23.7931  -23.7702 C   0  0  0  0  0  0  0  0  0  0  0  0
   -2.1943   23.5103  -23.3309 C   0  0  0  0  0  0  0  0  0  0  0  0
   -1.6521   24.2213  -22.4559 O   0  0  0  0  0  0  0  0  0  0  0  0
    0.4294   19.8788  -20.2168 N   0  0  0  0  0  0  0  0  0  0  0  0
    0.8883   18.9392  -20.1385 H   0  0  0  0  0  0  0  0  0  0  0  0
    2.1391   22.6879  -18.0542 C   0  0  0  0  0  0  0  0  0  0  0  0
    1.9265   23.7786  -18.7972 O   0  0  0  0  0  0  0  0  0  0  0  0
    1.0749   21.7882  -18.1897 N   0  0  0  0  0  0  0  0  0  0  0  0
   -0.1749   21.9621  -19.0109 C   0  0  0  0  0  0  0  0  0  0  0  0
   -0.2909   20.4774  -19.1084 C   0  0  0  0  0  0  0  0  0  0  0  0
    0.5464   20.5317  -17.8273 C   0  0  0  0  0  0  0  0  0  0  0  0
    4.8884   22.0295  -19.3164 C   0  0  0  0  0  0  0  0  0  0  0  0
    4.6021   22.3801  -17.8962 C   0  0  0  0  0  0  0  0  0  0  0  0
    5.5335   22.4701  -16.9363 N   0  0  0  0  0  0  0  0  0  0  0  0
    4.9785   22.7871  -15.8431 O   0  0  0  0  0  0  0  0  0  0  0  0
    3.6524   22.9251  -16.0167 C   0  0  0  0  0  0  0  0  0  0  0  0
    2.7606   23.2910  -14.9145 C   0  0  0  0  0  0  0  0  0  0  0  0
    3.3526   22.6759  -17.3133 C   0  0  0  0  0  0  0  0  0  0  0  0
 27 28  1  0  0  0
 28 29  2  0  0  0
 29 30  1  0  0  0
 30 31  1  0  0  0
 31 32  1  0  0  0
 31 33  2  0  0  0
 33 21  1  0  0  0
 21 22  2  0  0  0
 21 23  1  0  0  0
 23 24  1  0  0  0
 24 25  1  0  0  0
 25 19  1  0  0  0
 19  1  1  0  0  0
  1  2  2  0  0  0
  2  3  1  0  0  0
  3  4  2  0  0  0
  4  5  1  0  0  0
  5  7  1  0  0  0
  7  8  1  0  0  0
  8  9  1  0  0  0
  9 10  1  0  0  0
 10 11  2  0  0  0
 11 12  1  0  0  0
 12 13  1  0  0  0
 12 14  2  0  0  0
 14 15  1  0  0  0
 15 16  2  0  0  0
 16 17  1  0  0  0
 17 18  2  0  0  0
  5  6  2  0  0  0
 25 26  1  0  0  0
 33 28  1  0  0  0
 26 23  1  0  0  0
  6  1  1  0  0  0
 17  7  1  0  0  0
 16 10  1  0  0  0
 19 20  1  0  0  0
M  END
> <minimizedAffinity>
-7.85191

> <CNNscore>
0.1324828416

> <CNNaffinity>
5.6769409180

> <CNN_VS>
0.7520972490

> <CNNaffinity_variance>
0.2479993850

$$$$
[H]c1nc([H])c(N([H])C2([H])C([H])([H])N(C(=O)c3c(C([H])([H])[H])noc3C([H])([H])[H])C2([H])[H])c([H])c1N1C(=O)c2c([H])c([H])c(Cl)c([H])c2C([H])([H])C1([H])[H]


 33 37  0  0  0  0  0  0  0  0999 V2000
   -1.7412   21.3677  -21.7701 C   0  0  0  0  0  0  0  0  0  0  0  0
   -0.3699   21.1025  -21.6410 C   0  0  0  0  0  0  0  0  0  0  0  0
    0.4611   21.3450  -22.6659 N   0  0  0  0  0  0  0  0  0  0  0  0
    0.0114   21.8466  -23.8424 C   0  0  0  0  0  0  0  0  0  0  0  0
   -1.3249   22.1327  -24.0429 C   0  0  0  0  0  0  0  0  0  0  0  0
   -2.1821   21.8767  -22.9704 C   0  0  0  0  0  0  0  0  0  0  0  0
   -1.8026   22.6693  -25.2654 N   0  0  0  0  0  0  0  0  0  0  0  0
   -0.9671   22.5200  -26.4365 C   0  0  0  0  0  0  0  0  0  0  0  0
   -1.7439   22.3251  -27.6941 C   0  0  0  0  0  0  0  0  0  0  0  0
   -3.0721   22.9691  -27.6809 C   0  0  0  0  0  0  0  0  0  0  0  0
   -3.7033   23.0893  -28.9172 C   0  0  0  0  0  0  0  0  0  0  0  0
   -4.9623   23.6905  -29.0193 C   0  0  0  0  0  0  0  0  0  0  0  0
   -5.7704   23.8466  -30.5686 Cl  0  0  0  0  0  0  0  0  0  0  0  0
   -5.6177   24.1834  -27.9005 C   0  0  0  0  0  0  0  0  0  0  0  0
   -4.9573   24.0455  -26.6856 C   0  0  0  0  0  0  0  0  0  0  0  0
   -3.7185   23.4522  -26.5913 C   0  0  0  0  0  0  0  0  0  0  0  0
   -3.0753   23.3134  -25.2836 C   0  0  0  0  0  0  0  0  0  0  0  0
   -3.6379   23.7467  -24.2536 O   0  0  0  0  0  0  0  0  0  0  0  0
   -2.5829   21.1073  -20.6669 N   0  0  0  0  0  0  0  0  0  0  0  0
   -3.5602   20.7766  -20.8545 H   0  0  0  0  0  0  0  0  0  0  0  0
   -5.0593   20.9490  -17.6118 C   0  0  0  0  0  0  0  0  0  0  0  0
   -5.1566   19.6326  -17.4010 O   0  0  0  0  0  0  0  0  0  0  0  0
   -3.7799   21.2771  -18.0766 N   0  0  0  0  0  0  0  0  0  0  0  0
   -2.6198   20.3452  -18.3053 C   0  0  0  0  0  0  0  0  0  0  0  0
   -2.0817   21.2994  -19.3188 C   0  0  0  0  0  0  0  0  0  0  0  0
   -2.9192   22.3026  -18.5204 C   0  0  0  0  0  0  0  0  0  0  0  0
   -5.3549   22.7395  -15.1034 C   0  0  0  0  0  0  0  0  0  0  0  0
   -6.3553   22.5226  -16.1869 C   0  0  0  0  0  0  0  0  0  0  0  0
   -7.5631   23.1026  -16.2290 N   0  0  0  0  0  0  0  0  0  0  0  0
   -8.1741   22.7217  -17.2707 O   0  0  0  0  0  0  0  0  0  0  0  0
   -7.4077   21.8711  -17.9756 C   0  0  0  0  0  0  0  0  0  0  0  0
   -7.8659   21.2744  -19.2318 C   0  0  0  0  0  0  0  0  0  0  0  0
   -6.2298   21.7050  -17.3290 C   0  0  0  0  0  0  0  0  0  0  0  0
 27 28  1  0  0  0
 28 29  2  0  0  0
 29 30  1  0  0  0
 30 31  1  0  0  0
 31 32  1  0  0  0
 31 33  2  0  0  0
 33 21  1  0  0  0
 21 22  2  0  0  0
 21 23  1  0  0  0
 23 24  1  0  0  0
 24 25  1  0  0  0
 25 19  1  0  0  0
 19  1  1  0  0  0
  1  2  2  0  0  0
  2  3  1  0  0  0
  3  4  2  0  0  0
  4  5  1  0  0  0
  5  7  1  0  0  0
  7  8  1  0  0  0
  8  9  1  0  0  0
  9 10  1  0  0  0
 10 11  2  0  0  0
 11 12  1  0  0  0
 12 13  1  0  0  0
 12 14  2  0  0  0
 14 15  1  0  0  0
 15 16  2  0  0  0
 16 17  1  0  0  0
 17 18  2  0  0  0
  5  6  2  0  0  0
 25 26  1  0  0  0
 33 28  1  0  0  0
 26 23  1  0  0  0
  6  1  1  0  0  0
 17  7  1  0  0  0
 16 10  1  0  0  0
 19 20  1  0  0  0
M  END
> <minimizedAffinity>
-8.27656

> <CNNscore>
0.1317268610

> <CNNaffinity>
6.1063022614

> <CNN_VS>
0.8043640256

> <CNNaffinity_variance>
0.1513283104

$$$$
[H]c1c([H])c([H])c2c(nc(SC([H])([H])C(=O)N3C(=O)C([H])([H])C([H])([H])C3([H])[H])n2C([H])([H])[H])c1[H]


 20 22  0  0  0  0  0  0  0  0999 V2000
   -2.1553   21.5673  -23.0170 C   0  0  0  0  0  0  0  0  0  0  0  0
   -2.5163   21.8711  -24.4044 N   0  0  0  0  0  0  0  0  0  0  0  0
   -3.7060   21.9935  -24.9764 C   0  0  0  0  0  0  0  0  0  0  0  0
   -3.4983   22.3329  -26.2823 N   0  0  0  0  0  0  0  0  0  0  0  0
   -2.1802   22.4234  -26.5364 C   0  0  0  0  0  0  0  0  0  0  0  0
   -1.4671   22.7295  -27.6813 C   0  0  0  0  0  0  0  0  0  0  0  0
   -0.0964   22.7438  -27.6395 C   0  0  0  0  0  0  0  0  0  0  0  0
    0.5401   22.4481  -26.4395 C   0  0  0  0  0  0  0  0  0  0  0  0
   -0.1683   22.1457  -25.3082 C   0  0  0  0  0  0  0  0  0  0  0  0
   -1.5612   22.1291  -25.3422 C   0  0  0  0  0  0  0  0  0  0  0  0
   -5.2969   21.7408  -24.3021 S   0  0  0  0  0  0  0  0  0  0  0  0
   -6.4878   23.0286  -24.4719 C   0  0  0  0  0  0  0  0  0  0  0  0
   -6.5574   23.7947  -25.6986 C   0  0  0  0  0  0  0  0  0  0  0  0
   -7.2170   23.4944  -26.6928 O   0  0  0  0  0  0  0  0  0  0  0  0
   -5.7807   25.0130  -25.7460 N   0  0  0  0  0  0  0  0  0  0  0  0
   -4.9592   25.5192  -24.6826 C   0  0  0  0  0  0  0  0  0  0  0  0
   -4.7181   26.9896  -25.0432 C   0  0  0  0  0  0  0  0  0  0  0  0
   -4.6723   26.9409  -26.5467 C   0  0  0  0  0  0  0  0  0  0  0  0
   -5.7010   25.9175  -26.8532 C   0  0  0  0  0  0  0  0  0  0  0  0
   -6.4102   25.8126  -27.8861 O   0  0  0  0  0  0  0  0  0  0  0  0
  1  2  1  0  0  0
  2  3  1  0  0  0
  3 11  1  0  0  0
 11 12  1  0  0  0
 12 13  1  0  0  0
 13 14  2  0  0  0
 13 15  1  0  0  0
 15 16  1  0  0  0
 16 17  1  0  0  0
 17 18  1  0  0  0
 18 19  1  0  0  0
 19 20  2  0  0  0
  3  4  2  0  0  0
  4  5  1  0  0  0
  5  6  2  0  0  0
  6  7  1  0  0  0
  7  8  2  0  0  0
  8  9  1  0  0  0
  9 10  2  0  0  0
 10  2  1  0  0  0
 19 15  1  0  0  0
 10  5  1  0  0  0
M  END
> <minimizedAffinity>
-7.58686

> <CNNscore>
0.5873795748

> <CNNaffinity>
5.7649536133

> <CNN_VS>
3.3862159252

> <CNNaffinity_variance>
0.1787441820

$$$$
[H]c1c([H])c([H])c2c(nc(SC([H])([H])C(=O)N3C(=O)C([H])([H])C([H])([H])C3([H])[H])n2C([H])([H])[H])c1[H]


 20 22  0  0  0  0  0  0  0  0999 V2000
    0.1818   22.5135  -27.5108 C   0  0  0  0  0  0  0  0  0  0  0  0
   -1.0353   22.4208  -26.6999 N   0  0  0  0  0  0  0  0  0  0  0  0
   -2.3083   22.5676  -27.0396 C   0  0  0  0  0  0  0  0  0  0  0  0
   -3.0586   22.3322  -25.9237 N   0  0  0  0  0  0  0  0  0  0  0  0
   -2.2620   22.0388  -24.8799 C   0  0  0  0  0  0  0  0  0  0  0  0
   -2.5278   21.7311  -23.5579 C   0  0  0  0  0  0  0  0  0  0  0  0
   -1.4875   21.4729  -22.7023 C   0  0  0  0  0  0  0  0  0  0  0  0
   -0.1877   21.5285  -23.1925 C   0  0  0  0  0  0  0  0  0  0  0  0
    0.0720   21.8332  -24.5013 C   0  0  0  0  0  0  0  0  0  0  0  0
   -0.9793   22.0967  -25.3770 C   0  0  0  0  0  0  0  0  0  0  0  0
   -3.0056   23.0248  -28.5740 S   0  0  0  0  0  0  0  0  0  0  0  0
   -4.0169   24.4668  -28.6329 C   0  0  0  0  0  0  0  0  0  0  0  0
   -5.3286   24.4579  -28.0198 C   0  0  0  0  0  0  0  0  0  0  0  0
   -6.3242   23.8917  -28.4692 O   0  0  0  0  0  0  0  0  0  0  0  0
   -5.4663   25.1797  -26.7749 N   0  0  0  0  0  0  0  0  0  0  0  0
   -4.4154   25.8924  -26.1044 C   0  0  0  0  0  0  0  0  0  0  0  0
   -4.9319   26.0936  -24.6751 C   0  0  0  0  0  0  0  0  0  0  0  0
   -6.4115   26.2582  -24.8961 C   0  0  0  0  0  0  0  0  0  0  0  0
   -6.6657   25.3039  -26.0025 C   0  0  0  0  0  0  0  0  0  0  0  0
   -7.7267   24.6824  -26.2654 O   0  0  0  0  0  0  0  0  0  0  0  0
  1  2  1  0  0  0
  2  3  1  0  0  0
  3 11  1  0  0  0
 11 12  1  0  0  0
 12 13  1  0  0  0
 13 14  2  0  0  0
 13 15  1  0  0  0
 15 16  1  0  0  0
 16 17  1  0  0  0
 17 18  1  0  0  0
 18 19  1  0  0  0
 19 20  2  0  0  0
  3  4  2  0  0  0
  4  5  1  0  0  0
  5  6  2  0  0  0
  6  7  1  0  0  0
  7  8  2  0  0  0
  8  9  1  0  0  0
  9 10  2  0  0  0
 10  2  1  0  0  0
 19 15  1  0  0  0
 10  5  1  0  0  0
M  END
> <minimizedAffinity>
-7.44870

> <CNNscore>
0.5452410579

> <CNNaffinity>
5.9386153221

> <CNN_VS>
3.2379767895

> <CNNaffinity_variance>
0.2991469204

$$$$
[H]c1c([H])c([H])c2c(nc(SC([H])([H])C(=O)N3C(=O)C([H])([H])C([H])([H])C3([H])[H])n2C([H])([H])[H])c1[H]


 20 22  0  0  0  0  0  0  0  0999 V2000
   -3.8063   22.1863  -23.9569 C   0  0  0  0  0  0  0  0  0  0  0  0
   -3.0020   22.4126  -25.1608 N   0  0  0  0  0  0  0  0  0  0  0  0
   -1.7016   22.2598  -25.3675 C   0  0  0  0  0  0  0  0  0  0  0  0
   -1.4586   22.5567  -26.6776 N   0  0  0  0  0  0  0  0  0  0  0  0
   -2.6026   22.8983  -27.2980 C   0  0  0  0  0  0  0  0  0  0  0  0
   -2.8845   23.2780  -28.5977 C   0  0  0  0  0  0  0  0  0  0  0  0
   -4.1763   23.5754  -28.9493 C   0  0  0  0  0  0  0  0  0  0  0  0
   -5.1710   23.4860  -27.9821 C   0  0  0  0  0  0  0  0  0  0  0  0
   -4.8888   23.1098  -26.6968 C   0  0  0  0  0  0  0  0  0  0  0  0
   -3.5790   22.8058  -26.3316 C   0  0  0  0  0  0  0  0  0  0  0  0
   -0.4396   21.8200  -24.2434 S   0  0  0  0  0  0  0  0  0  0  0  0
   -0.8984   21.4266  -22.5881 C   0  0  0  0  0  0  0  0  0  0  0  0
   -0.8712   22.4511  -21.5652 C   0  0  0  0  0  0  0  0  0  0  0  0
   -1.3826   23.5664  -21.6564 O   0  0  0  0  0  0  0  0  0  0  0  0
   -0.1808   22.1229  -20.3383 N   0  0  0  0  0  0  0  0  0  0  0  0
    0.4683   20.8735  -20.0561 C   0  0  0  0  0  0  0  0  0  0  0  0
    0.6490   20.8638  -18.5338 C   0  0  0  0  0  0  0  0  0  0  0  0
    0.8805   22.3207  -18.2357 C   0  0  0  0  0  0  0  0  0  0  0  0
   -0.0299   22.9813  -19.2022 C   0  0  0  0  0  0  0  0  0  0  0  0
   -0.5994   24.0974  -19.0964 O   0  0  0  0  0  0  0  0  0  0  0  0
  1  2  1  0  0  0
  2  3  1  0  0  0
  3 11  1  0  0  0
 11 12  1  0  0  0
 12 13  1  0  0  0
 13 14  2  0  0  0
 13 15  1  0  0  0
 15 16  1  0  0  0
 16 17  1  0  0  0
 17 18  1  0  0  0
 18 19  1  0  0  0
 19 20  2  0  0  0
  3  4  2  0  0  0
  4  5  1  0  0  0
  5  6  2  0  0  0
  6  7  1  0  0  0
  7  8  2  0  0  0
  8  9  1  0  0  0
  9 10  2  0  0  0
 10  2  1  0  0  0
 19 15  1  0  0  0
 10  5  1  0  0  0
M  END
> <minimizedAffinity>
-6.60812

> <CNNscore>
0.5032619834

> <CNNaffinity>
5.3196840286

> <CNN_VS>
2.6771948338

> <CNNaffinity_variance>
0.1203027144

$$$$
[H]c1c([H])c([H])c2c(nc(SC([H])([H])C(=O)N3C(=O)C([H])([H])C([H])([H])C3([H])[H])n2C([H])([H])[H])c1[H]


 20 22  0  0  0  0  0  0  0  0999 V2000
   -0.9302   21.3813  -22.8621 C   0  0  0  0  0  0  0  0  0  0  0  0
   -1.7426   21.7371  -24.0286 N   0  0  0  0  0  0  0  0  0  0  0  0
   -3.0563   21.8603  -24.1565 C   0  0  0  0  0  0  0  0  0  0  0  0
   -3.3063   22.2594  -25.4379 N   0  0  0  0  0  0  0  0  0  0  0  0
   -2.1534   22.3868  -26.1197 C   0  0  0  0  0  0  0  0  0  0  0  0
   -1.8733   22.7557  -27.4229 C   0  0  0  0  0  0  0  0  0  0  0  0
   -0.5700   22.7953  -27.8482 C   0  0  0  0  0  0  0  0  0  0  0  0
    0.4377   22.4611  -26.9507 C   0  0  0  0  0  0  0  0  0  0  0  0
    0.1573   22.0965  -25.6617 C   0  0  0  0  0  0  0  0  0  0  0  0
   -1.1641   22.0539  -25.2216 C   0  0  0  0  0  0  0  0  0  0  0  0
   -4.3222   21.5475  -22.9949 S   0  0  0  0  0  0  0  0  0  0  0  0
   -5.9029   22.2766  -23.2690 C   0  0  0  0  0  0  0  0  0  0  0  0
   -6.8981   22.2667  -22.2172 C   0  0  0  0  0  0  0  0  0  0  0  0
   -7.6283   21.3182  -21.9326 O   0  0  0  0  0  0  0  0  0  0  0  0
   -7.0354   23.4805  -21.4443 N   0  0  0  0  0  0  0  0  0  0  0  0
   -6.2679   24.6794  -21.6326 C   0  0  0  0  0  0  0  0  0  0  0  0
   -6.4682   25.4771  -20.3388 C   0  0  0  0  0  0  0  0  0  0  0  0
   -7.8806   25.1174  -19.9635 C   0  0  0  0  0  0  0  0  0  0  0  0
   -7.9524   23.6915  -20.3649 C   0  0  0  0  0  0  0  0  0  0  0  0
   -8.6718   22.7819  -19.8790 O   0  0  0  0  0  0  0  0  0  0  0  0
  1  2  1  0  0  0
  2  3  1  0  0  0
  3 11  1  0  0  0
 11 12  1  0  0  0
 12 13  1  0  0  0
 13 14  2  0  0  0
 13 15  1  0  0  0
 15 16  1  0  0  0
 16 17  1  0  0  0
 17 18  1  0  0  0
 18 19  1  0  0  0
 19 20  2  0  0  0
  3  4  2  0  0  0
  4  5  1  0  0  0
  5  6  2  0  0  0
  6  7  1  0  0  0
  7  8  2  0  0  0
  8  9  1  0  0  0
  9 10  2  0  0  0
 10  2  1  0  0  0
 19 15  1  0  0  0
 10  5  1  0  0  0
M  END
> <minimizedAffinity>
-6.82421

> <CNNscore>
0.4205432236

> <CNNaffinity>
4.9098920822

> <CNN_VS>
2.0648219585

> <CNNaffinity_variance>
0.1358049810

$$$$
[H]c1c([H])c([H])c2c(nc(SC([H])([H])C(=O)N3C(=O)C([H])([H])C([H])([H])C3([H])[H])n2C([H])([H])[H])c1[H]


 20 22  0  0  0  0  0  0  0  0999 V2000
   -4.4544   26.1115  -26.4833 C   0  0  0  0  0  0  0  0  0  0  0  0
   -4.8638   24.9915  -27.3351 N   0  0  0  0  0  0  0  0  0  0  0  0
   -5.1406   23.7324  -27.0262 C   0  0  0  0  0  0  0  0  0  0  0  0
   -5.5207   23.1036  -28.1768 N   0  0  0  0  0  0  0  0  0  0  0  0
   -5.4829   23.9626  -29.2117 C   0  0  0  0  0  0  0  0  0  0  0  0
   -5.7680   23.8189  -30.5574 C   0  0  0  0  0  0  0  0  0  0  0  0
   -5.6342   24.8967  -31.3948 C   0  0  0  0  0  0  0  0  0  0  0  0
   -5.2129   26.1100  -30.8627 C   0  0  0  0  0  0  0  0  0  0  0  0
   -4.9316   26.2489  -29.5305 C   0  0  0  0  0  0  0  0  0  0  0  0
   -5.0651   25.1589  -28.6729 C   0  0  0  0  0  0  0  0  0  0  0  0
   -5.0254   22.9120  -25.4889 S   0  0  0  0  0  0  0  0  0  0  0  0
   -3.7285   21.7400  -25.2653 C   0  0  0  0  0  0  0  0  0  0  0  0
   -2.4292   21.9741  -25.8599 C   0  0  0  0  0  0  0  0  0  0  0  0
   -2.2231   22.2568  -27.0394 O   0  0  0  0  0  0  0  0  0  0  0  0
   -1.2859   21.8623  -24.9823 N   0  0  0  0  0  0  0  0  0  0  0  0
   -1.3378   21.5457  -23.5827 C   0  0  0  0  0  0  0  0  0  0  0  0
    0.0301   21.9709  -23.0365 C   0  0  0  0  0  0  0  0  0  0  0  0
    0.9375   21.6806  -24.2016 C   0  0  0  0  0  0  0  0  0  0  0  0
    0.0835   22.0495  -25.3565 C   0  0  0  0  0  0  0  0  0  0  0  0
    0.4423   22.4612  -26.4891 O   0  0  0  0  0  0  0  0  0  0  0  0
  1  2  1  0  0  0
  2  3  1  0  0  0
  3 11  1  0  0  0
 11 12  1  0  0  0
 12 13  1  0  0  0
 13 14  2  0  0  0
 13 15  1  0  0  0
 15 16  1  0  0  0
 16 17  1  0  0  0
 17 18  1  0  0  0
 18 19  1  0  0  0
 19 20  2  0  0  0
  3  4  2  0  0  0
  4  5  1  0  0  0
  5  6  2  0  0  0
  6  7  1  0  0  0
  7  8  2  0  0  0
  8  9  1  0  0  0
  9 10  2  0  0  0
 10  2  1  0  0  0
 19 15  1  0  0  0
 10  5  1  0  0  0
M  END
> <minimizedAffinity>
-7.21557

> <CNNscore>
0.3454166949

> <CNNaffinity>
5.7405338287

> <CNN_VS>
1.9828761816

> <CNNaffinity_variance>
0.1027640924

$$$$
[H]c1c([H])c([H])c2c(nc(SC([H])([H])C(=O)N3C(=O)C([H])([H])C([H])([H])C3([H])[H])n2C([H])([H])[H])c1[H]


 20 22  0  0  0  0  0  0  0  0999 V2000
   -4.6252   23.2009  -26.3304 C   0  0  0  0  0  0  0  0  0  0  0  0
   -3.3212   22.8335  -25.7718 N   0  0  0  0  0  0  0  0  0  0  0  0
   -2.9865   22.4542  -24.5465 C   0  0  0  0  0  0  0  0  0  0  0  0
   -1.6497   22.1776  -24.5553 N   0  0  0  0  0  0  0  0  0  0  0  0
   -1.1393   22.3831  -25.7831 C   0  0  0  0  0  0  0  0  0  0  0  0
    0.1366   22.2500  -26.3000 C   0  0  0  0  0  0  0  0  0  0  0  0
    0.3635   22.5395  -27.6212 C   0  0  0  0  0  0  0  0  0  0  0  0
   -0.7029   22.9612  -28.4071 C   0  0  0  0  0  0  0  0  0  0  0  0
   -1.9644   23.0918  -27.8926 C   0  0  0  0  0  0  0  0  0  0  0  0
   -2.2034   22.7996  -26.5514 C   0  0  0  0  0  0  0  0  0  0  0  0
   -3.9698   22.3438  -23.1075 S   0  0  0  0  0  0  0  0  0  0  0  0
   -3.1883   21.8782  -21.5982 C   0  0  0  0  0  0  0  0  0  0  0  0
   -2.2477   22.7763  -20.9617 C   0  0  0  0  0  0  0  0  0  0  0  0
   -1.9066   23.8772  -21.3924 O   0  0  0  0  0  0  0  0  0  0  0  0
   -1.6673   22.3291  -19.7156 N   0  0  0  0  0  0  0  0  0  0  0  0
   -1.9508   21.0808  -19.0650 C   0  0  0  0  0  0  0  0  0  0  0  0
   -1.4543   21.2696  -17.6270 C   0  0  0  0  0  0  0  0  0  0  0  0
   -0.2625   22.1679  -17.8216 C   0  0  0  0  0  0  0  0  0  0  0  0
   -0.7190   23.0512  -18.9220 C   0  0  0  0  0  0  0  0  0  0  0  0
   -0.3705   24.2346  -19.1649 O   0  0  0  0  0  0  0  0  0  0  0  0
  1  2  1  0  0  0
  2  3  1  0  0  0
  3 11  1  0  0  0
 11 12  1  0  0  0
 12 13  1  0  0  0
 13 14  2  0  0  0
 13 15  1  0  0  0
 15 16  1  0  0  0
 16 17  1  0  0  0
 17 18  1  0  0  0
 18 19  1  0  0  0
 19 20  2  0  0  0
  3  4  2  0  0  0
  4  5  1  0  0  0
  5  6  2  0  0  0
  6  7  1  0  0  0
  7  8  2  0  0  0
  8  9  1  0  0  0
  9 10  2  0  0  0
 10  2  1  0  0  0
 19 15  1  0  0  0
 10  5  1  0  0  0
M  END
> <minimizedAffinity>
-6.79541

> <CNNscore>
0.3446625471

> <CNNaffinity>
4.9819245338

> <CNN_VS>
1.7170828581

> <CNNaffinity_variance>
0.2432203591

$$$$
[H]c1c([H])c([H])c2c(nc(SC([H])([H])C(=O)N3C(=O)C([H])([H])C([H])([H])C3([H])[H])n2C([H])([H])[H])c1[H]


 20 22  0  0  0  0  0  0  0  0999 V2000
   -2.5688   23.0248  -22.8238 C   0  0  0  0  0  0  0  0  0  0  0  0
   -2.5987   23.1317  -24.2850 N   0  0  0  0  0  0  0  0  0  0  0  0
   -3.5211   23.6378  -25.0915 C   0  0  0  0  0  0  0  0  0  0  0  0
   -3.0459   23.5403  -26.3676 N   0  0  0  0  0  0  0  0  0  0  0  0
   -1.8262   22.9723  -26.3685 C   0  0  0  0  0  0  0  0  0  0  0  0
   -0.9419   22.6573  -27.3842 C   0  0  0  0  0  0  0  0  0  0  0  0
    0.2575   22.0676  -27.0766 C   0  0  0  0  0  0  0  0  0  0  0  0
    0.5508   21.8020  -25.7439 C   0  0  0  0  0  0  0  0  0  0  0  0
   -0.3264   22.1150  -24.7411 C   0  0  0  0  0  0  0  0  0  0  0  0
   -1.5469   22.7144  -25.0451 C   0  0  0  0  0  0  0  0  0  0  0  0
   -5.0989   24.2831  -24.7123 S   0  0  0  0  0  0  0  0  0  0  0  0
   -6.2565   24.4795  -26.0264 C   0  0  0  0  0  0  0  0  0  0  0  0
   -5.9298   25.3174  -27.1612 C   0  0  0  0  0  0  0  0  0  0  0  0
   -5.7690   26.5367  -27.1270 O   0  0  0  0  0  0  0  0  0  0  0  0
   -5.7838   24.6523  -28.4363 N   0  0  0  0  0  0  0  0  0  0  0  0
   -5.9309   23.2419  -28.6620 C   0  0  0  0  0  0  0  0  0  0  0  0
   -5.2679   22.9940  -30.0219 C   0  0  0  0  0  0  0  0  0  0  0  0
   -5.5779   24.2688  -30.7595 C   0  0  0  0  0  0  0  0  0  0  0  0
   -5.4672   25.2824  -29.6826 C   0  0  0  0  0  0  0  0  0  0  0  0
   -5.1539   26.4958  -29.7857 O   0  0  0  0  0  0  0  0  0  0  0  0
  1  2  1  0  0  0
  2  3  1  0  0  0
  3 11  1  0  0  0
 11 12  1  0  0  0
 12 13  1  0  0  0
 13 14  2  0  0  0
 13 15  1  0  0  0
 15 16  1  0  0  0
 16 17  1  0  0  0
 17 18  1  0  0  0
 18 19  1  0  0  0
 19 20  2  0  0  0
  3  4  2  0  0  0
  4  5  1  0  0  0
  5  6  2  0  0  0
  6  7  1  0  0  0
  7  8  2  0  0  0
  8  9  1  0  0  0
  9 10  2  0  0  0
 10  2  1  0  0  0
 19 15  1  0  0  0
 10  5  1  0  0  0
M  END
> <minimizedAffinity>
-7.68736

> <CNNscore>
0.3150916100

> <CNNaffinity>
5.8554353714

> <CNN_VS>
1.8449985981

> <CNNaffinity_variance>
0.2500953376

$$$$
[H]c1c([H])c([H])c2c(nc(SC([H])([H])C(=O)N3C(=O)C([H])([H])C([H])([H])C3([H])[H])n2C([H])([H])[H])c1[H]


 20 22  0  0  0  0  0  0  0  0999 V2000
   -4.0478   25.6235  -23.8381 C   0  0  0  0  0  0  0  0  0  0  0  0
   -4.8678   24.4264  -24.0430 N   0  0  0  0  0  0  0  0  0  0  0  0
   -5.1297   23.7422  -25.1479 C   0  0  0  0  0  0  0  0  0  0  0  0
   -5.9078   22.6777  -24.7943 N   0  0  0  0  0  0  0  0  0  0  0  0
   -6.1391   22.6893  -23.4689 C   0  0  0  0  0  0  0  0  0  0  0  0
   -6.8555   21.8481  -22.6370 C   0  0  0  0  0  0  0  0  0  0  0  0
   -6.9175   22.1188  -21.2940 C   0  0  0  0  0  0  0  0  0  0  0  0
   -6.2540   23.2384  -20.8052 C   0  0  0  0  0  0  0  0  0  0  0  0
   -5.5458   24.0688  -21.6310 C   0  0  0  0  0  0  0  0  0  0  0  0
   -5.4777   23.8008  -22.9967 C   0  0  0  0  0  0  0  0  0  0  0  0
   -4.6673   24.0739  -26.7989 S   0  0  0  0  0  0  0  0  0  0  0  0
   -3.7816   22.8321  -27.6814 C   0  0  0  0  0  0  0  0  0  0  0  0
   -2.3584   22.9771  -27.9049 C   0  0  0  0  0  0  0  0  0  0  0  0
   -1.8372   23.4375  -28.9198 O   0  0  0  0  0  0  0  0  0  0  0  0
   -1.4875   22.5393  -26.8374 N   0  0  0  0  0  0  0  0  0  0  0  0
   -1.9184   21.9829  -25.5858 C   0  0  0  0  0  0  0  0  0  0  0  0
   -0.6952   22.0946  -24.6684 C   0  0  0  0  0  0  0  0  0  0  0  0
    0.4412   21.8921  -25.6341 C   0  0  0  0  0  0  0  0  0  0  0  0
   -0.0564   22.5880  -26.8455 C   0  0  0  0  0  0  0  0  0  0  0  0
    0.6129   23.1427  -27.7540 O   0  0  0  0  0  0  0  0  0  0  0  0
  1  2  1  0  0  0
  2  3  1  0  0  0
  3 11  1  0  0  0
 11 12  1  0  0  0
 12 13  1  0  0  0
 13 14  2  0  0  0
 13 15  1  0  0  0
 15 16  1  0  0  0
 16 17  1  0  0  0
 17 18  1  0  0  0
 18 19  1  0  0  0
 19 20  2  0  0  0
  3  4  2  0  0  0
  4  5  1  0  0  0
  5  6  2  0  0  0
  6  7  1  0  0  0
  7  8  2  0  0  0
  8  9  1  0  0  0
  9 10  2  0  0  0
 10  2  1  0  0  0
 19 15  1  0  0  0
 10  5  1  0  0  0
M  END
> <minimizedAffinity>
-6.81754

> <CNNscore>
0.2972257733

> <CNNaffinity>
5.5106077194

> <CNN_VS>
1.6378946304

> <CNNaffinity_variance>
0.1066332310

$$$$
[H]c1c([H])c([H])c2c(nc(SC([H])([H])C(=O)N3C(=O)C([H])([H])C([H])([H])C3([H])[H])n2C([H])([H])[H])c1[H]


 20 22  0  0  0  0  0  0  0  0999 V2000
   -4.6718   22.9655  -26.8411 C   0  0  0  0  0  0  0  0  0  0  0  0
   -3.4189   22.5693  -26.1925 N   0  0  0  0  0  0  0  0  0  0  0  0
   -3.1974   22.0580  -24.9896 C   0  0  0  0  0  0  0  0  0  0  0  0
   -1.8571   21.8192  -24.8877 N   0  0  0  0  0  0  0  0  0  0  0  0
   -1.2318   22.1802  -26.0230 C   0  0  0  0  0  0  0  0  0  0  0  0
    0.0945   22.1417  -26.4132 C   0  0  0  0  0  0  0  0  0  0  0  0
    0.4445   22.5896  -27.6613 C   0  0  0  0  0  0  0  0  0  0  0  0
   -0.5510   23.0725  -28.5030 C   0  0  0  0  0  0  0  0  0  0  0  0
   -1.8626   23.1092  -28.1139 C   0  0  0  0  0  0  0  0  0  0  0  0
   -2.2266   22.6559  -26.8476 C   0  0  0  0  0  0  0  0  0  0  0  0
   -4.3181   21.7545  -23.6852 S   0  0  0  0  0  0  0  0  0  0  0  0
   -4.7662   23.1017  -22.6414 C   0  0  0  0  0  0  0  0  0  0  0  0
   -5.8230   24.0077  -23.0403 C   0  0  0  0  0  0  0  0  0  0  0  0
   -7.0161   23.8782  -22.7693 O   0  0  0  0  0  0  0  0  0  0  0  0
   -5.4290   25.1571  -23.8235 N   0  0  0  0  0  0  0  0  0  0  0  0
   -4.0871   25.4695  -24.2278 C   0  0  0  0  0  0  0  0  0  0  0  0
   -4.1362   26.9477  -24.6313 C   0  0  0  0  0  0  0  0  0  0  0  0
   -5.5205   27.0697  -25.2092 C   0  0  0  0  0  0  0  0  0  0  0  0
   -6.3039   26.1744  -24.3237 C   0  0  0  0  0  0  0  0  0  0  0  0
   -7.5236   26.2468  -24.0268 O   0  0  0  0  0  0  0  0  0  0  0  0
  1  2  1  0  0  0
  2  3  1  0  0  0
  3 11  1  0  0  0
 11 12  1  0  0  0
 12 13  1  0  0  0
 13 14  2  0  0  0
 13 15  1  0  0  0
 15 16  1  0  0  0
 16 17  1  0  0  0
 17 18  1  0  0  0
 18 19  1  0  0  0
 19 20  2  0  0  0
  3  4  2  0  0  0
  4  5  1  0  0  0
  5  6  2  0  0  0
  6  7  1  0  0  0
  7  8  2  0  0  0
  8  9  1  0  0  0
  9 10  2  0  0  0
 10  2  1  0  0  0
 19 15  1  0  0  0
 10  5  1  0  0  0
M  END
> <minimizedAffinity>
-7.13667

> <CNNscore>
0.2883948088

> <CNNaffinity>
5.2226829529

> <CNN_VS>
1.5061947107

> <CNNaffinity_variance>
0.2802527547

$$$$
[H]c1c(C([H])([H])[H])c([H])c2c(c1C(F)(F)F)C(=O)N1C([H])([H])C([H])([H])N([H])C([H])([H])[C@@]21[H]


 20 22  0  0  0  0  0  0  0  0999 V2000
   -4.7689   23.4631  -29.3078 C   0  0  0  0  0  0  0  0  0  0  0  0
   -3.7951   23.1177  -28.2381 C   0  0  0  0  0  0  0  0  0  0  0  0
   -4.3067   22.7942  -27.0009 C   0  0  0  0  0  0  0  0  0  0  0  0
   -3.4607   22.4674  -25.9752 C   0  0  0  0  0  0  0  0  0  0  0  0
   -2.0796   22.4682  -26.2029 C   0  0  0  0  0  0  0  0  0  0  0  0
   -1.5435   22.7850  -27.4231 C   0  0  0  0  0  0  0  0  0  0  0  0
   -2.4258   23.1121  -28.4446 C   0  0  0  0  0  0  0  0  0  0  0  0
   -1.4872   22.1131  -24.9128 C   0  0  0  0  0  0  0  0  0  0  0  0
   -0.2652   22.0074  -24.7066 O   0  0  0  0  0  0  0  0  0  0  0  0
   -2.4827   21.9105  -23.9491 N   0  0  0  0  0  0  0  0  0  0  0  0
   -2.4928   21.6138  -22.5388 C   0  0  0  0  0  0  0  0  0  0  0  0
   -3.4332   22.5639  -21.8002 C   0  0  0  0  0  0  0  0  0  0  0  0
   -4.7029   22.5474  -22.4527 N   0  0  0  0  0  0  0  0  0  0  0  0
   -4.6663   22.9866  -23.8379 C   0  0  0  0  0  0  0  0  0  0  0  0
   -3.7643   22.0671  -24.5976 C   0  0  0  0  0  0  0  0  0  0  0  0
   -5.4379   23.0845  -21.9557 H   0  0  0  0  0  0  0  0  0  0  0  0
   -0.0806   22.7694  -27.6401 C   0  0  0  0  0  0  0  0  0  0  0  0
    0.6305   23.5836  -26.8147 F   0  0  0  0  0  0  0  0  0  0  0  0
    0.2070   23.0201  -28.9896 F   0  0  0  0  0  0  0  0  0  0  0  0
    0.4055   21.4708  -27.4247 F   0  0  0  0  0  0  0  0  0  0  0  0
  1  2  1  0  0  0
  2  3  2  0  0  0
  3  4  1  0  0  0
  4  5  2  0  0  0
  5  6  1  0  0  0
  6 17  1  0  0  0
 17 18  1  0  0  0
 17 19  1  0  0  0
 17 20  1  0  0  0
  6  7  2  0  0  0
  5  8  1  0  0  0
  8  9  2  0  0  0
  8 10  1  0  0  0
 10 11  1  0  0  0
 11 12  1  0  0  0
 12 13  1  0  0  0
 13 14  1  0  0  0
 14 15  1  0  0  0
  7  2  1  0  0  0
 15 10  1  0  0  0
 15  4  1  0  0  0
 13 16  1  0  0  0
M  END
> <minimizedAffinity>
-8.24972

> <CNNscore>
0.4671889544

> <CNNaffinity>
5.1393914223

> <CNN_VS>
2.4010670185

> <CNNaffinity_variance>
0.0881900638

$$$$
[H]c1c(C([H])([H])[H])c([H])c2c(c1C(F)(F)F)C(=O)N1C([H])([H])C([H])([H])N([H])C([H])([H])[C@@]21[H]


 20 22  0  0  0  0  0  0  0  0999 V2000
   -0.8535   22.0959  -26.9762 C   0  0  0  0  0  0  0  0  0  0  0  0
   -2.1728   22.7781  -27.0517 C   0  0  0  0  0  0  0  0  0  0  0  0
   -2.5547   23.5333  -25.9650 C   0  0  0  0  0  0  0  0  0  0  0  0
   -3.7584   24.1855  -25.9745 C   0  0  0  0  0  0  0  0  0  0  0  0
   -4.5874   24.0721  -27.0967 C   0  0  0  0  0  0  0  0  0  0  0  0
   -4.2326   23.3287  -28.1913 C   0  0  0  0  0  0  0  0  0  0  0  0
   -3.0059   22.6787  -28.1535 C   0  0  0  0  0  0  0  0  0  0  0  0
   -5.7801   24.8508  -26.7613 C   0  0  0  0  0  0  0  0  0  0  0  0
   -6.7591   24.9954  -27.5148 O   0  0  0  0  0  0  0  0  0  0  0  0
   -5.6657   25.4065  -25.4811 N   0  0  0  0  0  0  0  0  0  0  0  0
   -6.5246   26.1872  -24.6267 C   0  0  0  0  0  0  0  0  0  0  0  0
   -6.5723   25.5848  -23.2241 C   0  0  0  0  0  0  0  0  0  0  0  0
   -5.2344   25.3961  -22.7630 N   0  0  0  0  0  0  0  0  0  0  0  0
   -4.4447   24.4907  -23.5813 C   0  0  0  0  0  0  0  0  0  0  0  0
   -4.3630   25.0578  -24.9626 C   0  0  0  0  0  0  0  0  0  0  0  0
   -5.1700   25.0884  -21.7746 H   0  0  0  0  0  0  0  0  0  0  0  0
   -5.1228   23.2327  -29.3685 C   0  0  0  0  0  0  0  0  0  0  0  0
   -5.2201   24.3698  -30.1084 F   0  0  0  0  0  0  0  0  0  0  0  0
   -6.3837   22.7581  -28.9791 F   0  0  0  0  0  0  0  0  0  0  0  0
   -4.6390   22.2408  -30.2350 F   0  0  0  0  0  0  0  0  0  0  0  0
  1  2  1  0  0  0
  2  3  2  0  0  0
  3  4  1  0  0  0
  4  5  2  0  0  0
  5  6  1  0  0  0
  6 17  1  0  0  0
 17 18  1  0  0  0
 17 19  1  0  0  0
 17 20  1  0  0  0
  6  7  2  0  0  0
  5  8  1  0  0  0
  8  9  2  0  0  0
  8 10  1  0  0  0
 10 11  1  0  0  0
 11 12  1  0  0  0
 12 13  1  0  0  0
 13 14  1  0  0  0
 14 15  1  0  0  0
  7  2  1  0  0  0
 15 10  1  0  0  0
 15  4  1  0  0  0
 13 16  1  0  0  0
M  END
> <minimizedAffinity>
-8.23294

> <CNNscore>
0.4614502192

> <CNNaffinity>
5.3825588226

> <CNN_VS>
2.4837830067

> <CNNaffinity_variance>
0.2525344193

$$$$
[H]c1c(C([H])([H])[H])c([H])c2c(c1C(F)(F)F)C(=O)N1C([H])([H])C([H])([H])N([H])C([H])([H])[C@@]21[H]


 20 22  0  0  0  0  0  0  0  0999 V2000
    0.6643   21.8396  -25.2791 C   0  0  0  0  0  0  0  0  0  0  0  0
   -0.7341   22.2584  -25.5632 C   0  0  0  0  0  0  0  0  0  0  0  0
   -1.6089   22.2959  -24.5000 C   0  0  0  0  0  0  0  0  0  0  0  0
   -2.9099   22.6734  -24.6978 C   0  0  0  0  0  0  0  0  0  0  0  0
   -3.3326   23.0165  -25.9874 C   0  0  0  0  0  0  0  0  0  0  0  0
   -2.4842   22.9889  -27.0627 C   0  0  0  0  0  0  0  0  0  0  0  0
   -1.1703   22.6025  -26.8317 C   0  0  0  0  0  0  0  0  0  0  0  0
   -4.7549   23.3296  -25.8444 C   0  0  0  0  0  0  0  0  0  0  0  0
   -5.4934   23.6840  -26.7803 O   0  0  0  0  0  0  0  0  0  0  0  0
   -5.1653   23.1751  -24.5145 N   0  0  0  0  0  0  0  0  0  0  0  0
   -6.4212   23.2791  -23.8152 C   0  0  0  0  0  0  0  0  0  0  0  0
   -6.6432   22.0532  -22.9317 C   0  0  0  0  0  0  0  0  0  0  0  0
   -5.4866   21.8630  -22.1167 N   0  0  0  0  0  0  0  0  0  0  0  0
   -4.2635   21.6243  -22.8652 C   0  0  0  0  0  0  0  0  0  0  0  0
   -4.0049   22.8145  -23.7328 C   0  0  0  0  0  0  0  0  0  0  0  0
   -5.5908   21.1134  -21.4075 H   0  0  0  0  0  0  0  0  0  0  0  0
   -2.9536   23.3653  -28.4137 C   0  0  0  0  0  0  0  0  0  0  0  0
   -3.5119   24.6023  -28.5031 F   0  0  0  0  0  0  0  0  0  0  0  0
   -3.8069   22.3736  -28.9187 F   0  0  0  0  0  0  0  0  0  0  0  0
   -1.8655   23.3608  -29.2997 F   0  0  0  0  0  0  0  0  0  0  0  0
  1  2  1  0  0  0
  2  3  2  0  0  0
  3  4  1  0  0  0
  4  5  2  0  0  0
  5  6  1  0  0  0
  6 17  1  0  0  0
 17 18  1  0  0  0
 17 19  1  0  0  0
 17 20  1  0  0  0
  6  7  2  0  0  0
  5  8  1  0  0  0
  8  9  2  0  0  0
  8 10  1  0  0  0
 10 11  1  0  0  0
 11 12  1  0  0  0
 12 13  1  0  0  0
 13 14  1  0  0  0
 14 15  1  0  0  0
  7  2  1  0  0  0
 15 10  1  0  0  0
 15  4  1  0  0  0
 13 16  1  0  0  0
M  END
> <minimizedAffinity>
-7.72119

> <CNNscore>
0.4478170872

> <CNNaffinity>
5.2002377510

> <CNN_VS>
2.3287553787

> <CNNaffinity_variance>
0.0524116047

$$$$
[H]c1c(C([H])([H])[H])c([H])c2c(c1C(F)(F)F)C(=O)N1C([H])([H])C([H])([H])N([H])C([H])([H])[C@@]21[H]


 20 22  0  0  0  0  0  0  0  0999 V2000
    1.7397   21.1181  -23.0501 C   0  0  0  0  0  0  0  0  0  0  0  0
    0.5230   21.6262  -23.7378 C   0  0  0  0  0  0  0  0  0  0  0  0
   -0.5486   21.9757  -22.9463 C   0  0  0  0  0  0  0  0  0  0  0  0
   -1.6974   22.4498  -23.5207 C   0  0  0  0  0  0  0  0  0  0  0  0
   -1.7642   22.5715  -24.9136 C   0  0  0  0  0  0  0  0  0  0  0  0
   -0.7137   22.2322  -25.7249 C   0  0  0  0  0  0  0  0  0  0  0  0
    0.4386   21.7545  -25.1141 C   0  0  0  0  0  0  0  0  0  0  0  0
   -3.1152   23.0655  -25.1820 C   0  0  0  0  0  0  0  0  0  0  0  0
   -3.5627   23.3049  -26.3175 O   0  0  0  0  0  0  0  0  0  0  0  0
   -3.8293   23.2294  -23.9886 N   0  0  0  0  0  0  0  0  0  0  0  0
   -5.1765   23.6132  -23.6498 C   0  0  0  0  0  0  0  0  0  0  0  0
   -5.7791   22.6236  -22.6547 C   0  0  0  0  0  0  0  0  0  0  0  0
   -4.8767   22.4723  -21.5588 N   0  0  0  0  0  0  0  0  0  0  0  0
   -3.5714   21.9512  -21.9299 C   0  0  0  0  0  0  0  0  0  0  0  0
   -2.9428   22.9052  -22.8948 C   0  0  0  0  0  0  0  0  0  0  0  0
   -5.2523   21.8976  -20.7813 H   0  0  0  0  0  0  0  0  0  0  0  0
   -0.8066   22.3791  -27.1936 C   0  0  0  0  0  0  0  0  0  0  0  0
   -0.9525   23.6575  -27.6342 F   0  0  0  0  0  0  0  0  0  0  0  0
   -1.8107   21.5395  -27.6972 F   0  0  0  0  0  0  0  0  0  0  0  0
    0.3703   21.8927  -27.7828 F   0  0  0  0  0  0  0  0  0  0  0  0
  1  2  1  0  0  0
  2  3  2  0  0  0
  3  4  1  0  0  0
  4  5  2  0  0  0
  5  6  1  0  0  0
  6 17  1  0  0  0
 17 18  1  0  0  0
 17 19  1  0  0  0
 17 20  1  0  0  0
  6  7  2  0  0  0
  5  8  1  0  0  0
  8  9  2  0  0  0
  8 10  1  0  0  0
 10 11  1  0  0  0
 11 12  1  0  0  0
 12 13  1  0  0  0
 13 14  1  0  0  0
 14 15  1  0  0  0
  7  2  1  0  0  0
 15 10  1  0  0  0
 15  4  1  0  0  0
 13 16  1  0  0  0
M  END
> <minimizedAffinity>
-6.93607

> <CNNscore>
0.4290788770

> <CNNaffinity>
4.9271197319

> <CNN_VS>
2.1141231060

> <CNNaffinity_variance>
0.0674963444

$$$$
[H]c1c(C([H])([H])[H])c([H])c2c(c1C(F)(F)F)C(=O)N1C([H])([H])C([H])([H])N([H])C([H])([H])[C@@]21[H]


 20 22  0  0  0  0  0  0  0  0999 V2000
   -4.3893   21.4620  -18.7740 C   0  0  0  0  0  0  0  0  0  0  0  0
   -5.0460   22.0234  -19.9844 C   0  0  0  0  0  0  0  0  0  0  0  0
   -5.9906   23.0068  -19.7899 C   0  0  0  0  0  0  0  0  0  0  0  0
   -6.6303   23.5629  -20.8651 C   0  0  0  0  0  0  0  0  0  0  0  0
   -6.3117   23.1186  -22.1537 C   0  0  0  0  0  0  0  0  0  0  0  0
   -5.3761   22.1430  -22.3764 C   0  0  0  0  0  0  0  0  0  0  0  0
   -4.7433   21.5975  -21.2669 C   0  0  0  0  0  0  0  0  0  0  0  0
   -7.1868   23.8853  -23.0412 C   0  0  0  0  0  0  0  0  0  0  0  0
   -7.2011   23.7752  -24.2800 O   0  0  0  0  0  0  0  0  0  0  0  0
   -8.0009   24.7547  -22.3048 N   0  0  0  0  0  0  0  0  0  0  0  0
   -9.0627   25.6753  -22.6246 C   0  0  0  0  0  0  0  0  0  0  0  0
  -10.2607   25.4486  -21.7048 C   0  0  0  0  0  0  0  0  0  0  0  0
   -9.8059   25.4629  -20.3516 N   0  0  0  0  0  0  0  0  0  0  0  0
   -8.8352   24.4270  -20.0387 C   0  0  0  0  0  0  0  0  0  0  0  0
   -7.6380   24.6271  -20.9122 C   0  0  0  0  0  0  0  0  0  0  0  0
  -10.5695   25.4217  -19.6510 H   0  0  0  0  0  0  0  0  0  0  0  0
   -5.0510   21.6978  -23.7488 C   0  0  0  0  0  0  0  0  0  0  0  0
   -4.6006   22.6773  -24.5781 F   0  0  0  0  0  0  0  0  0  0  0  0
   -6.1419   21.0115  -24.3017 F   0  0  0  0  0  0  0  0  0  0  0  0
   -4.0346   20.7321  -23.6937 F   0  0  0  0  0  0  0  0  0  0  0  0
  1  2  1  0  0  0
  2  3  2  0  0  0
  3  4  1  0  0  0
  4  5  2  0  0  0
  5  6  1  0  0  0
  6 17  1  0  0  0
 17 18  1  0  0  0
 17 19  1  0  0  0
 17 20  1  0  0  0
  6  7  2  0  0  0
  5  8  1  0  0  0
  8  9  2  0  0  0
  8 10  1  0  0  0
 10 11  1  0  0  0
 11 12  1  0  0  0
 12 13  1  0  0  0
 13 14  1  0  0  0
 14 15  1  0  0  0
  7  2  1  0  0  0
 15 10  1  0  0  0
 15  4  1  0  0  0
 13 16  1  0  0  0
M  END
> <minimizedAffinity>
-4.98949

> <CNNscore>
0.4263428152

> <CNNaffinity>
4.4833087921

> <CNN_VS>
1.9114265442

> <CNNaffinity_variance>
0.1799012274

$$$$
[H]c1c(C([H])([H])[H])c([H])c2c(c1C(F)(F)F)C(=O)N1C([H])([H])C([H])([H])N([H])C([H])([H])[C@@]21[H]


 20 22  0  0  0  0  0  0  0  0999 V2000
   -4.9702   23.3515  -28.0362 C   0  0  0  0  0  0  0  0  0  0  0  0
   -3.7657   22.9689  -27.2524 C   0  0  0  0  0  0  0  0  0  0  0  0
   -3.9705   22.4767  -25.9824 C   0  0  0  0  0  0  0  0  0  0  0  0
   -2.9012   22.1074  -25.2113 C   0  0  0  0  0  0  0  0  0  0  0  0
   -1.6078   22.2379  -25.7305 C   0  0  0  0  0  0  0  0  0  0  0  0
   -1.3749   22.7235  -26.9901 C   0  0  0  0  0  0  0  0  0  0  0  0
   -2.4787   23.0898  -27.7492 C   0  0  0  0  0  0  0  0  0  0  0  0
   -0.7247   21.7929  -24.6518 C   0  0  0  0  0  0  0  0  0  0  0  0
    0.5162   21.7592  -24.7291 O   0  0  0  0  0  0  0  0  0  0  0  0
   -1.4679   21.4129  -23.5275 N   0  0  0  0  0  0  0  0  0  0  0  0
   -1.1473   20.9670  -22.1950 C   0  0  0  0  0  0  0  0  0  0  0  0
   -1.9457   21.7580  -21.1609 C   0  0  0  0  0  0  0  0  0  0  0  0
   -3.3267   21.7147  -21.5204 N   0  0  0  0  0  0  0  0  0  0  0  0
   -3.6231   22.3013  -22.8170 C   0  0  0  0  0  0  0  0  0  0  0  0
   -2.8683   21.5399  -23.8596 C   0  0  0  0  0  0  0  0  0  0  0  0
   -3.9581   22.1380  -20.8149 H   0  0  0  0  0  0  0  0  0  0  0  0
    0.0013   22.8428  -27.5185 C   0  0  0  0  0  0  0  0  0  0  0  0
    0.6688   21.6653  -27.6517 F   0  0  0  0  0  0  0  0  0  0  0  0
    0.7293   23.7681  -26.7566 F   0  0  0  0  0  0  0  0  0  0  0  0
   -0.0424   23.4161  -28.7985 F   0  0  0  0  0  0  0  0  0  0  0  0
  1  2  1  0  0  0
  2  3  2  0  0  0
  3  4  1  0  0  0
  4  5  2  0  0  0
  5  6  1  0  0  0
  6 17  1  0  0  0
 17 18  1  0  0  0
 17 19  1  0  0  0
 17 20  1  0  0  0
  6  7  2  0  0  0
  5  8  1  0  0  0
  8  9  2  0  0  0
  8 10  1  0  0  0
 10 11  1  0  0  0
 11 12  1  0  0  0
 12 13  1  0  0  0
 13 14  1  0  0  0
 14 15  1  0  0  0
  7  2  1  0  0  0
 15 10  1  0  0  0
 15  4  1  0  0  0
 13 16  1  0  0  0
M  END
> <minimizedAffinity>
-8.34918

> <CNNscore>
0.3982650340

> <CNNaffinity>
4.9691767693

> <CNN_VS>
1.9790493250

> <CNNaffinity_variance>
0.1232202649

$$$$
[H]c1c(C([H])([H])[H])c([H])c2c(c1C(F)(F)F)C(=O)N1C([H])([H])C([H])([H])N([H])C([H])([H])[C@@]21[H]


 20 22  0  0  0  0  0  0  0  0999 V2000
   -0.0315   22.9625  -28.4044 C   0  0  0  0  0  0  0  0  0  0  0  0
   -0.5029   22.6088  -27.0390 C   0  0  0  0  0  0  0  0  0  0  0  0
    0.4569   22.4328  -26.0669 C   0  0  0  0  0  0  0  0  0  0  0  0
    0.0855   22.1060  -24.7903 C   0  0  0  0  0  0  0  0  0  0  0  0
   -1.2738   21.9542  -24.4926 C   0  0  0  0  0  0  0  0  0  0  0  0
   -2.2495   22.1239  -25.4392 C   0  0  0  0  0  0  0  0  0  0  0  0
   -1.8430   22.4554  -26.7252 C   0  0  0  0  0  0  0  0  0  0  0  0
   -1.3078   21.5803  -23.0782 C   0  0  0  0  0  0  0  0  0  0  0  0
   -2.3492   21.3571  -22.4358 O   0  0  0  0  0  0  0  0  0  0  0  0
   -0.0117   21.5094  -22.5528 N   0  0  0  0  0  0  0  0  0  0  0  0
    0.5549   21.1409  -21.2799 C   0  0  0  0  0  0  0  0  0  0  0  0
    1.7019   20.1510  -21.4728 C   0  0  0  0  0  0  0  0  0  0  0  0
    2.6126   20.6894  -22.4314 N   0  0  0  0  0  0  0  0  0  0  0  0
    2.0302   20.9170  -23.7437 C   0  0  0  0  0  0  0  0  0  0  0  0
    0.9099   21.8965  -23.5959 C   0  0  0  0  0  0  0  0  0  0  0  0
    3.4791   20.1314  -22.5474 H   0  0  0  0  0  0  0  0  0  0  0  0
   -3.6795   21.9668  -25.0964 C   0  0  0  0  0  0  0  0  0  0  0  0
   -4.1337   22.8091  -24.1299 F   0  0  0  0  0  0  0  0  0  0  0  0
   -3.9544   20.6268  -24.7872 F   0  0  0  0  0  0  0  0  0  0  0  0
   -4.4591   22.2196  -26.2354 F   0  0  0  0  0  0  0  0  0  0  0  0
  1  2  1  0  0  0
  2  3  2  0  0  0
  3  4  1  0  0  0
  4  5  2  0  0  0
  5  6  1  0  0  0
  6 17  1  0  0  0
 17 18  1  0  0  0
 17 19  1  0  0  0
 17 20  1  0  0  0
  6  7  2  0  0  0
  5  8  1  0  0  0
  8  9  2  0  0  0
  8 10  1  0  0  0
 10 11  1  0  0  0
 11 12  1  0  0  0
 12 13  1  0  0  0
 13 14  1  0  0  0
 14 15  1  0  0  0
  7  2  1  0  0  0
 15 10  1  0  0  0
 15  4  1  0  0  0
 13 16  1  0  0  0
M  END
> <minimizedAffinity>
-7.45126

> <CNNscore>
0.3717643917

> <CNNaffinity>
4.7695369720

> <CNN_VS>
1.7731440067

> <CNNaffinity_variance>
0.0852841288

$$$$
[H]c1c(C([H])([H])[H])c([H])c2c(c1C(F)(F)F)C(=O)N1C([H])([H])C([H])([H])N([H])C([H])([H])[C@@]21[H]


 20 22  0  0  0  0  0  0  0  0999 V2000
   -0.5153   22.5315  -27.4353 C   0  0  0  0  0  0  0  0  0  0  0  0
   -1.9551   22.8104  -27.1892 C   0  0  0  0  0  0  0  0  0  0  0  0
   -2.4036   22.7090  -25.8908 C   0  0  0  0  0  0  0  0  0  0  0  0
   -3.7190   22.9536  -25.6006 C   0  0  0  0  0  0  0  0  0  0  0  0
   -4.5928   23.3044  -26.6364 C   0  0  0  0  0  0  0  0  0  0  0  0
   -4.1740   23.4133  -27.9362 C   0  0  0  0  0  0  0  0  0  0  0  0
   -2.8343   23.1598  -28.2005 C   0  0  0  0  0  0  0  0  0  0  0  0
   -5.8969   23.4576  -25.9904 C   0  0  0  0  0  0  0  0  0  0  0  0
   -6.9430   23.7707  -26.5859 O   0  0  0  0  0  0  0  0  0  0  0  0
   -5.8026   23.2036  -24.6165 N   0  0  0  0  0  0  0  0  0  0  0  0
   -6.7394   23.1431  -23.5230 C   0  0  0  0  0  0  0  0  0  0  0  0
   -6.5337   21.8640  -22.7142 C   0  0  0  0  0  0  0  0  0  0  0  0
   -5.1537   21.7636  -22.3627 N   0  0  0  0  0  0  0  0  0  0  0  0
   -4.2531   21.6889  -23.5014 C   0  0  0  0  0  0  0  0  0  0  0  0
   -4.4161   22.9359  -24.3106 C   0  0  0  0  0  0  0  0  0  0  0  0
   -4.9395   20.9776  -21.7208 H   0  0  0  0  0  0  0  0  0  0  0  0
   -5.1157   23.7948  -29.0109 C   0  0  0  0  0  0  0  0  0  0  0  0
   -5.8082   24.9435  -28.7859 F   0  0  0  0  0  0  0  0  0  0  0  0
   -5.9711   22.7224  -29.3022 F   0  0  0  0  0  0  0  0  0  0  0  0
   -4.4021   23.9937  -30.2026 F   0  0  0  0  0  0  0  0  0  0  0  0
  1  2  1  0  0  0
  2  3  2  0  0  0
  3  4  1  0  0  0
  4  5  2  0  0  0
  5  6  1  0  0  0
  6 17  1  0  0  0
 17 18  1  0  0  0
 17 19  1  0  0  0
 17 20  1  0  0  0
  6  7  2  0  0  0
  5  8  1  0  0  0
  8  9  2  0  0  0
  8 10  1  0  0  0
 10 11  1  0  0  0
 11 12  1  0  0  0
 12 13  1  0  0  0
 13 14  1  0  0  0
 14 15  1  0  0  0
  7  2  1  0  0  0
 15 10  1  0  0  0
 15  4  1  0  0  0
 13 16  1  0  0  0
M  END
> <minimizedAffinity>
-7.92375

> <CNNscore>
0.3661217093

> <CNNaffinity>
5.1784262657

> <CNN_VS>
1.8959342241

> <CNNaffinity_variance>
0.1344653666

$$$$
[H]c1c(C([H])([H])[H])c([H])c2c(c1C(F)(F)F)C(=O)N1C([H])([H])C([H])([H])N([H])C([H])([H])[C@@]21[H]


 20 22  0  0  0  0  0  0  0  0999 V2000
   -6.2244   21.8828  -24.1870 C   0  0  0  0  0  0  0  0  0  0  0  0
   -4.7437   21.8395  -24.3188 C   0  0  0  0  0  0  0  0  0  0  0  0
   -4.0218   21.4834  -23.2010 C   0  0  0  0  0  0  0  0  0  0  0  0
   -2.6552   21.4257  -23.2593 C   0  0  0  0  0  0  0  0  0  0  0  0
   -2.0097   21.7327  -24.4628 C   0  0  0  0  0  0  0  0  0  0  0  0
   -2.7023   22.0889  -25.5898 C   0  0  0  0  0  0  0  0  0  0  0  0
   -4.0874   22.1387  -25.5009 C   0  0  0  0  0  0  0  0  0  0  0  0
   -0.5826   21.6051  -24.1654 C   0  0  0  0  0  0  0  0  0  0  0  0
    0.3269   21.7986  -24.9915 O   0  0  0  0  0  0  0  0  0  0  0  0
   -0.3856   21.2372  -22.8286 N   0  0  0  0  0  0  0  0  0  0  0  0
    0.7649   21.0341  -21.9848 C   0  0  0  0  0  0  0  0  0  0  0  0
    0.5977   21.7841  -20.6649 C   0  0  0  0  0  0  0  0  0  0  0  0
   -0.6646   21.4334  -20.0977 N   0  0  0  0  0  0  0  0  0  0  0  0
   -1.8071   21.7825  -20.9259 C   0  0  0  0  0  0  0  0  0  0  0  0
   -1.6852   21.0520  -22.2250 C   0  0  0  0  0  0  0  0  0  0  0  0
   -0.8183   21.8152  -19.1457 H   0  0  0  0  0  0  0  0  0  0  0  0
   -1.9965   22.3995  -26.8518 C   0  0  0  0  0  0  0  0  0  0  0  0
   -1.3150   21.3576  -27.3994 F   0  0  0  0  0  0  0  0  0  0  0  0
   -1.1748   23.5226  -26.6782 F   0  0  0  0  0  0  0  0  0  0  0  0
   -2.9305   22.8077  -27.8162 F   0  0  0  0  0  0  0  0  0  0  0  0
  1  2  1  0  0  0
  2  3  2  0  0  0
  3  4  1  0  0  0
  4  5  2  0  0  0
  5  6  1  0  0  0
  6 17  1  0  0  0
 17 18  1  0  0  0
 17 19  1  0  0  0
 17 20  1  0  0  0
  6  7  2  0  0  0
  5  8  1  0  0  0
  8  9  2  0  0  0
  8 10  1  0  0  0
 10 11  1  0  0  0
 11 12  1  0  0  0
 12 13  1  0  0  0
 13 14  1  0  0  0
 14 15  1  0  0  0
  7  2  1  0  0  0
 15 10  1  0  0  0
 15  4  1  0  0  0
 13 16  1  0  0  0
M  END
> <minimizedAffinity>
-6.42830

> <CNNscore>
0.3568439186

> <CNNaffinity>
4.7610201836

> <CNN_VS>
1.6989411116

> <CNNaffinity_variance>
0.1633863598

$$$$
[H]N=C1c2c([H])nc([H])nc2C([H])([H])[C@](c2c([H])c(-c3c([H])nc([H])c(Cl)c3[H])c([H])c([H])c2F)(C([H])([H])[H])N1[H]


 28 31  0  0  0  0  0  0  0  0999 V2000
   -3.8996   22.5016  -19.9733 C   0  0  0  0  0  0  0  0  0  0  0  0
   -3.9918   22.6297  -21.4635 C   0  0  0  0  0  0  0  0  0  0  0  0
   -5.1322   21.7583  -21.9298 C   0  0  0  0  0  0  0  0  0  0  0  0
   -6.4092   22.1955  -21.3339 C   0  0  0  0  0  0  0  0  0  0  0  0
   -7.3830   21.2916  -21.1046 N   0  0  0  0  0  0  0  0  0  0  0  0
   -8.5704   21.6360  -20.5765 C   0  0  0  0  0  0  0  0  0  0  0  0
   -8.7601   22.9326  -20.2790 N   0  0  0  0  0  0  0  0  0  0  0  0
   -7.8090   23.8785  -20.4917 C   0  0  0  0  0  0  0  0  0  0  0  0
   -6.6044   23.5197  -21.0288 C   0  0  0  0  0  0  0  0  0  0  0  0
   -5.5397   24.5192  -21.2598 C   0  0  0  0  0  0  0  0  0  0  0  0
   -5.6965   25.7467  -20.9932 N   0  0  0  0  0  0  0  0  0  0  0  0
   -4.3335   24.0047  -21.8062 N   0  0  0  0  0  0  0  0  0  0  0  0
   -6.4994   26.2414  -20.6077 H   0  0  0  0  0  0  0  0  0  0  0  0
   -3.7546   24.6193  -22.4166 H   0  0  0  0  0  0  0  0  0  0  0  0
   -2.7443   22.2003  -22.1465 C   0  0  0  0  0  0  0  0  0  0  0  0
   -2.4896   22.4811  -23.4706 C   0  0  0  0  0  0  0  0  0  0  0  0
   -1.3146   22.0645  -24.0910 C   0  0  0  0  0  0  0  0  0  0  0  0
   -0.4003   21.3547  -23.3368 C   0  0  0  0  0  0  0  0  0  0  0  0
   -0.6237   21.0517  -21.9928 C   0  0  0  0  0  0  0  0  0  0  0  0
   -1.8061   21.4900  -21.4303 C   0  0  0  0  0  0  0  0  0  0  0  0
   -2.0668   21.2167  -20.1182 F   0  0  0  0  0  0  0  0  0  0  0  0
   -1.0228   22.3477  -25.4898 C   0  0  0  0  0  0  0  0  0  0  0  0
    0.2823   22.3553  -25.9285 C   0  0  0  0  0  0  0  0  0  0  0  0
    0.5874   22.6184  -27.2252 N   0  0  0  0  0  0  0  0  0  0  0  0
   -0.3591   22.8843  -28.1489 C   0  0  0  0  0  0  0  0  0  0  0  0
   -1.6706   22.8850  -27.7467 C   0  0  0  0  0  0  0  0  0  0  0  0
   -2.9078   23.2276  -28.9279 Cl  0  0  0  0  0  0  0  0  0  0  0  0
   -2.0073   22.6170  -26.4175 C   0  0  0  0  0  0  0  0  0  0  0  0
  2  1  1  0  0  0
  2 15  1  0  0  0
 15 16  2  0  0  0
 16 17  1  0  0  0
 17 22  1  0  0  0
 22 23  2  0  0  0
 23 24  1  0  0  0
 24 25  2  0  0  0
 25 26  1  0  0  0
 26 27  1  0  0  0
 26 28  2  0  0  0
 17 18  2  0  0  0
 18 19  1  0  0  0
 19 20  2  0  0  0
 20 21  1  0  0  0
  2  3  1  0  0  0
  3  4  1  0  0  0
  4  5  2  0  0  0
  5  6  1  0  0  0
  6  7  2  0  0  0
  7  8  1  0  0  0
  8  9  2  0  0  0
  9 10  1  0  0  0
 10 11  2  0  0  0
 10 12  1  0  0  0
 12  2  1  0  0  0
 20 15  1  0  0  0
  9  4  1  0  0  0
 28 22  1  0  0  0
 11 13  1  0  0  0
 12 14  1  0  0  0
M  END
> <minimizedAffinity>
-8.67973

> <CNNscore>
0.4776450694

> <CNNaffinity>
6.5978140831

> <CNN_VS>
3.1514134407

> <CNNaffinity_variance>
0.3030708432

$$$$
[H]N=C1c2c([H])nc([H])nc2C([H])([H])[C@](c2c([H])c(-c3c([H])nc([H])c(Cl)c3[H])c([H])c([H])c2F)(C([H])([H])[H])N1[H]


 28 31  0  0  0  0  0  0  0  0999 V2000
   -5.9596   26.4445  -24.4393 C   0  0  0  0  0  0  0  0  0  0  0  0
   -6.0971   24.9529  -24.4845 C   0  0  0  0  0  0  0  0  0  0  0  0
   -5.5870   24.4047  -23.1743 C   0  0  0  0  0  0  0  0  0  0  0  0
   -6.3778   24.9221  -22.0412 C   0  0  0  0  0  0  0  0  0  0  0  0
   -5.7941   25.0783  -20.8359 N   0  0  0  0  0  0  0  0  0  0  0  0
   -6.4697   25.5329  -19.7661 C   0  0  0  0  0  0  0  0  0  0  0  0
   -7.7684   25.8320  -19.9385 N   0  0  0  0  0  0  0  0  0  0  0  0
   -8.3989   25.6913  -21.1331 C   0  0  0  0  0  0  0  0  0  0  0  0
   -7.7045   25.2288  -22.2158 C   0  0  0  0  0  0  0  0  0  0  0  0
   -8.3536   25.0778  -23.5356 C   0  0  0  0  0  0  0  0  0  0  0  0
   -9.5764   25.3474  -23.7215 N   0  0  0  0  0  0  0  0  0  0  0  0
   -7.5095   24.6043  -24.5756 N   0  0  0  0  0  0  0  0  0  0  0  0
  -10.2841   25.6861  -23.0716 H   0  0  0  0  0  0  0  0  0  0  0  0
   -7.9267   24.0393  -25.3450 H   0  0  0  0  0  0  0  0  0  0  0  0
   -5.3215   24.3468  -25.5972 C   0  0  0  0  0  0  0  0  0  0  0  0
   -4.0390   23.8718  -25.4344 C   0  0  0  0  0  0  0  0  0  0  0  0
   -3.3296   23.3112  -26.4934 C   0  0  0  0  0  0  0  0  0  0  0  0
   -3.9512   23.2423  -27.7253 C   0  0  0  0  0  0  0  0  0  0  0  0
   -5.2494   23.7130  -27.9280 C   0  0  0  0  0  0  0  0  0  0  0  0
   -5.9047   24.2589  -26.8422 C   0  0  0  0  0  0  0  0  0  0  0  0
   -7.1766   24.7318  -26.9941 F   0  0  0  0  0  0  0  0  0  0  0  0
   -1.9721   22.8034  -26.3471 C   0  0  0  0  0  0  0  0  0  0  0  0
   -1.1810   22.6344  -27.4612 C   0  0  0  0  0  0  0  0  0  0  0  0
    0.0872   22.1605  -27.3587 N   0  0  0  0  0  0  0  0  0  0  0  0
    0.6403   21.8316  -26.1730 C   0  0  0  0  0  0  0  0  0  0  0  0
   -0.1196   21.9876  -25.0415 C   0  0  0  0  0  0  0  0  0  0  0  0
    0.5794   21.5666  -23.4996 Cl  0  0  0  0  0  0  0  0  0  0  0  0
   -1.4269   22.4735  -25.1239 C   0  0  0  0  0  0  0  0  0  0  0  0
  2  1  1  0  0  0
  2 15  1  0  0  0
 15 16  2  0  0  0
 16 17  1  0  0  0
 17 22  1  0  0  0
 22 23  2  0  0  0
 23 24  1  0  0  0
 24 25  2  0  0  0
 25 26  1  0  0  0
 26 27  1  0  0  0
 26 28  2  0  0  0
 17 18  2  0  0  0
 18 19  1  0  0  0
 19 20  2  0  0  0
 20 21  1  0  0  0
  2  3  1  0  0  0
  3  4  1  0  0  0
  4  5  2  0  0  0
  5  6  1  0  0  0
  6  7  2  0  0  0
  7  8  1  0  0  0
  8  9  2  0  0  0
  9 10  1  0  0  0
 10 11  2  0  0  0
 10 12  1  0  0  0
 12  2  1  0  0  0
 20 15  1  0  0  0
  9  4  1  0  0  0
 28 22  1  0  0  0
 11 13  1  0  0  0
 12 14  1  0  0  0
M  END
> <minimizedAffinity>
-9.57348

> <CNNscore>
0.3496708870

> <CNNaffinity>
6.6567101479

> <CNN_VS>
2.3276576996

> <CNNaffinity_variance>
0.3435186148

$$$$
[H]N=C1c2c([H])nc([H])nc2C([H])([H])[C@](c2c([H])c(-c3c([H])nc([H])c(Cl)c3[H])c([H])c([H])c2F)(C([H])([H])[H])N1[H]


 28 31  0  0  0  0  0  0  0  0999 V2000
   -2.7681   23.5867  -28.5397 C   0  0  0  0  0  0  0  0  0  0  0  0
   -4.0537   23.3171  -27.8185 C   0  0  0  0  0  0  0  0  0  0  0  0
   -4.8526   24.5974  -27.8095 C   0  0  0  0  0  0  0  0  0  0  0  0
   -5.1603   25.0380  -29.1836 C   0  0  0  0  0  0  0  0  0  0  0  0
   -5.2982   26.3529  -29.4479 N   0  0  0  0  0  0  0  0  0  0  0  0
   -5.5914   26.8096  -30.6780 C   0  0  0  0  0  0  0  0  0  0  0  0
   -5.7455   25.8983  -31.6535 N   0  0  0  0  0  0  0  0  0  0  0  0
   -5.6158   24.5642  -31.4351 C   0  0  0  0  0  0  0  0  0  0  0  0
   -5.3174   24.1083  -30.1815 C   0  0  0  0  0  0  0  0  0  0  0  0
   -5.1531   22.6644  -29.9096 C   0  0  0  0  0  0  0  0  0  0  0  0
   -5.2988   21.7869  -30.8103 N   0  0  0  0  0  0  0  0  0  0  0  0
   -4.8262   22.3337  -28.5672 N   0  0  0  0  0  0  0  0  0  0  0  0
   -5.5330   21.8857  -31.7969 H   0  0  0  0  0  0  0  0  0  0  0  0
   -5.1455   21.4201  -28.1816 H   0  0  0  0  0  0  0  0  0  0  0  0
   -3.8342   22.8740  -26.4176 C   0  0  0  0  0  0  0  0  0  0  0  0
   -2.5840   22.5799  -25.9202 C   0  0  0  0  0  0  0  0  0  0  0  0
   -2.4029   22.1622  -24.6042 C   0  0  0  0  0  0  0  0  0  0  0  0
   -3.5211   22.0490  -23.8008 C   0  0  0  0  0  0  0  0  0  0  0  0
   -4.8034   22.3384  -24.2697 C   0  0  0  0  0  0  0  0  0  0  0  0
   -4.9229   22.7480  -25.5829 C   0  0  0  0  0  0  0  0  0  0  0  0
   -6.1583   23.0423  -26.0844 F   0  0  0  0  0  0  0  0  0  0  0  0
   -1.0916   21.8439  -24.0553 C   0  0  0  0  0  0  0  0  0  0  0  0
    0.0261   21.9417  -24.8533 C   0  0  0  0  0  0  0  0  0  0  0  0
    1.2619   21.6494  -24.3725 N   0  0  0  0  0  0  0  0  0  0  0  0
    1.4646   21.2511  -23.0997 C   0  0  0  0  0  0  0  0  0  0  0  0
    0.3728   21.1428  -22.2762 C   0  0  0  0  0  0  0  0  0  0  0  0
    0.6164   20.6282  -20.6271 Cl  0  0  0  0  0  0  0  0  0  0  0  0
   -0.9078   21.4384  -22.7499 C   0  0  0  0  0  0  0  0  0  0  0  0
  2  1  1  0  0  0
  2 15  1  0  0  0
 15 16  2  0  0  0
 16 17  1  0  0  0
 17 22  1  0  0  0
 22 23  2  0  0  0
 23 24  1  0  0  0
 24 25  2  0  0  0
 25 26  1  0  0  0
 26 27  1  0  0  0
 26 28  2  0  0  0
 17 18  2  0  0  0
 18 19  1  0  0  0
 19 20  2  0  0  0
 20 21  1  0  0  0
  2  3  1  0  0  0
  3  4  1  0  0  0
  4  5  2  0  0  0
  5  6  1  0  0  0
  6  7  2  0  0  0
  7  8  1  0  0  0
  8  9  2  0  0  0
  9 10  1  0  0  0
 10 11  2  0  0  0
 10 12  1  0  0  0
 12  2  1  0  0  0
 20 15  1  0  0  0
  9  4  1  0  0  0
 28 22  1  0  0  0
 11 13  1  0  0  0
 12 14  1  0  0  0
M  END
> <minimizedAffinity>
-8.15824

> <CNNscore>
0.2168802917

> <CNNaffinity>
6.8424134254

> <CNN_VS>
1.4839845896

> <CNNaffinity_variance>
0.3630307317

$$$$
[H]N=C1c2c([H])nc([H])nc2C([H])([H])[C@](c2c([H])c(-c3c([H])nc([H])c(Cl)c3[H])c([H])c([H])c2F)(C([H])([H])[H])N1[H]


 28 31  0  0  0  0  0  0  0  0999 V2000
   -6.2779   22.1566  -21.2555 C   0  0  0  0  0  0  0  0  0  0  0  0
   -5.2994   23.2097  -21.6788 C   0  0  0  0  0  0  0  0  0  0  0  0
   -5.8919   23.9391  -22.8597 C   0  0  0  0  0  0  0  0  0  0  0  0
   -7.1645   24.5902  -22.4944 C   0  0  0  0  0  0  0  0  0  0  0  0
   -8.1223   24.7552  -23.4289 N   0  0  0  0  0  0  0  0  0  0  0  0
   -9.2949   25.3533  -23.1553 C   0  0  0  0  0  0  0  0  0  0  0  0
   -9.4862   25.7894  -21.8988 N   0  0  0  0  0  0  0  0  0  0  0  0
   -8.5511   25.6453  -20.9244 C   0  0  0  0  0  0  0  0  0  0  0  0
   -7.3617   25.0359  -21.2110 C   0  0  0  0  0  0  0  0  0  0  0  0
   -6.3269   24.8473  -20.1721 C   0  0  0  0  0  0  0  0  0  0  0  0
   -6.4813   25.2544  -18.9834 N   0  0  0  0  0  0  0  0  0  0  0  0
   -5.1479   24.1830  -20.6044 N   0  0  0  0  0  0  0  0  0  0  0  0
   -7.2636   25.7411  -18.5485 H   0  0  0  0  0  0  0  0  0  0  0  0
   -4.2421   24.4141  -20.1445 H   0  0  0  0  0  0  0  0  0  0  0  0
   -3.9868   22.6365  -22.0733 C   0  0  0  0  0  0  0  0  0  0  0  0
   -3.4695   22.7730  -23.3424 C   0  0  0  0  0  0  0  0  0  0  0  0
   -2.2383   22.2233  -23.6906 C   0  0  0  0  0  0  0  0  0  0  0  0
   -1.5408   21.5300  -22.7203 C   0  0  0  0  0  0  0  0  0  0  0  0
   -2.0331   21.3713  -21.4240 C   0  0  0  0  0  0  0  0  0  0  0  0
   -3.2589   21.9375  -21.1356 C   0  0  0  0  0  0  0  0  0  0  0  0
   -3.7793   21.8078  -19.8799 F   0  0  0  0  0  0  0  0  0  0  0  0
   -1.6706   22.3526  -25.0259 C   0  0  0  0  0  0  0  0  0  0  0  0
   -0.3250   22.1363  -25.2211 C   0  0  0  0  0  0  0  0  0  0  0  0
    0.2351   22.2516  -26.4526 N   0  0  0  0  0  0  0  0  0  0  0  0
   -0.4857   22.5808  -27.5444 C   0  0  0  0  0  0  0  0  0  0  0  0
   -1.8301   22.8035  -27.3865 C   0  0  0  0  0  0  0  0  0  0  0  0
   -2.7775   23.2309  -28.7877 Cl  0  0  0  0  0  0  0  0  0  0  0  0
   -2.4271   22.6903  -26.1285 C   0  0  0  0  0  0  0  0  0  0  0  0
  2  1  1  0  0  0
  2 15  1  0  0  0
 15 16  2  0  0  0
 16 17  1  0  0  0
 17 22  1  0  0  0
 22 23  2  0  0  0
 23 24  1  0  0  0
 24 25  2  0  0  0
 25 26  1  0  0  0
 26 27  1  0  0  0
 26 28  2  0  0  0
 17 18  2  0  0  0
 18 19  1  0  0  0
 19 20  2  0  0  0
 20 21  1  0  0  0
  2  3  1  0  0  0
  3  4  1  0  0  0
  4  5  2  0  0  0
  5  6  1  0  0  0
  6  7  2  0  0  0
  7  8  1  0  0  0
  8  9  2  0  0  0
  9 10  1  0  0  0
 10 11  2  0  0  0
 10 12  1  0  0  0
 12  2  1  0  0  0
 20 15  1  0  0  0
  9  4  1  0  0  0
 28 22  1  0  0  0
 11 13  1  0  0  0
 12 14  1  0  0  0
M  END
> <minimizedAffinity>
-7.71259

> <CNNscore>
0.2004055381

> <CNNaffinity>
6.2830057144

> <CNN_VS>
1.2591491938

> <CNNaffinity_variance>
0.4732527733

$$$$
[H]N=C1c2c([H])nc([H])nc2C([H])([H])[C@](c2c([H])c(-c3c([H])nc([H])c(Cl)c3[H])c([H])c([H])c2F)(C([H])([H])[H])N1[H]


 28 31  0  0  0  0  0  0  0  0999 V2000
   -4.4313   23.6646  -22.9378 C   0  0  0  0  0  0  0  0  0  0  0  0
   -5.3823   23.5781  -24.0927 C   0  0  0  0  0  0  0  0  0  0  0  0
   -6.2935   22.3997  -23.8502 C   0  0  0  0  0  0  0  0  0  0  0  0
   -7.0682   22.5778  -22.6071 C   0  0  0  0  0  0  0  0  0  0  0  0
   -7.4468   21.4968  -21.8959 N   0  0  0  0  0  0  0  0  0  0  0  0
   -8.1649   21.5994  -20.7639 C   0  0  0  0  0  0  0  0  0  0  0  0
   -8.4995   22.8352  -20.3560 N   0  0  0  0  0  0  0  0  0  0  0  0
   -8.1406   23.9530  -21.0388 C   0  0  0  0  0  0  0  0  0  0  0  0
   -7.4104   23.8397  -22.1887 C   0  0  0  0  0  0  0  0  0  0  0  0
   -6.9883   25.0349  -22.9498 C   0  0  0  0  0  0  0  0  0  0  0  0
   -7.2960   26.2086  -22.5890 N   0  0  0  0  0  0  0  0  0  0  0  0
   -6.2193   24.7712  -24.1149 N   0  0  0  0  0  0  0  0  0  0  0  0
   -7.8372   26.5331  -21.7891 H   0  0  0  0  0  0  0  0  0  0  0  0
   -6.2840   25.4287  -24.9204 H   0  0  0  0  0  0  0  0  0  0  0  0
   -4.6820   23.3892  -25.3892 C   0  0  0  0  0  0  0  0  0  0  0  0
   -5.0850   24.0159  -26.5476 C   0  0  0  0  0  0  0  0  0  0  0  0
   -4.4153   23.8204  -27.7528 C   0  0  0  0  0  0  0  0  0  0  0  0
   -3.3243   22.9729  -27.7576 C   0  0  0  0  0  0  0  0  0  0  0  0
   -2.8868   22.3208  -26.6037 C   0  0  0  0  0  0  0  0  0  0  0  0
   -3.5892   22.5520  -25.4377 C   0  0  0  0  0  0  0  0  0  0  0  0
   -3.1966   21.9355  -24.2843 F   0  0  0  0  0  0  0  0  0  0  0  0
   -4.8226   24.4703  -28.9913 C   0  0  0  0  0  0  0  0  0  0  0  0
   -4.6052   25.8194  -29.1596 C   0  0  0  0  0  0  0  0  0  0  0  0
   -4.9758   26.4550  -30.3008 N   0  0  0  0  0  0  0  0  0  0  0  0
   -5.5714   25.8095  -31.3247 C   0  0  0  0  0  0  0  0  0  0  0  0
   -5.8034   24.4641  -31.1911 C   0  0  0  0  0  0  0  0  0  0  0  0
   -6.5735   23.6134  -32.5053 Cl  0  0  0  0  0  0  0  0  0  0  0  0
   -5.4304   23.7900  -30.0257 C   0  0  0  0  0  0  0  0  0  0  0  0
  2  1  1  0  0  0
  2 15  1  0  0  0
 15 16  2  0  0  0
 16 17  1  0  0  0
 17 22  1  0  0  0
 22 23  2  0  0  0
 23 24  1  0  0  0
 24 25  2  0  0  0
 25 26  1  0  0  0
 26 27  1  0  0  0
 26 28  2  0  0  0
 17 18  2  0  0  0
 18 19  1  0  0  0
 19 20  2  0  0  0
 20 21  1  0  0  0
  2  3  1  0  0  0
  3  4  1  0  0  0
  4  5  2  0  0  0
  5  6  1  0  0  0
  6  7  2  0  0  0
  7  8  1  0  0  0
  8  9  2  0  0  0
  9 10  1  0  0  0
 10 11  2  0  0  0
 10 12  1  0  0  0
 12  2  1  0  0  0
 20 15  1  0  0  0
  9  4  1  0  0  0
 28 22  1  0  0  0
 11 13  1  0  0  0
 12 14  1  0  0  0
M  END
> <minimizedAffinity>
-9.78635

> <CNNscore>
0.1975197792

> <CNNaffinity>
6.4219055176

> <CNN_VS>
1.2684533596

> <CNNaffinity_variance>
0.0853816941

$$$$
[H]N=C1c2c([H])nc([H])nc2C([H])([H])[C@](c2c([H])c(-c3c([H])nc([H])c(Cl)c3[H])c([H])c([H])c2F)(C([H])([H])[H])N1[H]


 28 31  0  0  0  0  0  0  0  0999 V2000
   -0.4850   23.3651  -22.9684 C   0  0  0  0  0  0  0  0  0  0  0  0
   -0.7562   22.1365  -23.7823 C   0  0  0  0  0  0  0  0  0  0  0  0
    0.5730   21.5803  -24.2313 C   0  0  0  0  0  0  0  0  0  0  0  0
    1.4091   21.2099  -23.0733 C   0  0  0  0  0  0  0  0  0  0  0  0
    2.7522   21.2775  -23.1710 N   0  0  0  0  0  0  0  0  0  0  0  0
    3.5624   20.9396  -22.1527 C   0  0  0  0  0  0  0  0  0  0  0  0
    2.9817   20.5249  -21.0141 N   0  0  0  0  0  0  0  0  0  0  0  0
    1.6340   20.4409  -20.8690 C   0  0  0  0  0  0  0  0  0  0  0  0
    0.8174   20.7866  -21.9092 C   0  0  0  0  0  0  0  0  0  0  0  0
   -0.6543   20.7230  -21.7825 C   0  0  0  0  0  0  0  0  0  0  0  0
   -1.2244   20.3304  -20.7226 N   0  0  0  0  0  0  0  0  0  0  0  0
   -1.3800   21.1280  -22.9348 N   0  0  0  0  0  0  0  0  0  0  0  0
   -0.8293   20.0133  -19.8388 H   0  0  0  0  0  0  0  0  0  0  0  0
   -2.3094   20.6963  -23.1221 H   0  0  0  0  0  0  0  0  0  0  0  0
   -1.5895   22.4228  -24.9784 C   0  0  0  0  0  0  0  0  0  0  0  0
   -2.8890   22.8701  -24.8868 C   0  0  0  0  0  0  0  0  0  0  0  0
   -3.6527   23.1280  -26.0223 C   0  0  0  0  0  0  0  0  0  0  0  0
   -3.0679   22.9220  -27.2568 C   0  0  0  0  0  0  0  0  0  0  0  0
   -1.7541   22.4699  -27.3888 C   0  0  0  0  0  0  0  0  0  0  0  0
   -1.0445   22.2305  -26.2288 C   0  0  0  0  0  0  0  0  0  0  0  0
    0.2445   21.7875  -26.3100 F   0  0  0  0  0  0  0  0  0  0  0  0
   -5.0290   23.6000  -25.9517 C   0  0  0  0  0  0  0  0  0  0  0  0
   -5.7486   23.7864  -27.1106 C   0  0  0  0  0  0  0  0  0  0  0  0
   -7.0322   24.2279  -27.0788 N   0  0  0  0  0  0  0  0  0  0  0  0
   -7.6704   24.5064  -25.9233 C   0  0  0  0  0  0  0  0  0  0  0  0
   -6.9833   24.3318  -24.7489 C   0  0  0  0  0  0  0  0  0  0  0  0
   -7.7929   24.6878  -23.2451 Cl  0  0  0  0  0  0  0  0  0  0  0  0
   -5.6618   23.8785  -24.7583 C   0  0  0  0  0  0  0  0  0  0  0  0
  2  1  1  0  0  0
  2 15  1  0  0  0
 15 16  2  0  0  0
 16 17  1  0  0  0
 17 22  1  0  0  0
 22 23  2  0  0  0
 23 24  1  0  0  0
 24 25  2  0  0  0
 25 26  1  0  0  0
 26 27  1  0  0  0
 26 28  2  0  0  0
 17 18  2  0  0  0
 18 19  1  0  0  0
 19 20  2  0  0  0
 20 21  1  0  0  0
  2  3  1  0  0  0
  3  4  1  0  0  0
  4  5  2  0  0  0
  5  6  1  0  0  0
  6  7  2  0  0  0
  7  8  1  0  0  0
  8  9  2  0  0  0
  9 10  1  0  0  0
 10 11  2  0  0  0
 10 12  1  0  0  0
 12  2  1  0  0  0
 20 15  1  0  0  0
  9  4  1  0  0  0
 28 22  1  0  0  0
 11 13  1  0  0  0
 12 14  1  0  0  0
M  END
> <minimizedAffinity>
-8.46160

> <CNNscore>
0.1954582334

> <CNNaffinity>
6.2558326721

> <CNN_VS>
1.2227540016

> <CNNaffinity_variance>
0.1763501614

$$$$
[H]N=C1c2c([H])nc([H])nc2C([H])([H])[C@](c2c([H])c(-c3c([H])nc([H])c(Cl)c3[H])c([H])c([H])c2F)(C([H])([H])[H])N1[H]


 28 31  0  0  0  0  0  0  0  0999 V2000
   -2.2658   24.0411  -22.6628 C   0  0  0  0  0  0  0  0  0  0  0  0
   -2.9273   22.8649  -23.3144 C   0  0  0  0  0  0  0  0  0  0  0  0
   -1.9658   22.3031  -24.3328 C   0  0  0  0  0  0  0  0  0  0  0  0
   -0.7177   21.8514  -23.6883 C   0  0  0  0  0  0  0  0  0  0  0  0
    0.4414   21.8929  -24.3757 N   0  0  0  0  0  0  0  0  0  0  0  0
    1.6054   21.4817  -23.8431 C   0  0  0  0  0  0  0  0  0  0  0  0
    1.5771   21.0196  -22.5816 N   0  0  0  0  0  0  0  0  0  0  0  0
    0.4342   20.9593  -21.8504 C   0  0  0  0  0  0  0  0  0  0  0  0
   -0.7448   21.3796  -22.3994 C   0  0  0  0  0  0  0  0  0  0  0  0
   -2.0057   21.3434  -21.6282 C   0  0  0  0  0  0  0  0  0  0  0  0
   -2.0587   20.9074  -20.4409 N   0  0  0  0  0  0  0  0  0  0  0  0
   -3.1510   21.8268  -22.3159 N   0  0  0  0  0  0  0  0  0  0  0  0
   -1.3248   20.5339  -19.8412 H   0  0  0  0  0  0  0  0  0  0  0  0
   -4.0844   21.4276  -22.0823 H   0  0  0  0  0  0  0  0  0  0  0  0
   -4.1938   23.2348  -23.9974 C   0  0  0  0  0  0  0  0  0  0  0  0
   -4.2400   23.6073  -25.3225 C   0  0  0  0  0  0  0  0  0  0  0  0
   -5.4387   23.9540  -25.9407 C   0  0  0  0  0  0  0  0  0  0  0  0
   -6.5934   23.9144  -25.1832 C   0  0  0  0  0  0  0  0  0  0  0  0
   -6.5854   23.5419  -23.8381 C   0  0  0  0  0  0  0  0  0  0  0  0
   -5.3682   23.2086  -23.2779 C   0  0  0  0  0  0  0  0  0  0  0  0
   -5.3129   22.8375  -21.9650 F   0  0  0  0  0  0  0  0  0  0  0  0
   -5.5135   24.3526  -27.3398 C   0  0  0  0  0  0  0  0  0  0  0  0
   -5.6635   25.6820  -27.6653 C   0  0  0  0  0  0  0  0  0  0  0  0
   -5.7393   26.0855  -28.9595 N   0  0  0  0  0  0  0  0  0  0  0  0
   -5.6726   25.2179  -29.9903 C   0  0  0  0  0  0  0  0  0  0  0  0
   -5.5230   23.8849  -29.7025 C   0  0  0  0  0  0  0  0  0  0  0  0
   -5.4357   22.7485  -31.0234 Cl  0  0  0  0  0  0  0  0  0  0  0  0
   -5.4429   23.4476  -28.3781 C   0  0  0  0  0  0  0  0  0  0  0  0
  2  1  1  0  0  0
  2 15  1  0  0  0
 15 16  2  0  0  0
 16 17  1  0  0  0
 17 22  1  0  0  0
 22 23  2  0  0  0
 23 24  1  0  0  0
 24 25  2  0  0  0
 25 26  1  0  0  0
 26 27  1  0  0  0
 26 28  2  0  0  0
 17 18  2  0  0  0
 18 19  1  0  0  0
 19 20  2  0  0  0
 20 21  1  0  0  0
  2  3  1  0  0  0
  3  4  1  0  0  0
  4  5  2  0  0  0
  5  6  1  0  0  0
  6  7  2  0  0  0
  7  8  1  0  0  0
  8  9  2  0  0  0
  9 10  1  0  0  0
 10 11  2  0  0  0
 10 12  1  0  0  0
 12  2  1  0  0  0
 20 15  1  0  0  0
  9  4  1  0  0  0
 28 22  1  0  0  0
 11 13  1  0  0  0
 12 14  1  0  0  0
M  END
> <minimizedAffinity>
-8.61813

> <CNNscore>
0.1869239807

> <CNNaffinity>
6.6491174698

> <CNN_VS>
1.2428795099

> <CNNaffinity_variance>
0.4666996896

$$$$
[H]N=C1c2c([H])nc([H])nc2C([H])([H])[C@](c2c([H])c(-c3c([H])nc([H])c(Cl)c3[H])c([H])c([H])c2F)(C([H])([H])[H])N1[H]


 28 31  0  0  0  0  0  0  0  0999 V2000
   -6.1243   21.6741  -23.9449 C   0  0  0  0  0  0  0  0  0  0  0  0
   -5.7267   22.9723  -23.3108 C   0  0  0  0  0  0  0  0  0  0  0  0
   -6.9110   23.4823  -22.5267 C   0  0  0  0  0  0  0  0  0  0  0  0
   -7.2916   22.5304  -21.4655 C   0  0  0  0  0  0  0  0  0  0  0  0
   -8.5786   22.4491  -21.0719 N   0  0  0  0  0  0  0  0  0  0  0  0
   -8.9793   21.6098  -20.1011 C   0  0  0  0  0  0  0  0  0  0  0  0
   -8.0403   20.8406  -19.5247 N   0  0  0  0  0  0  0  0  0  0  0  0
   -6.7325   20.8874  -19.8879 C   0  0  0  0  0  0  0  0  0  0  0  0
   -6.3336   21.7434  -20.8760 C   0  0  0  0  0  0  0  0  0  0  0  0
   -4.9214   21.8104  -21.3086 C   0  0  0  0  0  0  0  0  0  0  0  0
   -4.0181   21.1004  -20.7772 N   0  0  0  0  0  0  0  0  0  0  0  0
   -4.6515   22.7304  -22.3569 N   0  0  0  0  0  0  0  0  0  0  0  0
   -4.0738   20.4141  -20.0264 H   0  0  0  0  0  0  0  0  0  0  0  0
   -3.7149   23.1846  -22.3996 H   0  0  0  0  0  0  0  0  0  0  0  0
   -5.3343   23.9952  -24.3143 C   0  0  0  0  0  0  0  0  0  0  0  0
   -5.5091   23.8110  -25.6680 C   0  0  0  0  0  0  0  0  0  0  0  0
   -5.1296   24.7826  -26.5906 C   0  0  0  0  0  0  0  0  0  0  0  0
   -4.5673   25.9489  -26.1089 C   0  0  0  0  0  0  0  0  0  0  0  0
   -4.3748   26.1709  -24.7444 C   0  0  0  0  0  0  0  0  0  0  0  0
   -4.7698   25.1728  -23.8759 C   0  0  0  0  0  0  0  0  0  0  0  0
   -4.6009   25.3469  -22.5322 F   0  0  0  0  0  0  0  0  0  0  0  0
   -5.3026   24.6110  -28.0268 C   0  0  0  0  0  0  0  0  0  0  0  0
   -5.3504   23.3440  -28.5636 C   0  0  0  0  0  0  0  0  0  0  0  0
   -5.5078   23.1506  -29.8983 N   0  0  0  0  0  0  0  0  0  0  0  0
   -5.6255   24.1764  -30.7665 C   0  0  0  0  0  0  0  0  0  0  0  0
   -5.5823   25.4529  -30.2661 C   0  0  0  0  0  0  0  0  0  0  0  0
   -5.7323   26.7916  -31.3747 Cl  0  0  0  0  0  0  0  0  0  0  0  0
   -5.4210   25.6751  -28.8962 C   0  0  0  0  0  0  0  0  0  0  0  0
  2  1  1  0  0  0
  2 15  1  0  0  0
 15 16  2  0  0  0
 16 17  1  0  0  0
 17 22  1  0  0  0
 22 23  2  0  0  0
 23 24  1  0  0  0
 24 25  2  0  0  0
 25 26  1  0  0  0
 26 27  1  0  0  0
 26 28  2  0  0  0
 17 18  2  0  0  0
 18 19  1  0  0  0
 19 20  2  0  0  0
 20 21  1  0  0  0
  2  3  1  0  0  0
  3  4  1  0  0  0
  4  5  2  0  0  0
  5  6  1  0  0  0
  6  7  2  0  0  0
  7  8  1  0  0  0
  8  9  2  0  0  0
  9 10  1  0  0  0
 10 11  2  0  0  0
 10 12  1  0  0  0
 12  2  1  0  0  0
 20 15  1  0  0  0
  9  4  1  0  0  0
 28 22  1  0  0  0
 11 13  1  0  0  0
 12 14  1  0  0  0
M  END
> <minimizedAffinity>
-9.08802

> <CNNscore>
0.1771108955

> <CNNaffinity>
6.0956039429

> <CNN_VS>
1.0795978308

> <CNNaffinity_variance>
0.1160303503

$$$$
[H]N=C1c2c([H])nc([H])nc2C([H])([H])[C@](c2c([H])c(-c3c([H])nc([H])c(Cl)c3[H])c([H])c([H])c2F)(C([H])([H])[H])N1[H]


 28 31  0  0  0  0  0  0  0  0999 V2000
   -6.3298   23.3328  -25.5299 C   0  0  0  0  0  0  0  0  0  0  0  0
   -4.8425   23.5158  -25.5416 C   0  0  0  0  0  0  0  0  0  0  0  0
   -4.3196   22.9445  -26.8368 C   0  0  0  0  0  0  0  0  0  0  0  0
   -4.8959   23.6510  -27.9969 C   0  0  0  0  0  0  0  0  0  0  0  0
   -5.0713   22.9921  -29.1601 N   0  0  0  0  0  0  0  0  0  0  0  0
   -5.5792   23.5893  -30.2522 C   0  0  0  0  0  0  0  0  0  0  0  0
   -5.9127   24.8867  -30.1467 N   0  0  0  0  0  0  0  0  0  0  0  0
   -5.7546   25.5912  -28.9964 C   0  0  0  0  0  0  0  0  0  0  0  0
   -5.2377   24.9763  -27.8905 C   0  0  0  0  0  0  0  0  0  0  0  0
   -5.0660   25.7071  -26.6168 C   0  0  0  0  0  0  0  0  0  0  0  0
   -5.3673   26.9305  -26.4943 N   0  0  0  0  0  0  0  0  0  0  0  0
   -4.5348   24.9406  -25.5450 N   0  0  0  0  0  0  0  0  0  0  0  0
   -5.7474   27.5881  -27.1732 H   0  0  0  0  0  0  0  0  0  0  0  0
   -3.9594   25.4192  -24.8204 H   0  0  0  0  0  0  0  0  0  0  0  0
   -4.1787   22.8259  -24.4056 C   0  0  0  0  0  0  0  0  0  0  0  0
   -2.8241   22.5780  -24.3782 C   0  0  0  0  0  0  0  0  0  0  0  0
   -2.2242   21.9256  -23.3041 C   0  0  0  0  0  0  0  0  0  0  0  0
   -3.0306   21.5289  -22.2548 C   0  0  0  0  0  0  0  0  0  0  0  0
   -4.4066   21.7630  -22.2474 C   0  0  0  0  0  0  0  0  0  0  0  0
   -4.9467   22.4137  -23.3389 C   0  0  0  0  0  0  0  0  0  0  0  0
   -6.2885   22.6642  -23.3745 F   0  0  0  0  0  0  0  0  0  0  0  0
   -0.7947   21.6506  -23.2522 C   0  0  0  0  0  0  0  0  0  0  0  0
   -0.0162   21.8625  -24.3679 C   0  0  0  0  0  0  0  0  0  0  0  0
    1.3184   21.6132  -24.3526 N   0  0  0  0  0  0  0  0  0  0  0  0
    1.9526   21.1489  -23.2563 C   0  0  0  0  0  0  0  0  0  0  0  0
    1.2076   20.9263  -22.1261 C   0  0  0  0  0  0  0  0  0  0  0  0
    2.0113   20.3252  -20.6991 Cl  0  0  0  0  0  0  0  0  0  0  0  0
   -0.1670   21.1760  -22.1195 C   0  0  0  0  0  0  0  0  0  0  0  0
  2  1  1  0  0  0
  2 15  1  0  0  0
 15 16  2  0  0  0
 16 17  1  0  0  0
 17 22  1  0  0  0
 22 23  2  0  0  0
 23 24  1  0  0  0
 24 25  2  0  0  0
 25 26  1  0  0  0
 26 27  1  0  0  0
 26 28  2  0  0  0
 17 18  2  0  0  0
 18 19  1  0  0  0
 19 20  2  0  0  0
 20 21  1  0  0  0
  2  3  1  0  0  0
  3  4  1  0  0  0
  4  5  2  0  0  0
  5  6  1  0  0  0
  6  7  2  0  0  0
  7  8  1  0  0  0
  8  9  2  0  0  0
  9 10  1  0  0  0
 10 11  2  0  0  0
 10 12  1  0  0  0
 12  2  1  0  0  0
 20 15  1  0  0  0
  9  4  1  0  0  0
 28 22  1  0  0  0
 11 13  1  0  0  0
 12 14  1  0  0  0
M  END
> <minimizedAffinity>
-8.60442

> <CNNscore>
0.1662944257

> <CNNaffinity>
6.6247801781

> <CNN_VS>
1.1016640663

> <CNNaffinity_variance>
0.2313590348

$$$$
[H]/C(C(=O)/C([H])=C(\[H])c1c([H])c([H])c(F)c([H])c1[H])=C(/[H])c1c([H])c([H])c(F)c([H])c1[H]


 20 21  0  0  0  0  0  0  0  0999 V2000
    0.5568   22.6023  -27.8980 O   0  0  0  0  0  0  0  0  0  0  0  0
   -0.6138   22.6559  -27.2790 C   0  0  0  0  0  0  0  0  0  0  0  0
   -1.6538   23.1071  -28.1192 C   0  0  0  0  0  0  0  0  0  0  0  0
   -2.8950   23.4214  -27.9089 C   0  0  0  0  0  0  0  0  0  0  0  0
   -3.8178   23.8796  -28.9683 C   0  0  0  0  0  0  0  0  0  0  0  0
   -3.6134   25.1627  -29.4932 C   0  0  0  0  0  0  0  0  0  0  0  0
   -4.4088   25.6885  -30.4782 C   0  0  0  0  0  0  0  0  0  0  0  0
   -5.4374   24.9398  -30.9682 C   0  0  0  0  0  0  0  0  0  0  0  0
   -6.2350   25.4573  -31.9505 F   0  0  0  0  0  0  0  0  0  0  0  0
   -5.6478   23.6746  -30.4584 C   0  0  0  0  0  0  0  0  0  0  0  0
   -4.8355   23.1475  -29.4578 C   0  0  0  0  0  0  0  0  0  0  0  0
   -0.5503   22.2532  -25.9352 C   0  0  0  0  0  0  0  0  0  0  0  0
    0.4756   21.9968  -25.1860 C   0  0  0  0  0  0  0  0  0  0  0  0
    0.3134   21.5838  -23.7835 C   0  0  0  0  0  0  0  0  0  0  0  0
    1.3119   21.2116  -22.9519 C   0  0  0  0  0  0  0  0  0  0  0  0
    1.1045   20.8258  -21.6209 C   0  0  0  0  0  0  0  0  0  0  0  0
   -0.1696   20.8187  -21.1161 C   0  0  0  0  0  0  0  0  0  0  0  0
   -0.4452   20.4580  -19.8406 F   0  0  0  0  0  0  0  0  0  0  0  0
   -1.2080   21.1992  -21.9594 C   0  0  0  0  0  0  0  0  0  0  0  0
   -0.9881   21.5720  -23.2533 C   0  0  0  0  0  0  0  0  0  0  0  0
  1  2  2  0  0  0
  2  3  1  0  0  0
  3  4  2  0  0  0
  4  5  1  0  0  0
  5  6  2  0  0  0
  6  7  1  0  0  0
  7  8  2  0  0  0
  8  9  1  0  0  0
  8 10  1  0  0  0
 10 11  2  0  0  0
  2 12  1  0  0  0
 12 13  2  0  0  0
 13 14  1  0  0  0
 14 15  2  0  0  0
 15 16  1  0  0  0
 16 17  2  0  0  0
 17 18  1  0  0  0
 17 19  1  0  0  0
 19 20  2  0  0  0
 11  5  1  0  0  0
 20 14  1  0  0  0
M  END
> <minimizedAffinity>
-8.37322

> <CNNscore>
0.6907495260

> <CNNaffinity>
5.5117492676

> <CNN_VS>
3.8072381020

> <CNNaffinity_variance>
0.2177762687

$$$$
[H]/C(C(=O)/C([H])=C(\[H])c1c([H])c([H])c(F)c([H])c1[H])=C(/[H])c1c([H])c([H])c(F)c([H])c1[H]


 20 21  0  0  0  0  0  0  0  0999 V2000
    0.5908   22.5946  -27.8821 O   0  0  0  0  0  0  0  0  0  0  0  0
   -0.5917   22.6279  -27.2846 C   0  0  0  0  0  0  0  0  0  0  0  0
   -0.5302   22.2271  -25.9330 C   0  0  0  0  0  0  0  0  0  0  0  0
    0.4519   21.9780  -25.1224 C   0  0  0  0  0  0  0  0  0  0  0  0
    0.2715   21.5630  -23.7156 C   0  0  0  0  0  0  0  0  0  0  0  0
    1.4200   21.2156  -22.9916 C   0  0  0  0  0  0  0  0  0  0  0  0
    1.3691   20.8165  -21.6811 C   0  0  0  0  0  0  0  0  0  0  0  0
    0.1598   20.7536  -21.0549 C   0  0  0  0  0  0  0  0  0  0  0  0
    0.1011   20.3564  -19.7481 F   0  0  0  0  0  0  0  0  0  0  0  0
   -0.9778   21.0936  -21.7585 C   0  0  0  0  0  0  0  0  0  0  0  0
   -0.9182   21.4981  -23.0896 C   0  0  0  0  0  0  0  0  0  0  0  0
   -1.6293   23.0524  -28.1301 C   0  0  0  0  0  0  0  0  0  0  0  0
   -2.8440   23.4077  -27.8510 C   0  0  0  0  0  0  0  0  0  0  0  0
   -3.7803   23.8234  -28.9066 C   0  0  0  0  0  0  0  0  0  0  0  0
   -4.7888   23.0737  -29.4045 C   0  0  0  0  0  0  0  0  0  0  0  0
   -5.6552   23.5169  -30.4126 C   0  0  0  0  0  0  0  0  0  0  0  0
   -5.4887   24.7730  -30.9347 C   0  0  0  0  0  0  0  0  0  0  0  0
   -6.2871   25.2676  -31.9098 F   0  0  0  0  0  0  0  0  0  0  0  0
   -4.4554   25.5569  -30.4329 C   0  0  0  0  0  0  0  0  0  0  0  0
   -3.6206   25.1093  -29.4507 C   0  0  0  0  0  0  0  0  0  0  0  0
  1  2  2  0  0  0
  2  3  1  0  0  0
  3  4  2  0  0  0
  4  5  1  0  0  0
  5  6  2  0  0  0
  6  7  1  0  0  0
  7  8  2  0  0  0
  8  9  1  0  0  0
  8 10  1  0  0  0
 10 11  2  0  0  0
  2 12  1  0  0  0
 12 13  2  0  0  0
 13 14  1  0  0  0
 14 15  2  0  0  0
 15 16  1  0  0  0
 16 17  2  0  0  0
 17 18  1  0  0  0
 17 19  1  0  0  0
 19 20  2  0  0  0
 11  5  1  0  0  0
 20 14  1  0  0  0
M  END
> <minimizedAffinity>
-8.27755

> <CNNscore>
0.6889774799

> <CNNaffinity>
5.4582543373

> <CNN_VS>
3.7606143951

> <CNNaffinity_variance>
0.2486715317

$$$$
[H]/C(C(=O)/C([H])=C(\[H])c1c([H])c([H])c(F)c([H])c1[H])=C(/[H])c1c([H])c([H])c(F)c([H])c1[H]


 20 21  0  0  0  0  0  0  0  0999 V2000
    0.4726   22.3507  -27.5569 O   0  0  0  0  0  0  0  0  0  0  0  0
   -0.1536   22.3690  -26.3890 C   0  0  0  0  0  0  0  0  0  0  0  0
    0.6251   21.8254  -25.3452 C   0  0  0  0  0  0  0  0  0  0  0  0
    0.4949   21.8070  -24.0544 C   0  0  0  0  0  0  0  0  0  0  0  0
    1.4599   21.1617  -23.1400 C   0  0  0  0  0  0  0  0  0  0  0  0
    1.0150   20.8446  -21.8495 C   0  0  0  0  0  0  0  0  0  0  0  0
    1.8250   20.2448  -20.9202 C   0  0  0  0  0  0  0  0  0  0  0  0
    3.1108   19.9437  -21.2590 C   0  0  0  0  0  0  0  0  0  0  0  0
    3.9246   19.3456  -20.3378 F   0  0  0  0  0  0  0  0  0  0  0  0
    3.5593   20.2516  -22.5274 C   0  0  0  0  0  0  0  0  0  0  0  0
    2.7306   20.8609  -23.4659 C   0  0  0  0  0  0  0  0  0  0  0  0
   -1.4422   22.9227  -26.4584 C   0  0  0  0  0  0  0  0  0  0  0  0
   -2.5361   22.5747  -25.8570 C   0  0  0  0  0  0  0  0  0  0  0  0
   -3.7944   23.3040  -26.0771 C   0  0  0  0  0  0  0  0  0  0  0  0
   -3.9209   24.4718  -26.7459 C   0  0  0  0  0  0  0  0  0  0  0  0
   -5.1454   25.1281  -26.9285 C   0  0  0  0  0  0  0  0  0  0  0  0
   -6.2864   24.5739  -26.4100 C   0  0  0  0  0  0  0  0  0  0  0  0
   -7.5034   25.1512  -26.5472 F   0  0  0  0  0  0  0  0  0  0  0  0
   -6.1729   23.3723  -25.7191 C   0  0  0  0  0  0  0  0  0  0  0  0
   -4.9722   22.7466  -25.5505 C   0  0  0  0  0  0  0  0  0  0  0  0
  1  2  2  0  0  0
  2  3  1  0  0  0
  3  4  2  0  0  0
  4  5  1  0  0  0
  5  6  2  0  0  0
  6  7  1  0  0  0
  7  8  2  0  0  0
  8  9  1  0  0  0
  8 10  1  0  0  0
 10 11  2  0  0  0
  2 12  1  0  0  0
 12 13  2  0  0  0
 13 14  1  0  0  0
 14 15  2  0  0  0
 15 16  1  0  0  0
 16 17  2  0  0  0
 17 18  1  0  0  0
 17 19  1  0  0  0
 19 20  2  0  0  0
 11  5  1  0  0  0
 20 14  1  0  0  0
M  END
> <minimizedAffinity>
-6.97235

> <CNNscore>
0.4835372269

> <CNNaffinity>
5.2273125648

> <CNN_VS>
2.5276002884

> <CNNaffinity_variance>
0.1430990249

$$$$
[H]/C(C(=O)/C([H])=C(\[H])c1c([H])c([H])c(F)c([H])c1[H])=C(/[H])c1c([H])c([H])c(F)c([H])c1[H]


 20 21  0  0  0  0  0  0  0  0999 V2000
   -3.0832   23.6282  -21.0634 O   0  0  0  0  0  0  0  0  0  0  0  0
   -1.8307   23.3331  -21.3806 C   0  0  0  0  0  0  0  0  0  0  0  0
   -1.0124   23.1425  -20.2469 C   0  0  0  0  0  0  0  0  0  0  0  0
   -0.9459   22.2137  -19.3433 C   0  0  0  0  0  0  0  0  0  0  0  0
    0.0155   22.2261  -18.2211 C   0  0  0  0  0  0  0  0  0  0  0  0
    1.2457   22.8637  -18.4306 C   0  0  0  0  0  0  0  0  0  0  0  0
    2.2107   22.9348  -17.4594 C   0  0  0  0  0  0  0  0  0  0  0  0
    1.9696   22.3662  -16.2440 C   0  0  0  0  0  0  0  0  0  0  0  0
    2.9271   22.4331  -15.2706 F   0  0  0  0  0  0  0  0  0  0  0  0
    0.7613   21.7357  -16.0268 C   0  0  0  0  0  0  0  0  0  0  0  0
   -0.2140   21.6675  -17.0183 C   0  0  0  0  0  0  0  0  0  0  0  0
   -1.6069   23.2782  -22.7658 C   0  0  0  0  0  0  0  0  0  0  0  0
   -1.2690   22.2799  -23.5200 C   0  0  0  0  0  0  0  0  0  0  0  0
   -1.0846   22.4459  -24.9699 C   0  0  0  0  0  0  0  0  0  0  0  0
   -2.0759   22.5580  -25.8819 C   0  0  0  0  0  0  0  0  0  0  0  0
   -1.8470   22.7147  -27.2554 C   0  0  0  0  0  0  0  0  0  0  0  0
   -0.5582   22.7592  -27.7192 C   0  0  0  0  0  0  0  0  0  0  0  0
   -0.2616   22.9084  -29.0317 F   0  0  0  0  0  0  0  0  0  0  0  0
    0.4731   22.6452  -26.7931 C   0  0  0  0  0  0  0  0  0  0  0  0
    0.2322   22.4930  -25.4588 C   0  0  0  0  0  0  0  0  0  0  0  0
  1  2  2  0  0  0
  2  3  1  0  0  0
  3  4  2  0  0  0
  4  5  1  0  0  0
  5  6  2  0  0  0
  6  7  1  0  0  0
  7  8  2  0  0  0
  8  9  1  0  0  0
  8 10  1  0  0  0
 10 11  2  0  0  0
  2 12  1  0  0  0
 12 13  2  0  0  0
 13 14  1  0  0  0
 14 15  2  0  0  0
 15 16  1  0  0  0
 16 17  2  0  0  0
 17 18  1  0  0  0
 17 19  1  0  0  0
 19 20  2  0  0  0
 11  5  1  0  0  0
 20 14  1  0  0  0
M  END
> <minimizedAffinity>
-6.60782

> <CNNscore>
0.4228060246

> <CNNaffinity>
4.8792543411

> <CNN_VS>
2.0629780293

> <CNNaffinity_variance>
0.1470538825

$$$$
[H]/C(C(=O)/C([H])=C(\[H])c1c([H])c([H])c(F)c([H])c1[H])=C(/[H])c1c([H])c([H])c(F)c([H])c1[H]


 20 21  0  0  0  0  0  0  0  0999 V2000
   -2.4590   21.5863  -20.8475 O   0  0  0  0  0  0  0  0  0  0  0  0
   -3.3462   21.7536  -21.8178 C   0  0  0  0  0  0  0  0  0  0  0  0
   -4.6760   21.7513  -21.3459 C   0  0  0  0  0  0  0  0  0  0  0  0
   -5.2412   21.2745  -20.2797 C   0  0  0  0  0  0  0  0  0  0  0  0
   -6.6855   21.3950  -19.9911 C   0  0  0  0  0  0  0  0  0  0  0  0
   -7.1168   21.0623  -18.6999 C   0  0  0  0  0  0  0  0  0  0  0  0
   -8.4328   21.1373  -18.3232 C   0  0  0  0  0  0  0  0  0  0  0  0
   -9.3594   21.5500  -19.2340 C   0  0  0  0  0  0  0  0  0  0  0  0
  -10.6737   21.6274  -18.8657 F   0  0  0  0  0  0  0  0  0  0  0  0
   -8.9457   21.8802  -20.5086 C   0  0  0  0  0  0  0  0  0  0  0  0
   -7.6070   21.8014  -20.8839 C   0  0  0  0  0  0  0  0  0  0  0  0
   -2.7614   21.8940  -23.0867 C   0  0  0  0  0  0  0  0  0  0  0  0
   -1.6153   22.3925  -23.4295 C   0  0  0  0  0  0  0  0  0  0  0  0
   -1.1941   22.4422  -24.8380 C   0  0  0  0  0  0  0  0  0  0  0  0
   -2.0125   22.6224  -25.8985 C   0  0  0  0  0  0  0  0  0  0  0  0
   -1.5605   22.6621  -27.2243 C   0  0  0  0  0  0  0  0  0  0  0  0
   -0.2227   22.5127  -27.4809 C   0  0  0  0  0  0  0  0  0  0  0  0
    0.2854   22.5401  -28.7355 F   0  0  0  0  0  0  0  0  0  0  0  0
    0.6325   22.3264  -26.4001 C   0  0  0  0  0  0  0  0  0  0  0  0
    0.1753   22.2902  -25.1151 C   0  0  0  0  0  0  0  0  0  0  0  0
  1  2  2  0  0  0
  2  3  1  0  0  0
  3  4  2  0  0  0
  4  5  1  0  0  0
  5  6  2  0  0  0
  6  7  1  0  0  0
  7  8  2  0  0  0
  8  9  1  0  0  0
  8 10  1  0  0  0
 10 11  2  0  0  0
  2 12  1  0  0  0
 12 13  2  0  0  0
 13 14  1  0  0  0
 14 15  2  0  0  0
 15 16  1  0  0  0
 16 17  2  0  0  0
 17 18  1  0  0  0
 17 19  1  0  0  0
 19 20  2  0  0  0
 11  5  1  0  0  0
 20 14  1  0  0  0
M  END
> <minimizedAffinity>
-6.08146

> <CNNscore>
0.4167750776

> <CNNaffinity>
4.9330115318

> <CNN_VS>
2.0559563637

> <CNNaffinity_variance>
0.0666382536

$$$$
[H]/C(C(=O)/C([H])=C(\[H])c1c([H])c([H])c(F)c([H])c1[H])=C(/[H])c1c([H])c([H])c(F)c([H])c1[H]


 20 21  0  0  0  0  0  0  0  0999 V2000
   -2.3911   22.1735  -20.3566 O   0  0  0  0  0  0  0  0  0  0  0  0
   -1.2174   22.5742  -20.8238 C   0  0  0  0  0  0  0  0  0  0  0  0
   -0.2798   22.8232  -19.7990 C   0  0  0  0  0  0  0  0  0  0  0  0
    0.4366   22.0510  -19.0413 C   0  0  0  0  0  0  0  0  0  0  0  0
    1.3726   22.5485  -18.0116 C   0  0  0  0  0  0  0  0  0  0  0  0
    2.2429   23.5848  -18.3756 C   0  0  0  0  0  0  0  0  0  0  0  0
    3.1515   24.1220  -17.5008 C   0  0  0  0  0  0  0  0  0  0  0  0
    3.2145   23.6338  -16.2294 C   0  0  0  0  0  0  0  0  0  0  0  0
    4.1180   24.1644  -15.3513 F   0  0  0  0  0  0  0  0  0  0  0  0
    2.3619   22.6133  -15.8603 C   0  0  0  0  0  0  0  0  0  0  0  0
    1.4417   22.0727  -16.7546 C   0  0  0  0  0  0  0  0  0  0  0  0
   -1.1768   22.6585  -22.2248 C   0  0  0  0  0  0  0  0  0  0  0  0
   -0.8967   21.7542  -23.1100 C   0  0  0  0  0  0  0  0  0  0  0  0
   -0.9138   22.0617  -24.5483 C   0  0  0  0  0  0  0  0  0  0  0  0
    0.1741   22.2880  -25.3180 C   0  0  0  0  0  0  0  0  0  0  0  0
    0.1042   22.5776  -26.6872 C   0  0  0  0  0  0  0  0  0  0  0  0
   -1.1214   22.6393  -27.2973 C   0  0  0  0  0  0  0  0  0  0  0  0
   -1.2655   22.9138  -28.6152 F   0  0  0  0  0  0  0  0  0  0  0  0
   -2.2505   22.4088  -26.5187 C   0  0  0  0  0  0  0  0  0  0  0  0
   -2.1642   22.1281  -25.1863 C   0  0  0  0  0  0  0  0  0  0  0  0
  1  2  2  0  0  0
  2  3  1  0  0  0
  3  4  2  0  0  0
  4  5  1  0  0  0
  5  6  2  0  0  0
  6  7  1  0  0  0
  7  8  2  0  0  0
  8  9  1  0  0  0
  8 10  1  0  0  0
 10 11  2  0  0  0
  2 12  1  0  0  0
 12 13  2  0  0  0
 13 14  1  0  0  0
 14 15  2  0  0  0
 15 16  1  0  0  0
 16 17  2  0  0  0
 17 18  1  0  0  0
 17 19  1  0  0  0
 19 20  2  0  0  0
 11  5  1  0  0  0
 20 14  1  0  0  0
M  END
> <minimizedAffinity>
-6.82176

> <CNNscore>
0.3988083303

> <CNNaffinity>
4.5705175400

> <CNN_VS>
1.8227604628

> <CNNaffinity_variance>
0.1739120185

$$$$
[H]/C(C(=O)/C([H])=C(\[H])c1c([H])c([H])c(F)c([H])c1[H])=C(/[H])c1c([H])c([H])c(F)c([H])c1[H]


 20 21  0  0  0  0  0  0  0  0999 V2000
   -1.8492   23.7237  -20.8699 O   0  0  0  0  0  0  0  0  0  0  0  0
   -2.7625   23.2986  -21.7310 C   0  0  0  0  0  0  0  0  0  0  0  0
   -2.2700   23.2166  -23.0508 C   0  0  0  0  0  0  0  0  0  0  0  0
   -1.8584   22.2310  -23.7875 C   0  0  0  0  0  0  0  0  0  0  0  0
   -1.3757   22.3878  -25.1754 C   0  0  0  0  0  0  0  0  0  0  0  0
    0.0023   22.2651  -25.3984 C   0  0  0  0  0  0  0  0  0  0  0  0
    0.5586   22.3920  -26.6449 C   0  0  0  0  0  0  0  0  0  0  0  0
   -0.2540   22.6466  -27.7095 C   0  0  0  0  0  0  0  0  0  0  0  0
    0.2934   22.7744  -28.9557 F   0  0  0  0  0  0  0  0  0  0  0  0
   -1.6128   22.7693  -27.5013 C   0  0  0  0  0  0  0  0  0  0  0  0
   -2.1705   22.6392  -26.2320 C   0  0  0  0  0  0  0  0  0  0  0  0
   -4.0048   23.0288  -21.1347 C   0  0  0  0  0  0  0  0  0  0  0  0
   -5.0227   22.3648  -21.5848 C   0  0  0  0  0  0  0  0  0  0  0  0
   -6.2444   22.2017  -20.7819 C   0  0  0  0  0  0  0  0  0  0  0  0
   -6.3350   22.3687  -19.4436 C   0  0  0  0  0  0  0  0  0  0  0  0
   -7.5254   22.2010  -18.7237 C   0  0  0  0  0  0  0  0  0  0  0  0
   -8.6689   21.8495  -19.3922 C   0  0  0  0  0  0  0  0  0  0  0  0
   -9.8541   21.6703  -18.7629 F   0  0  0  0  0  0  0  0  0  0  0  0
   -8.5919   21.6739  -20.7697 C   0  0  0  0  0  0  0  0  0  0  0  0
   -7.4242   21.8413  -21.4551 C   0  0  0  0  0  0  0  0  0  0  0  0
  1  2  2  0  0  0
  2  3  1  0  0  0
  3  4  2  0  0  0
  4  5  1  0  0  0
  5  6  2  0  0  0
  6  7  1  0  0  0
  7  8  2  0  0  0
  8  9  1  0  0  0
  8 10  1  0  0  0
 10 11  2  0  0  0
  2 12  1  0  0  0
 12 13  2  0  0  0
 13 14  1  0  0  0
 14 15  2  0  0  0
 15 16  1  0  0  0
 16 17  2  0  0  0
 17 18  1  0  0  0
 17 19  1  0  0  0
 19 20  2  0  0  0
 11  5  1  0  0  0
 20 14  1  0  0  0
M  END
> <minimizedAffinity>
-6.75668

> <CNNscore>
0.3941422701

> <CNNaffinity>
5.1591076851

> <CNN_VS>
2.0334224701

> <CNNaffinity_variance>
0.1188228577

$$$$
[H]/C(C(=O)/C([H])=C(\[H])c1c([H])c([H])c(F)c([H])c1[H])=C(/[H])c1c([H])c([H])c(F)c([H])c1[H]


 20 21  0  0  0  0  0  0  0  0999 V2000
   -1.7253   23.7211  -20.7911 O   0  0  0  0  0  0  0  0  0  0  0  0
   -2.5962   23.3340  -21.7121 C   0  0  0  0  0  0  0  0  0  0  0  0
   -3.8819   23.0980  -21.1805 C   0  0  0  0  0  0  0  0  0  0  0  0
   -5.0438   22.8916  -21.7198 C   0  0  0  0  0  0  0  0  0  0  0  0
   -6.2809   22.6628  -20.9446 C   0  0  0  0  0  0  0  0  0  0  0  0
   -7.3092   21.9413  -21.5659 C   0  0  0  0  0  0  0  0  0  0  0  0
   -8.4986   21.6711  -20.9400 C   0  0  0  0  0  0  0  0  0  0  0  0
   -8.6930   22.1183  -19.6669 C   0  0  0  0  0  0  0  0  0  0  0  0
   -9.8765   21.8528  -19.0363 F   0  0  0  0  0  0  0  0  0  0  0  0
   -7.6869   22.8299  -19.0455 C   0  0  0  0  0  0  0  0  0  0  0  0
   -6.4815   23.1005  -19.6878 C   0  0  0  0  0  0  0  0  0  0  0  0
   -2.0418   23.2481  -22.9993 C   0  0  0  0  0  0  0  0  0  0  0  0
   -1.8456   22.2165  -23.7589 C   0  0  0  0  0  0  0  0  0  0  0  0
   -1.2408   22.3538  -25.0928 C   0  0  0  0  0  0  0  0  0  0  0  0
    0.0690   22.1907  -25.3839 C   0  0  0  0  0  0  0  0  0  0  0  0
    0.5965   22.3329  -26.6742 C   0  0  0  0  0  0  0  0  0  0  0  0
   -0.2423   22.6537  -27.7094 C   0  0  0  0  0  0  0  0  0  0  0  0
    0.1964   22.8071  -28.9810 F   0  0  0  0  0  0  0  0  0  0  0  0
   -1.5931   22.8248  -27.4260 C   0  0  0  0  0  0  0  0  0  0  0  0
   -2.0899   22.6826  -26.1633 C   0  0  0  0  0  0  0  0  0  0  0  0
  1  2  2  0  0  0
  2  3  1  0  0  0
  3  4  2  0  0  0
  4  5  1  0  0  0
  5  6  2  0  0  0
  6  7  1  0  0  0
  7  8  2  0  0  0
  8  9  1  0  0  0
  8 10  1  0  0  0
 10 11  2  0  0  0
  2 12  1  0  0  0
 12 13  2  0  0  0
 13 14  1  0  0  0
 14 15  2  0  0  0
 15 16  1  0  0  0
 16 17  2  0  0  0
 17 18  1  0  0  0
 17 19  1  0  0  0
 19 20  2  0  0  0
 11  5  1  0  0  0
 20 14  1  0  0  0
M  END
> <minimizedAffinity>
-6.82380

> <CNNscore>
0.3825128973

> <CNNaffinity>
5.1253075600

> <CNN_VS>
1.9604961872

> <CNNaffinity_variance>
0.1381319016

$$$$
[H]/C(C(=O)/C([H])=C(\[H])c1c([H])c([H])c(F)c([H])c1[H])=C(/[H])c1c([H])c([H])c(F)c([H])c1[H]


 20 21  0  0  0  0  0  0  0  0999 V2000
   -4.6689   21.6601  -24.7864 O   0  0  0  0  0  0  0  0  0  0  0  0
   -3.6552   22.1208  -25.5051 C   0  0  0  0  0  0  0  0  0  0  0  0
   -4.0764   22.7914  -26.6731 C   0  0  0  0  0  0  0  0  0  0  0  0
   -3.5764   22.9018  -27.8653 C   0  0  0  0  0  0  0  0  0  0  0  0
   -4.2095   23.6753  -28.9538 C   0  0  0  0  0  0  0  0  0  0  0  0
   -3.6694   24.9337  -29.2513 C   0  0  0  0  0  0  0  0  0  0  0  0
   -4.1773   25.7356  -30.2405 C   0  0  0  0  0  0  0  0  0  0  0  0
   -5.2465   25.2973  -30.9639 C   0  0  0  0  0  0  0  0  0  0  0  0
   -5.7586   26.0913  -31.9519 F   0  0  0  0  0  0  0  0  0  0  0  0
   -5.7863   24.0594  -30.6793 C   0  0  0  0  0  0  0  0  0  0  0  0
   -5.2649   23.2506  -29.6728 C   0  0  0  0  0  0  0  0  0  0  0  0
   -2.4007   21.8370  -24.9417 C   0  0  0  0  0  0  0  0  0  0  0  0
   -1.9790   21.9770  -23.7242 C   0  0  0  0  0  0  0  0  0  0  0  0
   -0.6056   21.6120  -23.3445 C   0  0  0  0  0  0  0  0  0  0  0  0
   -0.2275   21.1045  -22.1501 C   0  0  0  0  0  0  0  0  0  0  0  0
    1.0972   20.7722  -21.8371 C   0  0  0  0  0  0  0  0  0  0  0  0
    2.0761   20.9640  -22.7768 C   0  0  0  0  0  0  0  0  0  0  0  0
    3.3763   20.6661  -22.5449 F   0  0  0  0  0  0  0  0  0  0  0  0
    1.7030   21.4855  -24.0109 C   0  0  0  0  0  0  0  0  0  0  0  0
    0.4079   21.8037  -24.2991 C   0  0  0  0  0  0  0  0  0  0  0  0
  1  2  2  0  0  0
  2  3  1  0  0  0
  3  4  2  0  0  0
  4  5  1  0  0  0
  5  6  2  0  0  0
  6  7  1  0  0  0
  7  8  2  0  0  0
  8  9  1  0  0  0
  8 10  1  0  0  0
 10 11  2  0  0  0
  2 12  1  0  0  0
 12 13  2  0  0  0
 13 14  1  0  0  0
 14 15  2  0  0  0
 15 16  1  0  0  0
 16 17  2  0  0  0
 17 18  1  0  0  0
 17 19  1  0  0  0
 19 20  2  0  0  0
 11  5  1  0  0  0
 20 14  1  0  0  0
M  END
> <minimizedAffinity>
-8.15409

> <CNNscore>
0.3592131138

> <CNNaffinity>
5.3534574509

> <CNN_VS>
1.9230321646

> <CNNaffinity_variance>
0.1539026350

$$$$
[H]Oc1c([H])c([H])c(N([H])c2nc([H])c(F)c(N([H])c3c([H])c([H])c(C(=O)N([H])[H])c([H])c3[H])n2)c([H])c1[H]


 30 32  0  0  0  0  0  0  0  0999 V2000
   -1.5597   21.9203  -25.0706 C   0  0  0  0  0  0  0  0  0  0  0  0
   -2.2992   21.9253  -26.1673 N   0  0  0  0  0  0  0  0  0  0  0  0
   -1.8160   22.3699  -27.3634 C   0  0  0  0  0  0  0  0  0  0  0  0
   -0.5486   22.8084  -27.3927 N   0  0  0  0  0  0  0  0  0  0  0  0
    0.2500   22.8321  -26.3323 C   0  0  0  0  0  0  0  0  0  0  0  0
   -0.2317   22.3848  -25.1224 C   0  0  0  0  0  0  0  0  0  0  0  0
    0.5299   22.3840  -24.0141 F   0  0  0  0  0  0  0  0  0  0  0  0
   -2.0331   21.4875  -23.8054 N   0  0  0  0  0  0  0  0  0  0  0  0
   -2.9343   20.9228  -23.7973 H   0  0  0  0  0  0  0  0  0  0  0  0
   -0.3959   22.2976  -20.0071 C   0  0  0  0  0  0  0  0  0  0  0  0
   -0.1385   21.1321  -20.6497 C   0  0  0  0  0  0  0  0  0  0  0  0
   -0.6566   20.8312  -21.9143 C   0  0  0  0  0  0  0  0  0  0  0  0
   -1.4501   21.7201  -22.5453 C   0  0  0  0  0  0  0  0  0  0  0  0
   -1.7329   22.9414  -21.8977 C   0  0  0  0  0  0  0  0  0  0  0  0
   -1.2151   23.2125  -20.6630 C   0  0  0  0  0  0  0  0  0  0  0  0
   -0.4368   22.0577  -17.5374 N   0  0  0  0  0  0  0  0  0  0  0  0
    0.1412   22.6164  -18.6894 C   0  0  0  0  0  0  0  0  0  0  0  0
    1.1156   23.3873  -18.5903 O   0  0  0  0  0  0  0  0  0  0  0  0
   -1.1446   22.5979  -17.0048 H   0  0  0  0  0  0  0  0  0  0  0  0
   -0.1774   21.1144  -17.1980 H   0  0  0  0  0  0  0  0  0  0  0  0
   -2.6797   22.3667  -28.4725 N   0  0  0  0  0  0  0  0  0  0  0  0
   -2.5818   21.5673  -29.1659 H   0  0  0  0  0  0  0  0  0  0  0  0
   -3.6544   23.3326  -28.7309 C   0  0  0  0  0  0  0  0  0  0  0  0
   -3.6646   24.5865  -28.1954 C   0  0  0  0  0  0  0  0  0  0  0  0
   -4.6882   25.5217  -28.4636 C   0  0  0  0  0  0  0  0  0  0  0  0
   -5.7208   25.1666  -29.2970 C   0  0  0  0  0  0  0  0  0  0  0  0
   -6.7353   26.0826  -29.5673 O   0  0  0  0  0  0  0  0  0  0  0  0
   -5.7495   23.9055  -29.8625 C   0  0  0  0  0  0  0  0  0  0  0  0
   -4.7416   23.0242  -29.5806 C   0  0  0  0  0  0  0  0  0  0  0  0
   -7.5336   26.0720  -28.9436 H   0  0  0  0  0  0  0  0  0  0  0  0
 16 17  1  0  0  0
 17 18  2  0  0  0
 17 10  1  0  0  0
 10 11  2  0  0  0
 11 12  1  0  0  0
 12 13  2  0  0  0
 13  8  1  0  0  0
  8  1  1  0  0  0
  1  2  2  0  0  0
  2  3  1  0  0  0
  3 21  1  0  0  0
 21 23  1  0  0  0
 23 24  2  0  0  0
 24 25  1  0  0  0
 25 26  2  0  0  0
 26 27  1  0  0  0
 26 28  1  0  0  0
 28 29  2  0  0  0
  3  4  2  0  0  0
  4  5  1  0  0  0
  5  6  2  0  0  0
  6  7  1  0  0  0
 13 14  1  0  0  0
 14 15  2  0  0  0
 15 10  1  0  0  0
  6  1  1  0  0  0
 29 23  1  0  0  0
 16 19  1  0  0  0
 16 20  1  0  0  0
  8  9  1  0  0  0
 21 22  1  0  0  0
 27 30  1  0  0  0
M  END
> <minimizedAffinity>
-7.45844

> <CNNscore>
0.7314349413

> <CNNaffinity>
6.7404770851

> <CNN_VS>
4.9302206039

> <CNNaffinity_variance>
0.2536414266

$$$$
[H]Oc1c([H])c([H])c(N([H])c2nc([H])c(F)c(N([H])c3c([H])c([H])c(C(=O)N([H])[H])c([H])c3[H])n2)c([H])c1[H]


 30 32  0  0  0  0  0  0  0  0999 V2000
   -2.1894   22.1091  -25.1183 C   0  0  0  0  0  0  0  0  0  0  0  0
   -2.5980   22.2747  -26.3654 N   0  0  0  0  0  0  0  0  0  0  0  0
   -1.7215   22.4476  -27.3968 C   0  0  0  0  0  0  0  0  0  0  0  0
   -0.4129   22.4443  -27.1019 N   0  0  0  0  0  0  0  0  0  0  0  0
    0.0680   22.2837  -25.8749 C   0  0  0  0  0  0  0  0  0  0  0  0
   -0.8114   22.1087  -24.8298 C   0  0  0  0  0  0  0  0  0  0  0  0
   -0.3840   21.9408  -23.5659 F   0  0  0  0  0  0  0  0  0  0  0  0
   -3.0696   21.9492  -24.0175 N   0  0  0  0  0  0  0  0  0  0  0  0
   -2.9083   21.1040  -23.3924 H   0  0  0  0  0  0  0  0  0  0  0  0
   -6.3752   24.3088  -22.8910 C   0  0  0  0  0  0  0  0  0  0  0  0
   -5.1195   24.8195  -22.9068 C   0  0  0  0  0  0  0  0  0  0  0  0
   -3.9992   24.0701  -23.2829 C   0  0  0  0  0  0  0  0  0  0  0  0
   -4.1444   22.7808  -23.6500 C   0  0  0  0  0  0  0  0  0  0  0  0
   -5.4415   22.2256  -23.6425 C   0  0  0  0  0  0  0  0  0  0  0  0
   -6.5200   22.9775  -23.2715 C   0  0  0  0  0  0  0  0  0  0  0  0
   -8.7014   24.4346  -22.0356 N   0  0  0  0  0  0  0  0  0  0  0  0
   -7.5461   25.0850  -22.4999 C   0  0  0  0  0  0  0  0  0  0  0  0
   -7.5167   26.3286  -22.5796 O   0  0  0  0  0  0  0  0  0  0  0  0
   -9.4769   24.2332  -22.6949 H   0  0  0  0  0  0  0  0  0  0  0  0
   -8.8064   24.1460  -21.0467 H   0  0  0  0  0  0  0  0  0  0  0  0
   -2.2430   22.6452  -28.6872 N   0  0  0  0  0  0  0  0  0  0  0  0
   -1.8028   22.0940  -29.4819 H   0  0  0  0  0  0  0  0  0  0  0  0
   -3.2937   23.5093  -29.0023 C   0  0  0  0  0  0  0  0  0  0  0  0
   -3.1517   24.8403  -29.2620 C   0  0  0  0  0  0  0  0  0  0  0  0
   -4.2485   25.6823  -29.5485 C   0  0  0  0  0  0  0  0  0  0  0  0
   -5.5152   25.1512  -29.5707 C   0  0  0  0  0  0  0  0  0  0  0  0
   -6.6036   25.9743  -29.8525 O   0  0  0  0  0  0  0  0  0  0  0  0
   -5.7047   23.8060  -29.3142 C   0  0  0  0  0  0  0  0  0  0  0  0
   -4.6194   23.0193  -29.0395 C   0  0  0  0  0  0  0  0  0  0  0  0
   -7.0491   26.4232  -29.0611 H   0  0  0  0  0  0  0  0  0  0  0  0
 16 17  1  0  0  0
 17 18  2  0  0  0
 17 10  1  0  0  0
 10 11  2  0  0  0
 11 12  1  0  0  0
 12 13  2  0  0  0
 13  8  1  0  0  0
  8  1  1  0  0  0
  1  2  2  0  0  0
  2  3  1  0  0  0
  3 21  1  0  0  0
 21 23  1  0  0  0
 23 24  2  0  0  0
 24 25  1  0  0  0
 25 26  2  0  0  0
 26 27  1  0  0  0
 26 28  1  0  0  0
 28 29  2  0  0  0
  3  4  2  0  0  0
  4  5  1  0  0  0
  5  6  2  0  0  0
  6  7  1  0  0  0
 13 14  1  0  0  0
 14 15  2  0  0  0
 15 10  1  0  0  0
  6  1  1  0  0  0
 29 23  1  0  0  0
 16 19  1  0  0  0
 16 20  1  0  0  0
  8  9  1  0  0  0
 21 22  1  0  0  0
 27 30  1  0  0  0
M  END
> <minimizedAffinity>
-7.88126

> <CNNscore>
0.6515841484

> <CNNaffinity>
6.8682031631

> <CNN_VS>
4.4752120972

> <CNNaffinity_variance>
0.1632910669

$$$$
[H]Oc1c([H])c([H])c(N([H])c2nc([H])c(F)c(N([H])c3c([H])c([H])c(C(=O)N([H])[H])c([H])c3[H])n2)c([H])c1[H]


 30 32  0  0  0  0  0  0  0  0999 V2000
   -2.4047   22.2206  -24.9582 C   0  0  0  0  0  0  0  0  0  0  0  0
   -2.7911   22.3410  -26.2175 N   0  0  0  0  0  0  0  0  0  0  0  0
   -1.8958   22.4390  -27.2425 C   0  0  0  0  0  0  0  0  0  0  0  0
   -0.5920   22.4091  -26.9284 N   0  0  0  0  0  0  0  0  0  0  0  0
   -0.1329   22.2905  -25.6883 C   0  0  0  0  0  0  0  0  0  0  0  0
   -1.0313   22.1911  -24.6495 C   0  0  0  0  0  0  0  0  0  0  0  0
   -0.6265   22.0686  -23.3730 F   0  0  0  0  0  0  0  0  0  0  0  0
   -3.3041   22.1389  -23.8644 N   0  0  0  0  0  0  0  0  0  0  0  0
   -3.0977   21.4008  -23.1270 H   0  0  0  0  0  0  0  0  0  0  0  0
   -6.6601   24.6105  -23.2382 C   0  0  0  0  0  0  0  0  0  0  0  0
   -6.7782   23.2605  -23.2755 C   0  0  0  0  0  0  0  0  0  0  0  0
   -5.6866   22.4075  -23.4725 C   0  0  0  0  0  0  0  0  0  0  0  0
   -4.4511   22.9224  -23.6359 C   0  0  0  0  0  0  0  0  0  0  0  0
   -4.3014   24.3250  -23.6008 C   0  0  0  0  0  0  0  0  0  0  0  0
   -5.3825   25.1372  -23.4068 C   0  0  0  0  0  0  0  0  0  0  0  0
   -8.9614   25.3506  -23.7998 N   0  0  0  0  0  0  0  0  0  0  0  0
   -7.7941   25.5041  -23.0334 C   0  0  0  0  0  0  0  0  0  0  0  0
   -7.7225   26.4050  -22.1749 O   0  0  0  0  0  0  0  0  0  0  0  0
   -9.0957   25.9279  -24.6513 H   0  0  0  0  0  0  0  0  0  0  0  0
   -9.7004   24.6732  -23.5407 H   0  0  0  0  0  0  0  0  0  0  0  0
   -2.3935   22.5929  -28.5482 N   0  0  0  0  0  0  0  0  0  0  0  0
   -1.9634   21.9889  -29.3094 H   0  0  0  0  0  0  0  0  0  0  0  0
   -3.4082   23.4776  -28.9190 C   0  0  0  0  0  0  0  0  0  0  0  0
   -3.2397   24.8184  -29.1013 C   0  0  0  0  0  0  0  0  0  0  0  0
   -4.3030   25.6799  -29.4492 C   0  0  0  0  0  0  0  0  0  0  0  0
   -5.5631   25.1587  -29.6147 C   0  0  0  0  0  0  0  0  0  0  0  0
   -6.6186   26.0011  -29.9578 O   0  0  0  0  0  0  0  0  0  0  0  0
   -5.7787   23.8043  -29.4406 C   0  0  0  0  0  0  0  0  0  0  0  0
   -4.7256   22.9986  -29.1031 C   0  0  0  0  0  0  0  0  0  0  0  0
   -7.1354   26.4155  -29.1913 H   0  0  0  0  0  0  0  0  0  0  0  0
 16 17  1  0  0  0
 17 18  2  0  0  0
 17 10  1  0  0  0
 10 11  2  0  0  0
 11 12  1  0  0  0
 12 13  2  0  0  0
 13  8  1  0  0  0
  8  1  1  0  0  0
  1  2  2  0  0  0
  2  3  1  0  0  0
  3 21  1  0  0  0
 21 23  1  0  0  0
 23 24  2  0  0  0
 24 25  1  0  0  0
 25 26  2  0  0  0
 26 27  1  0  0  0
 26 28  1  0  0  0
 28 29  2  0  0  0
  3  4  2  0  0  0
  4  5  1  0  0  0
  5  6  2  0  0  0
  6  7  1  0  0  0
 13 14  1  0  0  0
 14 15  2  0  0  0
 15 10  1  0  0  0
  6  1  1  0  0  0
 29 23  1  0  0  0
 16 19  1  0  0  0
 16 20  1  0  0  0
  8  9  1  0  0  0
 21 22  1  0  0  0
 27 30  1  0  0  0
M  END
> <minimizedAffinity>
-8.14097

> <CNNscore>
0.5945194364

> <CNNaffinity>
6.8220396042

> <CNN_VS>
4.0558352470

> <CNNaffinity_variance>
0.0892156363

$$$$
[H]Oc1c([H])c([H])c(N([H])c2nc([H])c(F)c(N([H])c3c([H])c([H])c(C(=O)N([H])[H])c([H])c3[H])n2)c([H])c1[H]


 30 32  0  0  0  0  0  0  0  0999 V2000
   -2.4479   22.8201  -26.1484 C   0  0  0  0  0  0  0  0  0  0  0  0
   -2.0479   22.6432  -24.9000 N   0  0  0  0  0  0  0  0  0  0  0  0
   -0.7529   22.3442  -24.5909 C   0  0  0  0  0  0  0  0  0  0  0  0
    0.1148   22.2335  -25.6079 N   0  0  0  0  0  0  0  0  0  0  0  0
   -0.2162   22.3977  -26.8832 C   0  0  0  0  0  0  0  0  0  0  0  0
   -1.5214   22.6996  -27.2016 C   0  0  0  0  0  0  0  0  0  0  0  0
   -1.9162   22.8777  -28.4747 F   0  0  0  0  0  0  0  0  0  0  0  0
   -3.7884   23.1095  -26.5107 N   0  0  0  0  0  0  0  0  0  0  0  0
   -4.1086   22.7797  -27.4698 H   0  0  0  0  0  0  0  0  0  0  0  0
   -6.7649   25.0115  -24.2115 C   0  0  0  0  0  0  0  0  0  0  0  0
   -5.5428   25.5726  -24.3825 C   0  0  0  0  0  0  0  0  0  0  0  0
   -4.5327   24.9758  -25.1452 C   0  0  0  0  0  0  0  0  0  0  0  0
   -4.7559   23.7904  -25.7478 C   0  0  0  0  0  0  0  0  0  0  0  0
   -6.0204   23.1856  -25.5856 C   0  0  0  0  0  0  0  0  0  0  0  0
   -6.9907   23.7880  -24.8362 C   0  0  0  0  0  0  0  0  0  0  0  0
   -9.1659   25.2985  -23.6534 N   0  0  0  0  0  0  0  0  0  0  0  0
   -7.8211   25.6288  -23.4178 C   0  0  0  0  0  0  0  0  0  0  0  0
   -7.5245   26.4511  -22.5293 O   0  0  0  0  0  0  0  0  0  0  0  0
   -9.7426   25.9030  -24.2686 H   0  0  0  0  0  0  0  0  0  0  0  0
   -9.6061   24.4627  -23.2290 H   0  0  0  0  0  0  0  0  0  0  0  0
   -0.4205   22.1446  -23.2397 N   0  0  0  0  0  0  0  0  0  0  0  0
   -1.0162   22.6389  -22.5117 H   0  0  0  0  0  0  0  0  0  0  0  0
    0.6312   21.3473  -22.7835 C   0  0  0  0  0  0  0  0  0  0  0  0
    0.5818   20.5608  -21.6708 C   0  0  0  0  0  0  0  0  0  0  0  0
    1.6818   19.7922  -21.2311 C   0  0  0  0  0  0  0  0  0  0  0  0
    2.8548   19.8287  -21.9449 C   0  0  0  0  0  0  0  0  0  0  0  0
    3.9456   19.0737  -21.5186 O   0  0  0  0  0  0  0  0  0  0  0  0
    2.9485   20.6120  -23.0801 C   0  0  0  0  0  0  0  0  0  0  0  0
    1.8631   21.3445  -23.4772 C   0  0  0  0  0  0  0  0  0  0  0  0
    4.5856   19.5248  -20.8758 H   0  0  0  0  0  0  0  0  0  0  0  0
 16 17  1  0  0  0
 17 18  2  0  0  0
 17 10  1  0  0  0
 10 11  2  0  0  0
 11 12  1  0  0  0
 12 13  2  0  0  0
 13  8  1  0  0  0
  8  1  1  0  0  0
  1  2  2  0  0  0
  2  3  1  0  0  0
  3 21  1  0  0  0
 21 23  1  0  0  0
 23 24  2  0  0  0
 24 25  1  0  0  0
 25 26  2  0  0  0
 26 27  1  0  0  0
 26 28  1  0  0  0
 28 29  2  0  0  0
  3  4  2  0  0  0
  4  5  1  0  0  0
  5  6  2  0  0  0
  6  7  1  0  0  0
 13 14  1  0  0  0
 14 15  2  0  0  0
 15 10  1  0  0  0
  6  1  1  0  0  0
 29 23  1  0  0  0
 16 19  1  0  0  0
 16 20  1  0  0  0
  8  9  1  0  0  0
 21 22  1  0  0  0
 27 30  1  0  0  0
M  END
> <minimizedAffinity>
-7.29684

> <CNNscore>
0.3477907181

> <CNNaffinity>
6.2513861656

> <CNN_VS>
2.1741740704

> <CNNaffinity_variance>
0.1998474896

$$$$
[H]Oc1c([H])c([H])c(N([H])c2nc([H])c(F)c(N([H])c3c([H])c([H])c(C(=O)N([H])[H])c([H])c3[H])n2)c([H])c1[H]


 30 32  0  0  0  0  0  0  0  0999 V2000
   -1.3725   22.3013  -25.5588 C   0  0  0  0  0  0  0  0  0  0  0  0
   -2.4972   22.9326  -25.8523 N   0  0  0  0  0  0  0  0  0  0  0  0
   -2.7231   23.4727  -27.0849 C   0  0  0  0  0  0  0  0  0  0  0  0
   -1.7542   23.3414  -28.0033 N   0  0  0  0  0  0  0  0  0  0  0  0
   -0.6019   22.7214  -27.7788 C   0  0  0  0  0  0  0  0  0  0  0  0
   -0.3680   22.1743  -26.5370 C   0  0  0  0  0  0  0  0  0  0  0  0
    0.7794   21.5342  -26.2505 F   0  0  0  0  0  0  0  0  0  0  0  0
   -1.0920   21.7470  -24.2836 N   0  0  0  0  0  0  0  0  0  0  0  0
   -0.2905   21.0501  -24.2286 H   0  0  0  0  0  0  0  0  0  0  0  0
   -3.1619   22.3946  -20.6697 C   0  0  0  0  0  0  0  0  0  0  0  0
   -1.9878   23.0204  -20.9294 C   0  0  0  0  0  0  0  0  0  0  0  0
   -1.2765   22.8374  -22.1205 C   0  0  0  0  0  0  0  0  0  0  0  0
   -1.7552   22.0078  -23.0696 C   0  0  0  0  0  0  0  0  0  0  0  0
   -2.9761   21.3445  -22.8236 C   0  0  0  0  0  0  0  0  0  0  0  0
   -3.6525   21.5396  -21.6529 C   0  0  0  0  0  0  0  0  0  0  0  0
   -5.2610   22.2131  -19.3583 N   0  0  0  0  0  0  0  0  0  0  0  0
   -3.9073   22.5814  -19.4304 C   0  0  0  0  0  0  0  0  0  0  0  0
   -3.3372   23.0695  -18.4352 O   0  0  0  0  0  0  0  0  0  0  0  0
   -5.9963   22.9292  -19.5100 H   0  0  0  0  0  0  0  0  0  0  0  0
   -5.5530   21.2403  -19.1568 H   0  0  0  0  0  0  0  0  0  0  0  0
   -3.9348   24.1514  -27.3020 N   0  0  0  0  0  0  0  0  0  0  0  0
   -4.3955   24.6100  -26.4614 H   0  0  0  0  0  0  0  0  0  0  0  0
   -4.5769   24.2680  -28.5365 C   0  0  0  0  0  0  0  0  0  0  0  0
   -5.0947   23.2230  -29.2430 C   0  0  0  0  0  0  0  0  0  0  0  0
   -5.7112   23.3856  -30.5030 C   0  0  0  0  0  0  0  0  0  0  0  0
   -5.8002   24.6426  -31.0499 C   0  0  0  0  0  0  0  0  0  0  0  0
   -6.4067   24.8128  -32.2928 O   0  0  0  0  0  0  0  0  0  0  0  0
   -5.2893   25.7306  -30.3672 C   0  0  0  0  0  0  0  0  0  0  0  0
   -4.6979   25.5367  -29.1486 C   0  0  0  0  0  0  0  0  0  0  0  0
   -5.8036   24.7478  -33.1041 H   0  0  0  0  0  0  0  0  0  0  0  0
 16 17  1  0  0  0
 17 18  2  0  0  0
 17 10  1  0  0  0
 10 11  2  0  0  0
 11 12  1  0  0  0
 12 13  2  0  0  0
 13  8  1  0  0  0
  8  1  1  0  0  0
  1  2  2  0  0  0
  2  3  1  0  0  0
  3 21  1  0  0  0
 21 23  1  0  0  0
 23 24  2  0  0  0
 24 25  1  0  0  0
 25 26  2  0  0  0
 26 27  1  0  0  0
 26 28  1  0  0  0
 28 29  2  0  0  0
  3  4  2  0  0  0
  4  5  1  0  0  0
  5  6  2  0  0  0
  6  7  1  0  0  0
 13 14  1  0  0  0
 14 15  2  0  0  0
 15 10  1  0  0  0
  6  1  1  0  0  0
 29 23  1  0  0  0
 16 19  1  0  0  0
 16 20  1  0  0  0
  8  9  1  0  0  0
 21 22  1  0  0  0
 27 30  1  0  0  0
M  END
> <minimizedAffinity>
-7.65858

> <CNNscore>
0.3461983204

> <CNNaffinity>
6.4108567238

> <CNN_VS>
2.2194278240

> <CNNaffinity_variance>
0.2995477617

$$$$
[H]Oc1c([H])c([H])c(N([H])c2nc([H])c(F)c(N([H])c3c([H])c([H])c(C(=O)N([H])[H])c([H])c3[H])n2)c([H])c1[H]


 30 32  0  0  0  0  0  0  0  0999 V2000
   -2.0848   23.0028  -26.9457 C   0  0  0  0  0  0  0  0  0  0  0  0
   -1.9035   22.5264  -25.7251 N   0  0  0  0  0  0  0  0  0  0  0  0
   -0.7074   22.0086  -25.3211 C   0  0  0  0  0  0  0  0  0  0  0  0
    0.2937   21.9974  -26.2140 N   0  0  0  0  0  0  0  0  0  0  0  0
    0.1831   22.4581  -27.4543 C   0  0  0  0  0  0  0  0  0  0  0  0
   -1.0212   22.9820  -27.8680 C   0  0  0  0  0  0  0  0  0  0  0  0
   -1.1935   23.4639  -29.1115 F   0  0  0  0  0  0  0  0  0  0  0  0
   -3.3183   23.5278  -27.4092 N   0  0  0  0  0  0  0  0  0  0  0  0
   -3.4877   23.5007  -28.4589 H   0  0  0  0  0  0  0  0  0  0  0  0
   -6.4500   25.0661  -25.0450 C   0  0  0  0  0  0  0  0  0  0  0  0
   -5.5154   25.8820  -25.5914 C   0  0  0  0  0  0  0  0  0  0  0  0
   -4.4667   25.4095  -26.3883 C   0  0  0  0  0  0  0  0  0  0  0  0
   -4.3552   24.0896  -26.6405 C   0  0  0  0  0  0  0  0  0  0  0  0
   -5.3159   23.2191  -26.0836 C   0  0  0  0  0  0  0  0  0  0  0  0
   -6.3310   23.7043  -25.3088 C   0  0  0  0  0  0  0  0  0  0  0  0
   -8.8605   25.1252  -24.4575 N   0  0  0  0  0  0  0  0  0  0  0  0
   -7.5448   25.5529  -24.2138 C   0  0  0  0  0  0  0  0  0  0  0  0
   -7.3073   26.3505  -23.2858 O   0  0  0  0  0  0  0  0  0  0  0  0
   -9.4913   25.7107  -25.0370 H   0  0  0  0  0  0  0  0  0  0  0  0
   -9.2261   24.2355  -24.0742 H   0  0  0  0  0  0  0  0  0  0  0  0
   -0.6106   21.4979  -24.0150 N   0  0  0  0  0  0  0  0  0  0  0  0
    0.1067   20.7333  -23.8412 H   0  0  0  0  0  0  0  0  0  0  0  0
   -1.3843   21.9188  -22.9315 C   0  0  0  0  0  0  0  0  0  0  0  0
   -0.9488   22.7545  -21.9460 C   0  0  0  0  0  0  0  0  0  0  0  0
   -1.7592   23.1309  -20.8525 C   0  0  0  0  0  0  0  0  0  0  0  0
   -3.0404   22.6431  -20.7666 C   0  0  0  0  0  0  0  0  0  0  0  0
   -3.8473   23.0089  -19.6912 O   0  0  0  0  0  0  0  0  0  0  0  0
   -3.5230   21.7936  -21.7447 C   0  0  0  0  0  0  0  0  0  0  0  0
   -2.7103   21.4492  -22.7902 C   0  0  0  0  0  0  0  0  0  0  0  0
   -3.8069   22.4148  -18.8716 H   0  0  0  0  0  0  0  0  0  0  0  0
 16 17  1  0  0  0
 17 18  2  0  0  0
 17 10  1  0  0  0
 10 11  2  0  0  0
 11 12  1  0  0  0
 12 13  2  0  0  0
 13  8  1  0  0  0
  8  1  1  0  0  0
  1  2  2  0  0  0
  2  3  1  0  0  0
  3 21  1  0  0  0
 21 23  1  0  0  0
 23 24  2  0  0  0
 24 25  1  0  0  0
 25 26  2  0  0  0
 26 27  1  0  0  0
 26 28  1  0  0  0
 28 29  2  0  0  0
  3  4  2  0  0  0
  4  5  1  0  0  0
  5  6  2  0  0  0
  6  7  1  0  0  0
 13 14  1  0  0  0
 14 15  2  0  0  0
 15 10  1  0  0  0
  6  1  1  0  0  0
 29 23  1  0  0  0
 16 19  1  0  0  0
 16 20  1  0  0  0
  8  9  1  0  0  0
 21 22  1  0  0  0
 27 30  1  0  0  0
M  END
> <minimizedAffinity>
-7.66309

> <CNNscore>
0.3376820683

> <CNNaffinity>
6.3260297775

> <CNN_VS>
2.1361868382

> <CNNaffinity_variance>
0.1661115885

$$$$
[H]Oc1c([H])c([H])c(N([H])c2nc([H])c(F)c(N([H])c3c([H])c([H])c(C(=O)N([H])[H])c([H])c3[H])n2)c([H])c1[H]


 30 32  0  0  0  0  0  0  0  0999 V2000
   -3.7721   23.7697  -28.4545 C   0  0  0  0  0  0  0  0  0  0  0  0
   -4.7813   23.3927  -27.6870 N   0  0  0  0  0  0  0  0  0  0  0  0
   -5.9599   24.0796  -27.6527 C   0  0  0  0  0  0  0  0  0  0  0  0
   -6.0644   25.1655  -28.4333 N   0  0  0  0  0  0  0  0  0  0  0  0
   -5.0937   25.6013  -29.2274 C   0  0  0  0  0  0  0  0  0  0  0  0
   -3.9021   24.9125  -29.2665 C   0  0  0  0  0  0  0  0  0  0  0  0
   -2.8832   25.3052  -30.0513 F   0  0  0  0  0  0  0  0  0  0  0  0
   -2.5250   23.0955  -28.5004 N   0  0  0  0  0  0  0  0  0  0  0  0
   -2.1826   22.7836  -29.4578 H   0  0  0  0  0  0  0  0  0  0  0  0
   -0.1099   22.0813  -25.1985 C   0  0  0  0  0  0  0  0  0  0  0  0
    0.4367   22.4743  -26.3751 C   0  0  0  0  0  0  0  0  0  0  0  0
   -0.3322   22.8269  -27.4899 C   0  0  0  0  0  0  0  0  0  0  0  0
   -1.6780   22.7827  -27.4204 C   0  0  0  0  0  0  0  0  0  0  0  0
   -2.2717   22.3770  -26.2063 C   0  0  0  0  0  0  0  0  0  0  0  0
   -1.4998   22.0379  -25.1315 C   0  0  0  0  0  0  0  0  0  0  0  0
    2.0772   21.5541  -24.1509 N   0  0  0  0  0  0  0  0  0  0  0  0
    0.6863   21.7127  -24.0338 C   0  0  0  0  0  0  0  0  0  0  0  0
    0.1266   21.5390  -22.9337 O   0  0  0  0  0  0  0  0  0  0  0  0
    2.4750   20.6072  -24.2984 H   0  0  0  0  0  0  0  0  0  0  0  0
    2.7260   22.3591  -24.0943 H   0  0  0  0  0  0  0  0  0  0  0  0
   -6.9698   23.6253  -26.7869 N   0  0  0  0  0  0  0  0  0  0  0  0
   -7.8246   23.1734  -27.2277 H   0  0  0  0  0  0  0  0  0  0  0  0
   -6.9342   23.7228  -25.3944 C   0  0  0  0  0  0  0  0  0  0  0  0
   -6.2741   22.8573  -24.5731 C   0  0  0  0  0  0  0  0  0  0  0  0
   -6.2897   22.9794  -23.1664 C   0  0  0  0  0  0  0  0  0  0  0  0
   -6.9938   24.0081  -22.5892 C   0  0  0  0  0  0  0  0  0  0  0  0
   -7.0151   24.1365  -21.2019 O   0  0  0  0  0  0  0  0  0  0  0  0
   -7.6767   24.9093  -23.3846 C   0  0  0  0  0  0  0  0  0  0  0  0
   -7.6406   24.7608  -24.7443 C   0  0  0  0  0  0  0  0  0  0  0  0
   -7.7591   23.6528  -20.7133 H   0  0  0  0  0  0  0  0  0  0  0  0
 16 17  1  0  0  0
 17 18  2  0  0  0
 17 10  1  0  0  0
 10 11  2  0  0  0
 11 12  1  0  0  0
 12 13  2  0  0  0
 13  8  1  0  0  0
  8  1  1  0  0  0
  1  2  2  0  0  0
  2  3  1  0  0  0
  3 21  1  0  0  0
 21 23  1  0  0  0
 23 24  2  0  0  0
 24 25  1  0  0  0
 25 26  2  0  0  0
 26 27  1  0  0  0
 26 28  1  0  0  0
 28 29  2  0  0  0
  3  4  2  0  0  0
  4  5  1  0  0  0
  5  6  2  0  0  0
  6  7  1  0  0  0
 13 14  1  0  0  0
 14 15  2  0  0  0
 15 10  1  0  0  0
  6  1  1  0  0  0
 29 23  1  0  0  0
 16 19  1  0  0  0
 16 20  1  0  0  0
  8  9  1  0  0  0
 21 22  1  0  0  0
 27 30  1  0  0  0
M  END
> <minimizedAffinity>
-8.95418

> <CNNscore>
0.3174597621

> <CNNaffinity>
6.3712763786

> <CNN_VS>
2.0226237774

> <CNNaffinity_variance>
0.1289624572

$$$$
[H]Oc1c([H])c([H])c(N([H])c2nc([H])c(F)c(N([H])c3c([H])c([H])c(C(=O)N([H])[H])c([H])c3[H])n2)c([H])c1[H]


 30 32  0  0  0  0  0  0  0  0999 V2000
   -5.5282   22.9452  -24.3326 C   0  0  0  0  0  0  0  0  0  0  0  0
   -4.2763   22.6019  -24.5870 N   0  0  0  0  0  0  0  0  0  0  0  0
   -3.5246   21.8949  -23.6942 C   0  0  0  0  0  0  0  0  0  0  0  0
   -4.1036   21.5539  -22.5332 N   0  0  0  0  0  0  0  0  0  0  0  0
   -5.3537   21.8642  -22.2114 C   0  0  0  0  0  0  0  0  0  0  0  0
   -6.1175   22.5775  -23.1080 C   0  0  0  0  0  0  0  0  0  0  0  0
   -7.3895   22.9204  -22.8385 F   0  0  0  0  0  0  0  0  0  0  0  0
   -6.3334   23.6985  -25.2250 N   0  0  0  0  0  0  0  0  0  0  0  0
   -7.3357   23.8881  -24.9240 H   0  0  0  0  0  0  0  0  0  0  0  0
   -5.2975   25.1614  -29.0395 C   0  0  0  0  0  0  0  0  0  0  0  0
   -5.2894   25.9689  -27.9507 C   0  0  0  0  0  0  0  0  0  0  0  0
   -5.6187   25.5177  -26.6677 C   0  0  0  0  0  0  0  0  0  0  0  0
   -5.9637   24.2285  -26.4757 C   0  0  0  0  0  0  0  0  0  0  0  0
   -5.9794   23.3671  -27.5931 C   0  0  0  0  0  0  0  0  0  0  0  0
   -5.6537   23.8310  -28.8361 C   0  0  0  0  0  0  0  0  0  0  0  0
   -5.9701   25.9185  -31.3052 N   0  0  0  0  0  0  0  0  0  0  0  0
   -4.9554   25.6261  -30.3787 C   0  0  0  0  0  0  0  0  0  0  0  0
   -3.7581   25.7625  -30.6973 O   0  0  0  0  0  0  0  0  0  0  0  0
   -6.2564   25.1998  -31.9965 H   0  0  0  0  0  0  0  0  0  0  0  0
   -6.4473   26.8374  -31.3216 H   0  0  0  0  0  0  0  0  0  0  0  0
   -2.1935   21.5969  -24.0341 N   0  0  0  0  0  0  0  0  0  0  0  0
   -1.6317   21.0150  -23.3448 H   0  0  0  0  0  0  0  0  0  0  0  0
   -1.5557   22.0070  -25.2066 C   0  0  0  0  0  0  0  0  0  0  0  0
   -0.2224   22.2726  -25.3119 C   0  0  0  0  0  0  0  0  0  0  0  0
    0.3746   22.7130  -26.5134 C   0  0  0  0  0  0  0  0  0  0  0  0
   -0.4083   22.8838  -27.6291 C   0  0  0  0  0  0  0  0  0  0  0  0
    0.1719   23.3181  -28.8192 O   0  0  0  0  0  0  0  0  0  0  0  0
   -1.7649   22.6249  -27.5672 C   0  0  0  0  0  0  0  0  0  0  0  0
   -2.3103   22.2001  -26.3865 C   0  0  0  0  0  0  0  0  0  0  0  0
    0.2073   24.3196  -28.9671 H   0  0  0  0  0  0  0  0  0  0  0  0
 16 17  1  0  0  0
 17 18  2  0  0  0
 17 10  1  0  0  0
 10 11  2  0  0  0
 11 12  1  0  0  0
 12 13  2  0  0  0
 13  8  1  0  0  0
  8  1  1  0  0  0
  1  2  2  0  0  0
  2  3  1  0  0  0
  3 21  1  0  0  0
 21 23  1  0  0  0
 23 24  2  0  0  0
 24 25  1  0  0  0
 25 26  2  0  0  0
 26 27  1  0  0  0
 26 28  1  0  0  0
 28 29  2  0  0  0
  3  4  2  0  0  0
  4  5  1  0  0  0
  5  6  2  0  0  0
  6  7  1  0  0  0
 13 14  1  0  0  0
 14 15  2  0  0  0
 15 10  1  0  0  0
  6  1  1  0  0  0
 29 23  1  0  0  0
 16 19  1  0  0  0
 16 20  1  0  0  0
  8  9  1  0  0  0
 21 22  1  0  0  0
 27 30  1  0  0  0
M  END
> <minimizedAffinity>
-8.83454

> <CNNscore>
0.2674823403

> <CNNaffinity>
6.3503160477

> <CNN_VS>
1.6985974312

> <CNNaffinity_variance>
0.3286128640

$$$$
[H]Oc1c([H])c([H])c(N([H])c2nc([H])c(F)c(N([H])c3c([H])c([H])c(C(=O)N([H])[H])c([H])c3[H])n2)c([H])c1[H]


 30 32  0  0  0  0  0  0  0  0999 V2000
   -1.8888   22.4589  -26.4418 C   0  0  0  0  0  0  0  0  0  0  0  0
   -2.7162   22.7249  -25.4446 N   0  0  0  0  0  0  0  0  0  0  0  0
   -2.2784   22.8679  -24.1601 C   0  0  0  0  0  0  0  0  0  0  0  0
   -0.9630   22.7280  -23.9370 N   0  0  0  0  0  0  0  0  0  0  0  0
   -0.0762   22.4613  -24.8884 C   0  0  0  0  0  0  0  0  0  0  0  0
   -0.5117   22.3160  -26.1866 C   0  0  0  0  0  0  0  0  0  0  0  0
    0.3392   22.0461  -27.1924 F   0  0  0  0  0  0  0  0  0  0  0  0
   -2.3084   22.2812  -27.7851 N   0  0  0  0  0  0  0  0  0  0  0  0
   -2.0135   21.3790  -28.2650 H   0  0  0  0  0  0  0  0  0  0  0  0
   -4.7290   24.8456  -30.0934 C   0  0  0  0  0  0  0  0  0  0  0  0
   -3.4831   25.2141  -29.7066 C   0  0  0  0  0  0  0  0  0  0  0  0
   -2.6474   24.3872  -28.9477 C   0  0  0  0  0  0  0  0  0  0  0  0
   -3.0734   23.1650  -28.5695 C   0  0  0  0  0  0  0  0  0  0  0  0
   -4.3666   22.7574  -28.9599 C   0  0  0  0  0  0  0  0  0  0  0  0
   -5.1640   23.5826  -29.7011 C   0  0  0  0  0  0  0  0  0  0  0  0
   -6.3099   25.1750  -31.9778 N   0  0  0  0  0  0  0  0  0  0  0  0
   -5.6041   25.7031  -30.8841 C   0  0  0  0  0  0  0  0  0  0  0  0
   -5.7227   26.9073  -30.5846 O   0  0  0  0  0  0  0  0  0  0  0  0
   -5.9188   25.2682  -32.9343 H   0  0  0  0  0  0  0  0  0  0  0  0
   -7.2174   24.6903  -31.8604 H   0  0  0  0  0  0  0  0  0  0  0  0
   -3.2301   23.1218  -23.1572 N   0  0  0  0  0  0  0  0  0  0  0  0
   -3.0515   22.7034  -22.1969 H   0  0  0  0  0  0  0  0  0  0  0  0
   -4.3897   23.8808  -23.3277 C   0  0  0  0  0  0  0  0  0  0  0  0
   -5.6495   23.4483  -23.0360 C   0  0  0  0  0  0  0  0  0  0  0  0
   -6.7971   24.2422  -23.2520 C   0  0  0  0  0  0  0  0  0  0  0  0
   -6.6522   25.5037  -23.7759 C   0  0  0  0  0  0  0  0  0  0  0  0
   -7.7789   26.2944  -23.9926 O   0  0  0  0  0  0  0  0  0  0  0  0
   -5.3929   25.9827  -24.0852 C   0  0  0  0  0  0  0  0  0  0  0  0
   -4.3026   25.1863  -23.8635 C   0  0  0  0  0  0  0  0  0  0  0  0
   -8.2221   26.2129  -24.9000 H   0  0  0  0  0  0  0  0  0  0  0  0
 16 17  1  0  0  0
 17 18  2  0  0  0
 17 10  1  0  0  0
 10 11  2  0  0  0
 11 12  1  0  0  0
 12 13  2  0  0  0
 13  8  1  0  0  0
  8  1  1  0  0  0
  1  2  2  0  0  0
  2  3  1  0  0  0
  3 21  1  0  0  0
 21 23  1  0  0  0
 23 24  2  0  0  0
 24 25  1  0  0  0
 25 26  2  0  0  0
 26 27  1  0  0  0
 26 28  1  0  0  0
 28 29  2  0  0  0
  3  4  2  0  0  0
  4  5  1  0  0  0
  5  6  2  0  0  0
  6  7  1  0  0  0
 13 14  1  0  0  0
 14 15  2  0  0  0
 15 10  1  0  0  0
  6  1  1  0  0  0
 29 23  1  0  0  0
 16 19  1  0  0  0
 16 20  1  0  0  0
  8  9  1  0  0  0
 21 22  1  0  0  0
 27 30  1  0  0  0
M  END
> <minimizedAffinity>
-8.33638

> <CNNscore>
0.2628312111

> <CNNaffinity>
6.6161460876

> <CNN_VS>
1.7389297485

> <CNNaffinity_variance>
0.0780024678

$$$$
[H]OC(=O)[C@@]1([H])N(C(=O)[C@@]([H])(N([H])[C@]([H])(C(=O)O[H])C([H])([H])C([H])([H])c2c([H])c([H])c([H])c([H])c2[H])C([H])([H])[H])C([H])([H])c2c([H])c([H])c([H])c([H])c2C1([H])[H]


 33 35  0  0  0  0  0  0  0  0999 V2000
   -5.2640   21.8571  -21.5020 C   0  0  0  0  0  0  0  0  0  0  0  0
   -4.5170   21.6555  -22.8300 C   0  0  0  0  0  0  0  0  0  0  0  0
   -5.4487   22.0404  -23.8938 C   0  0  0  0  0  0  0  0  0  0  0  0
   -6.2179   21.1152  -24.3314 O   0  0  0  0  0  0  0  0  0  0  0  0
   -5.5868   23.3149  -24.4835 N   0  0  0  0  0  0  0  0  0  0  0  0
   -6.5717   23.4568  -25.5811 C   0  0  0  0  0  0  0  0  0  0  0  0
   -5.7917   23.9121  -26.7912 C   0  0  0  0  0  0  0  0  0  0  0  0
   -5.9000   23.3339  -28.0274 C   0  0  0  0  0  0  0  0  0  0  0  0
   -5.1053   23.8086  -29.0834 C   0  0  0  0  0  0  0  0  0  0  0  0
   -4.2374   24.8497  -28.8318 C   0  0  0  0  0  0  0  0  0  0  0  0
   -4.1505   25.4205  -27.5553 C   0  0  0  0  0  0  0  0  0  0  0  0
   -4.9258   24.9624  -26.5144 C   0  0  0  0  0  0  0  0  0  0  0  0
   -4.9095   25.5394  -25.1714 C   0  0  0  0  0  0  0  0  0  0  0  0
   -4.8581   24.4925  -24.1053 C   0  0  0  0  0  0  0  0  0  0  0  0
   -5.3381   25.0340  -22.8005 C   0  0  0  0  0  0  0  0  0  0  0  0
   -6.5473   25.2664  -22.6432 O   0  0  0  0  0  0  0  0  0  0  0  0
   -4.4385   25.2644  -21.8003 O   0  0  0  0  0  0  0  0  0  0  0  0
   -3.9562   24.4577  -21.4076 H   0  0  0  0  0  0  0  0  0  0  0  0
   -3.3749   22.5590  -22.7440 N   0  0  0  0  0  0  0  0  0  0  0  0
   -3.0969   22.7692  -23.7364 H   0  0  0  0  0  0  0  0  0  0  0  0
   -2.2691   21.8530  -22.1394 C   0  0  0  0  0  0  0  0  0  0  0  0
   -1.4913   22.7422  -21.2275 C   0  0  0  0  0  0  0  0  0  0  0  0
   -1.7104   23.9769  -21.1526 O   0  0  0  0  0  0  0  0  0  0  0  0
   -0.4831   22.2443  -20.4136 O   0  0  0  0  0  0  0  0  0  0  0  0
    0.2026   21.5673  -20.7149 H   0  0  0  0  0  0  0  0  0  0  0  0
   -1.3779   21.2079  -23.1700 C   0  0  0  0  0  0  0  0  0  0  0  0
   -0.4376   22.2030  -23.8081 C   0  0  0  0  0  0  0  0  0  0  0  0
   -0.7143   22.3725  -25.2563 C   0  0  0  0  0  0  0  0  0  0  0  0
   -1.9817   22.1727  -25.7890 C   0  0  0  0  0  0  0  0  0  0  0  0
   -2.2708   22.3189  -27.1277 C   0  0  0  0  0  0  0  0  0  0  0  0
   -1.2663   22.6819  -28.0034 C   0  0  0  0  0  0  0  0  0  0  0  0
    0.0164   22.8899  -27.5012 C   0  0  0  0  0  0  0  0  0  0  0  0
    0.2692   22.7349  -26.1581 C   0  0  0  0  0  0  0  0  0  0  0  0
  1  2  1  0  0  0
  2 19  1  0  0  0
 19 21  1  0  0  0
 21 26  1  0  0  0
 26 27  1  0  0  0
 27 28  1  0  0  0
 28 29  2  0  0  0
 29 30  1  0  0  0
 30 31  2  0  0  0
 31 32  1  0  0  0
 32 33  2  0  0  0
 21 22  1  0  0  0
 22 23  2  0  0  0
 22 24  1  0  0  0
  2  3  1  0  0  0
  3  4  2  0  0  0
  3  5  1  0  0  0
  5  6  1  0  0  0
  6  7  1  0  0  0
  7  8  2  0  0  0
  8  9  1  0  0  0
  9 10  2  0  0  0
 10 11  1  0  0  0
 11 12  2  0  0  0
 12 13  1  0  0  0
 13 14  1  0  0  0
 14 15  1  0  0  0
 15 16  2  0  0  0
 15 17  1  0  0  0
 33 28  1  0  0  0
 14  5  1  0  0  0
 12  7  1  0  0  0
 19 20  1  0  0  0
 24 25  1  0  0  0
 17 18  1  0  0  0
M  END
> <minimizedAffinity>
-8.89114

> <CNNscore>
0.4854681790

> <CNNaffinity>
6.3117408752

> <CNN_VS>
3.0641493797

> <CNNaffinity_variance>
0.1556596607

$$$$
[H]OC(=O)[C@@]1([H])N(C(=O)[C@@]([H])(N([H])[C@]([H])(C(=O)O[H])C([H])([H])C([H])([H])c2c([H])c([H])c([H])c([H])c2[H])C([H])([H])[H])C([H])([H])c2c([H])c([H])c([H])c([H])c2C1([H])[H]


 33 35  0  0  0  0  0  0  0  0999 V2000
   -3.8677   26.4001  -24.2576 C   0  0  0  0  0  0  0  0  0  0  0  0
   -5.0075   25.3749  -24.1487 C   0  0  0  0  0  0  0  0  0  0  0  0
   -4.4394   24.0791  -24.5311 C   0  0  0  0  0  0  0  0  0  0  0  0
   -4.0778   23.3161  -23.5688 O   0  0  0  0  0  0  0  0  0  0  0  0
   -4.2500   23.5864  -25.8397 N   0  0  0  0  0  0  0  0  0  0  0  0
   -3.6113   22.2573  -25.9836 C   0  0  0  0  0  0  0  0  0  0  0  0
   -2.3548   22.4785  -26.7913 C   0  0  0  0  0  0  0  0  0  0  0  0
   -1.1262   21.9910  -26.4351 C   0  0  0  0  0  0  0  0  0  0  0  0
   -0.0100   22.2802  -27.2367 C   0  0  0  0  0  0  0  0  0  0  0  0
   -0.1966   23.0522  -28.3635 C   0  0  0  0  0  0  0  0  0  0  0  0
   -1.4674   23.5357  -28.7012 C   0  0  0  0  0  0  0  0  0  0  0  0
   -2.5673   23.2570  -27.9220 C   0  0  0  0  0  0  0  0  0  0  0  0
   -3.9238   23.6990  -28.2400 C   0  0  0  0  0  0  0  0  0  0  0  0
   -4.6309   24.2608  -27.0484 C   0  0  0  0  0  0  0  0  0  0  0  0
   -6.1099   24.2351  -27.2430 C   0  0  0  0  0  0  0  0  0  0  0  0
   -6.6780   23.1543  -27.4667 O   0  0  0  0  0  0  0  0  0  0  0  0
   -6.8144   25.4019  -27.1711 O   0  0  0  0  0  0  0  0  0  0  0  0
   -6.8353   25.8830  -26.2735 H   0  0  0  0  0  0  0  0  0  0  0  0
   -5.3961   25.4131  -22.7431 N   0  0  0  0  0  0  0  0  0  0  0  0
   -4.7310   24.7711  -22.2414 H   0  0  0  0  0  0  0  0  0  0  0  0
   -6.7146   24.8379  -22.6104 C   0  0  0  0  0  0  0  0  0  0  0  0
   -7.7594   25.8972  -22.4940 C   0  0  0  0  0  0  0  0  0  0  0  0
   -7.8545   26.6321  -21.4795 O   0  0  0  0  0  0  0  0  0  0  0  0
   -8.6811   26.1224  -23.5071 O   0  0  0  0  0  0  0  0  0  0  0  0
   -9.1535   25.3878  -24.0136 H   0  0  0  0  0  0  0  0  0  0  0  0
   -6.7931   23.8604  -21.4654 C   0  0  0  0  0  0  0  0  0  0  0  0
   -7.7647   22.7380  -21.7446 C   0  0  0  0  0  0  0  0  0  0  0  0
   -8.8069   22.6368  -20.6929 C   0  0  0  0  0  0  0  0  0  0  0  0
   -8.8196   21.5979  -19.7707 C   0  0  0  0  0  0  0  0  0  0  0  0
   -9.7736   21.4737  -18.7850 C   0  0  0  0  0  0  0  0  0  0  0  0
  -10.7777   22.4173  -18.6892 C   0  0  0  0  0  0  0  0  0  0  0  0
  -10.7937   23.4721  -19.5990 C   0  0  0  0  0  0  0  0  0  0  0  0
   -9.8247   23.5648  -20.5708 C   0  0  0  0  0  0  0  0  0  0  0  0
  1  2  1  0  0  0
  2 19  1  0  0  0
 19 21  1  0  0  0
 21 26  1  0  0  0
 26 27  1  0  0  0
 27 28  1  0  0  0
 28 29  2  0  0  0
 29 30  1  0  0  0
 30 31  2  0  0  0
 31 32  1  0  0  0
 32 33  2  0  0  0
 21 22  1  0  0  0
 22 23  2  0  0  0
 22 24  1  0  0  0
  2  3  1  0  0  0
  3  4  2  0  0  0
  3  5  1  0  0  0
  5  6  1  0  0  0
  6  7  1  0  0  0
  7  8  2  0  0  0
  8  9  1  0  0  0
  9 10  2  0  0  0
 10 11  1  0  0  0
 11 12  2  0  0  0
 12 13  1  0  0  0
 13 14  1  0  0  0
 14 15  1  0  0  0
 15 16  2  0  0  0
 15 17  1  0  0  0
 33 28  1  0  0  0
 14  5  1  0  0  0
 12  7  1  0  0  0
 19 20  1  0  0  0
 24 25  1  0  0  0
 17 18  1  0  0  0
M  END
> <minimizedAffinity>
-8.34802

> <CNNscore>
0.3082308471

> <CNNaffinity>
5.9375810623

> <CNN_VS>
1.8301455975

> <CNNaffinity_variance>
0.3412100971

$$$$
[H]OC(=O)[C@@]1([H])N(C(=O)[C@@]([H])(N([H])[C@]([H])(C(=O)O[H])C([H])([H])C([H])([H])c2c([H])c([H])c([H])c([H])c2[H])C([H])([H])[H])C([H])([H])c2c([H])c([H])c([H])c([H])c2C1([H])[H]


 33 35  0  0  0  0  0  0  0  0999 V2000
   -1.6754   21.1545  -22.8044 C   0  0  0  0  0  0  0  0  0  0  0  0
   -2.1628   21.3022  -24.2545 C   0  0  0  0  0  0  0  0  0  0  0  0
   -3.5859   21.6449  -24.1823 C   0  0  0  0  0  0  0  0  0  0  0  0
   -4.4077   20.6752  -24.3353 O   0  0  0  0  0  0  0  0  0  0  0  0
   -4.1429   22.9227  -23.9633 N   0  0  0  0  0  0  0  0  0  0  0  0
   -5.6201   23.0354  -23.9755 C   0  0  0  0  0  0  0  0  0  0  0  0
   -5.9600   24.0050  -25.0820 C   0  0  0  0  0  0  0  0  0  0  0  0
   -6.9057   23.7625  -26.0417 C   0  0  0  0  0  0  0  0  0  0  0  0
   -7.1252   24.7146  -27.0504 C   0  0  0  0  0  0  0  0  0  0  0  0
   -6.3718   25.8689  -27.0352 C   0  0  0  0  0  0  0  0  0  0  0  0
   -5.4118   26.0876  -26.0386 C   0  0  0  0  0  0  0  0  0  0  0  0
   -5.1900   25.1607  -25.0456 C   0  0  0  0  0  0  0  0  0  0  0  0
   -4.2316   25.3461  -23.9576 C   0  0  0  0  0  0  0  0  0  0  0  0
   -3.3994   24.1266  -23.7213 C   0  0  0  0  0  0  0  0  0  0  0  0
   -2.8125   24.1374  -22.3496 C   0  0  0  0  0  0  0  0  0  0  0  0
   -3.5642   24.0891  -21.3630 O   0  0  0  0  0  0  0  0  0  0  0  0
   -1.4569   24.1996  -22.2025 O   0  0  0  0  0  0  0  0  0  0  0  0
   -0.9110   23.4102  -22.5437 H   0  0  0  0  0  0  0  0  0  0  0  0
   -1.3601   22.3927  -24.7972 N   0  0  0  0  0  0  0  0  0  0  0  0
   -1.9089   23.2723  -24.6197 H   0  0  0  0  0  0  0  0  0  0  0  0
   -1.2720   22.2355  -26.2305 C   0  0  0  0  0  0  0  0  0  0  0  0
    0.1442   22.2981  -26.6972 C   0  0  0  0  0  0  0  0  0  0  0  0
    0.4538   22.7382  -27.8324 O   0  0  0  0  0  0  0  0  0  0  0  0
    1.1928   21.8710  -25.8943 O   0  0  0  0  0  0  0  0  0  0  0  0
    1.1708   21.0286  -25.3383 H   0  0  0  0  0  0  0  0  0  0  0  0
   -2.1366   23.2297  -26.9633 C   0  0  0  0  0  0  0  0  0  0  0  0
   -3.3387   22.5735  -27.6004 C   0  0  0  0  0  0  0  0  0  0  0  0
   -3.9469   23.4337  -28.6456 C   0  0  0  0  0  0  0  0  0  0  0  0
   -3.4427   24.6935  -28.9434 C   0  0  0  0  0  0  0  0  0  0  0  0
   -3.9853   25.5171  -29.9048 C   0  0  0  0  0  0  0  0  0  0  0  0
   -5.0862   25.0904  -30.6216 C   0  0  0  0  0  0  0  0  0  0  0  0
   -5.6164   23.8317  -30.3473 C   0  0  0  0  0  0  0  0  0  0  0  0
   -5.0487   23.0354  -29.3800 C   0  0  0  0  0  0  0  0  0  0  0  0
  1  2  1  0  0  0
  2 19  1  0  0  0
 19 21  1  0  0  0
 21 26  1  0  0  0
 26 27  1  0  0  0
 27 28  1  0  0  0
 28 29  2  0  0  0
 29 30  1  0  0  0
 30 31  2  0  0  0
 31 32  1  0  0  0
 32 33  2  0  0  0
 21 22  1  0  0  0
 22 23  2  0  0  0
 22 24  1  0  0  0
  2  3  1  0  0  0
  3  4  2  0  0  0
  3  5  1  0  0  0
  5  6  1  0  0  0
  6  7  1  0  0  0
  7  8  2  0  0  0
  8  9  1  0  0  0
  9 10  2  0  0  0
 10 11  1  0  0  0
 11 12  2  0  0  0
 12 13  1  0  0  0
 13 14  1  0  0  0
 14 15  1  0  0  0
 15 16  2  0  0  0
 15 17  1  0  0  0
 33 28  1  0  0  0
 14  5  1  0  0  0
 12  7  1  0  0  0
 19 20  1  0  0  0
 24 25  1  0  0  0
 17 18  1  0  0  0
M  END
> <minimizedAffinity>
-8.99383

> <CNNscore>
0.2951150835

> <CNNaffinity>
6.2629065514

> <CNN_VS>
1.8482781649

> <CNNaffinity_variance>
0.3604519367

$$$$
[H]OC(=O)[C@@]1([H])N(C(=O)[C@@]([H])(N([H])[C@]([H])(C(=O)O[H])C([H])([H])C([H])([H])c2c([H])c([H])c([H])c([H])c2[H])C([H])([H])[H])C([H])([H])c2c([H])c([H])c([H])c([H])c2C1([H])[H]


 33 35  0  0  0  0  0  0  0  0999 V2000
   -5.0650   24.1805  -21.4523 C   0  0  0  0  0  0  0  0  0  0  0  0
   -4.3127   24.7872  -22.6473 C   0  0  0  0  0  0  0  0  0  0  0  0
   -3.0779   24.0124  -22.7984 C   0  0  0  0  0  0  0  0  0  0  0  0
   -2.0884   24.3819  -22.0749 O   0  0  0  0  0  0  0  0  0  0  0  0
   -2.8653   22.9089  -23.6517 N   0  0  0  0  0  0  0  0  0  0  0  0
   -1.5109   22.3086  -23.6679 C   0  0  0  0  0  0  0  0  0  0  0  0
   -1.0137   22.4282  -25.0886 C   0  0  0  0  0  0  0  0  0  0  0  0
    0.2196   22.9188  -25.4239 C   0  0  0  0  0  0  0  0  0  0  0  0
    0.5767   23.0217  -26.7782 C   0  0  0  0  0  0  0  0  0  0  0  0
   -0.3384   22.6205  -27.7280 C   0  0  0  0  0  0  0  0  0  0  0  0
   -1.5926   22.1220  -27.3523 C   0  0  0  0  0  0  0  0  0  0  0  0
   -1.9512   22.0169  -26.0276 C   0  0  0  0  0  0  0  0  0  0  0  0
   -3.2275   21.4705  -25.5702 C   0  0  0  0  0  0  0  0  0  0  0  0
   -3.8538   22.3102  -24.5033 C   0  0  0  0  0  0  0  0  0  0  0  0
   -4.8454   21.5216  -23.7154 C   0  0  0  0  0  0  0  0  0  0  0  0
   -6.0284   21.4795  -24.0893 O   0  0  0  0  0  0  0  0  0  0  0  0
   -4.4345   20.8583  -22.5955 O   0  0  0  0  0  0  0  0  0  0  0  0
   -3.7692   20.0968  -22.7185 H   0  0  0  0  0  0  0  0  0  0  0  0
   -5.2189   24.6057  -23.7759 N   0  0  0  0  0  0  0  0  0  0  0  0
   -4.6132   24.3388  -24.5934 H   0  0  0  0  0  0  0  0  0  0  0  0
   -5.8204   25.8790  -24.0977 C   0  0  0  0  0  0  0  0  0  0  0  0
   -7.2637   25.9085  -23.7191 C   0  0  0  0  0  0  0  0  0  0  0  0
   -7.6626   26.4352  -22.6506 O   0  0  0  0  0  0  0  0  0  0  0  0
   -8.2397   25.3524  -24.5345 O   0  0  0  0  0  0  0  0  0  0  0  0
   -8.1432   24.4642  -25.0047 H   0  0  0  0  0  0  0  0  0  0  0  0
   -5.6246   26.2477  -25.5463 C   0  0  0  0  0  0  0  0  0  0  0  0
   -4.4175   25.5660  -26.1460 C   0  0  0  0  0  0  0  0  0  0  0  0
   -4.7243   24.9632  -27.4670 C   0  0  0  0  0  0  0  0  0  0  0  0
   -4.4224   25.6128  -28.6573 C   0  0  0  0  0  0  0  0  0  0  0  0
   -4.6964   25.0825  -29.8986 C   0  0  0  0  0  0  0  0  0  0  0  0
   -5.3014   23.8441  -29.9892 C   0  0  0  0  0  0  0  0  0  0  0  0
   -5.6174   23.1662  -28.8140 C   0  0  0  0  0  0  0  0  0  0  0  0
   -5.3291   23.7260  -27.5911 C   0  0  0  0  0  0  0  0  0  0  0  0
  1  2  1  0  0  0
  2 19  1  0  0  0
 19 21  1  0  0  0
 21 26  1  0  0  0
 26 27  1  0  0  0
 27 28  1  0  0  0
 28 29  2  0  0  0
 29 30  1  0  0  0
 30 31  2  0  0  0
 31 32  1  0  0  0
 32 33  2  0  0  0
 21 22  1  0  0  0
 22 23  2  0  0  0
 22 24  1  0  0  0
  2  3  1  0  0  0
  3  4  2  0  0  0
  3  5  1  0  0  0
  5  6  1  0  0  0
  6  7  1  0  0  0
  7  8  2  0  0  0
  8  9  1  0  0  0
  9 10  2  0  0  0
 10 11  1  0  0  0
 11 12  2  0  0  0
 12 13  1  0  0  0
 13 14  1  0  0  0
 14 15  1  0  0  0
 15 16  2  0  0  0
 15 17  1  0  0  0
 33 28  1  0  0  0
 14  5  1  0  0  0
 12  7  1  0  0  0
 19 20  1  0  0  0
 24 25  1  0  0  0
 17 18  1  0  0  0
M  END
> <minimizedAffinity>
-9.19795

> <CNNscore>
0.2681554258

> <CNNaffinity>
5.7693939209

> <CNN_VS>
1.5470942259

> <CNNaffinity_variance>
0.6455635428

$$$$
[H]OC(=O)[C@@]1([H])N(C(=O)[C@@]([H])(N([H])[C@]([H])(C(=O)O[H])C([H])([H])C([H])([H])c2c([H])c([H])c([H])c([H])c2[H])C([H])([H])[H])C([H])([H])c2c([H])c([H])c([H])c([H])c2C1([H])[H]


 33 35  0  0  0  0  0  0  0  0999 V2000
   -5.2793   27.1059  -25.3641 C   0  0  0  0  0  0  0  0  0  0  0  0
   -4.3574   25.8801  -25.4617 C   0  0  0  0  0  0  0  0  0  0  0  0
   -4.0309   25.4945  -24.0859 C   0  0  0  0  0  0  0  0  0  0  0  0
   -3.5640   26.4216  -23.3364 O   0  0  0  0  0  0  0  0  0  0  0  0
   -4.1757   24.2175  -23.5034 N   0  0  0  0  0  0  0  0  0  0  0  0
   -3.7345   24.0533  -22.0986 C   0  0  0  0  0  0  0  0  0  0  0  0
   -2.6580   22.9947  -22.1157 C   0  0  0  0  0  0  0  0  0  0  0  0
   -1.4447   23.1338  -21.4973 C   0  0  0  0  0  0  0  0  0  0  0  0
   -0.4955   22.1039  -21.5998 C   0  0  0  0  0  0  0  0  0  0  0  0
   -0.8257   20.9805  -22.3273 C   0  0  0  0  0  0  0  0  0  0  0  0
   -2.0766   20.8681  -22.9482 C   0  0  0  0  0  0  0  0  0  0  0  0
   -3.0134   21.8720  -22.8526 C   0  0  0  0  0  0  0  0  0  0  0  0
   -4.3481   21.7994  -23.4444 C   0  0  0  0  0  0  0  0  0  0  0  0
   -4.7228   23.0608  -24.1542 C   0  0  0  0  0  0  0  0  0  0  0  0
   -6.2031   23.1702  -24.3046 C   0  0  0  0  0  0  0  0  0  0  0  0
   -6.8624   23.7708  -23.4411 O   0  0  0  0  0  0  0  0  0  0  0  0
   -6.8084   22.6077  -25.3910 O   0  0  0  0  0  0  0  0  0  0  0  0
   -6.5815   22.9926  -26.3064 H   0  0  0  0  0  0  0  0  0  0  0  0
   -5.1653   24.8721  -26.1396 N   0  0  0  0  0  0  0  0  0  0  0  0
   -5.0027   23.9728  -25.6189 H   0  0  0  0  0  0  0  0  0  0  0  0
   -4.6474   24.6833  -27.4748 C   0  0  0  0  0  0  0  0  0  0  0  0
   -5.6085   25.1767  -28.5044 C   0  0  0  0  0  0  0  0  0  0  0  0
   -5.7954   26.4019  -28.7099 O   0  0  0  0  0  0  0  0  0  0  0  0
   -6.3458   24.3004  -29.2887 O   0  0  0  0  0  0  0  0  0  0  0  0
   -6.7944   23.4679  -28.9352 H   0  0  0  0  0  0  0  0  0  0  0  0
   -4.2539   23.2509  -27.7320 C   0  0  0  0  0  0  0  0  0  0  0  0
   -3.0119   23.1494  -28.5858 C   0  0  0  0  0  0  0  0  0  0  0  0
   -1.7976   22.9123  -27.7664 C   0  0  0  0  0  0  0  0  0  0  0  0
   -1.8728   22.6345  -26.4072 C   0  0  0  0  0  0  0  0  0  0  0  0
   -0.7656   22.4126  -25.6185 C   0  0  0  0  0  0  0  0  0  0  0  0
    0.4929   22.4637  -26.1854 C   0  0  0  0  0  0  0  0  0  0  0  0
    0.6031   22.7400  -27.5463 C   0  0  0  0  0  0  0  0  0  0  0  0
   -0.5243   22.9565  -28.3039 C   0  0  0  0  0  0  0  0  0  0  0  0
  1  2  1  0  0  0
  2 19  1  0  0  0
 19 21  1  0  0  0
 21 26  1  0  0  0
 26 27  1  0  0  0
 27 28  1  0  0  0
 28 29  2  0  0  0
 29 30  1  0  0  0
 30 31  2  0  0  0
 31 32  1  0  0  0
 32 33  2  0  0  0
 21 22  1  0  0  0
 22 23  2  0  0  0
 22 24  1  0  0  0
  2  3  1  0  0  0
  3  4  2  0  0  0
  3  5  1  0  0  0
  5  6  1  0  0  0
  6  7  1  0  0  0
  7  8  2  0  0  0
  8  9  1  0  0  0
  9 10  2  0  0  0
 10 11  1  0  0  0
 11 12  2  0  0  0
 12 13  1  0  0  0
 13 14  1  0  0  0
 14 15  1  0  0  0
 15 16  2  0  0  0
 15 17  1  0  0  0
 33 28  1  0  0  0
 14  5  1  0  0  0
 12  7  1  0  0  0
 19 20  1  0  0  0
 24 25  1  0  0  0
 17 18  1  0  0  0
M  END
> <minimizedAffinity>
-7.79035

> <CNNscore>
0.2521162331

> <CNNaffinity>
6.1372327805

> <CNN_VS>
1.5472960472

> <CNNaffinity_variance>
0.2064481527

$$$$
[H]OC(=O)[C@@]1([H])N(C(=O)[C@@]([H])(N([H])[C@]([H])(C(=O)O[H])C([H])([H])C([H])([H])c2c([H])c([H])c([H])c([H])c2[H])C([H])([H])[H])C([H])([H])c2c([H])c([H])c([H])c([H])c2C1([H])[H]


 33 35  0  0  0  0  0  0  0  0999 V2000
   -6.4645   22.1681  -18.0394 C   0  0  0  0  0  0  0  0  0  0  0  0
   -5.5889   21.8413  -19.2595 C   0  0  0  0  0  0  0  0  0  0  0  0
   -6.4284   22.0513  -20.4423 C   0  0  0  0  0  0  0  0  0  0  0  0
   -7.0612   21.0253  -20.8738 O   0  0  0  0  0  0  0  0  0  0  0  0
   -6.6122   23.2572  -21.1517 N   0  0  0  0  0  0  0  0  0  0  0  0
   -7.4795   23.2183  -22.3522 C   0  0  0  0  0  0  0  0  0  0  0  0
   -6.6145   23.6516  -23.5115 C   0  0  0  0  0  0  0  0  0  0  0  0
   -6.5357   22.9718  -24.6971 C   0  0  0  0  0  0  0  0  0  0  0  0
   -5.6747   23.4378  -25.7040 C   0  0  0  0  0  0  0  0  0  0  0  0
   -4.9341   24.5740  -25.4569 C   0  0  0  0  0  0  0  0  0  0  0  0
   -5.0378   25.2475  -24.2328 C   0  0  0  0  0  0  0  0  0  0  0  0
   -5.8794   24.7987  -23.2404 C   0  0  0  0  0  0  0  0  0  0  0  0
   -6.0609   25.4767  -21.9582 C   0  0  0  0  0  0  0  0  0  0  0  0
   -6.0351   24.5251  -20.8052 C   0  0  0  0  0  0  0  0  0  0  0  0
   -6.7008   25.1171  -19.6083 C   0  0  0  0  0  0  0  0  0  0  0  0
   -6.0134   25.4549  -18.6314 O   0  0  0  0  0  0  0  0  0  0  0  0
   -8.0562   25.2782  -19.6080 O   0  0  0  0  0  0  0  0  0  0  0  0
   -8.4514   25.9321  -20.2816 H   0  0  0  0  0  0  0  0  0  0  0  0
   -4.4917   22.7999  -19.1852 N   0  0  0  0  0  0  0  0  0  0  0  0
   -4.7674   23.6040  -19.8046 H   0  0  0  0  0  0  0  0  0  0  0  0
   -3.3139   22.2035  -19.7717 C   0  0  0  0  0  0  0  0  0  0  0  0
   -2.1434   22.2947  -18.8502 C   0  0  0  0  0  0  0  0  0  0  0  0
   -1.5172   23.3690  -18.6713 O   0  0  0  0  0  0  0  0  0  0  0  0
   -1.6886   21.1906  -18.1427 O   0  0  0  0  0  0  0  0  0  0  0  0
   -1.5997   20.2654  -18.5369 H   0  0  0  0  0  0  0  0  0  0  0  0
   -2.9959   22.7898  -21.1237 C   0  0  0  0  0  0  0  0  0  0  0  0
   -3.3197   21.8325  -22.2464 C   0  0  0  0  0  0  0  0  0  0  0  0
   -2.3504   21.9460  -23.3644 C   0  0  0  0  0  0  0  0  0  0  0  0
   -2.7488   21.8570  -24.6923 C   0  0  0  0  0  0  0  0  0  0  0  0
   -1.8746   21.9552  -25.7521 C   0  0  0  0  0  0  0  0  0  0  0  0
   -0.5297   22.1522  -25.5067 C   0  0  0  0  0  0  0  0  0  0  0  0
   -0.0972   22.2459  -24.1859 C   0  0  0  0  0  0  0  0  0  0  0  0
   -0.9984   22.1432  -23.1518 C   0  0  0  0  0  0  0  0  0  0  0  0
  1  2  1  0  0  0
  2 19  1  0  0  0
 19 21  1  0  0  0
 21 26  1  0  0  0
 26 27  1  0  0  0
 27 28  1  0  0  0
 28 29  2  0  0  0
 29 30  1  0  0  0
 30 31  2  0  0  0
 31 32  1  0  0  0
 32 33  2  0  0  0
 21 22  1  0  0  0
 22 23  2  0  0  0
 22 24  1  0  0  0
  2  3  1  0  0  0
  3  4  2  0  0  0
  3  5  1  0  0  0
  5  6  1  0  0  0
  6  7  1  0  0  0
  7  8  2  0  0  0
  8  9  1  0  0  0
  9 10  2  0  0  0
 10 11  1  0  0  0
 11 12  2  0  0  0
 12 13  1  0  0  0
 13 14  1  0  0  0
 14 15  1  0  0  0
 15 16  2  0  0  0
 15 17  1  0  0  0
 33 28  1  0  0  0
 14  5  1  0  0  0
 12  7  1  0  0  0
 19 20  1  0  0  0
 24 25  1  0  0  0
 17 18  1  0  0  0
M  END
> <minimizedAffinity>
-7.19729

> <CNNscore>
0.2303058058

> <CNNaffinity>
5.3124489784

> <CNN_VS>
1.2234878540

> <CNNaffinity_variance>
0.2365058362

$$$$
[H]OC(=O)[C@@]1([H])N(C(=O)[C@@]([H])(N([H])[C@]([H])(C(=O)O[H])C([H])([H])C([H])([H])c2c([H])c([H])c([H])c([H])c2[H])C([H])([H])[H])C([H])([H])c2c([H])c([H])c([H])c([H])c2C1([H])[H]


 33 35  0  0  0  0  0  0  0  0999 V2000
   -5.8154   25.5646  -24.3413 C   0  0  0  0  0  0  0  0  0  0  0  0
   -5.3481   24.3075  -25.0918 C   0  0  0  0  0  0  0  0  0  0  0  0
   -5.8317   23.1588  -24.3208 C   0  0  0  0  0  0  0  0  0  0  0  0
   -6.5302   22.3010  -24.9653 O   0  0  0  0  0  0  0  0  0  0  0  0
   -5.6104   22.8996  -22.9515 N   0  0  0  0  0  0  0  0  0  0  0  0
   -6.2404   21.6891  -22.3747 C   0  0  0  0  0  0  0  0  0  0  0  0
   -7.1494   22.1725  -21.2701 C   0  0  0  0  0  0  0  0  0  0  0  0
   -8.4522   21.7765  -21.1294 C   0  0  0  0  0  0  0  0  0  0  0  0
   -9.2271   22.3100  -20.0867 C   0  0  0  0  0  0  0  0  0  0  0  0
   -8.6394   23.2217  -19.2359 C   0  0  0  0  0  0  0  0  0  0  0  0
   -7.3030   23.6062  -19.4063 C   0  0  0  0  0  0  0  0  0  0  0  0
   -6.5357   23.0883  -20.4248 C   0  0  0  0  0  0  0  0  0  0  0  0
   -5.1272   23.4194  -20.6327 C   0  0  0  0  0  0  0  0  0  0  0  0
   -4.8181   23.7064  -22.0671 C   0  0  0  0  0  0  0  0  0  0  0  0
   -3.3607   23.5456  -22.3426 C   0  0  0  0  0  0  0  0  0  0  0  0
   -2.7155   24.5034  -22.7978 O   0  0  0  0  0  0  0  0  0  0  0  0
   -2.7603   22.3464  -22.0885 O   0  0  0  0  0  0  0  0  0  0  0  0
   -2.7179   22.0388  -21.1184 H   0  0  0  0  0  0  0  0  0  0  0  0
   -5.9913   24.4050  -26.3976 N   0  0  0  0  0  0  0  0  0  0  0  0
   -6.5188   23.5044  -26.5284 H   0  0  0  0  0  0  0  0  0  0  0  0
   -4.9686   24.4439  -27.4170 C   0  0  0  0  0  0  0  0  0  0  0  0
   -5.5090   24.9618  -28.7082 C   0  0  0  0  0  0  0  0  0  0  0  0
   -6.0703   24.2118  -29.5453 O   0  0  0  0  0  0  0  0  0  0  0  0
   -5.4170   26.3046  -29.0474 O   0  0  0  0  0  0  0  0  0  0  0  0
   -4.5925   26.8684  -28.9003 H   0  0  0  0  0  0  0  0  0  0  0  0
   -4.2993   23.1054  -27.5988 C   0  0  0  0  0  0  0  0  0  0  0  0
   -2.9452   23.2339  -28.2557 C   0  0  0  0  0  0  0  0  0  0  0  0
   -1.8487   22.8252  -27.3430 C   0  0  0  0  0  0  0  0  0  0  0  0
   -2.0926   22.4362  -26.0318 C   0  0  0  0  0  0  0  0  0  0  0  0
   -1.0979   22.0543  -25.1590 C   0  0  0  0  0  0  0  0  0  0  0  0
    0.2155   22.0499  -25.5865 C   0  0  0  0  0  0  0  0  0  0  0  0
    0.4942   22.4346  -26.8961 C   0  0  0  0  0  0  0  0  0  0  0  0
   -0.5244   22.8102  -27.7406 C   0  0  0  0  0  0  0  0  0  0  0  0
  1  2  1  0  0  0
  2 19  1  0  0  0
 19 21  1  0  0  0
 21 26  1  0  0  0
 26 27  1  0  0  0
 27 28  1  0  0  0
 28 29  2  0  0  0
 29 30  1  0  0  0
 30 31  2  0  0  0
 31 32  1  0  0  0
 32 33  2  0  0  0
 21 22  1  0  0  0
 22 23  2  0  0  0
 22 24  1  0  0  0
  2  3  1  0  0  0
  3  4  2  0  0  0
  3  5  1  0  0  0
  5  6  1  0  0  0
  6  7  1  0  0  0
  7  8  2  0  0  0
  8  9  1  0  0  0
  9 10  2  0  0  0
 10 11  1  0  0  0
 11 12  2  0  0  0
 12 13  1  0  0  0
 13 14  1  0  0  0
 14 15  1  0  0  0
 15 16  2  0  0  0
 15 17  1  0  0  0
 33 28  1  0  0  0
 14  5  1  0  0  0
 12  7  1  0  0  0
 19 20  1  0  0  0
 24 25  1  0  0  0
 17 18  1  0  0  0
M  END
> <minimizedAffinity>
-8.23870

> <CNNscore>
0.2199632227

> <CNNaffinity>
5.9628291130

> <CNN_VS>
1.3116030693

> <CNNaffinity_variance>
0.1902697980

$$$$
[H]OC(=O)[C@@]1([H])N(C(=O)[C@@]([H])(N([H])[C@]([H])(C(=O)O[H])C([H])([H])C([H])([H])c2c([H])c([H])c([H])c([H])c2[H])C([H])([H])[H])C([H])([H])c2c([H])c([H])c([H])c([H])c2C1([H])[H]


 33 35  0  0  0  0  0  0  0  0999 V2000
   -5.1047   27.2564  -25.5846 C   0  0  0  0  0  0  0  0  0  0  0  0
   -5.2587   25.8744  -26.2392 C   0  0  0  0  0  0  0  0  0  0  0  0
   -6.3948   25.2256  -25.5787 C   0  0  0  0  0  0  0  0  0  0  0  0
   -7.4152   24.9895  -26.3151 O   0  0  0  0  0  0  0  0  0  0  0  0
   -6.4827   24.8359  -24.2254 N   0  0  0  0  0  0  0  0  0  0  0  0
   -7.7571   24.2335  -23.7692 C   0  0  0  0  0  0  0  0  0  0  0  0
   -8.2762   25.1280  -22.6690 C   0  0  0  0  0  0  0  0  0  0  0  0
   -9.5612   25.5964  -22.6124 C   0  0  0  0  0  0  0  0  0  0  0  0
   -9.9387   26.4518  -21.5645 C   0  0  0  0  0  0  0  0  0  0  0  0
   -8.9903   26.7904  -20.6231 C   0  0  0  0  0  0  0  0  0  0  0  0
   -7.6831   26.2937  -20.7087 C   0  0  0  0  0  0  0  0  0  0  0  0
   -7.3042   25.4543  -21.7317 C   0  0  0  0  0  0  0  0  0  0  0  0
   -5.9688   24.8729  -21.8558 C   0  0  0  0  0  0  0  0  0  0  0  0
   -5.4373   24.9661  -23.2502 C   0  0  0  0  0  0  0  0  0  0  0  0
   -4.3536   23.9661  -23.4773 C   0  0  0  0  0  0  0  0  0  0  0  0
   -3.1671   24.3250  -23.4098 O   0  0  0  0  0  0  0  0  0  0  0  0
   -4.6853   22.6716  -23.7551 O   0  0  0  0  0  0  0  0  0  0  0  0
   -5.1644   22.1433  -23.0278 H   0  0  0  0  0  0  0  0  0  0  0  0
   -5.5302   26.1665  -27.6425 N   0  0  0  0  0  0  0  0  0  0  0  0
   -6.4758   25.7534  -27.8463 H   0  0  0  0  0  0  0  0  0  0  0  0
   -4.5758   25.4521  -28.4583 C   0  0  0  0  0  0  0  0  0  0  0  0
   -5.0362   25.3577  -29.8748 C   0  0  0  0  0  0  0  0  0  0  0  0
   -4.3353   25.7686  -30.8330 O   0  0  0  0  0  0  0  0  0  0  0  0
   -6.2676   24.8077  -30.2029 O   0  0  0  0  0  0  0  0  0  0  0  0
   -7.1208   24.9914  -29.6954 H   0  0  0  0  0  0  0  0  0  0  0  0
   -4.2538   24.0921  -27.8932 C   0  0  0  0  0  0  0  0  0  0  0  0
   -3.1018   23.4362  -28.6174 C   0  0  0  0  0  0  0  0  0  0  0  0
   -2.0449   22.9860  -27.6779 C   0  0  0  0  0  0  0  0  0  0  0  0
   -0.7049   22.9522  -28.0433 C   0  0  0  0  0  0  0  0  0  0  0  0
    0.2993   22.5373  -27.1968 C   0  0  0  0  0  0  0  0  0  0  0  0
   -0.0179   22.1298  -25.9158 C   0  0  0  0  0  0  0  0  0  0  0  0
   -1.3527   22.1516  -25.5178 C   0  0  0  0  0  0  0  0  0  0  0  0
   -2.3299   22.5722  -26.3897 C   0  0  0  0  0  0  0  0  0  0  0  0
  1  2  1  0  0  0
  2 19  1  0  0  0
 19 21  1  0  0  0
 21 26  1  0  0  0
 26 27  1  0  0  0
 27 28  1  0  0  0
 28 29  2  0  0  0
 29 30  1  0  0  0
 30 31  2  0  0  0
 31 32  1  0  0  0
 32 33  2  0  0  0
 21 22  1  0  0  0
 22 23  2  0  0  0
 22 24  1  0  0  0
  2  3  1  0  0  0
  3  4  2  0  0  0
  3  5  1  0  0  0
  5  6  1  0  0  0
  6  7  1  0  0  0
  7  8  2  0  0  0
  8  9  1  0  0  0
  9 10  2  0  0  0
 10 11  1  0  0  0
 11 12  2  0  0  0
 12 13  1  0  0  0
 13 14  1  0  0  0
 14 15  1  0  0  0
 15 16  2  0  0  0
 15 17  1  0  0  0
 33 28  1  0  0  0
 14  5  1  0  0  0
 12  7  1  0  0  0
 19 20  1  0  0  0
 24 25  1  0  0  0
 17 18  1  0  0  0
M  END
> <minimizedAffinity>
-9.35789

> <CNNscore>
0.2087147385

> <CNNaffinity>
5.9615545273

> <CNN_VS>
1.2442642450

> <CNNaffinity_variance>
0.0957102701

$$$$
[H]OC(=O)[C@@]1([H])N(C(=O)[C@@]([H])(N([H])[C@]([H])(C(=O)O[H])C([H])([H])C([H])([H])c2c([H])c([H])c([H])c([H])c2[H])C([H])([H])[H])C([H])([H])c2c([H])c([H])c([H])c([H])c2C1([H])[H]


 33 35  0  0  0  0  0  0  0  0999 V2000
   -4.1729   27.1727  -24.6445 C   0  0  0  0  0  0  0  0  0  0  0  0
   -4.6287   26.3398  -25.8531 C   0  0  0  0  0  0  0  0  0  0  0  0
   -4.1983   24.9627  -25.5955 C   0  0  0  0  0  0  0  0  0  0  0  0
   -4.2308   24.5812  -24.3739 O   0  0  0  0  0  0  0  0  0  0  0  0
   -3.7544   24.0186  -26.5456 N   0  0  0  0  0  0  0  0  0  0  0  0
   -3.3248   22.6930  -26.0423 C   0  0  0  0  0  0  0  0  0  0  0  0
   -1.8817   22.5321  -26.4566 C   0  0  0  0  0  0  0  0  0  0  0  0
   -0.8857   22.1361  -25.6050 C   0  0  0  0  0  0  0  0  0  0  0  0
    0.4334   22.0489  -26.0787 C   0  0  0  0  0  0  0  0  0  0  0  0
    0.6771   22.3690  -27.3973 C   0  0  0  0  0  0  0  0  0  0  0  0
   -0.3645   22.7705  -28.2438 C   0  0  0  0  0  0  0  0  0  0  0  0
   -1.6605   22.8582  -27.7887 C   0  0  0  0  0  0  0  0  0  0  0  0
   -2.7955   23.2333  -28.6299 C   0  0  0  0  0  0  0  0  0  0  0  0
   -3.6899   24.2295  -27.9641 C   0  0  0  0  0  0  0  0  0  0  0  0
   -5.0497   24.2215  -28.5779 C   0  0  0  0  0  0  0  0  0  0  0  0
   -5.6076   25.2987  -28.8411 O   0  0  0  0  0  0  0  0  0  0  0  0
   -5.6580   23.0282  -28.8406 O   0  0  0  0  0  0  0  0  0  0  0  0
   -5.2252   22.4240  -29.5372 H   0  0  0  0  0  0  0  0  0  0  0  0
   -6.0816   26.4716  -25.8566 N   0  0  0  0  0  0  0  0  0  0  0  0
   -6.2918   27.3713  -25.3539 H   0  0  0  0  0  0  0  0  0  0  0  0
   -6.6463   25.4055  -25.0621 C   0  0  0  0  0  0  0  0  0  0  0  0
   -7.5172   24.5172  -25.8865 C   0  0  0  0  0  0  0  0  0  0  0  0
   -7.1347   23.3876  -26.2814 O   0  0  0  0  0  0  0  0  0  0  0  0
   -8.7990   24.8989  -26.2581 O   0  0  0  0  0  0  0  0  0  0  0  0
   -9.0403   25.8238  -26.5831 H   0  0  0  0  0  0  0  0  0  0  0  0
   -7.3811   25.9280  -23.8539 C   0  0  0  0  0  0  0  0  0  0  0  0
   -8.0255   24.8171  -23.0588 C   0  0  0  0  0  0  0  0  0  0  0  0
   -7.0167   23.9820  -22.3607 C   0  0  0  0  0  0  0  0  0  0  0  0
   -6.8791   22.6249  -22.6241 C   0  0  0  0  0  0  0  0  0  0  0  0
   -5.9556   21.8219  -21.9922 C   0  0  0  0  0  0  0  0  0  0  0  0
   -5.1132   22.3714  -21.0455 C   0  0  0  0  0  0  0  0  0  0  0  0
   -5.2254   23.7298  -20.7580 C   0  0  0  0  0  0  0  0  0  0  0  0
   -6.1594   24.5020  -21.4086 C   0  0  0  0  0  0  0  0  0  0  0  0
  1  2  1  0  0  0
  2 19  1  0  0  0
 19 21  1  0  0  0
 21 26  1  0  0  0
 26 27  1  0  0  0
 27 28  1  0  0  0
 28 29  2  0  0  0
 29 30  1  0  0  0
 30 31  2  0  0  0
 31 32  1  0  0  0
 32 33  2  0  0  0
 21 22  1  0  0  0
 22 23  2  0  0  0
 22 24  1  0  0  0
  2  3  1  0  0  0
  3  4  2  0  0  0
  3  5  1  0  0  0
  5  6  1  0  0  0
  6  7  1  0  0  0
  7  8  2  0  0  0
  8  9  1  0  0  0
  9 10  2  0  0  0
 10 11  1  0  0  0
 11 12  2  0  0  0
 12 13  1  0  0  0
 13 14  1  0  0  0
 14 15  1  0  0  0
 15 16  2  0  0  0
 15 17  1  0  0  0
 33 28  1  0  0  0
 14  5  1  0  0  0
 12  7  1  0  0  0
 19 20  1  0  0  0
 24 25  1  0  0  0
 17 18  1  0  0  0
M  END
> <minimizedAffinity>
-8.60731

> <CNNscore>
0.2005829513

> <CNNaffinity>
5.9154019356

> <CNN_VS>
1.1865288019

> <CNNaffinity_variance>
0.2715728879

$$$$
[H]OC(=O)[C@@]1([H])N(c2nc(C#N)nc([H])c2[H])C([H])([H])[C@@]([H])(S(=O)(=O)c2c([H])c([H])c([H])c([H])c2C(F)(F)F)C1([H])[H]


 30 32  0  0  0  0  0  0  0  0999 V2000
   -3.0047   22.9500  -23.2372 N   0  0  0  0  0  0  0  0  0  0  0  0
   -1.8481   23.1228  -22.3845 C   0  0  0  0  0  0  0  0  0  0  0  0
   -2.1753   22.0827  -21.2777 C   0  0  0  0  0  0  0  0  0  0  0  0
   -3.5772   22.4337  -20.9984 C   0  0  0  0  0  0  0  0  0  0  0  0
   -4.1373   22.8263  -22.3791 C   0  0  0  0  0  0  0  0  0  0  0  0
   -1.7557   22.8135  -26.6764 C   0  0  0  0  0  0  0  0  0  0  0  0
   -2.8897   22.8525  -27.3982 N   0  0  0  0  0  0  0  0  0  0  0  0
   -4.1071   22.9246  -26.8021 C   0  0  0  0  0  0  0  0  0  0  0  0
   -4.1095   22.9552  -25.4229 C   0  0  0  0  0  0  0  0  0  0  0  0
   -2.9636   22.9166  -24.6565 C   0  0  0  0  0  0  0  0  0  0  0  0
   -1.7954   22.8452  -25.3319 N   0  0  0  0  0  0  0  0  0  0  0  0
    0.5222   22.6723  -27.9365 N   0  0  0  0  0  0  0  0  0  0  0  0
   -0.4992   22.7375  -27.3637 C   0  0  0  0  0  0  0  0  0  0  0  0
   -4.9473   24.0493  -22.2806 C   0  0  0  0  0  0  0  0  0  0  0  0
   -6.1806   23.9937  -22.4581 O   0  0  0  0  0  0  0  0  0  0  0  0
   -4.3580   25.2607  -21.9932 O   0  0  0  0  0  0  0  0  0  0  0  0
   -4.4733   26.0945  -22.5635 H   0  0  0  0  0  0  0  0  0  0  0  0
   -1.0472   22.3908  -19.8972 S   0  0  0  0  0  0  0  0  0  0  0  0
   -0.8480   23.8779  -19.9065 O   0  0  0  0  0  0  0  0  0  0  0  0
   -1.8199   21.9456  -18.7049 O   0  0  0  0  0  0  0  0  0  0  0  0
    0.4575   21.5720  -20.1514 C   0  0  0  0  0  0  0  0  0  0  0  0
    0.5200   20.6660  -21.1729 C   0  0  0  0  0  0  0  0  0  0  0  0
    1.7045   20.0082  -21.4239 C   0  0  0  0  0  0  0  0  0  0  0  0
    2.8270   20.2417  -20.6715 C   0  0  0  0  0  0  0  0  0  0  0  0
    2.7231   21.1586  -19.6562 C   0  0  0  0  0  0  0  0  0  0  0  0
    1.5429   21.8555  -19.3572 C   0  0  0  0  0  0  0  0  0  0  0  0
    1.5433   22.8106  -18.2493 C   0  0  0  0  0  0  0  0  0  0  0  0
    0.6018   22.5943  -17.2695 F   0  0  0  0  0  0  0  0  0  0  0  0
    1.5953   24.1324  -18.6433 F   0  0  0  0  0  0  0  0  0  0  0  0
    2.7567   22.6478  -17.5585 F   0  0  0  0  0  0  0  0  0  0  0  0
 12 13  3  0  0  0
 13  6  1  0  0  0
  6  7  2  0  0  0
  7  8  1  0  0  0
  8  9  2  0  0  0
  9 10  1  0  0  0
 10  1  1  0  0  0
  1  2  1  0  0  0
  2  3  1  0  0  0
  3 18  1  0  0  0
 18 19  2  0  0  0
 18 20  2  0  0  0
 18 21  1  0  0  0
 21 22  2  0  0  0
 22 23  1  0  0  0
 23 24  2  0  0  0
 24 25  1  0  0  0
 25 26  2  0  0  0
 26 27  1  0  0  0
 27 28  1  0  0  0
 27 29  1  0  0  0
 27 30  1  0  0  0
  3  4  1  0  0  0
  4  5  1  0  0  0
  5 14  1  0  0  0
 14 15  2  0  0  0
 14 16  1  0  0  0
 10 11  2  0  0  0
 11  6  1  0  0  0
  5  1  1  0  0  0
 26 21  1  0  0  0
 16 17  1  0  0  0
M  END
> <minimizedAffinity>
-7.09149

> <CNNscore>
0.5617293119

> <CNNaffinity>
6.2522611618

> <CNN_VS>
3.5120782852

> <CNNaffinity_variance>
0.0756823123

$$$$
[H]OC(=O)[C@@]1([H])N(c2nc(C#N)nc([H])c2[H])C([H])([H])[C@@]([H])(S(=O)(=O)c2c([H])c([H])c([H])c([H])c2C(F)(F)F)C1([H])[H]


 30 32  0  0  0  0  0  0  0  0999 V2000
   -3.6409   23.6686  -27.4044 N   0  0  0  0  0  0  0  0  0  0  0  0
   -4.2789   24.2996  -26.2690 C   0  0  0  0  0  0  0  0  0  0  0  0
   -5.6210   23.5170  -26.2486 C   0  0  0  0  0  0  0  0  0  0  0  0
   -5.9929   23.6030  -27.6701 C   0  0  0  0  0  0  0  0  0  0  0  0
   -4.6429   23.5091  -28.4070 C   0  0  0  0  0  0  0  0  0  0  0  0
   -0.3064   22.5307  -26.4080 C   0  0  0  0  0  0  0  0  0  0  0  0
    0.3756   22.5831  -27.5658 N   0  0  0  0  0  0  0  0  0  0  0  0
   -0.2151   22.9891  -28.7185 C   0  0  0  0  0  0  0  0  0  0  0  0
   -1.5460   23.3415  -28.6301 C   0  0  0  0  0  0  0  0  0  0  0  0
   -2.2709   23.2979  -27.4577 C   0  0  0  0  0  0  0  0  0  0  0  0
   -1.6043   22.8819  -26.3583 N   0  0  0  0  0  0  0  0  0  0  0  0
    0.9311   21.7245  -24.2597 N   0  0  0  0  0  0  0  0  0  0  0  0
    0.3729   22.0932  -25.2230 C   0  0  0  0  0  0  0  0  0  0  0  0
   -4.5713   24.5057  -29.4855 C   0  0  0  0  0  0  0  0  0  0  0  0
   -3.9730   25.5836  -29.2967 O   0  0  0  0  0  0  0  0  0  0  0  0
   -5.1595   24.2621  -30.7070 O   0  0  0  0  0  0  0  0  0  0  0  0
   -5.8242   24.8915  -31.1495 H   0  0  0  0  0  0  0  0  0  0  0  0
   -6.7430   24.3988  -25.1365 S   0  0  0  0  0  0  0  0  0  0  0  0
   -6.0508   25.7030  -24.8697 O   0  0  0  0  0  0  0  0  0  0  0  0
   -7.9739   24.5850  -25.9532 O   0  0  0  0  0  0  0  0  0  0  0  0
   -6.9588   23.5103  -23.6656 C   0  0  0  0  0  0  0  0  0  0  0  0
   -6.2277   22.3668  -23.5043 C   0  0  0  0  0  0  0  0  0  0  0  0
   -6.3522   21.6413  -22.3395 C   0  0  0  0  0  0  0  0  0  0  0  0
   -7.1947   22.0404  -21.3337 C   0  0  0  0  0  0  0  0  0  0  0  0
   -7.9102   23.1937  -21.5341 C   0  0  0  0  0  0  0  0  0  0  0  0
   -7.8220   23.9694  -22.6996 C   0  0  0  0  0  0  0  0  0  0  0  0
   -8.6332   25.1817  -22.8091 C   0  0  0  0  0  0  0  0  0  0  0  0
   -9.6027   25.1694  -23.7854 F   0  0  0  0  0  0  0  0  0  0  0  0
   -7.9018   26.3523  -22.8117 F   0  0  0  0  0  0  0  0  0  0  0  0
   -9.3831   25.2903  -21.6250 F   0  0  0  0  0  0  0  0  0  0  0  0
 12 13  3  0  0  0
 13  6  1  0  0  0
  6  7  2  0  0  0
  7  8  1  0  0  0
  8  9  2  0  0  0
  9 10  1  0  0  0
 10  1  1  0  0  0
  1  2  1  0  0  0
  2  3  1  0  0  0
  3 18  1  0  0  0
 18 19  2  0  0  0
 18 20  2  0  0  0
 18 21  1  0  0  0
 21 22  2  0  0  0
 22 23  1  0  0  0
 23 24  2  0  0  0
 24 25  1  0  0  0
 25 26  2  0  0  0
 26 27  1  0  0  0
 27 28  1  0  0  0
 27 29  1  0  0  0
 27 30  1  0  0  0
  3  4  1  0  0  0
  4  5  1  0  0  0
  5 14  1  0  0  0
 14 15  2  0  0  0
 14 16  1  0  0  0
 10 11  2  0  0  0
 11  6  1  0  0  0
  5  1  1  0  0  0
 26 21  1  0  0  0
 16 17  1  0  0  0
M  END
> <minimizedAffinity>
-8.04725

> <CNNscore>
0.4487406313

> <CNNaffinity>
6.4354944229

> <CNN_VS>
2.8878679276

> <CNNaffinity_variance>
0.1164062992

$$$$
[H]OC(=O)[C@@]1([H])N(c2nc(C#N)nc([H])c2[H])C([H])([H])[C@@]([H])(S(=O)(=O)c2c([H])c([H])c([H])c([H])c2C(F)(F)F)C1([H])[H]


 30 32  0  0  0  0  0  0  0  0999 V2000
   -4.8440   23.7328  -25.4786 N   0  0  0  0  0  0  0  0  0  0  0  0
   -4.4041   23.9013  -24.1103 C   0  0  0  0  0  0  0  0  0  0  0  0
   -5.5492   23.1576  -23.3687 C   0  0  0  0  0  0  0  0  0  0  0  0
   -6.7189   23.7553  -24.0327 C   0  0  0  0  0  0  0  0  0  0  0  0
   -6.2544   23.9451  -25.4896 C   0  0  0  0  0  0  0  0  0  0  0  0
   -1.8465   22.9689  -27.4376 C   0  0  0  0  0  0  0  0  0  0  0  0
   -2.3443   22.8017  -28.6756 N   0  0  0  0  0  0  0  0  0  0  0  0
   -3.6717   22.9291  -28.9289 C   0  0  0  0  0  0  0  0  0  0  0  0
   -4.4715   23.2379  -27.8481 C   0  0  0  0  0  0  0  0  0  0  0  0
   -3.9899   23.4152  -26.5680 C   0  0  0  0  0  0  0  0  0  0  0  0
   -2.6562   23.2698  -26.4061 N   0  0  0  0  0  0  0  0  0  0  0  0
    0.7219   22.7027  -27.0777 N   0  0  0  0  0  0  0  0  0  0  0  0
   -0.4346   22.8213  -27.2328 C   0  0  0  0  0  0  0  0  0  0  0  0
   -6.6546   25.2675  -25.9924 C   0  0  0  0  0  0  0  0  0  0  0  0
   -6.6242   26.2563  -25.2328 O   0  0  0  0  0  0  0  0  0  0  0  0
   -7.0641   25.4281  -27.2977 O   0  0  0  0  0  0  0  0  0  0  0  0
   -7.9454   25.8593  -27.5643 H   0  0  0  0  0  0  0  0  0  0  0  0
   -5.4083   23.5653  -21.6117 S   0  0  0  0  0  0  0  0  0  0  0  0
   -5.0686   22.2599  -20.9547 O   0  0  0  0  0  0  0  0  0  0  0  0
   -4.2673   24.5206  -21.5622 O   0  0  0  0  0  0  0  0  0  0  0  0
   -6.9124   24.1780  -21.0104 C   0  0  0  0  0  0  0  0  0  0  0  0
   -7.0291   25.5314  -20.8594 C   0  0  0  0  0  0  0  0  0  0  0  0
   -8.2163   26.0628  -20.4049 C   0  0  0  0  0  0  0  0  0  0  0  0
   -9.2884   25.2639  -20.0996 C   0  0  0  0  0  0  0  0  0  0  0  0
   -9.1310   23.9112  -20.2652 C   0  0  0  0  0  0  0  0  0  0  0  0
   -7.9454   23.3178  -20.7237 C   0  0  0  0  0  0  0  0  0  0  0  0
   -7.8864   21.8628  -20.8614 C   0  0  0  0  0  0  0  0  0  0  0  0
   -7.0280   21.2128  -20.0047 F   0  0  0  0  0  0  0  0  0  0  0  0
   -7.7591   21.4235  -22.1637 F   0  0  0  0  0  0  0  0  0  0  0  0
   -9.1436   21.3570  -20.4879 F   0  0  0  0  0  0  0  0  0  0  0  0
 12 13  3  0  0  0
 13  6  1  0  0  0
  6  7  2  0  0  0
  7  8  1  0  0  0
  8  9  2  0  0  0
  9 10  1  0  0  0
 10  1  1  0  0  0
  1  2  1  0  0  0
  2  3  1  0  0  0
  3 18  1  0  0  0
 18 19  2  0  0  0
 18 20  2  0  0  0
 18 21  1  0  0  0
 21 22  2  0  0  0
 22 23  1  0  0  0
 23 24  2  0  0  0
 24 25  1  0  0  0
 25 26  2  0  0  0
 26 27  1  0  0  0
 27 28  1  0  0  0
 27 29  1  0  0  0
 27 30  1  0  0  0
  3  4  1  0  0  0
  4  5  1  0  0  0
  5 14  1  0  0  0
 14 15  2  0  0  0
 14 16  1  0  0  0
 10 11  2  0  0  0
 11  6  1  0  0  0
  5  1  1  0  0  0
 26 21  1  0  0  0
 16 17  1  0  0  0
M  END
> <minimizedAffinity>
-7.84628

> <CNNscore>
0.4360914528

> <CNNaffinity>
6.3099231720

> <CNN_VS>
2.7517035007

> <CNNaffinity_variance>
0.2004259825

$$$$
[H]OC(=O)[C@@]1([H])N(c2nc(C#N)nc([H])c2[H])C([H])([H])[C@@]([H])(S(=O)(=O)c2c([H])c([H])c([H])c([H])c2C(F)(F)F)C1([H])[H]


 30 32  0  0  0  0  0  0  0  0999 V2000
   -0.3860   21.9553  -24.2857 N   0  0  0  0  0  0  0  0  0  0  0  0
   -1.6399   22.5956  -23.9504 C   0  0  0  0  0  0  0  0  0  0  0  0
   -2.5769   21.9002  -24.9763 C   0  0  0  0  0  0  0  0  0  0  0  0
   -1.7745   22.0474  -26.2015 C   0  0  0  0  0  0  0  0  0  0  0  0
   -0.3232   21.8869  -25.7090 C   0  0  0  0  0  0  0  0  0  0  0  0
    1.1501   20.9001  -21.1340 C   0  0  0  0  0  0  0  0  0  0  0  0
    2.4112   20.6183  -21.5064 N   0  0  0  0  0  0  0  0  0  0  0  0
    2.8179   20.7579  -22.7939 C   0  0  0  0  0  0  0  0  0  0  0  0
    1.8668   21.2027  -23.6887 C   0  0  0  0  0  0  0  0  0  0  0  0
    0.5669   21.4993  -23.3363 C   0  0  0  0  0  0  0  0  0  0  0  0
    0.2480   21.3320  -22.0339 N   0  0  0  0  0  0  0  0  0  0  0  0
    0.4823   20.6072  -18.6309 N   0  0  0  0  0  0  0  0  0  0  0  0
    0.7802   20.7326  -19.7584 C   0  0  0  0  0  0  0  0  0  0  0  0
    0.5455   22.9051  -26.3173 C   0  0  0  0  0  0  0  0  0  0  0  0
    0.7035   22.9284  -27.5542 O   0  0  0  0  0  0  0  0  0  0  0  0
    1.1895   23.8375  -25.5343 O   0  0  0  0  0  0  0  0  0  0  0  0
    2.1923   24.0032  -25.5624 H   0  0  0  0  0  0  0  0  0  0  0  0
   -4.1333   22.8222  -24.9970 S   0  0  0  0  0  0  0  0  0  0  0  0
   -5.1396   21.8628  -24.4329 O   0  0  0  0  0  0  0  0  0  0  0  0
   -3.8798   23.9617  -24.0729 O   0  0  0  0  0  0  0  0  0  0  0  0
   -4.5532   23.2638  -26.6181 C   0  0  0  0  0  0  0  0  0  0  0  0
   -3.7896   22.7541  -27.6306 C   0  0  0  0  0  0  0  0  0  0  0  0
   -4.1024   23.0622  -28.9366 C   0  0  0  0  0  0  0  0  0  0  0  0
   -5.1659   23.8705  -29.2469 C   0  0  0  0  0  0  0  0  0  0  0  0
   -5.9076   24.3613  -28.2024 C   0  0  0  0  0  0  0  0  0  0  0  0
   -5.6333   24.0801  -26.8557 C   0  0  0  0  0  0  0  0  0  0  0  0
   -6.4892   24.6591  -25.8204 C   0  0  0  0  0  0  0  0  0  0  0  0
   -5.9221   25.6565  -25.0608 F   0  0  0  0  0  0  0  0  0  0  0  0
   -7.1527   23.7262  -25.0493 F   0  0  0  0  0  0  0  0  0  0  0  0
   -7.5423   25.3234  -26.4731 F   0  0  0  0  0  0  0  0  0  0  0  0
 12 13  3  0  0  0
 13  6  1  0  0  0
  6  7  2  0  0  0
  7  8  1  0  0  0
  8  9  2  0  0  0
  9 10  1  0  0  0
 10  1  1  0  0  0
  1  2  1  0  0  0
  2  3  1  0  0  0
  3 18  1  0  0  0
 18 19  2  0  0  0
 18 20  2  0  0  0
 18 21  1  0  0  0
 21 22  2  0  0  0
 22 23  1  0  0  0
 23 24  2  0  0  0
 24 25  1  0  0  0
 25 26  2  0  0  0
 26 27  1  0  0  0
 27 28  1  0  0  0
 27 29  1  0  0  0
 27 30  1  0  0  0
  3  4  1  0  0  0
  4  5  1  0  0  0
  5 14  1  0  0  0
 14 15  2  0  0  0
 14 16  1  0  0  0
 10 11  2  0  0  0
 11  6  1  0  0  0
  5  1  1  0  0  0
 26 21  1  0  0  0
 16 17  1  0  0  0
M  END
> <minimizedAffinity>
-7.71200

> <CNNscore>
0.3731869161

> <CNNaffinity>
6.1992921829

> <CNN_VS>
2.3134946823

> <CNNaffinity_variance>
0.0646768957

$$$$
[H]OC(=O)[C@@]1([H])N(c2nc(C#N)nc([H])c2[H])C([H])([H])[C@@]([H])(S(=O)(=O)c2c([H])c([H])c([H])c([H])c2C(F)(F)F)C1([H])[H]


 30 32  0  0  0  0  0  0  0  0999 V2000
   -5.5276   23.7981  -27.2400 N   0  0  0  0  0  0  0  0  0  0  0  0
   -4.2978   23.7770  -26.4774 C   0  0  0  0  0  0  0  0  0  0  0  0
   -4.5860   22.5715  -25.5405 C   0  0  0  0  0  0  0  0  0  0  0  0
   -5.9405   22.9185  -25.0808 C   0  0  0  0  0  0  0  0  0  0  0  0
   -6.5910   23.5669  -26.3181 C   0  0  0  0  0  0  0  0  0  0  0  0
   -5.8486   25.4515  -30.4912 C   0  0  0  0  0  0  0  0  0  0  0  0
   -5.7529   24.4216  -31.3507 N   0  0  0  0  0  0  0  0  0  0  0  0
   -5.5804   23.1479  -30.9141 C   0  0  0  0  0  0  0  0  0  0  0  0
   -5.5099   22.9764  -29.5471 C   0  0  0  0  0  0  0  0  0  0  0  0
   -5.6046   24.0126  -28.6419 C   0  0  0  0  0  0  0  0  0  0  0  0
   -5.7755   25.2475  -29.1633 N   0  0  0  0  0  0  0  0  0  0  0  0
   -6.1826   27.8611  -31.4288 N   0  0  0  0  0  0  0  0  0  0  0  0
   -6.0303   26.7749  -31.0133 C   0  0  0  0  0  0  0  0  0  0  0  0
   -7.3266   24.7822  -25.9392 C   0  0  0  0  0  0  0  0  0  0  0  0
   -6.7140   25.7520  -25.4496 O   0  0  0  0  0  0  0  0  0  0  0  0
   -8.6898   24.8628  -26.1192 O   0  0  0  0  0  0  0  0  0  0  0  0
   -9.3440   25.1060  -25.3797 H   0  0  0  0  0  0  0  0  0  0  0  0
   -3.3344   22.5920  -24.2342 S   0  0  0  0  0  0  0  0  0  0  0  0
   -3.4307   23.9709  -23.6507 O   0  0  0  0  0  0  0  0  0  0  0  0
   -3.8074   21.5542  -23.2771 O   0  0  0  0  0  0  0  0  0  0  0  0
   -1.7595   22.3202  -24.9012 C   0  0  0  0  0  0  0  0  0  0  0  0
   -1.6188   22.4302  -26.2563 C   0  0  0  0  0  0  0  0  0  0  0  0
   -0.3782   22.2438  -26.8263 C   0  0  0  0  0  0  0  0  0  0  0  0
    0.7234   21.9499  -26.0642 C   0  0  0  0  0  0  0  0  0  0  0  0
    0.5404   21.8488  -24.7083 C   0  0  0  0  0  0  0  0  0  0  0  0
   -0.6992   22.0283  -24.0767 C   0  0  0  0  0  0  0  0  0  0  0  0
   -0.7813   21.8951  -22.6223 C   0  0  0  0  0  0  0  0  0  0  0  0
   -1.4455   20.7833  -22.1576 F   0  0  0  0  0  0  0  0  0  0  0  0
   -1.1700   23.0481  -21.9707 F   0  0  0  0  0  0  0  0  0  0  0  0
    0.5271   21.6994  -22.1468 F   0  0  0  0  0  0  0  0  0  0  0  0
 12 13  3  0  0  0
 13  6  1  0  0  0
  6  7  2  0  0  0
  7  8  1  0  0  0
  8  9  2  0  0  0
  9 10  1  0  0  0
 10  1  1  0  0  0
  1  2  1  0  0  0
  2  3  1  0  0  0
  3 18  1  0  0  0
 18 19  2  0  0  0
 18 20  2  0  0  0
 18 21  1  0  0  0
 21 22  2  0  0  0
 22 23  1  0  0  0
 23 24  2  0  0  0
 24 25  1  0  0  0
 25 26  2  0  0  0
 26 27  1  0  0  0
 27 28  1  0  0  0
 27 29  1  0  0  0
 27 30  1  0  0  0
  3  4  1  0  0  0
  4  5  1  0  0  0
  5 14  1  0  0  0
 14 15  2  0  0  0
 14 16  1  0  0  0
 10 11  2  0  0  0
 11  6  1  0  0  0
  5  1  1  0  0  0
 26 21  1  0  0  0
 16 17  1  0  0  0
M  END
> <minimizedAffinity>
-9.22087

> <CNNscore>
0.3436625004

> <CNNaffinity>
6.5019683838

> <CNN_VS>
2.2344827652

> <CNNaffinity_variance>
0.1901958138

$$$$
[H]OC(=O)[C@@]1([H])N(c2nc(C#N)nc([H])c2[H])C([H])([H])[C@@]([H])(S(=O)(=O)c2c([H])c([H])c([H])c([H])c2C(F)(F)F)C1([H])[H]


 30 32  0  0  0  0  0  0  0  0999 V2000
   -4.0127   23.2508  -24.1408 N   0  0  0  0  0  0  0  0  0  0  0  0
   -5.1219   22.5136  -23.5746 C   0  0  0  0  0  0  0  0  0  0  0  0
   -5.7737   23.6317  -22.7148 C   0  0  0  0  0  0  0  0  0  0  0  0
   -4.5826   24.1595  -22.0299 C   0  0  0  0  0  0  0  0  0  0  0  0
   -3.4736   24.0566  -23.0947 C   0  0  0  0  0  0  0  0  0  0  0  0
   -1.8744   22.8978  -27.0920 C   0  0  0  0  0  0  0  0  0  0  0  0
   -2.7603   22.9655  -28.1015 N   0  0  0  0  0  0  0  0  0  0  0  0
   -4.0878   23.1284  -27.8696 C   0  0  0  0  0  0  0  0  0  0  0  0
   -4.4688   23.2194  -26.5469 C   0  0  0  0  0  0  0  0  0  0  0  0
   -3.5838   23.1533  -25.4913 C   0  0  0  0  0  0  0  0  0  0  0  0
   -2.2815   22.9902  -25.8130 N   0  0  0  0  0  0  0  0  0  0  0  0
    0.6527   22.5954  -27.6573 N   0  0  0  0  0  0  0  0  0  0  0  0
   -0.4844   22.7249  -27.4005 C   0  0  0  0  0  0  0  0  0  0  0  0
   -2.2381   23.5203  -22.5051 C   0  0  0  0  0  0  0  0  0  0  0  0
   -1.7950   24.0038  -21.4442 O   0  0  0  0  0  0  0  0  0  0  0  0
   -1.5614   22.4859  -23.1128 O   0  0  0  0  0  0  0  0  0  0  0  0
   -0.5746   22.5216  -23.3554 H   0  0  0  0  0  0  0  0  0  0  0  0
   -6.9687   22.8374  -21.6128 S   0  0  0  0  0  0  0  0  0  0  0  0
   -7.1834   21.4803  -22.2156 O   0  0  0  0  0  0  0  0  0  0  0  0
   -6.2481   22.7553  -20.3125 O   0  0  0  0  0  0  0  0  0  0  0  0
   -8.4509   23.7327  -21.5818 C   0  0  0  0  0  0  0  0  0  0  0  0
   -8.5797   24.7736  -22.4583 C   0  0  0  0  0  0  0  0  0  0  0  0
   -9.7512   25.4984  -22.4823 C   0  0  0  0  0  0  0  0  0  0  0  0
  -10.7957   25.1996  -21.6454 C   0  0  0  0  0  0  0  0  0  0  0  0
  -10.6271   24.1476  -20.7812 C   0  0  0  0  0  0  0  0  0  0  0  0
   -9.4565   23.3774  -20.7148 C   0  0  0  0  0  0  0  0  0  0  0  0
   -9.3831   22.2780  -19.7527 C   0  0  0  0  0  0  0  0  0  0  0  0
   -8.8309   21.1073  -20.2194 F   0  0  0  0  0  0  0  0  0  0  0  0
  -10.5521   22.0627  -19.0510 F   0  0  0  0  0  0  0  0  0  0  0  0
   -8.4855   22.6664  -18.7429 F   0  0  0  0  0  0  0  0  0  0  0  0
 12 13  3  0  0  0
 13  6  1  0  0  0
  6  7  2  0  0  0
  7  8  1  0  0  0
  8  9  2  0  0  0
  9 10  1  0  0  0
 10  1  1  0  0  0
  1  2  1  0  0  0
  2  3  1  0  0  0
  3 18  1  0  0  0
 18 19  2  0  0  0
 18 20  2  0  0  0
 18 21  1  0  0  0
 21 22  2  0  0  0
 22 23  1  0  0  0
 23 24  2  0  0  0
 24 25  1  0  0  0
 25 26  2  0  0  0
 26 27  1  0  0  0
 27 28  1  0  0  0
 27 29  1  0  0  0
 27 30  1  0  0  0
  3  4  1  0  0  0
  4  5  1  0  0  0
  5 14  1  0  0  0
 14 15  2  0  0  0
 14 16  1  0  0  0
 10 11  2  0  0  0
 11  6  1  0  0  0
  5  1  1  0  0  0
 26 21  1  0  0  0
 16 17  1  0  0  0
M  END
> <minimizedAffinity>
-7.79833

> <CNNscore>
0.3294817805

> <CNNaffinity>
5.7912039757

> <CNN_VS>
1.9080961943

> <CNNaffinity_variance>
0.1188655272

$$$$
[H]OC(=O)[C@@]1([H])N(c2nc(C#N)nc([H])c2[H])C([H])([H])[C@@]([H])(S(=O)(=O)c2c([H])c([H])c([H])c([H])c2C(F)(F)F)C1([H])[H]


 30 32  0  0  0  0  0  0  0  0999 V2000
   -5.0384   23.7295  -25.3889 N   0  0  0  0  0  0  0  0  0  0  0  0
   -4.5439   24.1470  -24.0944 C   0  0  0  0  0  0  0  0  0  0  0  0
   -5.4731   23.3107  -23.1718 C   0  0  0  0  0  0  0  0  0  0  0  0
   -6.7782   23.5995  -23.7881 C   0  0  0  0  0  0  0  0  0  0  0  0
   -6.4608   23.6824  -25.2936 C   0  0  0  0  0  0  0  0  0  0  0  0
   -2.1029   22.9962  -27.4509 C   0  0  0  0  0  0  0  0  0  0  0  0
   -2.6367   22.8636  -28.6780 N   0  0  0  0  0  0  0  0  0  0  0  0
   -3.9699   23.0060  -28.8902 C   0  0  0  0  0  0  0  0  0  0  0  0
   -4.7365   23.2924  -27.7797 C   0  0  0  0  0  0  0  0  0  0  0  0
   -4.2177   23.4341  -26.5098 C   0  0  0  0  0  0  0  0  0  0  0  0
   -2.8811   23.2761  -26.3895 N   0  0  0  0  0  0  0  0  0  0  0  0
    0.4705   22.7089  -27.1481 N   0  0  0  0  0  0  0  0  0  0  0  0
   -0.6870   22.8343  -27.2901 C   0  0  0  0  0  0  0  0  0  0  0  0
   -7.1379   24.8366  -25.9027 C   0  0  0  0  0  0  0  0  0  0  0  0
   -6.4939   25.8760  -26.1485 O   0  0  0  0  0  0  0  0  0  0  0  0
   -8.4803   24.7834  -26.2064 O   0  0  0  0  0  0  0  0  0  0  0  0
   -9.1594   25.4693  -25.8870 H   0  0  0  0  0  0  0  0  0  0  0  0
   -5.2897   23.9574  -21.4921 S   0  0  0  0  0  0  0  0  0  0  0  0
   -3.9914   24.7087  -21.5242 O   0  0  0  0  0  0  0  0  0  0  0  0
   -6.4531   24.8738  -21.3387 O   0  0  0  0  0  0  0  0  0  0  0  0
   -5.2153   22.6588  -20.3488 C   0  0  0  0  0  0  0  0  0  0  0  0
   -6.3215   22.4290  -19.5796 C   0  0  0  0  0  0  0  0  0  0  0  0
   -6.3129   21.3916  -18.6727 C   0  0  0  0  0  0  0  0  0  0  0  0
   -5.2175   20.5803  -18.5228 C   0  0  0  0  0  0  0  0  0  0  0  0
   -4.1279   20.8435  -19.3137 C   0  0  0  0  0  0  0  0  0  0  0  0
   -4.0829   21.8858  -20.2516 C   0  0  0  0  0  0  0  0  0  0  0  0
   -2.8672   22.0783  -21.0420 C   0  0  0  0  0  0  0  0  0  0  0  0
   -2.2077   23.2703  -20.8487 F   0  0  0  0  0  0  0  0  0  0  0  0
   -3.0083   21.7684  -22.3796 F   0  0  0  0  0  0  0  0  0  0  0  0
   -1.9295   21.1273  -20.6033 F   0  0  0  0  0  0  0  0  0  0  0  0
 12 13  3  0  0  0
 13  6  1  0  0  0
  6  7  2  0  0  0
  7  8  1  0  0  0
  8  9  2  0  0  0
  9 10  1  0  0  0
 10  1  1  0  0  0
  1  2  1  0  0  0
  2  3  1  0  0  0
  3 18  1  0  0  0
 18 19  2  0  0  0
 18 20  2  0  0  0
 18 21  1  0  0  0
 21 22  2  0  0  0
 22 23  1  0  0  0
 23 24  2  0  0  0
 24 25  1  0  0  0
 25 26  2  0  0  0
 26 27  1  0  0  0
 27 28  1  0  0  0
 27 29  1  0  0  0
 27 30  1  0  0  0
  3  4  1  0  0  0
  4  5  1  0  0  0
  5 14  1  0  0  0
 14 15  2  0  0  0
 14 16  1  0  0  0
 10 11  2  0  0  0
 11  6  1  0  0  0
  5  1  1  0  0  0
 26 21  1  0  0  0
 16 17  1  0  0  0
M  END
> <minimizedAffinity>
-7.32549

> <CNNscore>
0.2697563767

> <CNNaffinity>
6.2803487778

> <CNN_VS>
1.6941641569

> <CNNaffinity_variance>
0.3616148531

$$$$
[H]OC(=O)[C@@]1([H])N(c2nc(C#N)nc([H])c2[H])C([H])([H])[C@@]([H])(S(=O)(=O)c2c([H])c([H])c([H])c([H])c2C(F)(F)F)C1([H])[H]


 30 32  0  0  0  0  0  0  0  0999 V2000
   -4.9030   24.1908  -25.7300 N   0  0  0  0  0  0  0  0  0  0  0  0
   -5.0251   24.7174  -24.3875 C   0  0  0  0  0  0  0  0  0  0  0  0
   -6.4760   24.2706  -24.0570 C   0  0  0  0  0  0  0  0  0  0  0  0
   -7.1680   24.7128  -25.2785 C   0  0  0  0  0  0  0  0  0  0  0  0
   -6.1359   24.4602  -26.3945 C   0  0  0  0  0  0  0  0  0  0  0  0
   -1.6557   22.5087  -25.9094 C   0  0  0  0  0  0  0  0  0  0  0  0
   -1.5233   22.2742  -27.2270 N   0  0  0  0  0  0  0  0  0  0  0  0
   -2.4798   22.6507  -28.1134 C   0  0  0  0  0  0  0  0  0  0  0  0
   -3.5860   23.2830  -27.5846 C   0  0  0  0  0  0  0  0  0  0  0  0
   -3.7495   23.5369  -26.2389 C   0  0  0  0  0  0  0  0  0  0  0  0
   -2.7487   23.1282  -25.4280 N   0  0  0  0  0  0  0  0  0  0  0  0
    0.2365   21.7329  -24.2924 N   0  0  0  0  0  0  0  0  0  0  0  0
   -0.6107   22.0870  -25.0223 C   0  0  0  0  0  0  0  0  0  0  0  0
   -6.0792   25.6045  -27.3159 C   0  0  0  0  0  0  0  0  0  0  0  0
   -5.5563   26.6747  -26.9460 O   0  0  0  0  0  0  0  0  0  0  0  0
   -6.5987   25.5084  -28.5879 O   0  0  0  0  0  0  0  0  0  0  0  0
   -7.2810   26.1581  -28.9701 H   0  0  0  0  0  0  0  0  0  0  0  0
   -6.9840   25.1507  -22.5601 S   0  0  0  0  0  0  0  0  0  0  0  0
   -5.7218   25.2777  -21.7588 O   0  0  0  0  0  0  0  0  0  0  0  0
   -7.4492   26.4706  -23.0685 O   0  0  0  0  0  0  0  0  0  0  0  0
   -8.1685   24.2334  -21.6916 C   0  0  0  0  0  0  0  0  0  0  0  0
   -9.3568   24.8449  -21.4049 C   0  0  0  0  0  0  0  0  0  0  0  0
  -10.3356   24.1439  -20.7349 C   0  0  0  0  0  0  0  0  0  0  0  0
  -10.1464   22.8420  -20.3475 C   0  0  0  0  0  0  0  0  0  0  0  0
   -8.9405   22.2643  -20.6545 C   0  0  0  0  0  0  0  0  0  0  0  0
   -7.9104   22.9316  -21.3337 C   0  0  0  0  0  0  0  0  0  0  0  0
   -6.6624   22.2195  -21.6078 C   0  0  0  0  0  0  0  0  0  0  0  0
   -5.5116   22.8345  -21.1712 F   0  0  0  0  0  0  0  0  0  0  0  0
   -6.5497   21.7557  -22.9030 F   0  0  0  0  0  0  0  0  0  0  0  0
   -6.6864   21.0314  -20.8568 F   0  0  0  0  0  0  0  0  0  0  0  0
 12 13  3  0  0  0
 13  6  1  0  0  0
  6  7  2  0  0  0
  7  8  1  0  0  0
  8  9  2  0  0  0
  9 10  1  0  0  0
 10  1  1  0  0  0
  1  2  1  0  0  0
  2  3  1  0  0  0
  3 18  1  0  0  0
 18 19  2  0  0  0
 18 20  2  0  0  0
 18 21  1  0  0  0
 21 22  2  0  0  0
 22 23  1  0  0  0
 23 24  2  0  0  0
 24 25  1  0  0  0
 25 26  2  0  0  0
 26 27  1  0  0  0
 27 28  1  0  0  0
 27 29  1  0  0  0
 27 30  1  0  0  0
  3  4  1  0  0  0
  4  5  1  0  0  0
  5 14  1  0  0  0
 14 15  2  0  0  0
 14 16  1  0  0  0
 10 11  2  0  0  0
 11  6  1  0  0  0
  5  1  1  0  0  0
 26 21  1  0  0  0
 16 17  1  0  0  0
M  END
> <minimizedAffinity>
-7.87552

> <CNNscore>
0.2310744524

> <CNNaffinity>
5.9572215080

> <CNN_VS>
1.3765616417

> <CNNaffinity_variance>
0.1176897287

$$$$
[H]OC(=O)[C@@]1([H])N(c2nc(C#N)nc([H])c2[H])C([H])([H])[C@@]([H])(S(=O)(=O)c2c([H])c([H])c([H])c([H])c2C(F)(F)F)C1([H])[H]


 30 32  0  0  0  0  0  0  0  0999 V2000
   -4.6138   24.0971  -26.0732 N   0  0  0  0  0  0  0  0  0  0  0  0
   -4.8059   24.6395  -24.7453 C   0  0  0  0  0  0  0  0  0  0  0  0
   -6.2080   24.0550  -24.4190 C   0  0  0  0  0  0  0  0  0  0  0  0
   -6.9257   24.3959  -25.6580 C   0  0  0  0  0  0  0  0  0  0  0  0
   -5.8592   24.2239  -26.7568 C   0  0  0  0  0  0  0  0  0  0  0  0
   -1.2791   22.5880  -26.1681 C   0  0  0  0  0  0  0  0  0  0  0  0
   -1.0377   22.5014  -27.4882 N   0  0  0  0  0  0  0  0  0  0  0  0
   -1.9444   22.9279  -28.4039 C   0  0  0  0  0  0  0  0  0  0  0  0
   -3.1180   23.4509  -27.9017 C   0  0  0  0  0  0  0  0  0  0  0  0
   -3.3934   23.5525  -26.5542 C   0  0  0  0  0  0  0  0  0  0  0  0
   -2.4354   23.1041  -25.7133 N   0  0  0  0  0  0  0  0  0  0  0  0
    0.5320   21.7486  -24.4911 N   0  0  0  0  0  0  0  0  0  0  0  0
   -0.2819   22.1205  -25.2494 C   0  0  0  0  0  0  0  0  0  0  0  0
   -5.9074   25.3463  -27.7052 C   0  0  0  0  0  0  0  0  0  0  0  0
   -5.5783   26.4899  -27.3316 O   0  0  0  0  0  0  0  0  0  0  0  0
   -6.3131   25.1492  -29.0066 O   0  0  0  0  0  0  0  0  0  0  0  0
   -7.0553   25.6812  -29.4538 H   0  0  0  0  0  0  0  0  0  0  0  0
   -6.8217   24.9133  -22.9493 S   0  0  0  0  0  0  0  0  0  0  0  0
   -5.5798   25.3579  -22.2344 O   0  0  0  0  0  0  0  0  0  0  0  0
   -7.5800   26.0671  -23.5065 O   0  0  0  0  0  0  0  0  0  0  0  0
   -7.7426   23.8324  -21.9580 C   0  0  0  0  0  0  0  0  0  0  0  0
   -7.4694   22.4967  -22.0554 C   0  0  0  0  0  0  0  0  0  0  0  0
   -8.1633   21.6037  -21.2683 C   0  0  0  0  0  0  0  0  0  0  0  0
   -9.1250   22.0239  -20.3854 C   0  0  0  0  0  0  0  0  0  0  0  0
   -9.3689   23.3722  -20.3172 C   0  0  0  0  0  0  0  0  0  0  0  0
   -8.6928   24.3239  -21.0950 C   0  0  0  0  0  0  0  0  0  0  0  0
   -9.0346   25.7380  -20.9430 C   0  0  0  0  0  0  0  0  0  0  0  0
   -9.7218   26.3058  -21.9912 F   0  0  0  0  0  0  0  0  0  0  0  0
   -7.9883   26.5288  -20.5128 F   0  0  0  0  0  0  0  0  0  0  0  0
   -9.9498   25.8342  -19.8803 F   0  0  0  0  0  0  0  0  0  0  0  0
 12 13  3  0  0  0
 13  6  1  0  0  0
  6  7  2  0  0  0
  7  8  1  0  0  0
  8  9  2  0  0  0
  9 10  1  0  0  0
 10  1  1  0  0  0
  1  2  1  0  0  0
  2  3  1  0  0  0
  3 18  1  0  0  0
 18 19  2  0  0  0
 18 20  2  0  0  0
 18 21  1  0  0  0
 21 22  2  0  0  0
 22 23  1  0  0  0
 23 24  2  0  0  0
 24 25  1  0  0  0
 25 26  2  0  0  0
 26 27  1  0  0  0
 27 28  1  0  0  0
 27 29  1  0  0  0
 27 30  1  0  0  0
  3  4  1  0  0  0
  4  5  1  0  0  0
  5 14  1  0  0  0
 14 15  2  0  0  0
 14 16  1  0  0  0
 10 11  2  0  0  0
 11  6  1  0  0  0
  5  1  1  0  0  0
 26 21  1  0  0  0
 16 17  1  0  0  0
M  END
> <minimizedAffinity>
-8.07967

> <CNNscore>
0.2296788543

> <CNNaffinity>
5.9813833237

> <CNN_VS>
1.3737972975

> <CNNaffinity_variance>
0.1370038539

$$$$
[H]c1c([H])c([H])c(C([H])([H])n2c([H])nc(-c3c([H])c([H])c(F)c([H])c3[H])c2-c2nn3c([H])c(N([H])C(=O)C(C([H])([H])[H])(C([H])([H])[H])C([H])([H])[H])nc3c([H])c2[H])c([H])c1[H]


 36 40  0  0  0  0  0  0  0  0999 V2000
   -4.2867   22.9799  -26.3454 C   0  0  0  0  0  0  0  0  0  0  0  0
   -5.1969   23.2091  -25.3359 C   0  0  0  0  0  0  0  0  0  0  0  0
   -6.3905   23.4415  -25.9567 N   0  0  0  0  0  0  0  0  0  0  0  0
   -6.2562   23.3673  -27.2643 C   0  0  0  0  0  0  0  0  0  0  0  0
   -4.9399   23.0790  -27.4967 N   0  0  0  0  0  0  0  0  0  0  0  0
    0.8669   21.5016  -23.8473 C   0  0  0  0  0  0  0  0  0  0  0  0
   -0.4700   21.6527  -23.5577 C   0  0  0  0  0  0  0  0  0  0  0  0
   -1.1283   22.0439  -24.6905 N   0  0  0  0  0  0  0  0  0  0  0  0
   -2.3984   22.3103  -24.9073 N   0  0  0  0  0  0  0  0  0  0  0  0
   -2.8761   22.6882  -26.1045 C   0  0  0  0  0  0  0  0  0  0  0  0
   -1.9538   22.7866  -27.1196 C   0  0  0  0  0  0  0  0  0  0  0  0
   -0.6054   22.5095  -26.9131 C   0  0  0  0  0  0  0  0  0  0  0  0
   -0.2121   22.1325  -25.6618 C   0  0  0  0  0  0  0  0  0  0  0  0
    0.9850   21.8069  -25.1553 N   0  0  0  0  0  0  0  0  0  0  0  0
    1.6182   20.7750  -21.6154 C   0  0  0  0  0  0  0  0  0  0  0  0
    0.4073   20.8338  -21.2112 O   0  0  0  0  0  0  0  0  0  0  0  0
    1.8917   21.1101  -22.9651 N   0  0  0  0  0  0  0  0  0  0  0  0
    2.8681   21.0649  -23.3009 H   0  0  0  0  0  0  0  0  0  0  0  0
    3.1160   21.6094  -19.9318 C   0  0  0  0  0  0  0  0  0  0  0  0
    2.6367   20.3637  -20.6473 C   0  0  0  0  0  0  0  0  0  0  0  0
    2.0372   19.4401  -19.6303 C   0  0  0  0  0  0  0  0  0  0  0  0
    3.8429   19.7431  -21.3173 C   0  0  0  0  0  0  0  0  0  0  0  0
   -5.0531   23.2375  -23.8937 C   0  0  0  0  0  0  0  0  0  0  0  0
   -5.3328   22.1115  -23.1569 C   0  0  0  0  0  0  0  0  0  0  0  0
   -5.2041   22.0887  -21.7698 C   0  0  0  0  0  0  0  0  0  0  0  0
   -4.7853   23.2171  -21.0940 C   0  0  0  0  0  0  0  0  0  0  0  0
   -4.6606   23.1917  -19.7380 F   0  0  0  0  0  0  0  0  0  0  0  0
   -4.5037   24.3471  -21.8237 C   0  0  0  0  0  0  0  0  0  0  0  0
   -4.6377   24.3514  -23.2058 C   0  0  0  0  0  0  0  0  0  0  0  0
   -4.3747   22.9118  -28.8258 C   0  0  0  0  0  0  0  0  0  0  0  0
   -4.7043   24.0428  -29.7104 C   0  0  0  0  0  0  0  0  0  0  0  0
   -4.0927   25.2654  -29.6104 C   0  0  0  0  0  0  0  0  0  0  0  0
   -4.3828   26.3270  -30.4251 C   0  0  0  0  0  0  0  0  0  0  0  0
   -5.3453   26.1544  -31.4011 C   0  0  0  0  0  0  0  0  0  0  0  0
   -5.9786   24.9310  -31.5243 C   0  0  0  0  0  0  0  0  0  0  0  0
   -5.6720   23.8838  -30.6982 C   0  0  0  0  0  0  0  0  0  0  0  0
 19 20  1  0  0  0
 20 21  1  0  0  0
 20 22  1  0  0  0
 20 15  1  0  0  0
 15 16  2  0  0  0
 15 17  1  0  0  0
 17  6  1  0  0  0
  6  7  2  0  0  0
  7  8  1  0  0  0
  8  9  1  0  0  0
  9 10  2  0  0  0
 10  1  1  0  0  0
  1  2  2  0  0  0
  2 23  1  0  0  0
 23 24  2  0  0  0
 24 25  1  0  0  0
 25 26  2  0  0  0
 26 27  1  0  0  0
 26 28  1  0  0  0
 28 29  2  0  0  0
  2  3  1  0  0  0
  3  4  2  0  0  0
  4  5  1  0  0  0
  5 30  1  0  0  0
 30 31  1  0  0  0
 31 32  2  0  0  0
 32 33  1  0  0  0
 33 34  2  0  0  0
 34 35  1  0  0  0
 35 36  2  0  0  0
 10 11  1  0  0  0
 11 12  2  0  0  0
 12 13  1  0  0  0
 13 14  2  0  0  0
 14  6  1  0  0  0
 13  8  1  0  0  0
  5  1  1  0  0  0
 36 31  1  0  0  0
 29 23  1  0  0  0
 17 18  1  0  0  0
M  END
> <minimizedAffinity>
-9.65696

> <CNNscore>
0.4021509588

> <CNNaffinity>
7.3893508911

> <CNN_VS>
2.9716346264

> <CNNaffinity_variance>
0.2013099492

$$$$
[H]c1c([H])c([H])c(C([H])([H])n2c([H])nc(-c3c([H])c([H])c(F)c([H])c3[H])c2-c2nn3c([H])c(N([H])C(=O)C(C([H])([H])[H])(C([H])([H])[H])C([H])([H])[H])nc3c([H])c2[H])c([H])c1[H]


 36 40  0  0  0  0  0  0  0  0999 V2000
   -2.4350   21.9741  -24.0262 C   0  0  0  0  0  0  0  0  0  0  0  0
   -2.0949   22.6741  -25.1638 C   0  0  0  0  0  0  0  0  0  0  0  0
   -0.7352   22.5927  -25.2581 N   0  0  0  0  0  0  0  0  0  0  0  0
   -0.2411   21.8943  -24.2575 C   0  0  0  0  0  0  0  0  0  0  0  0
   -1.3097   21.5129  -23.4944 N   0  0  0  0  0  0  0  0  0  0  0  0
   -7.3486   21.8974  -20.7341 C   0  0  0  0  0  0  0  0  0  0  0  0
   -6.0074   22.1987  -20.6664 C   0  0  0  0  0  0  0  0  0  0  0  0
   -5.4373   21.9636  -21.8868 N   0  0  0  0  0  0  0  0  0  0  0  0
   -4.1978   22.1012  -22.3060 N   0  0  0  0  0  0  0  0  0  0  0  0
   -3.8103   21.8172  -23.5604 C   0  0  0  0  0  0  0  0  0  0  0  0
   -4.7933   21.3642  -24.4086 C   0  0  0  0  0  0  0  0  0  0  0  0
   -6.1110   21.2111  -23.9868 C   0  0  0  0  0  0  0  0  0  0  0  0
   -6.4110   21.5248  -22.6929 C   0  0  0  0  0  0  0  0  0  0  0  0
   -7.5577   21.4852  -22.0008 N   0  0  0  0  0  0  0  0  0  0  0  0
   -8.5608   20.9157  -18.8261 C   0  0  0  0  0  0  0  0  0  0  0  0
   -7.9070   19.8307  -18.9954 O   0  0  0  0  0  0  0  0  0  0  0  0
   -8.2988   21.9998  -19.7006 N   0  0  0  0  0  0  0  0  0  0  0  0
   -8.8225   22.8814  -19.5709 H   0  0  0  0  0  0  0  0  0  0  0  0
   -9.7505   19.5335  -17.2614 C   0  0  0  0  0  0  0  0  0  0  0  0
   -9.5366   20.9558  -17.7353 C   0  0  0  0  0  0  0  0  0  0  0  0
   -8.9951   21.7556  -16.5892 C   0  0  0  0  0  0  0  0  0  0  0  0
  -10.8806   21.4800  -18.1914 C   0  0  0  0  0  0  0  0  0  0  0  0
   -2.8987   23.3940  -26.1317 C   0  0  0  0  0  0  0  0  0  0  0  0
   -2.9015   22.9974  -27.4477 C   0  0  0  0  0  0  0  0  0  0  0  0
   -3.6620   23.6541  -28.4129 C   0  0  0  0  0  0  0  0  0  0  0  0
   -4.4430   24.7366  -28.0612 C   0  0  0  0  0  0  0  0  0  0  0  0
   -5.1852   25.3766  -29.0070 F   0  0  0  0  0  0  0  0  0  0  0  0
   -4.4457   25.1393  -26.7473 C   0  0  0  0  0  0  0  0  0  0  0  0
   -3.6812   24.4726  -25.7989 C   0  0  0  0  0  0  0  0  0  0  0  0
   -1.1912   20.7170  -22.2833 C   0  0  0  0  0  0  0  0  0  0  0  0
   -0.6033   21.4875  -21.1738 C   0  0  0  0  0  0  0  0  0  0  0  0
   -1.2173   22.5826  -20.6238 C   0  0  0  0  0  0  0  0  0  0  0  0
   -0.6887   23.3090  -19.5905 C   0  0  0  0  0  0  0  0  0  0  0  0
    0.5311   22.9149  -19.0752 C   0  0  0  0  0  0  0  0  0  0  0  0
    1.1732   21.8134  -19.6113 C   0  0  0  0  0  0  0  0  0  0  0  0
    0.6252   21.1025  -20.6445 C   0  0  0  0  0  0  0  0  0  0  0  0
 19 20  1  0  0  0
 20 21  1  0  0  0
 20 22  1  0  0  0
 20 15  1  0  0  0
 15 16  2  0  0  0
 15 17  1  0  0  0
 17  6  1  0  0  0
  6  7  2  0  0  0
  7  8  1  0  0  0
  8  9  1  0  0  0
  9 10  2  0  0  0
 10  1  1  0  0  0
  1  2  2  0  0  0
  2 23  1  0  0  0
 23 24  2  0  0  0
 24 25  1  0  0  0
 25 26  2  0  0  0
 26 27  1  0  0  0
 26 28  1  0  0  0
 28 29  2  0  0  0
  2  3  1  0  0  0
  3  4  2  0  0  0
  4  5  1  0  0  0
  5 30  1  0  0  0
 30 31  1  0  0  0
 31 32  2  0  0  0
 32 33  1  0  0  0
 33 34  2  0  0  0
 34 35  1  0  0  0
 35 36  2  0  0  0
 10 11  1  0  0  0
 11 12  2  0  0  0
 12 13  1  0  0  0
 13 14  2  0  0  0
 14  6  1  0  0  0
 13  8  1  0  0  0
  5  1  1  0  0  0
 36 31  1  0  0  0
 29 23  1  0  0  0
 17 18  1  0  0  0
M  END
> <minimizedAffinity>
-8.41231

> <CNNscore>
0.2650840282

> <CNNaffinity>
6.9408416748

> <CNN_VS>
1.8399062157

> <CNNaffinity_variance>
0.1541332006

$$$$
[H]c1c([H])c([H])c(C([H])([H])n2c([H])nc(-c3c([H])c([H])c(F)c([H])c3[H])c2-c2nn3c([H])c(N([H])C(=O)C(C([H])([H])[H])(C([H])([H])[H])C([H])([H])[H])nc3c([H])c2[H])c([H])c1[H]


 36 40  0  0  0  0  0  0  0  0999 V2000
   -0.4739   21.9903  -23.5483 C   0  0  0  0  0  0  0  0  0  0  0  0
   -0.4546   21.9508  -24.9260 C   0  0  0  0  0  0  0  0  0  0  0  0
    0.7810   21.4807  -25.2675 N   0  0  0  0  0  0  0  0  0  0  0  0
    1.4992   21.2376  -24.1913 C   0  0  0  0  0  0  0  0  0  0  0  0
    0.7075   21.5589  -23.1238 N   0  0  0  0  0  0  0  0  0  0  0  0
   -5.0900   22.2586  -19.8598 C   0  0  0  0  0  0  0  0  0  0  0  0
   -4.1284   21.3912  -20.3257 C   0  0  0  0  0  0  0  0  0  0  0  0
   -3.3344   22.0492  -21.2235 N   0  0  0  0  0  0  0  0  0  0  0  0
   -2.2975   21.6435  -21.9246 N   0  0  0  0  0  0  0  0  0  0  0  0
   -1.6272   22.4401  -22.7735 C   0  0  0  0  0  0  0  0  0  0  0  0
   -2.0857   23.7322  -22.8794 C   0  0  0  0  0  0  0  0  0  0  0  0
   -3.1805   24.1830  -22.1473 C   0  0  0  0  0  0  0  0  0  0  0  0
   -3.7990   23.3011  -21.3093 C   0  0  0  0  0  0  0  0  0  0  0  0
   -4.8526   23.4262  -20.4908 N   0  0  0  0  0  0  0  0  0  0  0  0
   -7.3220   21.3709  -19.3085 C   0  0  0  0  0  0  0  0  0  0  0  0
   -7.4822   21.0660  -20.5393 O   0  0  0  0  0  0  0  0  0  0  0  0
   -6.1040   21.9842  -18.9226 N   0  0  0  0  0  0  0  0  0  0  0  0
   -5.9655   22.2338  -17.9293 H   0  0  0  0  0  0  0  0  0  0  0  0
   -8.1919   21.8697  -17.1248 C   0  0  0  0  0  0  0  0  0  0  0  0
   -8.4160   21.0617  -18.3858 C   0  0  0  0  0  0  0  0  0  0  0  0
   -9.7263   21.4779  -18.9828 C   0  0  0  0  0  0  0  0  0  0  0  0
   -8.4279   19.6032  -17.9838 C   0  0  0  0  0  0  0  0  0  0  0  0
   -1.4503   22.3089  -25.9167 C   0  0  0  0  0  0  0  0  0  0  0  0
   -1.0533   22.7246  -27.1652 C   0  0  0  0  0  0  0  0  0  0  0  0
   -1.9730   23.0737  -28.1519 C   0  0  0  0  0  0  0  0  0  0  0  0
   -3.3270   23.0081  -27.8915 C   0  0  0  0  0  0  0  0  0  0  0  0
   -4.2236   23.3501  -28.8580 F   0  0  0  0  0  0  0  0  0  0  0  0
   -3.7320   22.5933  -26.6455 C   0  0  0  0  0  0  0  0  0  0  0  0
   -2.8010   22.2494  -25.6743 C   0  0  0  0  0  0  0  0  0  0  0  0
    1.1323   21.4322  -21.7390 C   0  0  0  0  0  0  0  0  0  0  0  0
    1.2622   20.0229  -21.3299 C   0  0  0  0  0  0  0  0  0  0  0  0
    0.1845   19.2460  -20.9925 C   0  0  0  0  0  0  0  0  0  0  0  0
    0.2847   17.9342  -20.6133 C   0  0  0  0  0  0  0  0  0  0  0  0
    1.5423   17.3638  -20.5690 C   0  0  0  0  0  0  0  0  0  0  0  0
    2.6475   18.1247  -20.9043 C   0  0  0  0  0  0  0  0  0  0  0  0
    2.5228   19.4347  -21.2804 C   0  0  0  0  0  0  0  0  0  0  0  0
 19 20  1  0  0  0
 20 21  1  0  0  0
 20 22  1  0  0  0
 20 15  1  0  0  0
 15 16  2  0  0  0
 15 17  1  0  0  0
 17  6  1  0  0  0
  6  7  2  0  0  0
  7  8  1  0  0  0
  8  9  1  0  0  0
  9 10  2  0  0  0
 10  1  1  0  0  0
  1  2  2  0  0  0
  2 23  1  0  0  0
 23 24  2  0  0  0
 24 25  1  0  0  0
 25 26  2  0  0  0
 26 27  1  0  0  0
 26 28  1  0  0  0
 28 29  2  0  0  0
  2  3  1  0  0  0
  3  4  2  0  0  0
  4  5  1  0  0  0
  5 30  1  0  0  0
 30 31  1  0  0  0
 31 32  2  0  0  0
 32 33  1  0  0  0
 33 34  2  0  0  0
 34 35  1  0  0  0
 35 36  2  0  0  0
 10 11  1  0  0  0
 11 12  2  0  0  0
 12 13  1  0  0  0
 13 14  2  0  0  0
 14  6  1  0  0  0
 13  8  1  0  0  0
  5  1  1  0  0  0
 36 31  1  0  0  0
 29 23  1  0  0  0
 17 18  1  0  0  0
M  END
> <minimizedAffinity>
-8.11008

> <CNNscore>
0.2357371151

> <CNNaffinity>
6.7003183365

> <CNN_VS>
1.5795136690

> <CNNaffinity_variance>
0.0727909058

$$$$
[H]c1c([H])c([H])c(C([H])([H])n2c([H])nc(-c3c([H])c([H])c(F)c([H])c3[H])c2-c2nn3c([H])c(N([H])C(=O)C(C([H])([H])[H])(C([H])([H])[H])C([H])([H])[H])nc3c([H])c2[H])c([H])c1[H]


 36 40  0  0  0  0  0  0  0  0999 V2000
   -1.1561   21.5692  -23.4569 C   0  0  0  0  0  0  0  0  0  0  0  0
   -0.4181   21.9117  -24.5695 C   0  0  0  0  0  0  0  0  0  0  0  0
    0.8869   21.6945  -24.2318 N   0  0  0  0  0  0  0  0  0  0  0  0
    0.9788   21.2471  -22.9970 C   0  0  0  0  0  0  0  0  0  0  0  0
   -0.3012   21.1726  -22.5221 N   0  0  0  0  0  0  0  0  0  0  0  0
   -6.7125   23.0545  -22.0764 C   0  0  0  0  0  0  0  0  0  0  0  0
   -5.4058   23.3378  -21.7503 C   0  0  0  0  0  0  0  0  0  0  0  0
   -4.5791   22.5672  -22.5201 N   0  0  0  0  0  0  0  0  0  0  0  0
   -3.2668   22.4847  -22.5687 N   0  0  0  0  0  0  0  0  0  0  0  0
   -2.6128   21.6573  -23.4005 C   0  0  0  0  0  0  0  0  0  0  0  0
   -3.3971   20.8801  -24.2201 C   0  0  0  0  0  0  0  0  0  0  0  0
   -4.7868   20.9509  -24.1858 C   0  0  0  0  0  0  0  0  0  0  0  0
   -5.3634   21.8217  -23.3072 C   0  0  0  0  0  0  0  0  0  0  0  0
   -6.6436   22.1145  -23.0405 N   0  0  0  0  0  0  0  0  0  0  0  0
   -8.5745   24.6656  -22.1826 C   0  0  0  0  0  0  0  0  0  0  0  0
   -8.1279   25.0763  -23.3075 O   0  0  0  0  0  0  0  0  0  0  0  0
   -7.8731   23.6265  -21.5217 N   0  0  0  0  0  0  0  0  0  0  0  0
   -8.2272   23.2877  -20.6118 H   0  0  0  0  0  0  0  0  0  0  0  0
  -10.6376   25.7048  -22.8444 C   0  0  0  0  0  0  0  0  0  0  0  0
   -9.7837   25.3043  -21.6595 C   0  0  0  0  0  0  0  0  0  0  0  0
  -10.5623   24.3298  -20.8285 C   0  0  0  0  0  0  0  0  0  0  0  0
   -9.4729   26.5677  -20.8874 C   0  0  0  0  0  0  0  0  0  0  0  0
   -0.8100   22.4143  -25.8714 C   0  0  0  0  0  0  0  0  0  0  0  0
    0.1303   22.5424  -26.8657 C   0  0  0  0  0  0  0  0  0  0  0  0
   -0.1994   23.0153  -28.1342 C   0  0  0  0  0  0  0  0  0  0  0  0
   -1.5011   23.3715  -28.4242 C   0  0  0  0  0  0  0  0  0  0  0  0
   -1.8202   23.8336  -29.6650 F   0  0  0  0  0  0  0  0  0  0  0  0
   -2.4471   23.2464  -27.4354 C   0  0  0  0  0  0  0  0  0  0  0  0
   -2.1001   22.7732  -26.1767 C   0  0  0  0  0  0  0  0  0  0  0  0
   -0.6379   20.7190  -21.1823 C   0  0  0  0  0  0  0  0  0  0  0  0
    0.0581   21.5006  -20.1455 C   0  0  0  0  0  0  0  0  0  0  0  0
    1.1808   21.0471  -19.5032 C   0  0  0  0  0  0  0  0  0  0  0  0
    1.8433   21.7599  -18.5400 C   0  0  0  0  0  0  0  0  0  0  0  0
    1.3514   23.0049  -18.1980 C   0  0  0  0  0  0  0  0  0  0  0  0
    0.2197   23.4872  -18.8301 C   0  0  0  0  0  0  0  0  0  0  0  0
   -0.4260   22.7564  -19.7903 C   0  0  0  0  0  0  0  0  0  0  0  0
 19 20  1  0  0  0
 20 21  1  0  0  0
 20 22  1  0  0  0
 20 15  1  0  0  0
 15 16  2  0  0  0
 15 17  1  0  0  0
 17  6  1  0  0  0
  6  7  2  0  0  0
  7  8  1  0  0  0
  8  9  1  0  0  0
  9 10  2  0  0  0
 10  1  1  0  0  0
  1  2  2  0  0  0
  2 23  1  0  0  0
 23 24  2  0  0  0
 24 25  1  0  0  0
 25 26  2  0  0  0
 26 27  1  0  0  0
 26 28  1  0  0  0
 28 29  2  0  0  0
  2  3  1  0  0  0
  3  4  2  0  0  0
  4  5  1  0  0  0
  5 30  1  0  0  0
 30 31  1  0  0  0
 31 32  2  0  0  0
 32 33  1  0  0  0
 33 34  2  0  0  0
 34 35  1  0  0  0
 35 36  2  0  0  0
 10 11  1  0  0  0
 11 12  2  0  0  0
 12 13  1  0  0  0
 13 14  2  0  0  0
 14  6  1  0  0  0
 13  8  1  0  0  0
  5  1  1  0  0  0
 36 31  1  0  0  0
 29 23  1  0  0  0
 17 18  1  0  0  0
M  END
> <minimizedAffinity>
-8.86007

> <CNNscore>
0.2342805266

> <CNNaffinity>
6.8425140381

> <CNN_VS>
1.6030677557

> <CNNaffinity_variance>
0.1085242257

$$$$
[H]c1c([H])c([H])c(C([H])([H])n2c([H])nc(-c3c([H])c([H])c(F)c([H])c3[H])c2-c2nn3c([H])c(N([H])C(=O)C(C([H])([H])[H])(C([H])([H])[H])C([H])([H])[H])nc3c([H])c2[H])c([H])c1[H]


 36 40  0  0  0  0  0  0  0  0999 V2000
    1.8497   19.8136  -19.7264 C   0  0  0  0  0  0  0  0  0  0  0  0
    2.4556   18.5877  -19.5527 C   0  0  0  0  0  0  0  0  0  0  0  0
    2.5726   18.4185  -18.2029 N   0  0  0  0  0  0  0  0  0  0  0  0
    2.0797   19.4564  -17.5602 C   0  0  0  0  0  0  0  0  0  0  0  0
    1.6314   20.3214  -18.5196 N   0  0  0  0  0  0  0  0  0  0  0  0
   -0.9514   21.8985  -24.5006 C   0  0  0  0  0  0  0  0  0  0  0  0
   -1.1908   21.3642  -23.2551 C   0  0  0  0  0  0  0  0  0  0  0  0
    0.0055   21.0916  -22.6515 N   0  0  0  0  0  0  0  0  0  0  0  0
    0.2852   20.5796  -21.4722 N   0  0  0  0  0  0  0  0  0  0  0  0
    1.5400   20.3782  -21.0372 C   0  0  0  0  0  0  0  0  0  0  0  0
    2.5452   20.7407  -21.9027 C   0  0  0  0  0  0  0  0  0  0  0  0
    2.2726   21.2842  -23.1549 C   0  0  0  0  0  0  0  0  0  0  0  0
    0.9658   21.4519  -23.5109 C   0  0  0  0  0  0  0  0  0  0  0  0
    0.3911   21.9361  -24.6203 N   0  0  0  0  0  0  0  0  0  0  0  0
   -2.9627   23.1937  -25.0932 C   0  0  0  0  0  0  0  0  0  0  0  0
   -3.0307   23.6024  -23.8841 O   0  0  0  0  0  0  0  0  0  0  0  0
   -1.9060   22.3177  -25.4464 N   0  0  0  0  0  0  0  0  0  0  0  0
   -1.8429   21.9825  -26.4221 H   0  0  0  0  0  0  0  0  0  0  0  0
   -5.3024   23.0337  -25.6167 C   0  0  0  0  0  0  0  0  0  0  0  0
   -3.9880   23.6644  -26.0264 C   0  0  0  0  0  0  0  0  0  0  0  0
   -4.1309   25.1531  -25.9263 C   0  0  0  0  0  0  0  0  0  0  0  0
   -3.7088   23.2283  -27.4479 C   0  0  0  0  0  0  0  0  0  0  0  0
    2.9260   17.5993  -20.5029 C   0  0  0  0  0  0  0  0  0  0  0  0
    2.0210   16.8138  -21.1759 C   0  0  0  0  0  0  0  0  0  0  0  0
    2.4246   15.8546  -22.1024 C   0  0  0  0  0  0  0  0  0  0  0  0
    3.7664   15.6698  -22.3687 C   0  0  0  0  0  0  0  0  0  0  0  0
    4.1577   14.7313  -23.2748 F   0  0  0  0  0  0  0  0  0  0  0  0
    4.6775   16.4514  -21.6998 C   0  0  0  0  0  0  0  0  0  0  0  0
    4.2568   17.4025  -20.7796 C   0  0  0  0  0  0  0  0  0  0  0  0
    1.0102   21.6020  -18.2225 C   0  0  0  0  0  0  0  0  0  0  0  0
    1.9324   22.5113  -17.5203 C   0  0  0  0  0  0  0  0  0  0  0  0
    2.0570   22.5328  -16.1554 C   0  0  0  0  0  0  0  0  0  0  0  0
    2.9106   23.3676  -15.4852 C   0  0  0  0  0  0  0  0  0  0  0  0
    3.6883   24.2356  -16.2273 C   0  0  0  0  0  0  0  0  0  0  0  0
    3.5827   24.2353  -17.6063 C   0  0  0  0  0  0  0  0  0  0  0  0
    2.7220   23.3914  -18.2546 C   0  0  0  0  0  0  0  0  0  0  0  0
 19 20  1  0  0  0
 20 21  1  0  0  0
 20 22  1  0  0  0
 20 15  1  0  0  0
 15 16  2  0  0  0
 15 17  1  0  0  0
 17  6  1  0  0  0
  6  7  2  0  0  0
  7  8  1  0  0  0
  8  9  1  0  0  0
  9 10  2  0  0  0
 10  1  1  0  0  0
  1  2  2  0  0  0
  2 23  1  0  0  0
 23 24  2  0  0  0
 24 25  1  0  0  0
 25 26  2  0  0  0
 26 27  1  0  0  0
 26 28  1  0  0  0
 28 29  2  0  0  0
  2  3  1  0  0  0
  3  4  2  0  0  0
  4  5  1  0  0  0
  5 30  1  0  0  0
 30 31  1  0  0  0
 31 32  2  0  0  0
 32 33  1  0  0  0
 33 34  2  0  0  0
 34 35  1  0  0  0
 35 36  2  0  0  0
 10 11  1  0  0  0
 11 12  2  0  0  0
 12 13  1  0  0  0
 13 14  2  0  0  0
 14  6  1  0  0  0
 13  8  1  0  0  0
  5  1  1  0  0  0
 36 31  1  0  0  0
 29 23  1  0  0  0
 17 18  1  0  0  0
M  END
> <minimizedAffinity>
-7.59203

> <CNNscore>
0.2271914482

> <CNNaffinity>
6.4472379684

> <CNN_VS>
1.4647573233

> <CNNaffinity_variance>
0.0510740653

$$$$
[H]c1c([H])c([H])c(C([H])([H])n2c([H])nc(-c3c([H])c([H])c(F)c([H])c3[H])c2-c2nn3c([H])c(N([H])C(=O)C(C([H])([H])[H])(C([H])([H])[H])C([H])([H])[H])nc3c([H])c2[H])c([H])c1[H]


 36 40  0  0  0  0  0  0  0  0999 V2000
   -3.0448   23.6185  -26.5682 C   0  0  0  0  0  0  0  0  0  0  0  0
   -3.0476   23.3753  -27.9250 C   0  0  0  0  0  0  0  0  0  0  0  0
   -1.9817   22.5545  -28.1581 N   0  0  0  0  0  0  0  0  0  0  0  0
   -1.3439   22.2917  -27.0367 C   0  0  0  0  0  0  0  0  0  0  0  0
   -2.0148   22.9603  -26.0507 N   0  0  0  0  0  0  0  0  0  0  0  0
   -7.8501   25.5972  -23.7434 C   0  0  0  0  0  0  0  0  0  0  0  0
   -7.2966   24.4472  -24.2583 C   0  0  0  0  0  0  0  0  0  0  0  0
   -6.0814   24.7472  -24.8089 N   0  0  0  0  0  0  0  0  0  0  0  0
   -5.1922   23.9889  -25.4134 N   0  0  0  0  0  0  0  0  0  0  0  0
   -4.0332   24.4615  -25.9010 C   0  0  0  0  0  0  0  0  0  0  0  0
   -3.8126   25.8087  -25.7358 C   0  0  0  0  0  0  0  0  0  0  0  0
   -4.7392   26.6298  -25.0994 C   0  0  0  0  0  0  0  0  0  0  0  0
   -5.8896   26.0602  -24.6361 C   0  0  0  0  0  0  0  0  0  0  0  0
   -6.9512   26.5698  -23.9967 N   0  0  0  0  0  0  0  0  0  0  0  0
   -9.1940   26.3385  -21.8151 C   0  0  0  0  0  0  0  0  0  0  0  0
   -8.1262   26.7747  -21.2647 O   0  0  0  0  0  0  0  0  0  0  0  0
   -9.0901   25.7284  -23.0902 N   0  0  0  0  0  0  0  0  0  0  0  0
   -9.9486   25.3732  -23.5431 H   0  0  0  0  0  0  0  0  0  0  0  0
  -11.5770   26.4732  -22.0933 C   0  0  0  0  0  0  0  0  0  0  0  0
  -10.4505   26.5031  -21.0817 C   0  0  0  0  0  0  0  0  0  0  0  0
  -10.6445   25.3616  -20.1300 C   0  0  0  0  0  0  0  0  0  0  0  0
  -10.5255   27.8366  -20.3711 C   0  0  0  0  0  0  0  0  0  0  0  0
   -3.9223   23.8326  -28.9866 C   0  0  0  0  0  0  0  0  0  0  0  0
   -3.7447   25.0840  -29.5267 C   0  0  0  0  0  0  0  0  0  0  0  0
   -4.5563   25.5652  -30.5519 C   0  0  0  0  0  0  0  0  0  0  0  0
   -5.5743   24.7809  -31.0560 C   0  0  0  0  0  0  0  0  0  0  0  0
   -6.3659   25.2542  -32.0581 F   0  0  0  0  0  0  0  0  0  0  0  0
   -5.7583   23.5285  -30.5212 C   0  0  0  0  0  0  0  0  0  0  0  0
   -4.9396   23.0655  -29.4995 C   0  0  0  0  0  0  0  0  0  0  0  0
   -1.6271   22.9301  -24.6497 C   0  0  0  0  0  0  0  0  0  0  0  0
   -2.7673   22.6213  -23.7695 C   0  0  0  0  0  0  0  0  0  0  0  0
   -3.1478   23.4361  -22.7349 C   0  0  0  0  0  0  0  0  0  0  0  0
   -4.2063   23.1681  -21.9087 C   0  0  0  0  0  0  0  0  0  0  0  0
   -4.9295   22.0122  -22.1316 C   0  0  0  0  0  0  0  0  0  0  0  0
   -4.5675   21.1716  -23.1686 C   0  0  0  0  0  0  0  0  0  0  0  0
   -3.5052   21.4603  -23.9818 C   0  0  0  0  0  0  0  0  0  0  0  0
 19 20  1  0  0  0
 20 21  1  0  0  0
 20 22  1  0  0  0
 20 15  1  0  0  0
 15 16  2  0  0  0
 15 17  1  0  0  0
 17  6  1  0  0  0
  6  7  2  0  0  0
  7  8  1  0  0  0
  8  9  1  0  0  0
  9 10  2  0  0  0
 10  1  1  0  0  0
  1  2  2  0  0  0
  2 23  1  0  0  0
 23 24  2  0  0  0
 24 25  1  0  0  0
 25 26  2  0  0  0
 26 27  1  0  0  0
 26 28  1  0  0  0
 28 29  2  0  0  0
  2  3  1  0  0  0
  3  4  2  0  0  0
  4  5  1  0  0  0
  5 30  1  0  0  0
 30 31  1  0  0  0
 31 32  2  0  0  0
 32 33  1  0  0  0
 33 34  2  0  0  0
 34 35  1  0  0  0
 35 36  2  0  0  0
 10 11  1  0  0  0
 11 12  2  0  0  0
 12 13  1  0  0  0
 13 14  2  0  0  0
 14  6  1  0  0  0
 13  8  1  0  0  0
  5  1  1  0  0  0
 36 31  1  0  0  0
 29 23  1  0  0  0
 17 18  1  0  0  0
M  END
> <minimizedAffinity>
-9.94935

> <CNNscore>
0.2186170369

> <CNNaffinity>
6.9183816910

> <CNN_VS>
1.5124760866

> <CNNaffinity_variance>
0.3805064857

$$$$
[H]c1c([H])c([H])c(C([H])([H])n2c([H])nc(-c3c([H])c([H])c(F)c([H])c3[H])c2-c2nn3c([H])c(N([H])C(=O)C(C([H])([H])[H])(C([H])([H])[H])C([H])([H])[H])nc3c([H])c2[H])c([H])c1[H]


 36 40  0  0  0  0  0  0  0  0999 V2000
    0.3395   20.7835  -20.4898 C   0  0  0  0  0  0  0  0  0  0  0  0
    0.9524   19.6270  -20.0577 C   0  0  0  0  0  0  0  0  0  0  0  0
    0.9321   19.6825  -18.6936 N   0  0  0  0  0  0  0  0  0  0  0  0
    0.3509   20.7899  -18.2824 C   0  0  0  0  0  0  0  0  0  0  0  0
   -0.0152   21.4701  -19.4106 N   0  0  0  0  0  0  0  0  0  0  0  0
   -1.9986   22.0022  -25.7846 C   0  0  0  0  0  0  0  0  0  0  0  0
   -2.3545   21.6809  -24.4945 C   0  0  0  0  0  0  0  0  0  0  0  0
   -1.2205   21.5290  -23.7458 N   0  0  0  0  0  0  0  0  0  0  0  0
   -1.0534   21.2255  -22.4765 N   0  0  0  0  0  0  0  0  0  0  0  0
    0.1549   21.1164  -21.8998 C   0  0  0  0  0  0  0  0  0  0  0  0
    1.2373   21.3421  -22.7173 C   0  0  0  0  0  0  0  0  0  0  0  0
    1.0842   21.6646  -24.0627 C   0  0  0  0  0  0  0  0  0  0  0  0
   -0.1833   21.7530  -24.5610 C   0  0  0  0  0  0  0  0  0  0  0  0
   -0.6508   22.0369  -25.7843 N   0  0  0  0  0  0  0  0  0  0  0  0
   -3.5855   23.4564  -26.9849 C   0  0  0  0  0  0  0  0  0  0  0  0
   -3.4387   24.3369  -26.0703 O   0  0  0  0  0  0  0  0  0  0  0  0
   -2.8598   22.2444  -26.8715 N   0  0  0  0  0  0  0  0  0  0  0  0
   -2.9719   21.5267  -27.6068 H   0  0  0  0  0  0  0  0  0  0  0  0
   -5.9048   23.7772  -27.5254 C   0  0  0  0  0  0  0  0  0  0  0  0
   -4.4981   23.7690  -28.0863 C   0  0  0  0  0  0  0  0  0  0  0  0
   -4.2017   25.1343  -28.6289 C   0  0  0  0  0  0  0  0  0  0  0  0
   -4.4590   22.7190  -29.1748 C   0  0  0  0  0  0  0  0  0  0  0  0
    1.5421   18.5179  -20.7811 C   0  0  0  0  0  0  0  0  0  0  0  0
    2.7798   18.6615  -21.3613 C   0  0  0  0  0  0  0  0  0  0  0  0
    3.3895   17.6227  -22.0617 C   0  0  0  0  0  0  0  0  0  0  0  0
    2.7518   16.4052  -22.1896 C   0  0  0  0  0  0  0  0  0  0  0  0
    3.3503   15.3918  -22.8749 F   0  0  0  0  0  0  0  0  0  0  0  0
    1.5139   16.2537  -21.6123 C   0  0  0  0  0  0  0  0  0  0  0  0
    0.9215   17.3003  -20.9180 C   0  0  0  0  0  0  0  0  0  0  0  0
   -0.6936   22.7560  -19.3912 C   0  0  0  0  0  0  0  0  0  0  0  0
   -2.1242   22.6186  -19.0672 C   0  0  0  0  0  0  0  0  0  0  0  0
   -2.6000   22.6489  -17.7821 C   0  0  0  0  0  0  0  0  0  0  0  0
   -3.9255   22.5265  -17.4614 C   0  0  0  0  0  0  0  0  0  0  0  0
   -4.8319   22.3636  -18.4913 C   0  0  0  0  0  0  0  0  0  0  0  0
   -4.3793   22.3292  -19.7978 C   0  0  0  0  0  0  0  0  0  0  0  0
   -3.0490   22.4536  -20.0943 C   0  0  0  0  0  0  0  0  0  0  0  0
 19 20  1  0  0  0
 20 21  1  0  0  0
 20 22  1  0  0  0
 20 15  1  0  0  0
 15 16  2  0  0  0
 15 17  1  0  0  0
 17  6  1  0  0  0
  6  7  2  0  0  0
  7  8  1  0  0  0
  8  9  1  0  0  0
  9 10  2  0  0  0
 10  1  1  0  0  0
  1  2  2  0  0  0
  2 23  1  0  0  0
 23 24  2  0  0  0
 24 25  1  0  0  0
 25 26  2  0  0  0
 26 27  1  0  0  0
 26 28  1  0  0  0
 28 29  2  0  0  0
  2  3  1  0  0  0
  3  4  2  0  0  0
  4  5  1  0  0  0
  5 30  1  0  0  0
 30 31  1  0  0  0
 31 32  2  0  0  0
 32 33  1  0  0  0
 33 34  2  0  0  0
 34 35  1  0  0  0
 35 36  2  0  0  0
 10 11  1  0  0  0
 11 12  2  0  0  0
 12 13  1  0  0  0
 13 14  2  0  0  0
 14  6  1  0  0  0
 13  8  1  0  0  0
  5  1  1  0  0  0
 36 31  1  0  0  0
 29 23  1  0  0  0
 17 18  1  0  0  0
M  END
> <minimizedAffinity>
-7.97787

> <CNNscore>
0.1982995123

> <CNNaffinity>
6.5217819214

> <CNN_VS>
1.2932661772

> <CNNaffinity_variance>
0.2090230882

$$$$
[H]c1c([H])c([H])c(C([H])([H])n2c([H])nc(-c3c([H])c([H])c(F)c([H])c3[H])c2-c2nn3c([H])c(N([H])C(=O)C(C([H])([H])[H])(C([H])([H])[H])C([H])([H])[H])nc3c([H])c2[H])c([H])c1[H]


 36 40  0  0  0  0  0  0  0  0999 V2000
   -2.4684   22.4859  -25.2483 C   0  0  0  0  0  0  0  0  0  0  0  0
   -1.2480   22.4022  -24.6131 C   0  0  0  0  0  0  0  0  0  0  0  0
   -0.3079   22.5235  -25.5959 N   0  0  0  0  0  0  0  0  0  0  0  0
   -0.8815   22.6733  -26.7714 C   0  0  0  0  0  0  0  0  0  0  0  0
   -2.2295   22.6483  -26.5439 N   0  0  0  0  0  0  0  0  0  0  0  0
   -7.3136   23.7250  -22.0901 C   0  0  0  0  0  0  0  0  0  0  0  0
   -6.1540   24.2987  -22.5594 C   0  0  0  0  0  0  0  0  0  0  0  0
   -5.4503   23.3633  -23.2661 N   0  0  0  0  0  0  0  0  0  0  0  0
   -4.2969   23.4383  -23.8949 N   0  0  0  0  0  0  0  0  0  0  0  0
   -3.7467   22.4009  -24.5471 C   0  0  0  0  0  0  0  0  0  0  0  0
   -4.4617   21.2265  -24.5272 C   0  0  0  0  0  0  0  0  0  0  0  0
   -5.6838   21.1244  -23.8686 C   0  0  0  0  0  0  0  0  0  0  0  0
   -6.1644   22.2322  -23.2326 C   0  0  0  0  0  0  0  0  0  0  0  0
   -7.2825   22.4497  -22.5268 N   0  0  0  0  0  0  0  0  0  0  0  0
   -9.3565   25.0933  -21.9227 C   0  0  0  0  0  0  0  0  0  0  0  0
   -9.3637   25.2016  -23.1962 O   0  0  0  0  0  0  0  0  0  0  0  0
   -8.3183   24.3404  -21.3196 N   0  0  0  0  0  0  0  0  0  0  0  0
   -8.3048   24.2470  -20.2904 H   0  0  0  0  0  0  0  0  0  0  0  0
   -9.8776   27.0732  -20.6646 C   0  0  0  0  0  0  0  0  0  0  0  0
  -10.4279   25.7598  -21.1799 C   0  0  0  0  0  0  0  0  0  0  0  0
  -11.5783   26.0592  -22.0928 C   0  0  0  0  0  0  0  0  0  0  0  0
  -10.8699   24.9589  -19.9748 C   0  0  0  0  0  0  0  0  0  0  0  0
   -0.8950   22.2170  -23.2194 C   0  0  0  0  0  0  0  0  0  0  0  0
   -0.0469   21.1972  -22.8592 C   0  0  0  0  0  0  0  0  0  0  0  0
    0.3256   20.9830  -21.5338 C   0  0  0  0  0  0  0  0  0  0  0  0
   -0.1582   21.8056  -20.5364 C   0  0  0  0  0  0  0  0  0  0  0  0
    0.2076   21.5936  -19.2418 F   0  0  0  0  0  0  0  0  0  0  0  0
   -1.0068   22.8275  -20.8886 C   0  0  0  0  0  0  0  0  0  0  0  0
   -1.3672   23.0259  -22.2149 C   0  0  0  0  0  0  0  0  0  0  0  0
   -3.2261   22.7840  -27.5940 C   0  0  0  0  0  0  0  0  0  0  0  0
   -4.2420   23.7975  -27.2610 C   0  0  0  0  0  0  0  0  0  0  0  0
   -5.5771   23.5041  -27.1596 C   0  0  0  0  0  0  0  0  0  0  0  0
   -6.5355   24.4310  -26.8478 C   0  0  0  0  0  0  0  0  0  0  0  0
   -6.1326   25.7334  -26.6234 C   0  0  0  0  0  0  0  0  0  0  0  0
   -4.7914   26.0575  -26.7193 C   0  0  0  0  0  0  0  0  0  0  0  0
   -3.8511   25.1137  -27.0324 C   0  0  0  0  0  0  0  0  0  0  0  0
 19 20  1  0  0  0
 20 21  1  0  0  0
 20 22  1  0  0  0
 20 15  1  0  0  0
 15 16  2  0  0  0
 15 17  1  0  0  0
 17  6  1  0  0  0
  6  7  2  0  0  0
  7  8  1  0  0  0
  8  9  1  0  0  0
  9 10  2  0  0  0
 10  1  1  0  0  0
  1  2  2  0  0  0
  2 23  1  0  0  0
 23 24  2  0  0  0
 24 25  1  0  0  0
 25 26  2  0  0  0
 26 27  1  0  0  0
 26 28  1  0  0  0
 28 29  2  0  0  0
  2  3  1  0  0  0
  3  4  2  0  0  0
  4  5  1  0  0  0
  5 30  1  0  0  0
 30 31  1  0  0  0
 31 32  2  0  0  0
 32 33  1  0  0  0
 33 34  2  0  0  0
 34 35  1  0  0  0
 35 36  2  0  0  0
 10 11  1  0  0  0
 11 12  2  0  0  0
 12 13  1  0  0  0
 13 14  2  0  0  0
 14  6  1  0  0  0
 13  8  1  0  0  0
  5  1  1  0  0  0
 36 31  1  0  0  0
 29 23  1  0  0  0
 17 18  1  0  0  0
M  END
> <minimizedAffinity>
-8.87312

> <CNNscore>
0.1851341277

> <CNNaffinity>
6.7064018250

> <CNN_VS>
1.2415838242

> <CNNaffinity_variance>
0.1641912758

$$$$
[H]c1c([H])c([H])c(C([H])([H])n2c([H])nc(-c3c([H])c([H])c(F)c([H])c3[H])c2-c2nn3c([H])c(N([H])C(=O)C(C([H])([H])[H])(C([H])([H])[H])C([H])([H])[H])nc3c([H])c2[H])c([H])c1[H]


 36 40  0  0  0  0  0  0  0  0999 V2000
    2.3562   20.3226  -20.0654 C   0  0  0  0  0  0  0  0  0  0  0  0
    2.9556   19.1068  -19.8153 C   0  0  0  0  0  0  0  0  0  0  0  0
    3.2761   19.1159  -18.4881 N   0  0  0  0  0  0  0  0  0  0  0  0
    2.9104   20.2507  -17.9298 C   0  0  0  0  0  0  0  0  0  0  0  0
    2.3376   20.9968  -18.9222 N   0  0  0  0  0  0  0  0  0  0  0  0
   -1.1081   21.8138  -24.6218 C   0  0  0  0  0  0  0  0  0  0  0  0
   -1.1646   21.4469  -23.2965 C   0  0  0  0  0  0  0  0  0  0  0  0
    0.1070   21.2384  -22.8390 N   0  0  0  0  0  0  0  0  0  0  0  0
    0.5546   20.8784  -21.6553 N   0  0  0  0  0  0  0  0  0  0  0  0
    1.8598   20.7182  -21.3806 C   0  0  0  0  0  0  0  0  0  0  0  0
    2.7293   20.9534  -22.4196 C   0  0  0  0  0  0  0  0  0  0  0  0
    2.2781   21.3353  -23.6799 C   0  0  0  0  0  0  0  0  0  0  0  0
    0.9330   21.4729  -23.8653 C   0  0  0  0  0  0  0  0  0  0  0  0
    0.2033   21.8181  -24.9349 N   0  0  0  0  0  0  0  0  0  0  0  0
   -3.0804   23.1837  -25.1760 C   0  0  0  0  0  0  0  0  0  0  0  0
   -2.8772   23.8684  -24.1162 O   0  0  0  0  0  0  0  0  0  0  0  0
   -2.1901   22.1205  -25.4685 N   0  0  0  0  0  0  0  0  0  0  0  0
   -2.3464   21.5617  -26.3238 H   0  0  0  0  0  0  0  0  0  0  0  0
   -4.3147   25.0639  -26.0220 C   0  0  0  0  0  0  0  0  0  0  0  0
   -4.2247   23.5522  -26.0119 C   0  0  0  0  0  0  0  0  0  0  0  0
   -4.0055   23.0860  -27.4194 C   0  0  0  0  0  0  0  0  0  0  0  0
   -5.5306   23.0321  -25.4523 C   0  0  0  0  0  0  0  0  0  0  0  0
    3.2526   17.9805  -20.6782 C   0  0  0  0  0  0  0  0  0  0  0  0
    4.5127   17.8401  -21.2090 C   0  0  0  0  0  0  0  0  0  0  0  0
    4.8471   16.7719  -22.0386 C   0  0  0  0  0  0  0  0  0  0  0  0
    3.9028   15.8146  -22.3505 C   0  0  0  0  0  0  0  0  0  0  0  0
    4.2328   14.7716  -23.1618 F   0  0  0  0  0  0  0  0  0  0  0  0
    2.6406   15.9479  -21.8237 C   0  0  0  0  0  0  0  0  0  0  0  0
    2.3252   17.0194  -20.9986 C   0  0  0  0  0  0  0  0  0  0  0  0
    1.7969   22.3308  -18.7167 C   0  0  0  0  0  0  0  0  0  0  0  0
    0.3740   22.2955  -18.3371 C   0  0  0  0  0  0  0  0  0  0  0  0
   -0.0857   21.6054  -17.2456 C   0  0  0  0  0  0  0  0  0  0  0  0
   -1.4031   21.5636  -16.8748 C   0  0  0  0  0  0  0  0  0  0  0  0
   -2.3181   22.2557  -17.6446 C   0  0  0  0  0  0  0  0  0  0  0  0
   -1.8819   22.9605  -18.7519 C   0  0  0  0  0  0  0  0  0  0  0  0
   -0.5594   22.9878  -19.1032 C   0  0  0  0  0  0  0  0  0  0  0  0
 19 20  1  0  0  0
 20 21  1  0  0  0
 20 22  1  0  0  0
 20 15  1  0  0  0
 15 16  2  0  0  0
 15 17  1  0  0  0
 17  6  1  0  0  0
  6  7  2  0  0  0
  7  8  1  0  0  0
  8  9  1  0  0  0
  9 10  2  0  0  0
 10  1  1  0  0  0
  1  2  2  0  0  0
  2 23  1  0  0  0
 23 24  2  0  0  0
 24 25  1  0  0  0
 25 26  2  0  0  0
 26 27  1  0  0  0
 26 28  1  0  0  0
 28 29  2  0  0  0
  2  3  1  0  0  0
  3  4  2  0  0  0
  4  5  1  0  0  0
  5 30  1  0  0  0
 30 31  1  0  0  0
 31 32  2  0  0  0
 32 33  1  0  0  0
 33 34  2  0  0  0
 34 35  1  0  0  0
 35 36  2  0  0  0
 10 11  1  0  0  0
 11 12  2  0  0  0
 12 13  1  0  0  0
 13 14  2  0  0  0
 14  6  1  0  0  0
 13  8  1  0  0  0
  5  1  1  0  0  0
 36 31  1  0  0  0
 29 23  1  0  0  0
 17 18  1  0  0  0
M  END
> <minimizedAffinity>
-7.32816

> <CNNscore>
0.1734118015

> <CNNaffinity>
6.5168733597

> <CNN_VS>
1.1301027536

> <CNNaffinity_variance>
0.1289668381

$$$$
[H]c1nc(N([H])[H])c(OC([H])([H])C([H])([H])[H])c(N2C([H])([H])C([H])([H])N(C([H])(c3c([H])c([H])c(C(F)(F)F)c([H])c3[H])C([H])([H])N([H])[H])C([H])([H])C2([H])[H])n1


 33 35  0  0  0  0  0  0  0  0999 V2000
   -3.6942   23.7889  -24.3183 N   0  0  0  0  0  0  0  0  0  0  0  0
   -3.9359   25.0775  -23.7088 C   0  0  0  0  0  0  0  0  0  0  0  0
   -5.4410   25.1579  -23.6233 C   0  0  0  0  0  0  0  0  0  0  0  0
   -5.8788   24.4269  -22.4056 N   0  0  0  0  0  0  0  0  0  0  0  0
   -5.0615   23.2105  -22.3761 C   0  0  0  0  0  0  0  0  0  0  0  0
   -4.6056   22.7498  -23.7154 C   0  0  0  0  0  0  0  0  0  0  0  0
   -2.8294   23.4590  -26.6457 C   0  0  0  0  0  0  0  0  0  0  0  0
   -1.8374   22.8876  -27.4721 C   0  0  0  0  0  0  0  0  0  0  0  0
   -1.9232   22.9870  -28.8801 N   0  0  0  0  0  0  0  0  0  0  0  0
   -0.8130   22.2498  -26.9283 N   0  0  0  0  0  0  0  0  0  0  0  0
   -0.7433   22.1644  -25.5834 C   0  0  0  0  0  0  0  0  0  0  0  0
   -1.6800   22.7003  -24.8019 N   0  0  0  0  0  0  0  0  0  0  0  0
   -2.7850   23.3814  -25.2982 C   0  0  0  0  0  0  0  0  0  0  0  0
   -1.0538   23.2396  -29.4221 H   0  0  0  0  0  0  0  0  0  0  0  0
   -2.8161   22.8119  -29.4163 H   0  0  0  0  0  0  0  0  0  0  0  0
   -3.8432   24.1025  -27.3383 O   0  0  0  0  0  0  0  0  0  0  0  0
   -5.4838   23.3645  -28.9165 C   0  0  0  0  0  0  0  0  0  0  0  0
   -5.1342   23.5217  -27.4536 C   0  0  0  0  0  0  0  0  0  0  0  0
   -7.2624   24.0353  -22.5889 C   0  0  0  0  0  0  0  0  0  0  0  0
   -7.8538   23.4755  -21.3620 C   0  0  0  0  0  0  0  0  0  0  0  0
   -8.2447   22.1498  -21.3538 C   0  0  0  0  0  0  0  0  0  0  0  0
   -8.9078   21.5965  -20.2675 C   0  0  0  0  0  0  0  0  0  0  0  0
   -9.1967   22.3704  -19.1656 C   0  0  0  0  0  0  0  0  0  0  0  0
   -8.8193   23.6912  -19.1363 C   0  0  0  0  0  0  0  0  0  0  0  0
   -8.1510   24.2077  -20.2501 C   0  0  0  0  0  0  0  0  0  0  0  0
   -9.9582   21.7939  -18.0305 C   0  0  0  0  0  0  0  0  0  0  0  0
   -9.2838   22.1923  -16.8537 F   0  0  0  0  0  0  0  0  0  0  0  0
   -9.9773   20.4209  -18.0256 F   0  0  0  0  0  0  0  0  0  0  0  0
  -11.2150   22.3415  -17.9287 F   0  0  0  0  0  0  0  0  0  0  0  0
   -8.0534   25.3374  -22.8464 C   0  0  0  0  0  0  0  0  0  0  0  0
   -9.0133   25.2233  -23.8858 N   0  0  0  0  0  0  0  0  0  0  0  0
   -8.6599   25.5724  -24.7839 H   0  0  0  0  0  0  0  0  0  0  0  0
   -9.9600   25.5198  -23.6255 H   0  0  0  0  0  0  0  0  0  0  0  0
 17 18  1  0  0  0
 18 16  1  0  0  0
 16  7  1  0  0  0
  7  8  2  0  0  0
  8  9  1  0  0  0
  8 10  1  0  0  0
 10 11  2  0  0  0
 11 12  1  0  0  0
 12 13  2  0  0  0
 13  1  1  0  0  0
  1  2  1  0  0  0
  2  3  1  0  0  0
  3  4  1  0  0  0
  4 19  1  0  0  0
 19 30  1  0  0  0
 30 31  1  0  0  0
 19 20  1  0  0  0
 20 21  2  0  0  0
 21 22  1  0  0  0
 22 23  2  0  0  0
 23 26  1  0  0  0
 26 27  1  0  0  0
 26 28  1  0  0  0
 26 29  1  0  0  0
 23 24  1  0  0  0
 24 25  2  0  0  0
  4  5  1  0  0  0
  5  6  1  0  0  0
 13  7  1  0  0  0
  6  1  1  0  0  0
 25 20  1  0  0  0
  9 14  1  0  0  0
  9 15  1  0  0  0
 31 32  1  0  0  0
 31 33  1  0  0  0
M  END
> <minimizedAffinity>
-6.40530

> <CNNscore>
0.2382483333

> <CNNaffinity>
6.0003585815

> <CNN_VS>
1.4295754433

> <CNNaffinity_variance>
0.4311071336

$$$$
[H]c1nc(N([H])[H])c(OC([H])([H])C([H])([H])[H])c(N2C([H])([H])C([H])([H])N(C([H])(c3c([H])c([H])c(C(F)(F)F)c([H])c3[H])C([H])([H])N([H])[H])C([H])([H])C2([H])[H])n1


 33 35  0  0  0  0  0  0  0  0999 V2000
   -5.0766   23.6827  -25.0849 N   0  0  0  0  0  0  0  0  0  0  0  0
   -4.6223   24.5640  -24.0326 C   0  0  0  0  0  0  0  0  0  0  0  0
   -5.9006   25.0422  -23.3875 C   0  0  0  0  0  0  0  0  0  0  0  0
   -6.3487   24.0089  -22.4178 N   0  0  0  0  0  0  0  0  0  0  0  0
   -6.1342   22.7284  -23.0982 C   0  0  0  0  0  0  0  0  0  0  0  0
   -6.1980   22.8086  -24.5825 C   0  0  0  0  0  0  0  0  0  0  0  0
   -3.4067   23.3787  -26.9268 C   0  0  0  0  0  0  0  0  0  0  0  0
   -3.1745   23.3153  -28.3180 C   0  0  0  0  0  0  0  0  0  0  0  0
   -1.8620   23.1819  -28.8272 N   0  0  0  0  0  0  0  0  0  0  0  0
   -4.1931   23.3816  -29.1605 N   0  0  0  0  0  0  0  0  0  0  0  0
   -5.4401   23.5071  -28.6604 C   0  0  0  0  0  0  0  0  0  0  0  0
   -5.6611   23.5700  -27.3479 N   0  0  0  0  0  0  0  0  0  0  0  0
   -4.6444   23.5103  -26.4026 C   0  0  0  0  0  0  0  0  0  0  0  0
   -1.6903   22.4901  -29.6051 H   0  0  0  0  0  0  0  0  0  0  0  0
   -1.0456   23.7491  -28.4704 H   0  0  0  0  0  0  0  0  0  0  0  0
   -2.2583   23.2924  -26.1554 O   0  0  0  0  0  0  0  0  0  0  0  0
   -0.4259   22.0628  -25.2293 C   0  0  0  0  0  0  0  0  0  0  0  0
   -1.9164   22.0887  -25.4834 C   0  0  0  0  0  0  0  0  0  0  0  0
   -7.7736   24.1749  -22.2095 C   0  0  0  0  0  0  0  0  0  0  0  0
   -8.2190   23.6262  -20.9177 C   0  0  0  0  0  0  0  0  0  0  0  0
   -7.3816   23.7312  -19.8232 C   0  0  0  0  0  0  0  0  0  0  0  0
   -7.6974   23.1370  -18.6095 C   0  0  0  0  0  0  0  0  0  0  0  0
   -8.8641   22.4180  -18.4737 C   0  0  0  0  0  0  0  0  0  0  0  0
   -9.7232   22.2961  -19.5390 C   0  0  0  0  0  0  0  0  0  0  0  0
   -9.3682   22.9126  -20.7423 C   0  0  0  0  0  0  0  0  0  0  0  0
   -9.1715   21.7334  -17.1942 C   0  0  0  0  0  0  0  0  0  0  0  0
   -8.9719   20.3525  -17.4219 F   0  0  0  0  0  0  0  0  0  0  0  0
  -10.4772   21.8800  -16.7950 F   0  0  0  0  0  0  0  0  0  0  0  0
   -8.2751   22.0693  -16.2076 F   0  0  0  0  0  0  0  0  0  0  0  0
   -8.0232   25.6956  -22.0965 C   0  0  0  0  0  0  0  0  0  0  0  0
   -9.1770   26.1359  -22.7964 N   0  0  0  0  0  0  0  0  0  0  0  0
   -8.9514   26.5092  -23.7254 H   0  0  0  0  0  0  0  0  0  0  0  0
   -9.8317   26.6888  -22.2328 H   0  0  0  0  0  0  0  0  0  0  0  0
 17 18  1  0  0  0
 18 16  1  0  0  0
 16  7  1  0  0  0
  7  8  2  0  0  0
  8  9  1  0  0  0
  8 10  1  0  0  0
 10 11  2  0  0  0
 11 12  1  0  0  0
 12 13  2  0  0  0
 13  1  1  0  0  0
  1  2  1  0  0  0
  2  3  1  0  0  0
  3  4  1  0  0  0
  4 19  1  0  0  0
 19 30  1  0  0  0
 30 31  1  0  0  0
 19 20  1  0  0  0
 20 21  2  0  0  0
 21 22  1  0  0  0
 22 23  2  0  0  0
 23 26  1  0  0  0
 26 27  1  0  0  0
 26 28  1  0  0  0
 26 29  1  0  0  0
 23 24  1  0  0  0
 24 25  2  0  0  0
  4  5  1  0  0  0
  5  6  1  0  0  0
 13  7  1  0  0  0
  6  1  1  0  0  0
 25 20  1  0  0  0
  9 14  1  0  0  0
  9 15  1  0  0  0
 31 32  1  0  0  0
 31 33  1  0  0  0
M  END
> <minimizedAffinity>
-6.52806

> <CNNscore>
0.1003151536

> <CNNaffinity>
5.6981086731

> <CNN_VS>
0.5716066360

> <CNNaffinity_variance>
0.1740351617

$$$$
[H]c1nc(N([H])[H])c(OC([H])([H])C([H])([H])[H])c(N2C([H])([H])C([H])([H])N(C([H])(c3c([H])c([H])c(C(F)(F)F)c([H])c3[H])C([H])([H])N([H])[H])C([H])([H])C2([H])[H])n1


 33 35  0  0  0  0  0  0  0  0999 V2000
   -2.3342   22.6697  -22.9880 N   0  0  0  0  0  0  0  0  0  0  0  0
   -2.6335   23.8773  -22.2514 C   0  0  0  0  0  0  0  0  0  0  0  0
   -4.0740   24.1636  -22.6007 C   0  0  0  0  0  0  0  0  0  0  0  0
   -4.9406   23.3353  -21.7222 N   0  0  0  0  0  0  0  0  0  0  0  0
   -4.2927   22.0212  -21.6765 C   0  0  0  0  0  0  0  0  0  0  0  0
   -3.4829   21.6985  -22.8823 C   0  0  0  0  0  0  0  0  0  0  0  0
    0.0019   21.8261  -23.3115 C   0  0  0  0  0  0  0  0  0  0  0  0
    1.0593   21.5804  -24.2141 C   0  0  0  0  0  0  0  0  0  0  0  0
    2.3101   21.1090  -23.7524 N   0  0  0  0  0  0  0  0  0  0  0  0
    0.8842   21.7924  -25.5088 N   0  0  0  0  0  0  0  0  0  0  0  0
   -0.3151   22.2405  -25.9353 C   0  0  0  0  0  0  0  0  0  0  0  0
   -1.3133   22.4759  -25.0847 N   0  0  0  0  0  0  0  0  0  0  0  0
   -1.2048   22.2805  -23.7132 C   0  0  0  0  0  0  0  0  0  0  0  0
    2.7802   20.3255  -24.2800 H   0  0  0  0  0  0  0  0  0  0  0  0
    2.8004   21.5105  -22.9075 H   0  0  0  0  0  0  0  0  0  0  0  0
    0.3126   21.5590  -21.9873 O   0  0  0  0  0  0  0  0  0  0  0  0
   -0.9953   20.8506  -20.1125 C   0  0  0  0  0  0  0  0  0  0  0  0
   -0.2103   20.4141  -21.3291 C   0  0  0  0  0  0  0  0  0  0  0  0
   -6.2260   23.1810  -22.3743 C   0  0  0  0  0  0  0  0  0  0  0  0
   -7.2308   24.1287  -21.8639 C   0  0  0  0  0  0  0  0  0  0  0  0
   -8.2851   24.4889  -22.6817 C   0  0  0  0  0  0  0  0  0  0  0  0
   -9.2002   25.4596  -22.2992 C   0  0  0  0  0  0  0  0  0  0  0  0
   -9.0690   26.0938  -21.0837 C   0  0  0  0  0  0  0  0  0  0  0  0
   -8.0357   25.7584  -20.2425 C   0  0  0  0  0  0  0  0  0  0  0  0
   -7.1384   24.7735  -20.6654 C   0  0  0  0  0  0  0  0  0  0  0  0
  -10.0123   27.1731  -20.7020 C   0  0  0  0  0  0  0  0  0  0  0  0
  -10.5592   27.6704  -21.9071 F   0  0  0  0  0  0  0  0  0  0  0  0
   -9.4050   28.2357  -20.0794 F   0  0  0  0  0  0  0  0  0  0  0  0
  -11.0848   26.6862  -19.9932 F   0  0  0  0  0  0  0  0  0  0  0  0
   -6.0175   23.5879  -23.8502 C   0  0  0  0  0  0  0  0  0  0  0  0
   -6.3191   22.5527  -24.7734 N   0  0  0  0  0  0  0  0  0  0  0  0
   -5.4819   22.0395  -25.0719 H   0  0  0  0  0  0  0  0  0  0  0  0
   -6.9742   22.8214  -25.5154 H   0  0  0  0  0  0  0  0  0  0  0  0
 17 18  1  0  0  0
 18 16  1  0  0  0
 16  7  1  0  0  0
  7  8  2  0  0  0
  8  9  1  0  0  0
  8 10  1  0  0  0
 10 11  2  0  0  0
 11 12  1  0  0  0
 12 13  2  0  0  0
 13  1  1  0  0  0
  1  2  1  0  0  0
  2  3  1  0  0  0
  3  4  1  0  0  0
  4 19  1  0  0  0
 19 30  1  0  0  0
 30 31  1  0  0  0
 19 20  1  0  0  0
 20 21  2  0  0  0
 21 22  1  0  0  0
 22 23  2  0  0  0
 23 26  1  0  0  0
 26 27  1  0  0  0
 26 28  1  0  0  0
 26 29  1  0  0  0
 23 24  1  0  0  0
 24 25  2  0  0  0
  4  5  1  0  0  0
  5  6  1  0  0  0
 13  7  1  0  0  0
  6  1  1  0  0  0
 25 20  1  0  0  0
  9 14  1  0  0  0
  9 15  1  0  0  0
 31 32  1  0  0  0
 31 33  1  0  0  0
M  END
> <minimizedAffinity>
-6.51713

> <CNNscore>
0.0987783298

> <CNNaffinity>
5.4183850288

> <CNN_VS>
0.5352190137

> <CNNaffinity_variance>
0.1398759037

$$$$
[H]c1nc(N([H])[H])c(OC([H])([H])C([H])([H])[H])c(N2C([H])([H])C([H])([H])N(C([H])(c3c([H])c([H])c(C(F)(F)F)c([H])c3[H])C([H])([H])N([H])[H])C([H])([H])C2([H])[H])n1


 33 35  0  0  0  0  0  0  0  0999 V2000
   -2.1305   22.7213  -22.6674 N   0  0  0  0  0  0  0  0  0  0  0  0
   -2.4793   24.1053  -22.8982 C   0  0  0  0  0  0  0  0  0  0  0  0
   -3.5555   24.0334  -23.9544 C   0  0  0  0  0  0  0  0  0  0  0  0
   -4.8507   23.7512  -23.2824 N   0  0  0  0  0  0  0  0  0  0  0  0
   -4.5428   22.7350  -22.2719 C   0  0  0  0  0  0  0  0  0  0  0  0
   -3.3767   21.8743  -22.6083 C   0  0  0  0  0  0  0  0  0  0  0  0
    0.1949   22.0102  -23.2678 C   0  0  0  0  0  0  0  0  0  0  0  0
    1.3218   21.2313  -22.9264 C   0  0  0  0  0  0  0  0  0  0  0  0
    2.4433   21.1657  -23.7853 N   0  0  0  0  0  0  0  0  0  0  0  0
    1.3345   20.5517  -21.7907 N   0  0  0  0  0  0  0  0  0  0  0  0
    0.2582   20.6249  -20.9801 C   0  0  0  0  0  0  0  0  0  0  0  0
   -0.8076   21.3571  -21.3019 N   0  0  0  0  0  0  0  0  0  0  0  0
   -0.8962   22.0945  -22.4764 C   0  0  0  0  0  0  0  0  0  0  0  0
    3.4072   21.2481  -23.3640 H   0  0  0  0  0  0  0  0  0  0  0  0
    2.3616   21.0299  -24.8296 H   0  0  0  0  0  0  0  0  0  0  0  0
    0.3109   22.6759  -24.4781 O   0  0  0  0  0  0  0  0  0  0  0  0
   -1.1493   22.6783  -26.3742 C   0  0  0  0  0  0  0  0  0  0  0  0
    0.0349   22.0168  -25.7056 C   0  0  0  0  0  0  0  0  0  0  0  0
   -5.7446   23.1595  -24.2582 C   0  0  0  0  0  0  0  0  0  0  0  0
   -5.5024   23.6657  -25.6196 C   0  0  0  0  0  0  0  0  0  0  0  0
   -6.1265   24.8323  -26.0191 C   0  0  0  0  0  0  0  0  0  0  0  0
   -6.0256   25.2985  -27.3224 C   0  0  0  0  0  0  0  0  0  0  0  0
   -5.2964   24.5944  -28.2547 C   0  0  0  0  0  0  0  0  0  0  0  0
   -4.6585   23.4327  -27.8925 C   0  0  0  0  0  0  0  0  0  0  0  0
   -4.7836   23.0004  -26.5690 C   0  0  0  0  0  0  0  0  0  0  0  0
   -5.2388   25.0616  -29.6614 C   0  0  0  0  0  0  0  0  0  0  0  0
   -3.9333   25.5657  -29.8619 F   0  0  0  0  0  0  0  0  0  0  0  0
   -6.1032   26.0940  -29.9310 F   0  0  0  0  0  0  0  0  0  0  0  0
   -5.3637   24.0205  -30.5504 F   0  0  0  0  0  0  0  0  0  0  0  0
   -5.3823   21.6591  -24.3276 C   0  0  0  0  0  0  0  0  0  0  0  0
   -6.5039   20.7973  -24.2086 N   0  0  0  0  0  0  0  0  0  0  0  0
   -6.6309   20.4515  -23.2507 H   0  0  0  0  0  0  0  0  0  0  0  0
   -6.5865   20.1003  -24.9565 H   0  0  0  0  0  0  0  0  0  0  0  0
 17 18  1  0  0  0
 18 16  1  0  0  0
 16  7  1  0  0  0
  7  8  2  0  0  0
  8  9  1  0  0  0
  8 10  1  0  0  0
 10 11  2  0  0  0
 11 12  1  0  0  0
 12 13  2  0  0  0
 13  1  1  0  0  0
  1  2  1  0  0  0
  2  3  1  0  0  0
  3  4  1  0  0  0
  4 19  1  0  0  0
 19 30  1  0  0  0
 30 31  1  0  0  0
 19 20  1  0  0  0
 20 21  2  0  0  0
 21 22  1  0  0  0
 22 23  2  0  0  0
 23 26  1  0  0  0
 26 27  1  0  0  0
 26 28  1  0  0  0
 26 29  1  0  0  0
 23 24  1  0  0  0
 24 25  2  0  0  0
  4  5  1  0  0  0
  5  6  1  0  0  0
 13  7  1  0  0  0
  6  1  1  0  0  0
 25 20  1  0  0  0
  9 14  1  0  0  0
  9 15  1  0  0  0
 31 32  1  0  0  0
 31 33  1  0  0  0
M  END
> <minimizedAffinity>
-7.35748

> <CNNscore>
0.0935241729

> <CNNaffinity>
6.1090970039

> <CNN_VS>
0.5713482499

> <CNNaffinity_variance>
0.0457144454

$$$$
[H]c1nc(N([H])[H])c(OC([H])([H])C([H])([H])[H])c(N2C([H])([H])C([H])([H])N(C([H])(c3c([H])c([H])c(C(F)(F)F)c([H])c3[H])C([H])([H])N([H])[H])C([H])([H])C2([H])[H])n1


 33 35  0  0  0  0  0  0  0  0999 V2000
   -3.6272   23.7203  -24.2452 N   0  0  0  0  0  0  0  0  0  0  0  0
   -3.5561   24.6654  -23.1534 C   0  0  0  0  0  0  0  0  0  0  0  0
   -3.3375   23.7958  -21.9389 C   0  0  0  0  0  0  0  0  0  0  0  0
   -1.8882   23.4800  -21.8459 N   0  0  0  0  0  0  0  0  0  0  0  0
   -1.4721   23.1886  -23.2209 C   0  0  0  0  0  0  0  0  0  0  0  0
   -2.5610   22.6653  -24.0894 C   0  0  0  0  0  0  0  0  0  0  0  0
   -4.1885   23.6945  -26.6861 C   0  0  0  0  0  0  0  0  0  0  0  0
   -5.2006   23.7171  -27.6702 C   0  0  0  0  0  0  0  0  0  0  0  0
   -4.8723   23.7626  -29.0449 N   0  0  0  0  0  0  0  0  0  0  0  0
   -6.4735   23.6961  -27.3079 N   0  0  0  0  0  0  0  0  0  0  0  0
   -6.7719   23.6507  -25.9927 C   0  0  0  0  0  0  0  0  0  0  0  0
   -5.8182   23.6324  -25.0623 N   0  0  0  0  0  0  0  0  0  0  0  0
   -4.4619   23.6555  -25.3641 C   0  0  0  0  0  0  0  0  0  0  0  0
   -5.3924   23.1291  -29.7092 H   0  0  0  0  0  0  0  0  0  0  0  0
   -4.1354   24.4080  -29.4398 H   0  0  0  0  0  0  0  0  0  0  0  0
   -2.9000   23.7142  -27.1968 O   0  0  0  0  0  0  0  0  0  0  0  0
   -0.7273   22.7322  -27.4028 C   0  0  0  0  0  0  0  0  0  0  0  0
   -2.2189   22.5083  -27.5120 C   0  0  0  0  0  0  0  0  0  0  0  0
   -1.7408   22.2680  -21.0645 C   0  0  0  0  0  0  0  0  0  0  0  0
   -0.5212   22.2778  -20.2395 C   0  0  0  0  0  0  0  0  0  0  0  0
   -0.3472   23.2921  -19.3169 C   0  0  0  0  0  0  0  0  0  0  0  0
    0.8287   23.4173  -18.5907 C   0  0  0  0  0  0  0  0  0  0  0  0
    1.8592   22.5240  -18.7828 C   0  0  0  0  0  0  0  0  0  0  0  0
    1.7202   21.5001  -19.6883 C   0  0  0  0  0  0  0  0  0  0  0  0
    0.5185   21.4089  -20.3965 C   0  0  0  0  0  0  0  0  0  0  0  0
    3.1376   22.6942  -18.0499 C   0  0  0  0  0  0  0  0  0  0  0  0
    4.1554   22.7493  -19.0295 F   0  0  0  0  0  0  0  0  0  0  0  0
    3.4420   21.6372  -17.2277 F   0  0  0  0  0  0  0  0  0  0  0  0
    3.1963   23.9043  -17.4005 F   0  0  0  0  0  0  0  0  0  0  0  0
   -2.9028   22.2622  -20.0462 C   0  0  0  0  0  0  0  0  0  0  0  0
   -3.3174   20.9595  -19.6641 N   0  0  0  0  0  0  0  0  0  0  0  0
   -4.1328   20.6369  -20.1974 H   0  0  0  0  0  0  0  0  0  0  0  0
   -3.3477   20.8023  -18.6510 H   0  0  0  0  0  0  0  0  0  0  0  0
 17 18  1  0  0  0
 18 16  1  0  0  0
 16  7  1  0  0  0
  7  8  2  0  0  0
  8  9  1  0  0  0
  8 10  1  0  0  0
 10 11  2  0  0  0
 11 12  1  0  0  0
 12 13  2  0  0  0
 13  1  1  0  0  0
  1  2  1  0  0  0
  2  3  1  0  0  0
  3  4  1  0  0  0
  4 19  1  0  0  0
 19 30  1  0  0  0
 30 31  1  0  0  0
 19 20  1  0  0  0
 20 21  2  0  0  0
 21 22  1  0  0  0
 22 23  2  0  0  0
 23 26  1  0  0  0
 26 27  1  0  0  0
 26 28  1  0  0  0
 26 29  1  0  0  0
 23 24  1  0  0  0
 24 25  2  0  0  0
  4  5  1  0  0  0
  5  6  1  0  0  0
 13  7  1  0  0  0
  6  1  1  0  0  0
 25 20  1  0  0  0
  9 14  1  0  0  0
  9 15  1  0  0  0
 31 32  1  0  0  0
 31 33  1  0  0  0
M  END
> <minimizedAffinity>
-6.77316

> <CNNscore>
0.0799831375

> <CNNaffinity>
5.4036498070

> <CNN_VS>
0.4322008789

> <CNNaffinity_variance>
0.3092913926

$$$$
[H]c1nc(N([H])[H])c(OC([H])([H])C([H])([H])[H])c(N2C([H])([H])C([H])([H])N(C([H])(c3c([H])c([H])c(C(F)(F)F)c([H])c3[H])C([H])([H])N([H])[H])C([H])([H])C2([H])[H])n1


 33 35  0  0  0  0  0  0  0  0999 V2000
   -4.4910   23.5147  -24.9545 N   0  0  0  0  0  0  0  0  0  0  0  0
   -3.8256   23.5868  -23.6729 C   0  0  0  0  0  0  0  0  0  0  0  0
   -4.8299   24.2812  -22.7851 C   0  0  0  0  0  0  0  0  0  0  0  0
   -5.8007   23.2672  -22.2971 N   0  0  0  0  0  0  0  0  0  0  0  0
   -6.0920   22.4261  -23.4617 C   0  0  0  0  0  0  0  0  0  0  0  0
   -5.9344   23.1192  -24.7689 C   0  0  0  0  0  0  0  0  0  0  0  0
   -4.3527   24.6330  -27.1913 C   0  0  0  0  0  0  0  0  0  0  0  0
   -3.8281   24.6025  -28.5017 C   0  0  0  0  0  0  0  0  0  0  0  0
   -4.2019   25.5790  -29.4538 N   0  0  0  0  0  0  0  0  0  0  0  0
   -2.9765   23.6507  -28.8493 N   0  0  0  0  0  0  0  0  0  0  0  0
   -2.6275   22.7266  -27.9300 C   0  0  0  0  0  0  0  0  0  0  0  0
   -3.1237   22.7520  -26.6937 N   0  0  0  0  0  0  0  0  0  0  0  0
   -4.0236   23.7162  -26.2559 C   0  0  0  0  0  0  0  0  0  0  0  0
   -3.4498   26.0139  -30.0526 H   0  0  0  0  0  0  0  0  0  0  0  0
   -5.2012   25.8881  -29.5995 H   0  0  0  0  0  0  0  0  0  0  0  0
   -5.2274   25.6821  -26.9547 O   0  0  0  0  0  0  0  0  0  0  0  0
   -5.9090   26.8897  -25.0042 C   0  0  0  0  0  0  0  0  0  0  0  0
   -4.8695   26.7538  -26.0941 C   0  0  0  0  0  0  0  0  0  0  0  0
   -7.0203   23.9555  -21.9225 C   0  0  0  0  0  0  0  0  0  0  0  0
   -7.8237   23.1869  -20.9570 C   0  0  0  0  0  0  0  0  0  0  0  0
   -9.1828   23.4261  -20.8792 C   0  0  0  0  0  0  0  0  0  0  0  0
   -9.9721   22.8149  -19.9151 C   0  0  0  0  0  0  0  0  0  0  0  0
   -9.4066   21.9516  -19.0032 C   0  0  0  0  0  0  0  0  0  0  0  0
   -8.0594   21.6863  -19.0531 C   0  0  0  0  0  0  0  0  0  0  0  0
   -7.3017   22.3208  -20.0417 C   0  0  0  0  0  0  0  0  0  0  0  0
  -10.2402   21.3457  -17.9362 C   0  0  0  0  0  0  0  0  0  0  0  0
  -10.0998   22.1752  -16.8001 F   0  0  0  0  0  0  0  0  0  0  0  0
   -9.8226   20.0927  -17.5607 F   0  0  0  0  0  0  0  0  0  0  0  0
  -11.5782   21.3864  -18.2492 F   0  0  0  0  0  0  0  0  0  0  0  0
   -6.5865   25.2220  -21.1512 C   0  0  0  0  0  0  0  0  0  0  0  0
   -7.2961   26.3908  -21.5324 N   0  0  0  0  0  0  0  0  0  0  0  0
   -6.7814   26.9536  -22.2192 H   0  0  0  0  0  0  0  0  0  0  0  0
   -7.7206   26.9044  -20.7527 H   0  0  0  0  0  0  0  0  0  0  0  0
 17 18  1  0  0  0
 18 16  1  0  0  0
 16  7  1  0  0  0
  7  8  2  0  0  0
  8  9  1  0  0  0
  8 10  1  0  0  0
 10 11  2  0  0  0
 11 12  1  0  0  0
 12 13  2  0  0  0
 13  1  1  0  0  0
  1  2  1  0  0  0
  2  3  1  0  0  0
  3  4  1  0  0  0
  4 19  1  0  0  0
 19 30  1  0  0  0
 30 31  1  0  0  0
 19 20  1  0  0  0
 20 21  2  0  0  0
 21 22  1  0  0  0
 22 23  2  0  0  0
 23 26  1  0  0  0
 26 27  1  0  0  0
 26 28  1  0  0  0
 26 29  1  0  0  0
 23 24  1  0  0  0
 24 25  2  0  0  0
  4  5  1  0  0  0
  5  6  1  0  0  0
 13  7  1  0  0  0
  6  1  1  0  0  0
 25 20  1  0  0  0
  9 14  1  0  0  0
  9 15  1  0  0  0
 31 32  1  0  0  0
 31 33  1  0  0  0
M  END
> <minimizedAffinity>
-6.52817

> <CNNscore>
0.0766374916

> <CNNaffinity>
5.3971834183

> <CNN_VS>
0.4136266112

> <CNNaffinity_variance>
0.2800580859

$$$$
[H]c1nc(N([H])[H])c(OC([H])([H])C([H])([H])[H])c(N2C([H])([H])C([H])([H])N(C([H])(c3c([H])c([H])c(C(F)(F)F)c([H])c3[H])C([H])([H])N([H])[H])C([H])([H])C2([H])[H])n1


 33 35  0  0  0  0  0  0  0  0999 V2000
   -3.0929   23.4971  -24.7168 N   0  0  0  0  0  0  0  0  0  0  0  0
   -3.7384   24.2609  -23.6727 C   0  0  0  0  0  0  0  0  0  0  0  0
   -3.7857   23.3052  -22.5051 C   0  0  0  0  0  0  0  0  0  0  0  0
   -2.4710   23.3481  -21.8135 N   0  0  0  0  0  0  0  0  0  0  0  0
   -1.4748   23.3724  -22.8886 C   0  0  0  0  0  0  0  0  0  0  0  0
   -1.9254   22.7280  -24.1518 C   0  0  0  0  0  0  0  0  0  0  0  0
   -4.5142   23.3634  -26.7749 C   0  0  0  0  0  0  0  0  0  0  0  0
   -4.5645   23.1454  -28.1689 C   0  0  0  0  0  0  0  0  0  0  0  0
   -5.8018   23.1188  -28.8530 N   0  0  0  0  0  0  0  0  0  0  0  0
   -3.4437   22.9627  -28.8488 N   0  0  0  0  0  0  0  0  0  0  0  0
   -2.2702   22.9924  -28.1833 C   0  0  0  0  0  0  0  0  0  0  0  0
   -2.2208   23.1950  -26.8672 N   0  0  0  0  0  0  0  0  0  0  0  0
   -3.3530   23.3913  -26.0858 C   0  0  0  0  0  0  0  0  0  0  0  0
   -5.8841   23.6384  -29.7676 H   0  0  0  0  0  0  0  0  0  0  0  0
   -6.6465   22.5956  -28.4949 H   0  0  0  0  0  0  0  0  0  0  0  0
   -5.7548   23.5461  -26.1841 O   0  0  0  0  0  0  0  0  0  0  0  0
   -7.7831   24.7227  -25.7062 C   0  0  0  0  0  0  0  0  0  0  0  0
   -6.3134   24.8441  -26.0408 C   0  0  0  0  0  0  0  0  0  0  0  0
   -2.3089   22.1099  -21.0774 C   0  0  0  0  0  0  0  0  0  0  0  0
   -1.0770   22.0943  -20.2710 C   0  0  0  0  0  0  0  0  0  0  0  0
   -0.8101   23.1648  -19.4386 C   0  0  0  0  0  0  0  0  0  0  0  0
    0.3851   23.2590  -18.7397 C   0  0  0  0  0  0  0  0  0  0  0  0
    1.3417   22.2767  -18.8690 C   0  0  0  0  0  0  0  0  0  0  0  0
    1.1093   21.1953  -19.6840 C   0  0  0  0  0  0  0  0  0  0  0  0
   -0.1087   21.1383  -20.3675 C   0  0  0  0  0  0  0  0  0  0  0  0
    2.6426   22.4083  -18.1685 C   0  0  0  0  0  0  0  0  0  0  0  0
    3.5813   22.8183  -19.1428 F   0  0  0  0  0  0  0  0  0  0  0  0
    3.1073   21.2246  -17.6503 F   0  0  0  0  0  0  0  0  0  0  0  0
    2.6216   23.4212  -17.2393 F   0  0  0  0  0  0  0  0  0  0  0  0
   -3.4554   22.0649  -20.0426 C   0  0  0  0  0  0  0  0  0  0  0  0
   -4.0180   20.7728  -19.8732 N   0  0  0  0  0  0  0  0  0  0  0  0
   -4.8701   20.6417  -20.4301 H   0  0  0  0  0  0  0  0  0  0  0  0
   -4.0587   20.4503  -18.9004 H   0  0  0  0  0  0  0  0  0  0  0  0
 17 18  1  0  0  0
 18 16  1  0  0  0
 16  7  1  0  0  0
  7  8  2  0  0  0
  8  9  1  0  0  0
  8 10  1  0  0  0
 10 11  2  0  0  0
 11 12  1  0  0  0
 12 13  2  0  0  0
 13  1  1  0  0  0
  1  2  1  0  0  0
  2  3  1  0  0  0
  3  4  1  0  0  0
  4 19  1  0  0  0
 19 30  1  0  0  0
 30 31  1  0  0  0
 19 20  1  0  0  0
 20 21  2  0  0  0
 21 22  1  0  0  0
 22 23  2  0  0  0
 23 26  1  0  0  0
 26 27  1  0  0  0
 26 28  1  0  0  0
 26 29  1  0  0  0
 23 24  1  0  0  0
 24 25  2  0  0  0
  4  5  1  0  0  0
  5  6  1  0  0  0
 13  7  1  0  0  0
  6  1  1  0  0  0
 25 20  1  0  0  0
  9 14  1  0  0  0
  9 15  1  0  0  0
 31 32  1  0  0  0
 31 33  1  0  0  0
M  END
> <minimizedAffinity>
-6.61344

> <CNNscore>
0.0666387454

> <CNNaffinity>
5.6655707359

> <CNN_VS>
0.3775465190

> <CNNaffinity_variance>
0.3000005186

$$$$
[H]c1nc(N([H])[H])c(OC([H])([H])C([H])([H])[H])c(N2C([H])([H])C([H])([H])N(C([H])(c3c([H])c([H])c(C(F)(F)F)c([H])c3[H])C([H])([H])N([H])[H])C([H])([H])C2([H])[H])n1


 33 35  0  0  0  0  0  0  0  0999 V2000
   -4.6816   23.5628  -24.3027 N   0  0  0  0  0  0  0  0  0  0  0  0
   -4.3446   24.6259  -23.3827 C   0  0  0  0  0  0  0  0  0  0  0  0
   -5.5167   24.6635  -22.4320 C   0  0  0  0  0  0  0  0  0  0  0  0
   -5.3124   23.6156  -21.3980 N   0  0  0  0  0  0  0  0  0  0  0  0
   -4.8133   22.4484  -22.1309 C   0  0  0  0  0  0  0  0  0  0  0  0
   -5.2526   22.3867  -23.5511 C   0  0  0  0  0  0  0  0  0  0  0  0
   -3.4536   23.2713  -26.4662 C   0  0  0  0  0  0  0  0  0  0  0  0
   -3.5149   23.2933  -27.8765 C   0  0  0  0  0  0  0  0  0  0  0  0
   -2.3500   23.1001  -28.6546 N   0  0  0  0  0  0  0  0  0  0  0  0
   -4.6733   23.4974  -28.4834 N   0  0  0  0  0  0  0  0  0  0  0  0
   -5.7770   23.6785  -27.7283 C   0  0  0  0  0  0  0  0  0  0  0  0
   -5.7207   23.6610  -26.3972 N   0  0  0  0  0  0  0  0  0  0  0  0
   -4.5427   23.4560  -25.6892 C   0  0  0  0  0  0  0  0  0  0  0  0
   -2.4015   22.4565  -29.4891 H   0  0  0  0  0  0  0  0  0  0  0  0
   -1.4314   23.5769  -28.4440 H   0  0  0  0  0  0  0  0  0  0  0  0
   -2.1848   23.0429  -25.9569 O   0  0  0  0  0  0  0  0  0  0  0  0
   -0.9035   22.0806  -24.1795 C   0  0  0  0  0  0  0  0  0  0  0  0
   -1.8620   21.8158  -25.3188 C   0  0  0  0  0  0  0  0  0  0  0  0
   -6.6062   23.2768  -20.8388 C   0  0  0  0  0  0  0  0  0  0  0  0
   -6.6092   23.3193  -19.3669 C   0  0  0  0  0  0  0  0  0  0  0  0
   -6.1128   24.4411  -18.7303 C   0  0  0  0  0  0  0  0  0  0  0  0
   -5.9871   24.4944  -17.3492 C   0  0  0  0  0  0  0  0  0  0  0  0
   -6.3547   23.4138  -16.5785 C   0  0  0  0  0  0  0  0  0  0  0  0
   -6.8566   22.2832  -17.1765 C   0  0  0  0  0  0  0  0  0  0  0  0
   -6.9693   22.2726  -18.5698 C   0  0  0  0  0  0  0  0  0  0  0  0
   -6.1638   23.4496  -15.1079 C   0  0  0  0  0  0  0  0  0  0  0  0
   -4.7779   23.6222  -14.8890 F   0  0  0  0  0  0  0  0  0  0  0  0
   -6.5167   22.2795  -14.4817 F   0  0  0  0  0  0  0  0  0  0  0  0
   -6.7583   24.5528  -14.5429 F   0  0  0  0  0  0  0  0  0  0  0  0
   -7.5738   24.4033  -21.2655 C   0  0  0  0  0  0  0  0  0  0  0  0
   -8.9363   24.0058  -21.2839 N   0  0  0  0  0  0  0  0  0  0  0  0
   -9.2527   23.7390  -22.2231 H   0  0  0  0  0  0  0  0  0  0  0  0
   -9.5651   24.6157  -20.7504 H   0  0  0  0  0  0  0  0  0  0  0  0
 17 18  1  0  0  0
 18 16  1  0  0  0
 16  7  1  0  0  0
  7  8  2  0  0  0
  8  9  1  0  0  0
  8 10  1  0  0  0
 10 11  2  0  0  0
 11 12  1  0  0  0
 12 13  2  0  0  0
 13  1  1  0  0  0
  1  2  1  0  0  0
  2  3  1  0  0  0
  3  4  1  0  0  0
  4 19  1  0  0  0
 19 30  1  0  0  0
 30 31  1  0  0  0
 19 20  1  0  0  0
 20 21  2  0  0  0
 21 22  1  0  0  0
 22 23  2  0  0  0
 23 26  1  0  0  0
 26 27  1  0  0  0
 26 28  1  0  0  0
 26 29  1  0  0  0
 23 24  1  0  0  0
 24 25  2  0  0  0
  4  5  1  0  0  0
  5  6  1  0  0  0
 13  7  1  0  0  0
  6  1  1  0  0  0
 25 20  1  0  0  0
  9 14  1  0  0  0
  9 15  1  0  0  0
 31 32  1  0  0  0
 31 33  1  0  0  0
M  END
> <minimizedAffinity>
-5.81783

> <CNNscore>
0.0624301881

> <CNNaffinity>
5.2947330475

> <CNN_VS>
0.3305511773

> <CNNaffinity_variance>
0.1666682661

$$$$
[H]c1nc(N([H])[H])c(OC([H])([H])C([H])([H])[H])c(N2C([H])([H])C([H])([H])N(C([H])(c3c([H])c([H])c(C(F)(F)F)c([H])c3[H])C([H])([H])N([H])[H])C([H])([H])C2([H])[H])n1


 33 35  0  0  0  0  0  0  0  0999 V2000
   -4.2558   23.4632  -24.6869 N   0  0  0  0  0  0  0  0  0  0  0  0
   -3.8723   24.4831  -23.7366 C   0  0  0  0  0  0  0  0  0  0  0  0
   -5.0940   24.6384  -22.8634 C   0  0  0  0  0  0  0  0  0  0  0  0
   -5.0664   23.5719  -21.8287 N   0  0  0  0  0  0  0  0  0  0  0  0
   -4.6430   22.3617  -22.5391 C   0  0  0  0  0  0  0  0  0  0  0  0
   -4.9924   22.3500  -23.9854 C   0  0  0  0  0  0  0  0  0  0  0  0
   -4.8924   23.3796  -27.1079 C   0  0  0  0  0  0  0  0  0  0  0  0
   -4.4769   23.1375  -28.4353 C   0  0  0  0  0  0  0  0  0  0  0  0
   -5.4043   23.1764  -29.5023 N   0  0  0  0  0  0  0  0  0  0  0  0
   -3.2060   22.8701  -28.6904 N   0  0  0  0  0  0  0  0  0  0  0  0
   -2.3320   22.8381  -27.6628 C   0  0  0  0  0  0  0  0  0  0  0  0
   -2.7226   23.0633  -26.4089 N   0  0  0  0  0  0  0  0  0  0  0  0
   -4.0381   23.3470  -26.0624 C   0  0  0  0  0  0  0  0  0  0  0  0
   -5.1336   23.6818  -30.3880 H   0  0  0  0  0  0  0  0  0  0  0  0
   -6.3535   22.7155  -29.4571 H   0  0  0  0  0  0  0  0  0  0  0  0
   -6.2451   23.6529  -26.9776 O   0  0  0  0  0  0  0  0  0  0  0  0
   -7.7985   24.7550  -25.5286 C   0  0  0  0  0  0  0  0  0  0  0  0
   -6.6960   24.9297  -26.5489 C   0  0  0  0  0  0  0  0  0  0  0  0
   -6.4219   23.3665  -21.3578 C   0  0  0  0  0  0  0  0  0  0  0  0
   -6.5096   23.3582  -19.8880 C   0  0  0  0  0  0  0  0  0  0  0  0
   -6.1967   24.5116  -19.1939 C   0  0  0  0  0  0  0  0  0  0  0  0
   -6.1533   24.5336  -17.8069 C   0  0  0  0  0  0  0  0  0  0  0  0
   -6.4196   23.3895  -17.0880 C   0  0  0  0  0  0  0  0  0  0  0  0
   -6.7389   22.2253  -17.7440 C   0  0  0  0  0  0  0  0  0  0  0  0
   -6.7742   22.2477  -19.1413 C   0  0  0  0  0  0  0  0  0  0  0  0
   -6.3143   23.3991  -15.6084 C   0  0  0  0  0  0  0  0  0  0  0  0
   -4.9983   22.9858  -15.2988 F   0  0  0  0  0  0  0  0  0  0  0  0
   -7.1596   22.5084  -14.9938 F   0  0  0  0  0  0  0  0  0  0  0  0
   -6.4223   24.6708  -15.0974 F   0  0  0  0  0  0  0  0  0  0  0  0
   -7.2273   24.6118  -21.7915 C   0  0  0  0  0  0  0  0  0  0  0  0
   -8.6211   24.3731  -21.9141 N   0  0  0  0  0  0  0  0  0  0  0  0
   -8.9008   24.1812  -22.8827 H   0  0  0  0  0  0  0  0  0  0  0  0
   -9.2129   25.0293  -21.3933 H   0  0  0  0  0  0  0  0  0  0  0  0
 17 18  1  0  0  0
 18 16  1  0  0  0
 16  7  1  0  0  0
  7  8  2  0  0  0
  8  9  1  0  0  0
  8 10  1  0  0  0
 10 11  2  0  0  0
 11 12  1  0  0  0
 12 13  2  0  0  0
 13  1  1  0  0  0
  1  2  1  0  0  0
  2  3  1  0  0  0
  3  4  1  0  0  0
  4 19  1  0  0  0
 19 30  1  0  0  0
 30 31  1  0  0  0
 19 20  1  0  0  0
 20 21  2  0  0  0
 21 22  1  0  0  0
 22 23  2  0  0  0
 23 26  1  0  0  0
 26 27  1  0  0  0
 26 28  1  0  0  0
 26 29  1  0  0  0
 23 24  1  0  0  0
 24 25  2  0  0  0
  4  5  1  0  0  0
  5  6  1  0  0  0
 13  7  1  0  0  0
  6  1  1  0  0  0
 25 20  1  0  0  0
  9 14  1  0  0  0
  9 15  1  0  0  0
 31 32  1  0  0  0
 31 33  1  0  0  0
M  END
> <minimizedAffinity>
-6.03389

> <CNNscore>
0.0621694624

> <CNNaffinity>
5.3615851402

> <CNN_VS>
0.3333268762

> <CNNaffinity_variance>
0.3346898854

$$$$
[H]OC(=O)[C@@]([H])(Oc1c(Br)c([H])c(-c2c([H])c([H])c(-c3c(C([H])([H])c4c([H])c([H])c([H])c([H])c4[H])oc4c([H])c([H])c([H])c([H])c34)c([H])c2[H])c([H])c1Br)C([H])([H])c1c([H])c([H])c([H])c([H])c1[H]


 43 48  0  0  0  0  0  0  0  0999 V2000
   -0.4971   21.7782  -21.6949 C   0  0  0  0  0  0  0  0  0  0  0  0
   -0.9633   22.3605  -20.5323 C   0  0  0  0  0  0  0  0  0  0  0  0
   -0.2001   22.2536  -19.3987 C   0  0  0  0  0  0  0  0  0  0  0  0
    1.0090   21.6048  -19.3239 C   0  0  0  0  0  0  0  0  0  0  0  0
    1.4471   21.0282  -20.5267 C   0  0  0  0  0  0  0  0  0  0  0  0
    0.7088   21.1181  -21.6708 C   0  0  0  0  0  0  0  0  0  0  0  0
    1.8076   21.4612  -18.1219 C   0  0  0  0  0  0  0  0  0  0  0  0
    1.9503   20.4314  -17.2667 C   0  0  0  0  0  0  0  0  0  0  0  0
    2.7739   20.7960  -16.2810 O   0  0  0  0  0  0  0  0  0  0  0  0
    3.1878   22.0258  -16.4435 C   0  0  0  0  0  0  0  0  0  0  0  0
    4.0278   22.8407  -15.7171 C   0  0  0  0  0  0  0  0  0  0  0  0
    4.3033   24.1294  -16.1217 C   0  0  0  0  0  0  0  0  0  0  0  0
    3.7070   24.5747  -17.2823 C   0  0  0  0  0  0  0  0  0  0  0  0
    2.8559   23.7596  -18.0240 C   0  0  0  0  0  0  0  0  0  0  0  0
    2.6074   22.4981  -17.5960 C   0  0  0  0  0  0  0  0  0  0  0  0
    1.3623   19.0758  -17.2955 C   0  0  0  0  0  0  0  0  0  0  0  0
    2.0759   18.1666  -16.3788 C   0  0  0  0  0  0  0  0  0  0  0  0
    3.1920   17.4462  -16.6708 C   0  0  0  0  0  0  0  0  0  0  0  0
    3.7982   16.6057  -15.7235 C   0  0  0  0  0  0  0  0  0  0  0  0
    3.2789   16.4814  -14.4586 C   0  0  0  0  0  0  0  0  0  0  0  0
    2.1491   17.2018  -14.1412 C   0  0  0  0  0  0  0  0  0  0  0  0
    1.5620   18.0264  -15.0817 C   0  0  0  0  0  0  0  0  0  0  0  0
   -2.7504   21.9196  -25.3506 C   0  0  0  0  0  0  0  0  0  0  0  0
   -1.3732   22.1781  -25.3304 C   0  0  0  0  0  0  0  0  0  0  0  0
   -0.5119   22.5761  -26.9776 Br  0  0  0  0  0  0  0  0  0  0  0  0
   -0.6526   22.1335  -24.1533 C   0  0  0  0  0  0  0  0  0  0  0  0
   -1.2415   21.8344  -22.9477 C   0  0  0  0  0  0  0  0  0  0  0  0
   -2.6040   21.5763  -22.9544 C   0  0  0  0  0  0  0  0  0  0  0  0
   -3.3316   21.6254  -24.1513 C   0  0  0  0  0  0  0  0  0  0  0  0
   -5.2312   21.3408  -23.9781 Br  0  0  0  0  0  0  0  0  0  0  0  0
   -3.4721   21.9688  -26.5135 O   0  0  0  0  0  0  0  0  0  0  0  0
   -3.7839   23.1243  -27.2792 C   0  0  0  0  0  0  0  0  0  0  0  0
   -5.8684   23.8404  -26.2633 O   0  0  0  0  0  0  0  0  0  0  0  0
   -4.6208   23.9738  -26.4037 C   0  0  0  0  0  0  0  0  0  0  0  0
   -4.0561   25.0010  -25.6570 O   0  0  0  0  0  0  0  0  0  0  0  0
   -3.6734   25.8436  -25.9989 H   0  0  0  0  0  0  0  0  0  0  0  0
   -4.5326   22.7923  -28.5593 C   0  0  0  0  0  0  0  0  0  0  0  0
   -4.6367   23.9185  -29.5057 C   0  0  0  0  0  0  0  0  0  0  0  0
   -5.6910   23.9258  -30.4392 C   0  0  0  0  0  0  0  0  0  0  0  0
   -5.8065   24.9974  -31.3029 C   0  0  0  0  0  0  0  0  0  0  0  0
   -4.9200   26.0606  -31.2787 C   0  0  0  0  0  0  0  0  0  0  0  0
   -3.9014   26.0082  -30.3444 C   0  0  0  0  0  0  0  0  0  0  0  0
   -3.7508   24.9625  -29.4676 C   0  0  0  0  0  0  0  0  0  0  0  0
 33 34  2  0  0  0
 34 35  1  0  0  0
 34 32  1  0  0  0
 32 37  1  0  0  0
 37 38  1  0  0  0
 38 39  2  0  0  0
 39 40  1  0  0  0
 40 41  2  0  0  0
 41 42  1  0  0  0
 42 43  2  0  0  0
 32 31  1  0  0  0
 31 23  1  0  0  0
 23 24  2  0  0  0
 24 25  1  0  0  0
 24 26  1  0  0  0
 26 27  2  0  0  0
 27  1  1  0  0  0
  1  2  2  0  0  0
  2  3  1  0  0  0
  3  4  2  0  0  0
  4  7  1  0  0  0
  7  8  2  0  0  0
  8 16  1  0  0  0
 16 17  1  0  0  0
 17 18  2  0  0  0
 18 19  1  0  0  0
 19 20  2  0  0  0
 20 21  1  0  0  0
 21 22  2  0  0  0
  8  9  1  0  0  0
  9 10  1  0  0  0
 10 11  2  0  0  0
 11 12  1  0  0  0
 12 13  2  0  0  0
 13 14  1  0  0  0
 14 15  2  0  0  0
  4  5  1  0  0  0
  5  6  2  0  0  0
 27 28  1  0  0  0
 28 29  2  0  0  0
 29 30  1  0  0  0
 43 38  1  0  0  0
 29 23  1  0  0  0
  6  1  1  0  0  0
 15  7  1  0  0  0
 22 17  1  0  0  0
 15 10  1  0  0  0
 35 36  1  0  0  0
M  END
> <minimizedAffinity>
-9.03443

> <CNNscore>
0.3268336356

> <CNNaffinity>
6.9202718735

> <CNN_VS>
2.2617776394

> <CNNaffinity_variance>
0.1094933599

$$$$
[H]OC(=O)[C@@]([H])(Oc1c(Br)c([H])c(-c2c([H])c([H])c(-c3c(C([H])([H])c4c([H])c([H])c([H])c([H])c4[H])oc4c([H])c([H])c([H])c([H])c34)c([H])c2[H])c([H])c1Br)C([H])([H])c1c([H])c([H])c([H])c([H])c1[H]


 43 48  0  0  0  0  0  0  0  0999 V2000
   -0.8687   22.1521  -21.2696 C   0  0  0  0  0  0  0  0  0  0  0  0
   -1.1550   23.0788  -20.2861 C   0  0  0  0  0  0  0  0  0  0  0  0
   -0.4382   23.0323  -19.1186 C   0  0  0  0  0  0  0  0  0  0  0  0
    0.5568   22.1253  -18.8431 C   0  0  0  0  0  0  0  0  0  0  0  0
    0.8172   21.2023  -19.8685 C   0  0  0  0  0  0  0  0  0  0  0  0
    0.1198   21.2240  -21.0412 C   0  0  0  0  0  0  0  0  0  0  0  0
    1.2985   22.0504  -17.5991 C   0  0  0  0  0  0  0  0  0  0  0  0
    1.1648   21.2416  -16.5313 C   0  0  0  0  0  0  0  0  0  0  0  0
    2.0665   21.5870  -15.6090 O   0  0  0  0  0  0  0  0  0  0  0  0
    2.7971   22.5917  -16.0174 C   0  0  0  0  0  0  0  0  0  0  0  0
    3.8341   23.2956  -15.4462 C   0  0  0  0  0  0  0  0  0  0  0  0
    4.4451   24.3377  -16.1105 C   0  0  0  0  0  0  0  0  0  0  0  0
    3.9804   24.6507  -17.3703 C   0  0  0  0  0  0  0  0  0  0  0  0
    2.9324   23.9459  -17.9569 C   0  0  0  0  0  0  0  0  0  0  0  0
    2.3551   22.9276  -17.2744 C   0  0  0  0  0  0  0  0  0  0  0  0
    0.2305   20.1221  -16.2906 C   0  0  0  0  0  0  0  0  0  0  0  0
   -1.1483   20.4899  -16.6645 C   0  0  0  0  0  0  0  0  0  0  0  0
   -1.9100   21.4509  -16.0761 C   0  0  0  0  0  0  0  0  0  0  0  0
   -3.2173   21.7259  -16.5086 C   0  0  0  0  0  0  0  0  0  0  0  0
   -3.7757   21.0262  -17.5496 C   0  0  0  0  0  0  0  0  0  0  0  0
   -3.0224   20.0485  -18.1600 C   0  0  0  0  0  0  0  0  0  0  0  0
   -1.7367   19.7877  -17.7261 C   0  0  0  0  0  0  0  0  0  0  0  0
   -2.9081   22.0787  -25.0506 C   0  0  0  0  0  0  0  0  0  0  0  0
   -3.5863   21.8317  -23.8495 C   0  0  0  0  0  0  0  0  0  0  0  0
   -5.4529   21.4807  -23.9300 Br  0  0  0  0  0  0  0  0  0  0  0  0
   -2.9272   21.8544  -22.6362 C   0  0  0  0  0  0  0  0  0  0  0  0
   -1.5817   22.1195  -22.5413 C   0  0  0  0  0  0  0  0  0  0  0  0
   -0.8991   22.3658  -23.7230 C   0  0  0  0  0  0  0  0  0  0  0  0
   -1.5720   22.3391  -24.9522 C   0  0  0  0  0  0  0  0  0  0  0  0
   -0.4643   22.6029  -26.5088 Br  0  0  0  0  0  0  0  0  0  0  0  0
   -3.5545   22.0510  -26.2577 O   0  0  0  0  0  0  0  0  0  0  0  0
   -3.7902   23.1492  -27.1278 C   0  0  0  0  0  0  0  0  0  0  0  0
   -6.1225   23.5592  -26.5968 O   0  0  0  0  0  0  0  0  0  0  0  0
   -4.9105   23.9059  -26.5270 C   0  0  0  0  0  0  0  0  0  0  0  0
   -4.6794   25.0817  -25.8231 O   0  0  0  0  0  0  0  0  0  0  0  0
   -4.3792   25.9461  -26.1918 H   0  0  0  0  0  0  0  0  0  0  0  0
   -4.1496   22.7107  -28.5378 C   0  0  0  0  0  0  0  0  0  0  0  0
   -4.4351   23.8248  -29.4609 C   0  0  0  0  0  0  0  0  0  0  0  0
   -5.5753   23.7496  -30.2837 C   0  0  0  0  0  0  0  0  0  0  0  0
   -5.8596   24.8085  -31.1238 C   0  0  0  0  0  0  0  0  0  0  0  0
   -5.0598   25.9372  -31.1812 C   0  0  0  0  0  0  0  0  0  0  0  0
   -3.9515   25.9646  -30.3543 C   0  0  0  0  0  0  0  0  0  0  0  0
   -3.6331   24.9343  -29.5045 C   0  0  0  0  0  0  0  0  0  0  0  0
 33 34  2  0  0  0
 34 35  1  0  0  0
 34 32  1  0  0  0
 32 37  1  0  0  0
 37 38  1  0  0  0
 38 39  2  0  0  0
 39 40  1  0  0  0
 40 41  2  0  0  0
 41 42  1  0  0  0
 42 43  2  0  0  0
 32 31  1  0  0  0
 31 23  1  0  0  0
 23 24  2  0  0  0
 24 25  1  0  0  0
 24 26  1  0  0  0
 26 27  2  0  0  0
 27  1  1  0  0  0
  1  2  2  0  0  0
  2  3  1  0  0  0
  3  4  2  0  0  0
  4  7  1  0  0  0
  7  8  2  0  0  0
  8 16  1  0  0  0
 16 17  1  0  0  0
 17 18  2  0  0  0
 18 19  1  0  0  0
 19 20  2  0  0  0
 20 21  1  0  0  0
 21 22  2  0  0  0
  8  9  1  0  0  0
  9 10  1  0  0  0
 10 11  2  0  0  0
 11 12  1  0  0  0
 12 13  2  0  0  0
 13 14  1  0  0  0
 14 15  2  0  0  0
  4  5  1  0  0  0
  5  6  2  0  0  0
 27 28  1  0  0  0
 28 29  2  0  0  0
 29 30  1  0  0  0
 43 38  1  0  0  0
 29 23  1  0  0  0
  6  1  1  0  0  0
 15  7  1  0  0  0
 22 17  1  0  0  0
 15 10  1  0  0  0
 35 36  1  0  0  0
M  END
> <minimizedAffinity>
-9.61900

> <CNNscore>
0.2556711733

> <CNNaffinity>
6.6940431595

> <CNN_VS>
1.7114738226

> <CNNaffinity_variance>
0.2465634048

$$$$
[H]OC(=O)[C@@]([H])(Oc1c(Br)c([H])c(-c2c([H])c([H])c(-c3c(C([H])([H])c4c([H])c([H])c([H])c([H])c4[H])oc4c([H])c([H])c([H])c([H])c34)c([H])c2[H])c([H])c1Br)C([H])([H])c1c([H])c([H])c([H])c([H])c1[H]


 43 48  0  0  0  0  0  0  0  0999 V2000
   -1.2455   21.7584  -21.5347 C   0  0  0  0  0  0  0  0  0  0  0  0
   -1.7418   21.9896  -20.2666 C   0  0  0  0  0  0  0  0  0  0  0  0
   -0.8865   21.8763  -19.2015 C   0  0  0  0  0  0  0  0  0  0  0  0
    0.4444   21.5465  -19.2942 C   0  0  0  0  0  0  0  0  0  0  0  0
    0.9090   21.3209  -20.5997 C   0  0  0  0  0  0  0  0  0  0  0  0
    0.0810   21.4261  -21.6793 C   0  0  0  0  0  0  0  0  0  0  0  0
    1.3482   21.3949  -18.1703 C   0  0  0  0  0  0  0  0  0  0  0  0
    1.5529   20.3663  -17.3261 C   0  0  0  0  0  0  0  0  0  0  0  0
    2.4698   20.7215  -16.4227 O   0  0  0  0  0  0  0  0  0  0  0  0
    2.8863   21.9437  -16.6296 C   0  0  0  0  0  0  0  0  0  0  0  0
    3.8027   22.7477  -15.9884 C   0  0  0  0  0  0  0  0  0  0  0  0
    4.0600   24.0301  -16.4238 C   0  0  0  0  0  0  0  0  0  0  0  0
    3.3662   24.4803  -17.5269 C   0  0  0  0  0  0  0  0  0  0  0  0
    2.4374   23.6762  -18.1824 C   0  0  0  0  0  0  0  0  0  0  0  0
    2.2095   22.4207  -17.7262 C   0  0  0  0  0  0  0  0  0  0  0  0
    0.9433   19.0204  -17.2930 C   0  0  0  0  0  0  0  0  0  0  0  0
    1.1579   18.3076  -18.5666 C   0  0  0  0  0  0  0  0  0  0  0  0
    2.3609   17.9766  -19.1081 C   0  0  0  0  0  0  0  0  0  0  0  0
    2.4583   17.2942  -20.3314 C   0  0  0  0  0  0  0  0  0  0  0  0
    1.3313   16.9356  -21.0287 C   0  0  0  0  0  0  0  0  0  0  0  0
    0.1026   17.2608  -20.4989 C   0  0  0  0  0  0  0  0  0  0  0  0
    0.0195   17.9316  -19.2938 C   0  0  0  0  0  0  0  0  0  0  0  0
   -3.6446   22.0424  -25.0878 C   0  0  0  0  0  0  0  0  0  0  0  0
   -4.2251   21.8447  -23.8278 C   0  0  0  0  0  0  0  0  0  0  0  0
   -6.1195   21.7250  -23.7226 Br  0  0  0  0  0  0  0  0  0  0  0  0
   -3.4508   21.7522  -22.6881 C   0  0  0  0  0  0  0  0  0  0  0  0
   -2.0801   21.8494  -22.7271 C   0  0  0  0  0  0  0  0  0  0  0  0
   -1.4935   22.0453  -23.9683 C   0  0  0  0  0  0  0  0  0  0  0  0
   -2.2835   22.1360  -25.1224 C   0  0  0  0  0  0  0  0  0  0  0  0
   -1.3122   22.3087  -26.7796 Br  0  0  0  0  0  0  0  0  0  0  0  0
   -4.4064   22.1283  -26.2226 O   0  0  0  0  0  0  0  0  0  0  0  0
   -4.5090   23.2390  -27.1027 C   0  0  0  0  0  0  0  0  0  0  0  0
   -6.9161   23.4822  -26.9114 O   0  0  0  0  0  0  0  0  0  0  0  0
   -5.7549   23.9404  -26.7226 C   0  0  0  0  0  0  0  0  0  0  0  0
   -5.7119   25.1871  -26.1100 O   0  0  0  0  0  0  0  0  0  0  0  0
   -5.4331   26.0409  -26.5183 H   0  0  0  0  0  0  0  0  0  0  0  0
   -4.5655   22.8236  -28.5634 C   0  0  0  0  0  0  0  0  0  0  0  0
   -4.6793   23.9516  -29.5066 C   0  0  0  0  0  0  0  0  0  0  0  0
   -5.7061   23.9303  -30.4700 C   0  0  0  0  0  0  0  0  0  0  0  0
   -5.8318   25.0029  -31.3311 C   0  0  0  0  0  0  0  0  0  0  0  0
   -4.9814   26.0941  -31.2760 C   0  0  0  0  0  0  0  0  0  0  0  0
   -3.9888   26.0691  -30.3131 C   0  0  0  0  0  0  0  0  0  0  0  0
   -3.8293   25.0235  -29.4376 C   0  0  0  0  0  0  0  0  0  0  0  0
 33 34  2  0  0  0
 34 35  1  0  0  0
 34 32  1  0  0  0
 32 37  1  0  0  0
 37 38  1  0  0  0
 38 39  2  0  0  0
 39 40  1  0  0  0
 40 41  2  0  0  0
 41 42  1  0  0  0
 42 43  2  0  0  0
 32 31  1  0  0  0
 31 23  1  0  0  0
 23 24  2  0  0  0
 24 25  1  0  0  0
 24 26  1  0  0  0
 26 27  2  0  0  0
 27  1  1  0  0  0
  1  2  2  0  0  0
  2  3  1  0  0  0
  3  4  2  0  0  0
  4  7  1  0  0  0
  7  8  2  0  0  0
  8 16  1  0  0  0
 16 17  1  0  0  0
 17 18  2  0  0  0
 18 19  1  0  0  0
 19 20  2  0  0  0
 20 21  1  0  0  0
 21 22  2  0  0  0
  8  9  1  0  0  0
  9 10  1  0  0  0
 10 11  2  0  0  0
 11 12  1  0  0  0
 12 13  2  0  0  0
 13 14  1  0  0  0
 14 15  2  0  0  0
  4  5  1  0  0  0
  5  6  2  0  0  0
 27 28  1  0  0  0
 28 29  2  0  0  0
 29 30  1  0  0  0
 43 38  1  0  0  0
 29 23  1  0  0  0
  6  1  1  0  0  0
 15  7  1  0  0  0
 22 17  1  0  0  0
 15 10  1  0  0  0
 35 36  1  0  0  0
M  END
> <minimizedAffinity>
-9.36629

> <CNNscore>
0.2431354225

> <CNNaffinity>
6.8559470177

> <CNN_VS>
1.6669235229

> <CNNaffinity_variance>
0.1247610599

$$$$
[H]OC(=O)[C@@]([H])(Oc1c(Br)c([H])c(-c2c([H])c([H])c(-c3c(C([H])([H])c4c([H])c([H])c([H])c([H])c4[H])oc4c([H])c([H])c([H])c([H])c34)c([H])c2[H])c([H])c1Br)C([H])([H])c1c([H])c([H])c([H])c([H])c1[H]


 43 48  0  0  0  0  0  0  0  0999 V2000
   -1.4165   21.9500  -21.5190 C   0  0  0  0  0  0  0  0  0  0  0  0
   -1.4061   23.0040  -20.6262 C   0  0  0  0  0  0  0  0  0  0  0  0
   -0.7172   22.8551  -19.4505 C   0  0  0  0  0  0  0  0  0  0  0  0
   -0.0258   21.7258  -19.0827 C   0  0  0  0  0  0  0  0  0  0  0  0
   -0.0605   20.6792  -20.0178 C   0  0  0  0  0  0  0  0  0  0  0  0
   -0.7381   20.7984  -21.1963 C   0  0  0  0  0  0  0  0  0  0  0  0
    0.6798   21.5494  -17.8280 C   0  0  0  0  0  0  0  0  0  0  0  0
    1.9944   21.4607  -17.5517 C   0  0  0  0  0  0  0  0  0  0  0  0
    2.1504   21.2611  -16.2407 O   0  0  0  0  0  0  0  0  0  0  0  0
    0.9948   21.2142  -15.6305 C   0  0  0  0  0  0  0  0  0  0  0  0
    0.6313   21.0336  -14.3142 C   0  0  0  0  0  0  0  0  0  0  0  0
   -0.6927   21.0268  -13.9303 C   0  0  0  0  0  0  0  0  0  0  0  0
   -1.6425   21.2083  -14.9130 C   0  0  0  0  0  0  0  0  0  0  0  0
   -1.2863   21.3913  -16.2467 C   0  0  0  0  0  0  0  0  0  0  0  0
    0.0252   21.3917  -16.5878 C   0  0  0  0  0  0  0  0  0  0  0  0
    3.1679   21.5560  -18.4450 C   0  0  0  0  0  0  0  0  0  0  0  0
    4.0869   22.6225  -18.0042 C   0  0  0  0  0  0  0  0  0  0  0  0
    5.4431   22.5386  -17.9431 C   0  0  0  0  0  0  0  0  0  0  0  0
    6.2315   23.6157  -17.5077 C   0  0  0  0  0  0  0  0  0  0  0  0
    5.6539   24.8009  -17.1248 C   0  0  0  0  0  0  0  0  0  0  0  0
    4.2821   24.9081  -17.1787 C   0  0  0  0  0  0  0  0  0  0  0  0
    3.5169   23.8414  -17.6099 C   0  0  0  0  0  0  0  0  0  0  0  0
   -3.5706   22.1190  -25.2329 C   0  0  0  0  0  0  0  0  0  0  0  0
   -2.1770   22.2593  -25.1892 C   0  0  0  0  0  0  0  0  0  0  0  0
   -1.2494   22.5076  -26.8299 Br  0  0  0  0  0  0  0  0  0  0  0  0
   -1.4881   22.2063  -23.9935 C   0  0  0  0  0  0  0  0  0  0  0  0
   -2.1263   22.0132  -22.7913 C   0  0  0  0  0  0  0  0  0  0  0  0
   -3.5056   21.8727  -22.8212 C   0  0  0  0  0  0  0  0  0  0  0  0
   -4.2006   21.9299  -24.0370 C   0  0  0  0  0  0  0  0  0  0  0  0
   -6.1209   21.8171  -23.8995 Br  0  0  0  0  0  0  0  0  0  0  0  0
   -4.2603   22.1774  -26.4145 O   0  0  0  0  0  0  0  0  0  0  0  0
   -4.3765   23.2955  -27.2835 C   0  0  0  0  0  0  0  0  0  0  0  0
   -5.5531   25.1535  -26.2570 O   0  0  0  0  0  0  0  0  0  0  0  0
   -5.5791   24.0311  -26.8346 C   0  0  0  0  0  0  0  0  0  0  0  0
   -6.8507   23.5079  -27.0364 O   0  0  0  0  0  0  0  0  0  0  0  0
   -7.2469   22.7205  -26.5930 H   0  0  0  0  0  0  0  0  0  0  0  0
   -4.5231   22.8901  -28.7407 C   0  0  0  0  0  0  0  0  0  0  0  0
   -4.7021   24.0240  -29.6665 C   0  0  0  0  0  0  0  0  0  0  0  0
   -5.7581   23.9807  -30.5970 C   0  0  0  0  0  0  0  0  0  0  0  0
   -5.9448   25.0579  -31.4411 C   0  0  0  0  0  0  0  0  0  0  0  0
   -5.1276   26.1748  -31.4001 C   0  0  0  0  0  0  0  0  0  0  0  0
   -4.1044   26.1708  -30.4695 C   0  0  0  0  0  0  0  0  0  0  0  0
   -3.8844   25.1214  -29.6119 C   0  0  0  0  0  0  0  0  0  0  0  0
 33 34  2  0  0  0
 34 35  1  0  0  0
 34 32  1  0  0  0
 32 37  1  0  0  0
 37 38  1  0  0  0
 38 39  2  0  0  0
 39 40  1  0  0  0
 40 41  2  0  0  0
 41 42  1  0  0  0
 42 43  2  0  0  0
 32 31  1  0  0  0
 31 23  1  0  0  0
 23 24  2  0  0  0
 24 25  1  0  0  0
 24 26  1  0  0  0
 26 27  2  0  0  0
 27  1  1  0  0  0
  1  2  2  0  0  0
  2  3  1  0  0  0
  3  4  2  0  0  0
  4  7  1  0  0  0
  7  8  2  0  0  0
  8 16  1  0  0  0
 16 17  1  0  0  0
 17 18  2  0  0  0
 18 19  1  0  0  0
 19 20  2  0  0  0
 20 21  1  0  0  0
 21 22  2  0  0  0
  8  9  1  0  0  0
  9 10  1  0  0  0
 10 11  2  0  0  0
 11 12  1  0  0  0
 12 13  2  0  0  0
 13 14  1  0  0  0
 14 15  2  0  0  0
  4  5  1  0  0  0
  5  6  2  0  0  0
 27 28  1  0  0  0
 28 29  2  0  0  0
 29 30  1  0  0  0
 43 38  1  0  0  0
 29 23  1  0  0  0
  6  1  1  0  0  0
 15  7  1  0  0  0
 22 17  1  0  0  0
 15 10  1  0  0  0
 35 36  1  0  0  0
M  END
> <minimizedAffinity>
-9.38821

> <CNNscore>
0.2348140180

> <CNNaffinity>
6.6785497665

> <CNN_VS>
1.5682171583

> <CNNaffinity_variance>
0.0872276574

$$$$
[H]OC(=O)[C@@]([H])(Oc1c(Br)c([H])c(-c2c([H])c([H])c(-c3c(C([H])([H])c4c([H])c([H])c([H])c([H])c4[H])oc4c([H])c([H])c([H])c([H])c34)c([H])c2[H])c([H])c1Br)C([H])([H])c1c([H])c([H])c([H])c([H])c1[H]


 43 48  0  0  0  0  0  0  0  0999 V2000
    0.4226   22.0611  -19.8881 C   0  0  0  0  0  0  0  0  0  0  0  0
   -0.5864   22.9850  -20.0787 C   0  0  0  0  0  0  0  0  0  0  0  0
   -1.3169   22.9224  -21.2368 C   0  0  0  0  0  0  0  0  0  0  0  0
   -1.1242   22.0014  -22.2384 C   0  0  0  0  0  0  0  0  0  0  0  0
   -0.0906   21.0803  -22.0052 C   0  0  0  0  0  0  0  0  0  0  0  0
    0.6536   21.1183  -20.8620 C   0  0  0  0  0  0  0  0  0  0  0  0
   -1.8724   21.9475  -23.4796 C   0  0  0  0  0  0  0  0  0  0  0  0
   -3.1718   21.6946  -23.7245 C   0  0  0  0  0  0  0  0  0  0  0  0
   -3.3784   21.7202  -25.0435 O   0  0  0  0  0  0  0  0  0  0  0  0
   -2.2712   21.9809  -25.6888 C   0  0  0  0  0  0  0  0  0  0  0  0
   -1.9692   22.1122  -27.0262 C   0  0  0  0  0  0  0  0  0  0  0  0
   -0.6878   22.3974  -27.4473 C   0  0  0  0  0  0  0  0  0  0  0  0
    0.2828   22.5475  -26.4798 C   0  0  0  0  0  0  0  0  0  0  0  0
   -0.0115   22.4165  -25.1251 C   0  0  0  0  0  0  0  0  0  0  0  0
   -1.2821   22.1352  -24.7475 C   0  0  0  0  0  0  0  0  0  0  0  0
   -4.2860   21.4250  -22.7918 C   0  0  0  0  0  0  0  0  0  0  0  0
   -5.1031   22.6340  -22.5752 C   0  0  0  0  0  0  0  0  0  0  0  0
   -4.7410   23.7286  -21.8535 C   0  0  0  0  0  0  0  0  0  0  0  0
   -5.5951   24.8333  -21.7073 C   0  0  0  0  0  0  0  0  0  0  0  0
   -6.8368   24.8451  -22.2932 C   0  0  0  0  0  0  0  0  0  0  0  0
   -7.2240   23.7473  -23.0285 C   0  0  0  0  0  0  0  0  0  0  0  0
   -6.3743   22.6664  -23.1660 C   0  0  0  0  0  0  0  0  0  0  0  0
    2.8423   21.9770  -16.3386 C   0  0  0  0  0  0  0  0  0  0  0  0
    2.9484   23.0178  -17.2710 C   0  0  0  0  0  0  0  0  0  0  0  0
    4.1851   24.4171  -16.9154 Br  0  0  0  0  0  0  0  0  0  0  0  0
    2.1703   23.0406  -18.4116 C   0  0  0  0  0  0  0  0  0  0  0  0
    1.2562   22.0528  -18.6915 C   0  0  0  0  0  0  0  0  0  0  0  0
    1.1416   21.0173  -17.7763 C   0  0  0  0  0  0  0  0  0  0  0  0
    1.9354   20.9972  -16.6214 C   0  0  0  0  0  0  0  0  0  0  0  0
    1.7283   19.4412  -15.5009 Br  0  0  0  0  0  0  0  0  0  0  0  0
    3.6158   21.9450  -15.2089 O   0  0  0  0  0  0  0  0  0  0  0  0
    3.3904   22.6513  -13.9968 C   0  0  0  0  0  0  0  0  0  0  0  0
    3.6823   20.6167  -12.7065 O   0  0  0  0  0  0  0  0  0  0  0  0
    3.9897   21.8208  -12.9293 C   0  0  0  0  0  0  0  0  0  0  0  0
    4.9636   22.3404  -12.0848 O   0  0  0  0  0  0  0  0  0  0  0  0
    4.8416   23.0298  -11.3898 H   0  0  0  0  0  0  0  0  0  0  0  0
    1.9136   22.8778  -13.7186 C   0  0  0  0  0  0  0  0  0  0  0  0
    1.6349   23.4924  -12.4074 C   0  0  0  0  0  0  0  0  0  0  0  0
    0.8093   22.8051  -11.4970 C   0  0  0  0  0  0  0  0  0  0  0  0
    0.5760   23.3665  -10.2567 C   0  0  0  0  0  0  0  0  0  0  0  0
    1.1271   24.5805   -9.8834 C   0  0  0  0  0  0  0  0  0  0  0  0
    1.9309   25.2175  -10.8113 C   0  0  0  0  0  0  0  0  0  0  0  0
    2.1888   24.6943  -12.0542 C   0  0  0  0  0  0  0  0  0  0  0  0
 33 34  2  0  0  0
 34 35  1  0  0  0
 34 32  1  0  0  0
 32 37  1  0  0  0
 37 38  1  0  0  0
 38 39  2  0  0  0
 39 40  1  0  0  0
 40 41  2  0  0  0
 41 42  1  0  0  0
 42 43  2  0  0  0
 32 31  1  0  0  0
 31 23  1  0  0  0
 23 24  2  0  0  0
 24 25  1  0  0  0
 24 26  1  0  0  0
 26 27  2  0  0  0
 27  1  1  0  0  0
  1  2  2  0  0  0
  2  3  1  0  0  0
  3  4  2  0  0  0
  4  7  1  0  0  0
  7  8  2  0  0  0
  8 16  1  0  0  0
 16 17  1  0  0  0
 17 18  2  0  0  0
 18 19  1  0  0  0
 19 20  2  0  0  0
 20 21  1  0  0  0
 21 22  2  0  0  0
  8  9  1  0  0  0
  9 10  1  0  0  0
 10 11  2  0  0  0
 11 12  1  0  0  0
 12 13  2  0  0  0
 13 14  1  0  0  0
 14 15  2  0  0  0
  4  5  1  0  0  0
  5  6  2  0  0  0
 27 28  1  0  0  0
 28 29  2  0  0  0
 29 30  1  0  0  0
 43 38  1  0  0  0
 29 23  1  0  0  0
  6  1  1  0  0  0
 15  7  1  0  0  0
 22 17  1  0  0  0
 15 10  1  0  0  0
 35 36  1  0  0  0
M  END
> <minimizedAffinity>
-8.67767

> <CNNscore>
0.2335518897

> <CNNaffinity>
6.2953333855

> <CNN_VS>
1.4702869654

> <CNNaffinity_variance>
0.1772552133

$$$$
[H]OC(=O)[C@@]([H])(Oc1c(Br)c([H])c(-c2c([H])c([H])c(-c3c(C([H])([H])c4c([H])c([H])c([H])c([H])c4[H])oc4c([H])c([H])c([H])c([H])c34)c([H])c2[H])c([H])c1Br)C([H])([H])c1c([H])c([H])c([H])c([H])c1[H]


 43 48  0  0  0  0  0  0  0  0999 V2000
   -1.3434   22.0599  -21.5628 C   0  0  0  0  0  0  0  0  0  0  0  0
   -1.2344   23.1239  -20.6886 C   0  0  0  0  0  0  0  0  0  0  0  0
   -0.3969   22.9983  -19.6107 C   0  0  0  0  0  0  0  0  0  0  0  0
    0.3542   21.8835  -19.3250 C   0  0  0  0  0  0  0  0  0  0  0  0
    0.2155   20.8260  -20.2381 C   0  0  0  0  0  0  0  0  0  0  0  0
   -0.6107   20.9220  -21.3199 C   0  0  0  0  0  0  0  0  0  0  0  0
    1.2188   21.7315  -18.1707 C   0  0  0  0  0  0  0  0  0  0  0  0
    2.5604   21.7117  -18.0608 C   0  0  0  0  0  0  0  0  0  0  0  0
    2.8888   21.5059  -16.7830 O   0  0  0  0  0  0  0  0  0  0  0  0
    1.8222   21.3889  -16.0355 C   0  0  0  0  0  0  0  0  0  0  0  0
    1.6356   21.1735  -14.6878 C   0  0  0  0  0  0  0  0  0  0  0  0
    0.3718   21.0900  -14.1433 C   0  0  0  0  0  0  0  0  0  0  0  0
   -0.7012   21.2305  -14.9975 C   0  0  0  0  0  0  0  0  0  0  0  0
   -0.5239   21.4480  -16.3614 C   0  0  0  0  0  0  0  0  0  0  0  0
    0.7329   21.5241  -16.8621 C   0  0  0  0  0  0  0  0  0  0  0  0
    3.6068   21.8813  -19.0905 C   0  0  0  0  0  0  0  0  0  0  0  0
    3.6132   20.7476  -20.0345 C   0  0  0  0  0  0  0  0  0  0  0  0
    3.7077   19.4310  -19.7067 C   0  0  0  0  0  0  0  0  0  0  0  0
    3.7046   18.4236  -20.6847 C   0  0  0  0  0  0  0  0  0  0  0  0
    3.6057   18.7374  -22.0177 C   0  0  0  0  0  0  0  0  0  0  0  0
    3.5090   20.0644  -22.3724 C   0  0  0  0  0  0  0  0  0  0  0  0
    3.5122   21.0468  -21.4007 C   0  0  0  0  0  0  0  0  0  0  0  0
   -3.8469   22.1923  -25.0522 C   0  0  0  0  0  0  0  0  0  0  0  0
   -4.3825   21.9708  -23.7763 C   0  0  0  0  0  0  0  0  0  0  0  0
   -6.2641   21.7489  -23.6204 Br  0  0  0  0  0  0  0  0  0  0  0  0
   -3.5746   21.9271  -22.6572 C   0  0  0  0  0  0  0  0  0  0  0  0
   -2.2127   22.0984  -22.7330 C   0  0  0  0  0  0  0  0  0  0  0  0
   -1.6704   22.3186  -23.9901 C   0  0  0  0  0  0  0  0  0  0  0  0
   -2.4942   22.3595  -25.1233 C   0  0  0  0  0  0  0  0  0  0  0  0
   -1.5776   22.5750  -26.8064 Br  0  0  0  0  0  0  0  0  0  0  0  0
   -4.6418   22.2301  -26.1667 O   0  0  0  0  0  0  0  0  0  0  0  0
   -4.8579   23.3401  -27.0268 C   0  0  0  0  0  0  0  0  0  0  0  0
   -7.2428   23.7589  -26.8625 O   0  0  0  0  0  0  0  0  0  0  0  0
   -6.0613   24.0250  -26.5057 C   0  0  0  0  0  0  0  0  0  0  0  0
   -5.9517   25.0337  -25.5560 O   0  0  0  0  0  0  0  0  0  0  0  0
   -5.5752   25.9360  -25.6878 H   0  0  0  0  0  0  0  0  0  0  0  0
   -5.0750   22.9254  -28.4726 C   0  0  0  0  0  0  0  0  0  0  0  0
   -4.9493   24.0300  -29.4416 C   0  0  0  0  0  0  0  0  0  0  0  0
   -3.8588   24.9134  -29.3265 C   0  0  0  0  0  0  0  0  0  0  0  0
   -3.7242   25.9275  -30.2546 C   0  0  0  0  0  0  0  0  0  0  0  0
   -4.6263   26.1011  -31.2905 C   0  0  0  0  0  0  0  0  0  0  0  0
   -5.6805   25.2086  -31.3618 C   0  0  0  0  0  0  0  0  0  0  0  0
   -5.8509   24.1868  -30.4607 C   0  0  0  0  0  0  0  0  0  0  0  0
 33 34  2  0  0  0
 34 35  1  0  0  0
 34 32  1  0  0  0
 32 37  1  0  0  0
 37 38  1  0  0  0
 38 39  2  0  0  0
 39 40  1  0  0  0
 40 41  2  0  0  0
 41 42  1  0  0  0
 42 43  2  0  0  0
 32 31  1  0  0  0
 31 23  1  0  0  0
 23 24  2  0  0  0
 24 25  1  0  0  0
 24 26  1  0  0  0
 26 27  2  0  0  0
 27  1  1  0  0  0
  1  2  2  0  0  0
  2  3  1  0  0  0
  3  4  2  0  0  0
  4  7  1  0  0  0
  7  8  2  0  0  0
  8 16  1  0  0  0
 16 17  1  0  0  0
 17 18  2  0  0  0
 18 19  1  0  0  0
 19 20  2  0  0  0
 20 21  1  0  0  0
 21 22  2  0  0  0
  8  9  1  0  0  0
  9 10  1  0  0  0
 10 11  2  0  0  0
 11 12  1  0  0  0
 12 13  2  0  0  0
 13 14  1  0  0  0
 14 15  2  0  0  0
  4  5  1  0  0  0
  5  6  2  0  0  0
 27 28  1  0  0  0
 28 29  2  0  0  0
 29 30  1  0  0  0
 43 38  1  0  0  0
 29 23  1  0  0  0
  6  1  1  0  0  0
 15  7  1  0  0  0
 22 17  1  0  0  0
 15 10  1  0  0  0
 35 36  1  0  0  0
M  END
> <minimizedAffinity>
-9.11968

> <CNNscore>
0.2303761691

> <CNNaffinity>
6.9702658653

> <CNN_VS>
1.6057831049

> <CNNaffinity_variance>
0.0885678008

$$$$
[H]OC(=O)[C@@]([H])(Oc1c(Br)c([H])c(-c2c([H])c([H])c(-c3c(C([H])([H])c4c([H])c([H])c([H])c([H])c4[H])oc4c([H])c([H])c([H])c([H])c34)c([H])c2[H])c([H])c1Br)C([H])([H])c1c([H])c([H])c([H])c([H])c1[H]


 43 48  0  0  0  0  0  0  0  0999 V2000
   -0.8222   21.7602  -21.1090 C   0  0  0  0  0  0  0  0  0  0  0  0
   -0.8555   22.8574  -20.2704 C   0  0  0  0  0  0  0  0  0  0  0  0
   -0.3692   22.7186  -18.9964 C   0  0  0  0  0  0  0  0  0  0  0  0
    0.1566   21.5596  -18.4781 C   0  0  0  0  0  0  0  0  0  0  0  0
    0.1731   20.4693  -19.3625 C   0  0  0  0  0  0  0  0  0  0  0  0
   -0.3042   20.5775  -20.6363 C   0  0  0  0  0  0  0  0  0  0  0  0
    0.6449   21.3964  -17.1223 C   0  0  0  0  0  0  0  0  0  0  0  0
    1.8886   21.2123  -16.6410 C   0  0  0  0  0  0  0  0  0  0  0  0
    1.8254   21.0761  -15.3142 O   0  0  0  0  0  0  0  0  0  0  0  0
    0.5915   21.1628  -14.8900 C   0  0  0  0  0  0  0  0  0  0  0  0
    0.0180   21.0899  -13.6397 C   0  0  0  0  0  0  0  0  0  0  0  0
   -1.3437   21.2179  -13.4668 C   0  0  0  0  0  0  0  0  0  0  0  0
   -2.1130   21.4225  -14.5925 C   0  0  0  0  0  0  0  0  0  0  0  0
   -1.5437   21.4974  -15.8611 C   0  0  0  0  0  0  0  0  0  0  0  0
   -0.2015   21.3667  -15.9935 C   0  0  0  0  0  0  0  0  0  0  0  0
    3.1874   21.1558  -17.3439 C   0  0  0  0  0  0  0  0  0  0  0  0
    3.9772   22.3781  -17.1016 C   0  0  0  0  0  0  0  0  0  0  0  0
    5.2089   22.4370  -16.5278 C   0  0  0  0  0  0  0  0  0  0  0  0
    5.8801   23.6561  -16.3414 C   0  0  0  0  0  0  0  0  0  0  0  0
    5.3093   24.8410  -16.7355 C   0  0  0  0  0  0  0  0  0  0  0  0
    4.0625   24.8048  -17.3189 C   0  0  0  0  0  0  0  0  0  0  0  0
    3.4123   23.5988  -17.4978 C   0  0  0  0  0  0  0  0  0  0  0  0
   -2.3599   21.8826  -25.1192 C   0  0  0  0  0  0  0  0  0  0  0  0
   -1.0124   22.1522  -24.8445 C   0  0  0  0  0  0  0  0  0  0  0  0
    0.1362   22.5569  -26.3043 Br  0  0  0  0  0  0  0  0  0  0  0  0
   -0.5221   22.1137  -23.5542 C   0  0  0  0  0  0  0  0  0  0  0  0
   -1.3219   21.8101  -22.4781 C   0  0  0  0  0  0  0  0  0  0  0  0
   -2.6574   21.5410  -22.7368 C   0  0  0  0  0  0  0  0  0  0  0  0
   -3.1510   21.5839  -24.0479 C   0  0  0  0  0  0  0  0  0  0  0  0
   -5.0475   21.2840  -24.2293 Br  0  0  0  0  0  0  0  0  0  0  0  0
   -2.8539   21.9257  -26.3958 O   0  0  0  0  0  0  0  0  0  0  0  0
   -3.7794   22.8654  -26.9242 C   0  0  0  0  0  0  0  0  0  0  0  0
   -4.2927   22.7669  -29.2942 O   0  0  0  0  0  0  0  0  0  0  0  0
   -3.4633   22.9752  -28.3653 C   0  0  0  0  0  0  0  0  0  0  0  0
   -2.1888   23.3312  -28.7899 O   0  0  0  0  0  0  0  0  0  0  0  0
   -1.3657   22.7922  -28.7172 H   0  0  0  0  0  0  0  0  0  0  0  0
   -3.6734   24.2274  -26.2586 C   0  0  0  0  0  0  0  0  0  0  0  0
   -4.9069   24.6628  -25.5777 C   0  0  0  0  0  0  0  0  0  0  0  0
   -6.1465   24.4308  -26.2042 C   0  0  0  0  0  0  0  0  0  0  0  0
   -7.3028   24.8093  -25.5504 C   0  0  0  0  0  0  0  0  0  0  0  0
   -7.2798   25.4081  -24.3023 C   0  0  0  0  0  0  0  0  0  0  0  0
   -6.0388   25.6150  -23.7275 C   0  0  0  0  0  0  0  0  0  0  0  0
   -4.8658   25.2537  -24.3426 C   0  0  0  0  0  0  0  0  0  0  0  0
 33 34  2  0  0  0
 34 35  1  0  0  0
 34 32  1  0  0  0
 32 37  1  0  0  0
 37 38  1  0  0  0
 38 39  2  0  0  0
 39 40  1  0  0  0
 40 41  2  0  0  0
 41 42  1  0  0  0
 42 43  2  0  0  0
 32 31  1  0  0  0
 31 23  1  0  0  0
 23 24  2  0  0  0
 24 25  1  0  0  0
 24 26  1  0  0  0
 26 27  2  0  0  0
 27  1  1  0  0  0
  1  2  2  0  0  0
  2  3  1  0  0  0
  3  4  2  0  0  0
  4  7  1  0  0  0
  7  8  2  0  0  0
  8 16  1  0  0  0
 16 17  1  0  0  0
 17 18  2  0  0  0
 18 19  1  0  0  0
 19 20  2  0  0  0
 20 21  1  0  0  0
 21 22  2  0  0  0
  8  9  1  0  0  0
  9 10  1  0  0  0
 10 11  2  0  0  0
 11 12  1  0  0  0
 12 13  2  0  0  0
 13 14  1  0  0  0
 14 15  2  0  0  0
  4  5  1  0  0  0
  5  6  2  0  0  0
 27 28  1  0  0  0
 28 29  2  0  0  0
 29 30  1  0  0  0
 43 38  1  0  0  0
 29 23  1  0  0  0
  6  1  1  0  0  0
 15  7  1  0  0  0
 22 17  1  0  0  0
 15 10  1  0  0  0
 35 36  1  0  0  0
M  END
> <minimizedAffinity>
-8.79251

> <CNNscore>
0.2010346949

> <CNNaffinity>
6.4640564919

> <CNN_VS>
1.2994996309

> <CNNaffinity_variance>
0.3285007179

$$$$
[H]OC(=O)[C@@]([H])(Oc1c(Br)c([H])c(-c2c([H])c([H])c(-c3c(C([H])([H])c4c([H])c([H])c([H])c([H])c4[H])oc4c([H])c([H])c([H])c([H])c34)c([H])c2[H])c([H])c1Br)C([H])([H])c1c([H])c([H])c([H])c([H])c1[H]


 43 48  0  0  0  0  0  0  0  0999 V2000
   -1.7051   22.7583  -20.8549 C   0  0  0  0  0  0  0  0  0  0  0  0
   -1.8658   23.1588  -19.5427 C   0  0  0  0  0  0  0  0  0  0  0  0
   -0.8876   22.8356  -18.6385 C   0  0  0  0  0  0  0  0  0  0  0  0
    0.2569   22.1353  -18.9358 C   0  0  0  0  0  0  0  0  0  0  0  0
    0.3820   21.7481  -20.2796 C   0  0  0  0  0  0  0  0  0  0  0  0
   -0.5755   22.0553  -21.2020 C   0  0  0  0  0  0  0  0  0  0  0  0
    1.2814   21.7632  -17.9792 C   0  0  0  0  0  0  0  0  0  0  0  0
    1.4788   20.6273  -17.2842 C   0  0  0  0  0  0  0  0  0  0  0  0
    2.5447   20.7806  -16.4947 O   0  0  0  0  0  0  0  0  0  0  0  0
    3.0675   21.9710  -16.6349 C   0  0  0  0  0  0  0  0  0  0  0  0
    4.1491   22.5987  -16.0574 C   0  0  0  0  0  0  0  0  0  0  0  0
    4.4911   23.8914  -16.3927 C   0  0  0  0  0  0  0  0  0  0  0  0
    3.7105   24.5351  -17.3293 C   0  0  0  0  0  0  0  0  0  0  0  0
    2.6147   23.9101  -17.9190 C   0  0  0  0  0  0  0  0  0  0  0  0
    2.3076   22.6387  -17.5649 C   0  0  0  0  0  0  0  0  0  0  0  0
    0.7282   19.3543  -17.2990 C   0  0  0  0  0  0  0  0  0  0  0  0
    0.9269   18.6341  -18.5711 C   0  0  0  0  0  0  0  0  0  0  0  0
   -0.0519   18.2150  -19.4173 C   0  0  0  0  0  0  0  0  0  0  0  0
    0.2430   17.5345  -20.6096 C   0  0  0  0  0  0  0  0  0  0  0  0
    1.5421   17.2664  -20.9638 C   0  0  0  0  0  0  0  0  0  0  0  0
    2.5492   17.6818  -20.1217 C   0  0  0  0  0  0  0  0  0  0  0  0
    2.2466   18.3514  -18.9515 C   0  0  0  0  0  0  0  0  0  0  0  0
   -4.6010   23.6902  -23.8891 C   0  0  0  0  0  0  0  0  0  0  0  0
   -4.4959   22.4007  -23.3505 C   0  0  0  0  0  0  0  0  0  0  0  0
   -5.6903   21.0646  -23.9843 Br  0  0  0  0  0  0  0  0  0  0  0  0
   -3.5627   22.1044  -22.3766 C   0  0  0  0  0  0  0  0  0  0  0  0
   -2.6944   23.0504  -21.8858 C   0  0  0  0  0  0  0  0  0  0  0  0
   -2.7885   24.3305  -22.4107 C   0  0  0  0  0  0  0  0  0  0  0  0
   -3.7355   24.6257  -23.4008 C   0  0  0  0  0  0  0  0  0  0  0  0
   -3.6729   26.4230  -24.0973 Br  0  0  0  0  0  0  0  0  0  0  0  0
   -5.5196   23.9888  -24.8599 O   0  0  0  0  0  0  0  0  0  0  0  0
   -5.2607   24.2492  -26.2324 C   0  0  0  0  0  0  0  0  0  0  0  0
   -7.6716   24.5070  -26.3396 O   0  0  0  0  0  0  0  0  0  0  0  0
   -6.5237   24.7850  -26.7859 C   0  0  0  0  0  0  0  0  0  0  0  0
   -6.5136   25.6601  -27.8656 O   0  0  0  0  0  0  0  0  0  0  0  0
   -6.2699   25.4507  -28.7984 H   0  0  0  0  0  0  0  0  0  0  0  0
   -4.8410   23.0031  -26.9943 C   0  0  0  0  0  0  0  0  0  0  0  0
   -3.3941   22.9227  -27.2676 C   0  0  0  0  0  0  0  0  0  0  0  0
   -2.9047   23.4251  -28.4887 C   0  0  0  0  0  0  0  0  0  0  0  0
   -1.5453   23.3793  -28.7292 C   0  0  0  0  0  0  0  0  0  0  0  0
   -0.6528   22.8559  -27.8092 C   0  0  0  0  0  0  0  0  0  0  0  0
   -1.1810   22.3749  -26.6248 C   0  0  0  0  0  0  0  0  0  0  0  0
   -2.5250   22.4019  -26.3458 C   0  0  0  0  0  0  0  0  0  0  0  0
 33 34  2  0  0  0
 34 35  1  0  0  0
 34 32  1  0  0  0
 32 37  1  0  0  0
 37 38  1  0  0  0
 38 39  2  0  0  0
 39 40  1  0  0  0
 40 41  2  0  0  0
 41 42  1  0  0  0
 42 43  2  0  0  0
 32 31  1  0  0  0
 31 23  1  0  0  0
 23 24  2  0  0  0
 24 25  1  0  0  0
 24 26  1  0  0  0
 26 27  2  0  0  0
 27  1  1  0  0  0
  1  2  2  0  0  0
  2  3  1  0  0  0
  3  4  2  0  0  0
  4  7  1  0  0  0
  7  8  2  0  0  0
  8 16  1  0  0  0
 16 17  1  0  0  0
 17 18  2  0  0  0
 18 19  1  0  0  0
 19 20  2  0  0  0
 20 21  1  0  0  0
 21 22  2  0  0  0
  8  9  1  0  0  0
  9 10  1  0  0  0
 10 11  2  0  0  0
 11 12  1  0  0  0
 12 13  2  0  0  0
 13 14  1  0  0  0
 14 15  2  0  0  0
  4  5  1  0  0  0
  5  6  2  0  0  0
 27 28  1  0  0  0
 28 29  2  0  0  0
 29 30  1  0  0  0
 43 38  1  0  0  0
 29 23  1  0  0  0
  6  1  1  0  0  0
 15  7  1  0  0  0
 22 17  1  0  0  0
 15 10  1  0  0  0
 35 36  1  0  0  0
M  END
> <minimizedAffinity>
-8.59998

> <CNNscore>
0.1817480773

> <CNNaffinity>
6.8723802567

> <CNN_VS>
1.2490419149

> <CNNaffinity_variance>
0.2449712455

$$$$
[H]OC(=O)[C@@]([H])(Oc1c(Br)c([H])c(-c2c([H])c([H])c(-c3c(C([H])([H])c4c([H])c([H])c([H])c([H])c4[H])oc4c([H])c([H])c([H])c([H])c34)c([H])c2[H])c([H])c1Br)C([H])([H])c1c([H])c([H])c([H])c([H])c1[H]


 43 48  0  0  0  0  0  0  0  0999 V2000
   -0.3628   21.6573  -21.8561 C   0  0  0  0  0  0  0  0  0  0  0  0
   -0.8871   22.0335  -20.6347 C   0  0  0  0  0  0  0  0  0  0  0  0
   -0.0955   21.9155  -19.5218 C   0  0  0  0  0  0  0  0  0  0  0  0
    1.1962   21.4466  -19.5226 C   0  0  0  0  0  0  0  0  0  0  0  0
    1.6911   21.0763  -20.7832 C   0  0  0  0  0  0  0  0  0  0  0  0
    0.9265   21.1824  -21.9085 C   0  0  0  0  0  0  0  0  0  0  0  0
    2.0293   21.2901  -18.3459 C   0  0  0  0  0  0  0  0  0  0  0  0
    2.2768   20.2202  -17.5672 C   0  0  0  0  0  0  0  0  0  0  0  0
    3.0873   20.5859  -16.5710 O   0  0  0  0  0  0  0  0  0  0  0  0
    3.3918   21.8549  -16.6532 C   0  0  0  0  0  0  0  0  0  0  0  0
    4.1750   22.6873  -15.8843 C   0  0  0  0  0  0  0  0  0  0  0  0
    4.3315   24.0197  -16.2016 C   0  0  0  0  0  0  0  0  0  0  0  0
    3.6752   24.4906  -17.3189 C   0  0  0  0  0  0  0  0  0  0  0  0
    2.8808   23.6580  -18.1030 C   0  0  0  0  0  0  0  0  0  0  0  0
    2.7492   22.3535  -17.7608 C   0  0  0  0  0  0  0  0  0  0  0  0
    1.8054   18.8242  -17.6822 C   0  0  0  0  0  0  0  0  0  0  0  0
    2.2354   18.2206  -18.9577 C   0  0  0  0  0  0  0  0  0  0  0  0
    3.5121   18.1482  -19.4211 C   0  0  0  0  0  0  0  0  0  0  0  0
    3.8183   17.5501  -20.6540 C   0  0  0  0  0  0  0  0  0  0  0  0
    2.8291   17.0138  -21.4408 C   0  0  0  0  0  0  0  0  0  0  0  0
    1.5291   17.0761  -20.9911 C   0  0  0  0  0  0  0  0  0  0  0  0
    1.2404   17.6664  -19.7756 C   0  0  0  0  0  0  0  0  0  0  0  0
   -2.5652   21.9310  -25.5352 C   0  0  0  0  0  0  0  0  0  0  0  0
   -3.1894   21.5646  -24.3352 C   0  0  0  0  0  0  0  0  0  0  0  0
   -5.0564   21.2082  -24.3686 Br  0  0  0  0  0  0  0  0  0  0  0  0
   -2.4780   21.4759  -23.1550 C   0  0  0  0  0  0  0  0  0  0  0  0
   -1.1306   21.7413  -23.0931 C   0  0  0  0  0  0  0  0  0  0  0  0
   -0.5012   22.1053  -24.2740 C   0  0  0  0  0  0  0  0  0  0  0  0
   -1.2270   22.1913  -25.4699 C   0  0  0  0  0  0  0  0  0  0  0  0
   -0.1893   22.6121  -27.0401 Br  0  0  0  0  0  0  0  0  0  0  0  0
   -3.2636   22.0143  -26.7103 O   0  0  0  0  0  0  0  0  0  0  0  0
   -4.2109   23.0086  -27.0745 C   0  0  0  0  0  0  0  0  0  0  0  0
   -4.5358   22.5756  -29.4403 O   0  0  0  0  0  0  0  0  0  0  0  0
   -4.0025   23.2538  -28.5185 C   0  0  0  0  0  0  0  0  0  0  0  0
   -3.1803   24.2860  -28.9542 O   0  0  0  0  0  0  0  0  0  0  0  0
   -2.1988   24.3403  -28.8700 H   0  0  0  0  0  0  0  0  0  0  0  0
   -4.0331   24.2993  -26.2922 C   0  0  0  0  0  0  0  0  0  0  0  0
   -5.2098   24.6854  -25.4914 C   0  0  0  0  0  0  0  0  0  0  0  0
   -5.0101   25.3740  -24.2795 C   0  0  0  0  0  0  0  0  0  0  0  0
   -6.1142   25.7641  -23.5470 C   0  0  0  0  0  0  0  0  0  0  0  0
   -7.4066   25.4991  -23.9670 C   0  0  0  0  0  0  0  0  0  0  0  0
   -7.5518   24.8205  -25.1634 C   0  0  0  0  0  0  0  0  0  0  0  0
   -6.4817   24.4154  -25.9222 C   0  0  0  0  0  0  0  0  0  0  0  0
 33 34  2  0  0  0
 34 35  1  0  0  0
 34 32  1  0  0  0
 32 37  1  0  0  0
 37 38  1  0  0  0
 38 39  2  0  0  0
 39 40  1  0  0  0
 40 41  2  0  0  0
 41 42  1  0  0  0
 42 43  2  0  0  0
 32 31  1  0  0  0
 31 23  1  0  0  0
 23 24  2  0  0  0
 24 25  1  0  0  0
 24 26  1  0  0  0
 26 27  2  0  0  0
 27  1  1  0  0  0
  1  2  2  0  0  0
  2  3  1  0  0  0
  3  4  2  0  0  0
  4  7  1  0  0  0
  7  8  2  0  0  0
  8 16  1  0  0  0
 16 17  1  0  0  0
 17 18  2  0  0  0
 18 19  1  0  0  0
 19 20  2  0  0  0
 20 21  1  0  0  0
 21 22  2  0  0  0
  8  9  1  0  0  0
  9 10  1  0  0  0
 10 11  2  0  0  0
 11 12  1  0  0  0
 12 13  2  0  0  0
 13 14  1  0  0  0
 14 15  2  0  0  0
  4  5  1  0  0  0
  5  6  2  0  0  0
 27 28  1  0  0  0
 28 29  2  0  0  0
 29 30  1  0  0  0
 43 38  1  0  0  0
 29 23  1  0  0  0
  6  1  1  0  0  0
 15  7  1  0  0  0
 22 17  1  0  0  0
 15 10  1  0  0  0
 35 36  1  0  0  0
M  END
> <minimizedAffinity>
-8.66720

> <CNNscore>
0.1781017631

> <CNNaffinity>
6.7449522018

> <CNN_VS>
1.2012878656

> <CNNaffinity_variance>
0.2706813812

$$$$
[H]c1c(F)c(C(=O)N([H])S(=O)(=O)C2([H])C([H])([H])C2([H])[H])c([H])c(C2([H])C([H])([H])C2([H])[H])c1OC([H])([H])C1([H])C([H])([H])C([H])([H])C([H])(C(F)(F)F)C([H])([H])C1([H])[H]


 32 35  0  0  0  0  0  0  0  0999 V2000
   -1.9819   22.9754  -26.7819 C   0  0  0  0  0  0  0  0  0  0  0  0
   -2.0901   22.8752  -25.3903 C   0  0  0  0  0  0  0  0  0  0  0  0
   -1.0520   22.5505  -24.5772 C   0  0  0  0  0  0  0  0  0  0  0  0
    0.2370   22.2876  -25.1161 C   0  0  0  0  0  0  0  0  0  0  0  0
    0.3249   22.3920  -26.4904 C   0  0  0  0  0  0  0  0  0  0  0  0
   -0.7562   22.7267  -27.3024 C   0  0  0  0  0  0  0  0  0  0  0  0
   -0.5565   22.7865  -28.6224 F   0  0  0  0  0  0  0  0  0  0  0  0
   -3.5416   22.5812  -28.4792 O   0  0  0  0  0  0  0  0  0  0  0  0
   -3.1776   23.3434  -27.5085 C   0  0  0  0  0  0  0  0  0  0  0  0
   -4.0038   24.4455  -27.2805 N   0  0  0  0  0  0  0  0  0  0  0  0
   -3.8295   25.1184  -26.5298 H   0  0  0  0  0  0  0  0  0  0  0  0
   -5.3957   24.7324  -28.2541 S   0  0  0  0  0  0  0  0  0  0  0  0
   -6.0335   26.0483  -27.8783 O   0  0  0  0  0  0  0  0  0  0  0  0
   -6.4294   23.6635  -28.0683 O   0  0  0  0  0  0  0  0  0  0  0  0
   -4.9278   24.8157  -29.9900 C   0  0  0  0  0  0  0  0  0  0  0  0
   -5.1297   26.0969  -30.7315 C   0  0  0  0  0  0  0  0  0  0  0  0
   -3.7758   25.7737  -30.2352 C   0  0  0  0  0  0  0  0  0  0  0  0
   -1.1923   22.4315  -23.0900 C   0  0  0  0  0  0  0  0  0  0  0  0
   -2.4789   22.6271  -22.4138 C   0  0  0  0  0  0  0  0  0  0  0  0
   -2.0340   21.2308  -22.6428 C   0  0  0  0  0  0  0  0  0  0  0  0
    1.2127   21.9810  -24.2755 O   0  0  0  0  0  0  0  0  0  0  0  0
    1.9322   21.0076  -23.7798 C   0  0  0  0  0  0  0  0  0  0  0  0
    2.4578   20.9606  -22.3976 C   0  0  0  0  0  0  0  0  0  0  0  0
    1.4320   20.5630  -21.3532 C   0  0  0  0  0  0  0  0  0  0  0  0
    1.8231   21.2764  -20.0896 C   0  0  0  0  0  0  0  0  0  0  0  0
    3.2072   20.9672  -19.6772 C   0  0  0  0  0  0  0  0  0  0  0  0
    4.1588   20.4090  -20.6526 C   0  0  0  0  0  0  0  0  0  0  0  0
    3.7157   20.2799  -22.0813 C   0  0  0  0  0  0  0  0  0  0  0  0
    3.8404   22.1700  -18.9322 C   0  0  0  0  0  0  0  0  0  0  0  0
    3.0122   23.2488  -18.9088 F   0  0  0  0  0  0  0  0  0  0  0  0
    4.0885   21.8095  -17.6147 F   0  0  0  0  0  0  0  0  0  0  0  0
    5.0567   22.4804  -19.4853 F   0  0  0  0  0  0  0  0  0  0  0  0
  8  9  2  0  0  0
  9 10  1  0  0  0
 10 12  1  0  0  0
 12 13  2  0  0  0
 12 14  2  0  0  0
 12 15  1  0  0  0
 15 16  1  0  0  0
 16 17  1  0  0  0
  9  1  1  0  0  0
  1  2  2  0  0  0
  2  3  1  0  0  0
  3 18  1  0  0  0
 18 19  1  0  0  0
 19 20  1  0  0  0
  3  4  2  0  0  0
  4 21  1  0  0  0
 21 22  1  0  0  0
 22 23  1  0  0  0
 23 24  1  0  0  0
 24 25  1  0  0  0
 25 26  1  0  0  0
 26 29  1  0  0  0
 29 30  1  0  0  0
 29 31  1  0  0  0
 29 32  1  0  0  0
 26 27  1  0  0  0
 27 28  1  0  0  0
  4  5  1  0  0  0
  5  6  2  0  0  0
  6  7  1  0  0  0
 17 15  1  0  0  0
  6  1  1  0  0  0
 20 18  1  0  0  0
 28 23  1  0  0  0
 10 11  1  0  0  0
M  END
> <minimizedAffinity>
-8.26729

> <CNNscore>
0.4496997893

> <CNNaffinity>
6.7592978477

> <CNN_VS>
3.0396547318

> <CNNaffinity_variance>
0.0976444632

$$$$
[H]c1c(F)c(C(=O)N([H])S(=O)(=O)C2([H])C([H])([H])C2([H])[H])c([H])c(C2([H])C([H])([H])C2([H])[H])c1OC([H])([H])C1([H])C([H])([H])C([H])([H])C([H])(C(F)(F)F)C([H])([H])C1([H])[H]


 32 35  0  0  0  0  0  0  0  0999 V2000
   -1.4615   22.7334  -26.6980 C   0  0  0  0  0  0  0  0  0  0  0  0
   -1.7323   22.7472  -25.3251 C   0  0  0  0  0  0  0  0  0  0  0  0
   -0.8067   22.4613  -24.3735 C   0  0  0  0  0  0  0  0  0  0  0  0
    0.5256   22.1228  -24.7359 C   0  0  0  0  0  0  0  0  0  0  0  0
    0.7746   22.1151  -26.0942 C   0  0  0  0  0  0  0  0  0  0  0  0
   -0.1936   22.4122  -27.0506 C   0  0  0  0  0  0  0  0  0  0  0  0
    0.1584   22.3614  -28.3387 F   0  0  0  0  0  0  0  0  0  0  0  0
   -2.2816   23.2033  -28.8370 O   0  0  0  0  0  0  0  0  0  0  0  0
   -2.5520   23.0733  -27.5857 C   0  0  0  0  0  0  0  0  0  0  0  0
   -3.8903   23.2803  -27.2456 N   0  0  0  0  0  0  0  0  0  0  0  0
   -4.2344   23.1927  -26.2860 H   0  0  0  0  0  0  0  0  0  0  0  0
   -5.0616   23.6850  -28.4421 S   0  0  0  0  0  0  0  0  0  0  0  0
   -6.4552   23.5273  -27.8830 O   0  0  0  0  0  0  0  0  0  0  0  0
   -4.9560   22.7936  -29.6421 O   0  0  0  0  0  0  0  0  0  0  0  0
   -4.8564   25.3991  -28.9513 C   0  0  0  0  0  0  0  0  0  0  0  0
   -4.0596   25.6969  -30.1796 C   0  0  0  0  0  0  0  0  0  0  0  0
   -5.5341   25.6958  -30.2771 C   0  0  0  0  0  0  0  0  0  0  0  0
   -1.1211   22.4649  -22.9083 C   0  0  0  0  0  0  0  0  0  0  0  0
   -2.5006   22.4546  -22.4106 C   0  0  0  0  0  0  0  0  0  0  0  0
   -1.7661   21.1660  -22.4116 C   0  0  0  0  0  0  0  0  0  0  0  0
    1.3869   21.8589  -23.7657 O   0  0  0  0  0  0  0  0  0  0  0  0
    2.3949   21.1079  -23.4042 C   0  0  0  0  0  0  0  0  0  0  0  0
    2.3092   19.9683  -22.4646 C   0  0  0  0  0  0  0  0  0  0  0  0
    3.6323   19.2735  -22.2041 C   0  0  0  0  0  0  0  0  0  0  0  0
    3.3031   17.8308  -21.9422 C   0  0  0  0  0  0  0  0  0  0  0  0
    2.3441   17.6680  -20.8307 C   0  0  0  0  0  0  0  0  0  0  0  0
    1.5175   18.8074  -20.3986 C   0  0  0  0  0  0  0  0  0  0  0  0
    1.5965   20.0810  -21.1898 C   0  0  0  0  0  0  0  0  0  0  0  0
    1.4623   16.4114  -21.0452 C   0  0  0  0  0  0  0  0  0  0  0  0
    1.8309   15.7126  -22.1523 F   0  0  0  0  0  0  0  0  0  0  0  0
    1.6042   15.5645  -19.9543 F   0  0  0  0  0  0  0  0  0  0  0  0
    0.1381   16.7665  -21.0911 F   0  0  0  0  0  0  0  0  0  0  0  0
  8  9  2  0  0  0
  9 10  1  0  0  0
 10 12  1  0  0  0
 12 13  2  0  0  0
 12 14  2  0  0  0
 12 15  1  0  0  0
 15 16  1  0  0  0
 16 17  1  0  0  0
  9  1  1  0  0  0
  1  2  2  0  0  0
  2  3  1  0  0  0
  3 18  1  0  0  0
 18 19  1  0  0  0
 19 20  1  0  0  0
  3  4  2  0  0  0
  4 21  1  0  0  0
 21 22  1  0  0  0
 22 23  1  0  0  0
 23 24  1  0  0  0
 24 25  1  0  0  0
 25 26  1  0  0  0
 26 29  1  0  0  0
 29 30  1  0  0  0
 29 31  1  0  0  0
 29 32  1  0  0  0
 26 27  1  0  0  0
 27 28  1  0  0  0
  4  5  1  0  0  0
  5  6  2  0  0  0
  6  7  1  0  0  0
 17 15  1  0  0  0
  6  1  1  0  0  0
 20 18  1  0  0  0
 28 23  1  0  0  0
 10 11  1  0  0  0
M  END
> <minimizedAffinity>
-8.35624

> <CNNscore>
0.4106528163

> <CNNaffinity>
6.7610578537

> <CNN_VS>
2.7764475346

> <CNNaffinity_variance>
0.0991711617

$$$$
[H]c1c(F)c(C(=O)N([H])S(=O)(=O)C2([H])C([H])([H])C2([H])[H])c([H])c(C2([H])C([H])([H])C2([H])[H])c1OC([H])([H])C1([H])C([H])([H])C([H])([H])C([H])(C(F)(F)F)C([H])([H])C1([H])[H]


 32 35  0  0  0  0  0  0  0  0999 V2000
   -1.6561   22.4514  -25.0883 C   0  0  0  0  0  0  0  0  0  0  0  0
   -1.4889   22.1900  -23.7237 C   0  0  0  0  0  0  0  0  0  0  0  0
   -0.2945   21.8747  -23.1597 C   0  0  0  0  0  0  0  0  0  0  0  0
    0.8827   21.7917  -23.9523 C   0  0  0  0  0  0  0  0  0  0  0  0
    0.6988   22.0536  -25.2957 C   0  0  0  0  0  0  0  0  0  0  0  0
   -0.5382   22.3747  -25.8496 C   0  0  0  0  0  0  0  0  0  0  0  0
   -0.5993   22.5967  -27.1659 F   0  0  0  0  0  0  0  0  0  0  0  0
   -3.8202   21.8166  -25.7066 O   0  0  0  0  0  0  0  0  0  0  0  0
   -2.9912   22.7855  -25.5339 C   0  0  0  0  0  0  0  0  0  0  0  0
   -3.5029   24.0563  -25.8035 N   0  0  0  0  0  0  0  0  0  0  0  0
   -2.9479   24.9085  -25.6913 H   0  0  0  0  0  0  0  0  0  0  0  0
   -5.1283   24.2687  -26.3331 S   0  0  0  0  0  0  0  0  0  0  0  0
   -6.0771   23.5402  -25.4118 O   0  0  0  0  0  0  0  0  0  0  0  0
   -5.3353   23.7227  -27.7132 O   0  0  0  0  0  0  0  0  0  0  0  0
   -5.5612   26.0156  -26.3105 C   0  0  0  0  0  0  0  0  0  0  0  0
   -5.8644   26.6673  -25.0008 C   0  0  0  0  0  0  0  0  0  0  0  0
   -4.5244   26.8611  -25.5928 C   0  0  0  0  0  0  0  0  0  0  0  0
   -0.1391   21.5812  -21.6983 C   0  0  0  0  0  0  0  0  0  0  0  0
   -1.2932   21.3148  -20.8335 C   0  0  0  0  0  0  0  0  0  0  0  0
   -0.5158   20.1461  -21.3129 C   0  0  0  0  0  0  0  0  0  0  0  0
    2.0201   21.4857  -23.3477 O   0  0  0  0  0  0  0  0  0  0  0  0
    2.9546   20.5795  -23.2206 C   0  0  0  0  0  0  0  0  0  0  0  0
    2.9323   19.4700  -22.2421 C   0  0  0  0  0  0  0  0  0  0  0  0
    3.9228   18.3591  -22.5355 C   0  0  0  0  0  0  0  0  0  0  0  0
    3.2949   17.0928  -22.0252 C   0  0  0  0  0  0  0  0  0  0  0  0
    2.9423   17.1799  -20.5935 C   0  0  0  0  0  0  0  0  0  0  0  0
    2.8207   18.4958  -19.9439 C   0  0  0  0  0  0  0  0  0  0  0  0
    2.9478   19.7231  -20.7994 C   0  0  0  0  0  0  0  0  0  0  0  0
    1.7019   16.3053  -20.2788 C   0  0  0  0  0  0  0  0  0  0  0  0
    0.5862   17.0566  -20.0765 F   0  0  0  0  0  0  0  0  0  0  0  0
    1.4487   15.4698  -21.3582 F   0  0  0  0  0  0  0  0  0  0  0  0
    1.9601   15.4882  -19.2077 F   0  0  0  0  0  0  0  0  0  0  0  0
  8  9  2  0  0  0
  9 10  1  0  0  0
 10 12  1  0  0  0
 12 13  2  0  0  0
 12 14  2  0  0  0
 12 15  1  0  0  0
 15 16  1  0  0  0
 16 17  1  0  0  0
  9  1  1  0  0  0
  1  2  2  0  0  0
  2  3  1  0  0  0
  3 18  1  0  0  0
 18 19  1  0  0  0
 19 20  1  0  0  0
  3  4  2  0  0  0
  4 21  1  0  0  0
 21 22  1  0  0  0
 22 23  1  0  0  0
 23 24  1  0  0  0
 24 25  1  0  0  0
 25 26  1  0  0  0
 26 29  1  0  0  0
 29 30  1  0  0  0
 29 31  1  0  0  0
 29 32  1  0  0  0
 26 27  1  0  0  0
 27 28  1  0  0  0
  4  5  1  0  0  0
  5  6  2  0  0  0
  6  7  1  0  0  0
 17 15  1  0  0  0
  6  1  1  0  0  0
 20 18  1  0  0  0
 28 23  1  0  0  0
 10 11  1  0  0  0
M  END
> <minimizedAffinity>
-7.06749

> <CNNscore>
0.2271960676

> <CNNaffinity>
6.2528100014

> <CNN_VS>
1.4206138849

> <CNNaffinity_variance>
0.0743580684

$$$$
[H]c1c(F)c(C(=O)N([H])S(=O)(=O)C2([H])C([H])([H])C2([H])[H])c([H])c(C2([H])C([H])([H])C2([H])[H])c1OC([H])([H])C1([H])C([H])([H])C([H])([H])C([H])(C(F)(F)F)C([H])([H])C1([H])[H]


 32 35  0  0  0  0  0  0  0  0999 V2000
   -1.5635   22.7414  -23.2911 C   0  0  0  0  0  0  0  0  0  0  0  0
   -2.8818   22.6697  -23.7550 C   0  0  0  0  0  0  0  0  0  0  0  0
   -3.2104   22.4549  -25.0550 C   0  0  0  0  0  0  0  0  0  0  0  0
   -2.1998   22.2869  -26.0406 C   0  0  0  0  0  0  0  0  0  0  0  0
   -0.9055   22.3598  -25.5645 C   0  0  0  0  0  0  0  0  0  0  0  0
   -0.5951   22.5816  -24.2248 C   0  0  0  0  0  0  0  0  0  0  0  0
    0.6944   22.6451  -23.8802 F   0  0  0  0  0  0  0  0  0  0  0  0
   -1.9665   23.9803  -21.3491 O   0  0  0  0  0  0  0  0  0  0  0  0
   -1.3775   22.9637  -21.8737 C   0  0  0  0  0  0  0  0  0  0  0  0
   -0.6236   22.1941  -20.9856 N   0  0  0  0  0  0  0  0  0  0  0  0
   -0.1191   21.3530  -21.2771 H   0  0  0  0  0  0  0  0  0  0  0  0
   -0.5102   22.6123  -19.3184 S   0  0  0  0  0  0  0  0  0  0  0  0
   -1.7799   22.2298  -18.5965 O   0  0  0  0  0  0  0  0  0  0  0  0
   -0.3140   24.0860  -19.1308 O   0  0  0  0  0  0  0  0  0  0  0  0
    0.8554   21.7254  -18.5515 C   0  0  0  0  0  0  0  0  0  0  0  0
    1.6717   20.7943  -19.3874 C   0  0  0  0  0  0  0  0  0  0  0  0
    2.2046   22.1440  -19.1079 C   0  0  0  0  0  0  0  0  0  0  0  0
   -4.6289   22.3985  -25.5350 C   0  0  0  0  0  0  0  0  0  0  0  0
   -5.7647   22.4782  -24.6105 C   0  0  0  0  0  0  0  0  0  0  0  0
   -5.3973   23.7117  -25.3476 C   0  0  0  0  0  0  0  0  0  0  0  0
   -2.5788   22.0750  -27.2912 O   0  0  0  0  0  0  0  0  0  0  0  0
   -2.6137   22.5764  -28.4987 C   0  0  0  0  0  0  0  0  0  0  0  0
   -3.6370   23.5231  -28.9945 C   0  0  0  0  0  0  0  0  0  0  0  0
   -5.0053   22.9054  -29.2120 C   0  0  0  0  0  0  0  0  0  0  0  0
   -5.6292   23.6608  -30.3515 C   0  0  0  0  0  0  0  0  0  0  0  0
   -5.6933   25.1134  -30.0921 C   0  0  0  0  0  0  0  0  0  0  0  0
   -4.8336   25.7155  -29.0593 C   0  0  0  0  0  0  0  0  0  0  0  0
   -3.8250   24.8377  -28.3763 C   0  0  0  0  0  0  0  0  0  0  0  0
   -5.5884   25.9132  -31.4158 C   0  0  0  0  0  0  0  0  0  0  0  0
   -6.1115   27.1634  -31.2991 F   0  0  0  0  0  0  0  0  0  0  0  0
   -4.2502   26.0542  -31.7572 F   0  0  0  0  0  0  0  0  0  0  0  0
   -6.1781   25.2136  -32.4377 F   0  0  0  0  0  0  0  0  0  0  0  0
  8  9  2  0  0  0
  9 10  1  0  0  0
 10 12  1  0  0  0
 12 13  2  0  0  0
 12 14  2  0  0  0
 12 15  1  0  0  0
 15 16  1  0  0  0
 16 17  1  0  0  0
  9  1  1  0  0  0
  1  2  2  0  0  0
  2  3  1  0  0  0
  3 18  1  0  0  0
 18 19  1  0  0  0
 19 20  1  0  0  0
  3  4  2  0  0  0
  4 21  1  0  0  0
 21 22  1  0  0  0
 22 23  1  0  0  0
 23 24  1  0  0  0
 24 25  1  0  0  0
 25 26  1  0  0  0
 26 29  1  0  0  0
 29 30  1  0  0  0
 29 31  1  0  0  0
 29 32  1  0  0  0
 26 27  1  0  0  0
 27 28  1  0  0  0
  4  5  1  0  0  0
  5  6  2  0  0  0
  6  7  1  0  0  0
 17 15  1  0  0  0
  6  1  1  0  0  0
 20 18  1  0  0  0
 28 23  1  0  0  0
 10 11  1  0  0  0
M  END
> <minimizedAffinity>
-9.10316

> <CNNscore>
0.2243211418

> <CNNaffinity>
6.6425170898

> <CNN_VS>
1.4900569916

> <CNNaffinity_variance>
0.1608106196

$$$$
[H]c1c(F)c(C(=O)N([H])S(=O)(=O)C2([H])C([H])([H])C2([H])[H])c([H])c(C2([H])C([H])([H])C2([H])[H])c1OC([H])([H])C1([H])C([H])([H])C([H])([H])C([H])(C(F)(F)F)C([H])([H])C1([H])[H]


 32 35  0  0  0  0  0  0  0  0999 V2000
   -0.8440   21.7015  -23.3993 C   0  0  0  0  0  0  0  0  0  0  0  0
   -2.2073   21.6585  -23.7121 C   0  0  0  0  0  0  0  0  0  0  0  0
   -2.6978   21.8535  -24.9633 C   0  0  0  0  0  0  0  0  0  0  0  0
   -1.8234   22.1197  -26.0521 C   0  0  0  0  0  0  0  0  0  0  0  0
   -0.4822   22.1575  -25.7248 C   0  0  0  0  0  0  0  0  0  0  0  0
   -0.0047   21.9541  -24.4322 C   0  0  0  0  0  0  0  0  0  0  0  0
    1.3144   22.0261  -24.2305 F   0  0  0  0  0  0  0  0  0  0  0  0
   -0.8392   22.3360  -21.1485 O   0  0  0  0  0  0  0  0  0  0  0  0
   -0.4790   21.4608  -22.0203 C   0  0  0  0  0  0  0  0  0  0  0  0
    0.2292   20.3723  -21.5073 N   0  0  0  0  0  0  0  0  0  0  0  0
    0.5589   19.6031  -22.0960 H   0  0  0  0  0  0  0  0  0  0  0  0
    0.5804   20.2503  -19.8253 S   0  0  0  0  0  0  0  0  0  0  0  0
   -0.6998   20.1619  -19.0296 O   0  0  0  0  0  0  0  0  0  0  0  0
    1.3345   21.4470  -19.3304 O   0  0  0  0  0  0  0  0  0  0  0  0
    1.5411   18.7631  -19.5020 C   0  0  0  0  0  0  0  0  0  0  0  0
    1.3617   17.5793  -20.3956 C   0  0  0  0  0  0  0  0  0  0  0  0
    2.5298   18.4579  -20.6131 C   0  0  0  0  0  0  0  0  0  0  0  0
   -4.1633   21.8204  -25.2749 C   0  0  0  0  0  0  0  0  0  0  0  0
   -5.1822   21.9034  -24.2234 C   0  0  0  0  0  0  0  0  0  0  0  0
   -4.8865   23.1408  -24.9858 C   0  0  0  0  0  0  0  0  0  0  0  0
   -2.3572   22.2963  -27.2506 O   0  0  0  0  0  0  0  0  0  0  0  0
   -2.3224   23.0156  -28.3425 C   0  0  0  0  0  0  0  0  0  0  0  0
   -3.4656   23.7760  -28.8937 C   0  0  0  0  0  0  0  0  0  0  0  0
   -4.6945   22.9343  -29.1810 C   0  0  0  0  0  0  0  0  0  0  0  0
   -5.3785   23.5788  -30.3537 C   0  0  0  0  0  0  0  0  0  0  0  0
   -5.7041   24.9973  -30.1019 C   0  0  0  0  0  0  0  0  0  0  0  0
   -5.0155   25.7312  -29.0270 C   0  0  0  0  0  0  0  0  0  0  0  0
   -3.9083   25.0350  -28.2898 C   0  0  0  0  0  0  0  0  0  0  0  0
   -5.6692   25.8116  -31.4203 C   0  0  0  0  0  0  0  0  0  0  0  0
   -6.1839   27.0607  -31.2621 F   0  0  0  0  0  0  0  0  0  0  0  0
   -4.3509   25.9557  -31.8311 F   0  0  0  0  0  0  0  0  0  0  0  0
   -6.3133   25.1237  -32.4170 F   0  0  0  0  0  0  0  0  0  0  0  0
  8  9  2  0  0  0
  9 10  1  0  0  0
 10 12  1  0  0  0
 12 13  2  0  0  0
 12 14  2  0  0  0
 12 15  1  0  0  0
 15 16  1  0  0  0
 16 17  1  0  0  0
  9  1  1  0  0  0
  1  2  2  0  0  0
  2  3  1  0  0  0
  3 18  1  0  0  0
 18 19  1  0  0  0
 19 20  1  0  0  0
  3  4  2  0  0  0
  4 21  1  0  0  0
 21 22  1  0  0  0
 22 23  1  0  0  0
 23 24  1  0  0  0
 24 25  1  0  0  0
 25 26  1  0  0  0
 26 29  1  0  0  0
 29 30  1  0  0  0
 29 31  1  0  0  0
 29 32  1  0  0  0
 26 27  1  0  0  0
 27 28  1  0  0  0
  4  5  1  0  0  0
  5  6  2  0  0  0
  6  7  1  0  0  0
 17 15  1  0  0  0
  6  1  1  0  0  0
 20 18  1  0  0  0
 28 23  1  0  0  0
 10 11  1  0  0  0
M  END
> <minimizedAffinity>
-8.75997

> <CNNscore>
0.1796557456

> <CNNaffinity>
6.5036950111

> <CNN_VS>
1.1684261560

> <CNNaffinity_variance>
0.1415103823

$$$$
[H]c1c(F)c(C(=O)N([H])S(=O)(=O)C2([H])C([H])([H])C2([H])[H])c([H])c(C2([H])C([H])([H])C2([H])[H])c1OC([H])([H])C1([H])C([H])([H])C([H])([H])C([H])(C(F)(F)F)C([H])([H])C1([H])[H]


 32 35  0  0  0  0  0  0  0  0999 V2000
   -2.5936   22.9378  -25.7860 C   0  0  0  0  0  0  0  0  0  0  0  0
   -2.9043   23.1598  -24.4397 C   0  0  0  0  0  0  0  0  0  0  0  0
   -2.0704   22.8472  -23.4145 C   0  0  0  0  0  0  0  0  0  0  0  0
   -0.8003   22.2600  -23.6656 C   0  0  0  0  0  0  0  0  0  0  0  0
   -0.5107   22.0493  -24.9994 C   0  0  0  0  0  0  0  0  0  0  0  0
   -1.3845   22.3790  -26.0328 C   0  0  0  0  0  0  0  0  0  0  0  0
   -1.0027   22.1181  -27.2865 F   0  0  0  0  0  0  0  0  0  0  0  0
   -3.9853   22.4470  -27.6001 O   0  0  0  0  0  0  0  0  0  0  0  0
   -3.5833   23.3373  -26.7626 C   0  0  0  0  0  0  0  0  0  0  0  0
   -4.1700   24.5956  -26.9105 N   0  0  0  0  0  0  0  0  0  0  0  0
   -3.9447   25.3836  -26.2981 H   0  0  0  0  0  0  0  0  0  0  0  0
   -5.3377   24.8954  -28.1411 S   0  0  0  0  0  0  0  0  0  0  0  0
   -5.8528   26.3109  -28.0384 O   0  0  0  0  0  0  0  0  0  0  0  0
   -6.5169   23.9788  -28.0185 O   0  0  0  0  0  0  0  0  0  0  0  0
   -4.5888   24.6915  -29.7650 C   0  0  0  0  0  0  0  0  0  0  0  0
   -4.7714   25.7681  -30.7846 C   0  0  0  0  0  0  0  0  0  0  0  0
   -3.4995   25.7143  -30.0343 C   0  0  0  0  0  0  0  0  0  0  0  0
   -2.4288   23.0772  -21.9777 C   0  0  0  0  0  0  0  0  0  0  0  0
   -3.8024   23.3745  -21.5586 C   0  0  0  0  0  0  0  0  0  0  0  0
   -3.3210   21.9829  -21.3806 C   0  0  0  0  0  0  0  0  0  0  0  0
   -0.0270   21.9813  -22.6278 O   0  0  0  0  0  0  0  0  0  0  0  0
    0.3126   21.0612  -21.7625 C   0  0  0  0  0  0  0  0  0  0  0  0
    0.5958   21.3065  -20.3312 C   0  0  0  0  0  0  0  0  0  0  0  0
    2.0555   21.1521  -19.9485 C   0  0  0  0  0  0  0  0  0  0  0  0
    2.0663   20.6651  -18.5269 C   0  0  0  0  0  0  0  0  0  0  0  0
    1.3307   21.5691  -17.6195 C   0  0  0  0  0  0  0  0  0  0  0  0
    0.3618   22.5332  -18.1671 C   0  0  0  0  0  0  0  0  0  0  0  0
    0.0665   22.4836  -19.6384 C   0  0  0  0  0  0  0  0  0  0  0  0
    0.6998   20.7763  -16.4464 C   0  0  0  0  0  0  0  0  0  0  0  0
    1.6066   20.5016  -15.4705 F   0  0  0  0  0  0  0  0  0  0  0  0
   -0.3085   21.5387  -15.8724 F   0  0  0  0  0  0  0  0  0  0  0  0
    0.1031   19.6339  -16.9159 F   0  0  0  0  0  0  0  0  0  0  0  0
  8  9  2  0  0  0
  9 10  1  0  0  0
 10 12  1  0  0  0
 12 13  2  0  0  0
 12 14  2  0  0  0
 12 15  1  0  0  0
 15 16  1  0  0  0
 16 17  1  0  0  0
  9  1  1  0  0  0
  1  2  2  0  0  0
  2  3  1  0  0  0
  3 18  1  0  0  0
 18 19  1  0  0  0
 19 20  1  0  0  0
  3  4  2  0  0  0
  4 21  1  0  0  0
 21 22  1  0  0  0
 22 23  1  0  0  0
 23 24  1  0  0  0
 24 25  1  0  0  0
 25 26  1  0  0  0
 26 29  1  0  0  0
 29 30  1  0  0  0
 29 31  1  0  0  0
 29 32  1  0  0  0
 26 27  1  0  0  0
 27 28  1  0  0  0
  4  5  1  0  0  0
  5  6  2  0  0  0
  6  7  1  0  0  0
 17 15  1  0  0  0
  6  1  1  0  0  0
 20 18  1  0  0  0
 28 23  1  0  0  0
 10 11  1  0  0  0
M  END
> <minimizedAffinity>
-7.12807

> <CNNscore>
0.1757269800

> <CNNaffinity>
6.2275381088

> <CNN_VS>
1.0943465233

> <CNNaffinity_variance>
0.0958505645

$$$$
[H]c1c(F)c(C(=O)N([H])S(=O)(=O)C2([H])C([H])([H])C2([H])[H])c([H])c(C2([H])C([H])([H])C2([H])[H])c1OC([H])([H])C1([H])C([H])([H])C([H])([H])C([H])(C(F)(F)F)C([H])([H])C1([H])[H]


 32 35  0  0  0  0  0  0  0  0999 V2000
   -0.8556   21.4749  -23.1122 C   0  0  0  0  0  0  0  0  0  0  0  0
   -2.2301   21.3999  -23.3644 C   0  0  0  0  0  0  0  0  0  0  0  0
   -2.7896   21.6822  -24.5691 C   0  0  0  0  0  0  0  0  0  0  0  0
   -1.9817   22.0807  -25.6688 C   0  0  0  0  0  0  0  0  0  0  0  0
   -0.6284   22.1482  -25.4017 C   0  0  0  0  0  0  0  0  0  0  0  0
   -0.0795   21.8535  -24.1559 C   0  0  0  0  0  0  0  0  0  0  0  0
    1.2441   21.9650  -24.0096 F   0  0  0  0  0  0  0  0  0  0  0  0
   -0.3278   19.8806  -21.4849 O   0  0  0  0  0  0  0  0  0  0  0  0
   -0.4132   21.1304  -21.7786 C   0  0  0  0  0  0  0  0  0  0  0  0
   -0.0581   22.0049  -20.7498 N   0  0  0  0  0  0  0  0  0  0  0  0
   -0.0708   23.0218  -20.8625 H   0  0  0  0  0  0  0  0  0  0  0  0
    0.4458   21.4142  -19.2120 S   0  0  0  0  0  0  0  0  0  0  0  0
    1.6548   20.5229  -19.3657 O   0  0  0  0  0  0  0  0  0  0  0  0
   -0.6284   20.6036  -18.5528 O   0  0  0  0  0  0  0  0  0  0  0  0
    0.8991   22.7883  -18.1416 C   0  0  0  0  0  0  0  0  0  0  0  0
    2.0526   22.6248  -17.2063 C   0  0  0  0  0  0  0  0  0  0  0  0
    2.2682   23.3548  -18.4729 C   0  0  0  0  0  0  0  0  0  0  0  0
   -4.2664   21.6126  -24.8145 C   0  0  0  0  0  0  0  0  0  0  0  0
   -5.2376   21.6379  -23.7159 C   0  0  0  0  0  0  0  0  0  0  0  0
   -5.0136   22.9027  -24.4576 C   0  0  0  0  0  0  0  0  0  0  0  0
   -2.5811   22.3382  -26.8208 O   0  0  0  0  0  0  0  0  0  0  0  0
   -2.4799   22.9677  -27.9628 C   0  0  0  0  0  0  0  0  0  0  0  0
   -3.5680   23.7361  -28.6067 C   0  0  0  0  0  0  0  0  0  0  0  0
   -4.7591   22.8971  -29.0290 C   0  0  0  0  0  0  0  0  0  0  0  0
   -5.3294   23.5639  -30.2491 C   0  0  0  0  0  0  0  0  0  0  0  0
   -5.6848   24.9759  -30.0012 C   0  0  0  0  0  0  0  0  0  0  0  0
   -5.1072   25.6893  -28.8497 C   0  0  0  0  0  0  0  0  0  0  0  0
   -4.0733   24.9810  -28.0230 C   0  0  0  0  0  0  0  0  0  0  0  0
   -5.5261   25.8176  -31.2931 C   0  0  0  0  0  0  0  0  0  0  0  0
   -4.2235   25.9418  -31.6641 F   0  0  0  0  0  0  0  0  0  0  0  0
   -6.1946   25.1855  -32.3328 F   0  0  0  0  0  0  0  0  0  0  0  0
   -6.1240   27.0420  -31.1349 F   0  0  0  0  0  0  0  0  0  0  0  0
  8  9  2  0  0  0
  9 10  1  0  0  0
 10 12  1  0  0  0
 12 13  2  0  0  0
 12 14  2  0  0  0
 12 15  1  0  0  0
 15 16  1  0  0  0
 16 17  1  0  0  0
  9  1  1  0  0  0
  1  2  2  0  0  0
  2  3  1  0  0  0
  3 18  1  0  0  0
 18 19  1  0  0  0
 19 20  1  0  0  0
  3  4  2  0  0  0
  4 21  1  0  0  0
 21 22  1  0  0  0
 22 23  1  0  0  0
 23 24  1  0  0  0
 24 25  1  0  0  0
 25 26  1  0  0  0
 26 29  1  0  0  0
 29 30  1  0  0  0
 29 31  1  0  0  0
 29 32  1  0  0  0
 26 27  1  0  0  0
 27 28  1  0  0  0
  4  5  1  0  0  0
  5  6  2  0  0  0
  6  7  1  0  0  0
 17 15  1  0  0  0
  6  1  1  0  0  0
 20 18  1  0  0  0
 28 23  1  0  0  0
 10 11  1  0  0  0
M  END
> <minimizedAffinity>
-8.96200

> <CNNscore>
0.1729694605

> <CNNaffinity>
6.4442405701

> <CNN_VS>
1.1146568060

> <CNNaffinity_variance>
0.1218861118

$$$$
[H]c1c(F)c(C(=O)N([H])S(=O)(=O)C2([H])C([H])([H])C2([H])[H])c([H])c(C2([H])C([H])([H])C2([H])[H])c1OC([H])([H])C1([H])C([H])([H])C([H])([H])C([H])(C(F)(F)F)C([H])([H])C1([H])[H]


 32 35  0  0  0  0  0  0  0  0999 V2000
   -3.5525   22.7572  -19.0858 C   0  0  0  0  0  0  0  0  0  0  0  0
   -4.0606   23.0770  -20.3499 C   0  0  0  0  0  0  0  0  0  0  0  0
   -3.2818   23.2794  -21.4438 C   0  0  0  0  0  0  0  0  0  0  0  0
   -1.8668   23.1734  -21.3566 C   0  0  0  0  0  0  0  0  0  0  0  0
   -1.3837   22.8564  -20.1023 C   0  0  0  0  0  0  0  0  0  0  0  0
   -2.2048   22.6539  -18.9955 C   0  0  0  0  0  0  0  0  0  0  0  0
   -1.6250   22.3634  -17.8271 F   0  0  0  0  0  0  0  0  0  0  0  0
   -4.8787   21.3528  -17.7676 O   0  0  0  0  0  0  0  0  0  0  0  0
   -4.5136   22.5600  -18.0227 C   0  0  0  0  0  0  0  0  0  0  0  0
   -5.1050   23.5382  -17.2209 N   0  0  0  0  0  0  0  0  0  0  0  0
   -4.8873   24.5335  -17.3158 H   0  0  0  0  0  0  0  0  0  0  0  0
   -6.2407   23.1191  -15.9953 S   0  0  0  0  0  0  0  0  0  0  0  0
   -7.2929   22.1914  -16.5537 O   0  0  0  0  0  0  0  0  0  0  0  0
   -6.9465   24.3277  -15.4599 O   0  0  0  0  0  0  0  0  0  0  0  0
   -5.4066   22.2680  -14.6465 C   0  0  0  0  0  0  0  0  0  0  0  0
   -3.9358   22.4622  -14.4700 C   0  0  0  0  0  0  0  0  0  0  0  0
   -4.8581   23.2277  -13.6057 C   0  0  0  0  0  0  0  0  0  0  0  0
   -3.8444   23.6381  -22.7856 C   0  0  0  0  0  0  0  0  0  0  0  0
   -5.1959   24.1867  -22.9389 C   0  0  0  0  0  0  0  0  0  0  0  0
   -4.0627   25.1427  -22.9820 C   0  0  0  0  0  0  0  0  0  0  0  0
   -1.1583   23.3759  -22.4565 O   0  0  0  0  0  0  0  0  0  0  0  0
   -0.5089   22.7971  -23.4332 C   0  0  0  0  0  0  0  0  0  0  0  0
   -1.0578   22.5440  -24.7836 C   0  0  0  0  0  0  0  0  0  0  0  0
   -0.0109   22.2164  -25.8314 C   0  0  0  0  0  0  0  0  0  0  0  0
   -0.5434   22.7431  -27.1342 C   0  0  0  0  0  0  0  0  0  0  0  0
   -1.8722   22.1875  -27.4617 C   0  0  0  0  0  0  0  0  0  0  0  0
   -2.6973   21.5800  -26.4040 C   0  0  0  0  0  0  0  0  0  0  0  0
   -2.2009   21.6512  -24.9889 C   0  0  0  0  0  0  0  0  0  0  0  0
   -2.7069   23.2053  -28.2802 C   0  0  0  0  0  0  0  0  0  0  0  0
   -3.7383   22.6087  -28.9363 F   0  0  0  0  0  0  0  0  0  0  0  0
   -3.2536   24.1446  -27.4163 F   0  0  0  0  0  0  0  0  0  0  0  0
   -1.8944   23.8972  -29.1420 F   0  0  0  0  0  0  0  0  0  0  0  0
  8  9  2  0  0  0
  9 10  1  0  0  0
 10 12  1  0  0  0
 12 13  2  0  0  0
 12 14  2  0  0  0
 12 15  1  0  0  0
 15 16  1  0  0  0
 16 17  1  0  0  0
  9  1  1  0  0  0
  1  2  2  0  0  0
  2  3  1  0  0  0
  3 18  1  0  0  0
 18 19  1  0  0  0
 19 20  1  0  0  0
  3  4  2  0  0  0
  4 21  1  0  0  0
 21 22  1  0  0  0
 22 23  1  0  0  0
 23 24  1  0  0  0
 24 25  1  0  0  0
 25 26  1  0  0  0
 26 29  1  0  0  0
 29 30  1  0  0  0
 29 31  1  0  0  0
 29 32  1  0  0  0
 26 27  1  0  0  0
 27 28  1  0  0  0
  4  5  1  0  0  0
  5  6  2  0  0  0
  6  7  1  0  0  0
 17 15  1  0  0  0
  6  1  1  0  0  0
 20 18  1  0  0  0
 28 23  1  0  0  0
 10 11  1  0  0  0
M  END
> <minimizedAffinity>
-7.09641

> <CNNscore>
0.1613365710

> <CNNaffinity>
5.9082536697

> <CNN_VS>
0.9532173872

> <CNNaffinity_variance>
0.1944279671

$$$$
[H]c1c(F)c(C(=O)N([H])S(=O)(=O)C2([H])C([H])([H])C2([H])[H])c([H])c(C2([H])C([H])([H])C2([H])[H])c1OC([H])([H])C1([H])C([H])([H])C([H])([H])C([H])(C(F)(F)F)C([H])([H])C1([H])[H]


 32 35  0  0  0  0  0  0  0  0999 V2000
    0.0566   21.4361  -23.0815 C   0  0  0  0  0  0  0  0  0  0  0  0
    0.1631   21.8741  -24.4063 C   0  0  0  0  0  0  0  0  0  0  0  0
   -0.9072   22.1091  -25.2085 C   0  0  0  0  0  0  0  0  0  0  0  0
   -2.2308   21.9154  -24.7276 C   0  0  0  0  0  0  0  0  0  0  0  0
   -2.3164   21.4840  -23.4184 C   0  0  0  0  0  0  0  0  0  0  0  0
   -1.2020   21.2500  -22.6162 C   0  0  0  0  0  0  0  0  0  0  0  0
   -1.4053   20.8220  -21.3667 F   0  0  0  0  0  0  0  0  0  0  0  0
    2.3933   21.4072  -22.9962 O   0  0  0  0  0  0  0  0  0  0  0  0
    1.2912   21.2429  -22.3527 C   0  0  0  0  0  0  0  0  0  0  0  0
    1.4379   20.8948  -21.0086 N   0  0  0  0  0  0  0  0  0  0  0  0
    0.6383   20.7496  -20.3870 H   0  0  0  0  0  0  0  0  0  0  0  0
    2.9975   20.7025  -20.3028 S   0  0  0  0  0  0  0  0  0  0  0  0
    2.9415   20.9999  -18.8236 O   0  0  0  0  0  0  0  0  0  0  0  0
    3.9980   21.6378  -20.9109 O   0  0  0  0  0  0  0  0  0  0  0  0
    3.5630   19.0063  -20.5090 C   0  0  0  0  0  0  0  0  0  0  0  0
    2.7679   18.0798  -21.3702 C   0  0  0  0  0  0  0  0  0  0  0  0
    3.9819   18.7037  -21.9367 C   0  0  0  0  0  0  0  0  0  0  0  0
   -0.7717   22.5617  -26.6307 C   0  0  0  0  0  0  0  0  0  0  0  0
    0.4149   23.2802  -27.1067 C   0  0  0  0  0  0  0  0  0  0  0  0
    0.3280   21.8309  -27.4096 C   0  0  0  0  0  0  0  0  0  0  0  0
   -3.2359   22.1651  -25.5523 O   0  0  0  0  0  0  0  0  0  0  0  0
   -4.4020   22.7448  -25.6740 C   0  0  0  0  0  0  0  0  0  0  0  0
   -4.7582   23.7205  -26.7276 C   0  0  0  0  0  0  0  0  0  0  0  0
   -6.0892   23.4509  -27.4035 C   0  0  0  0  0  0  0  0  0  0  0  0
   -5.9482   23.9427  -28.8166 C   0  0  0  0  0  0  0  0  0  0  0  0
   -5.5543   25.3649  -28.8780 C   0  0  0  0  0  0  0  0  0  0  0  0
   -4.9511   26.0133  -27.7016 C   0  0  0  0  0  0  0  0  0  0  0  0
   -4.6473   25.1636  -26.5017 C   0  0  0  0  0  0  0  0  0  0  0  0
   -4.7056   25.6459  -30.1442 C   0  0  0  0  0  0  0  0  0  0  0  0
   -4.9751   24.7648  -31.1448 F   0  0  0  0  0  0  0  0  0  0  0  0
   -5.0038   26.9159  -30.6191 F   0  0  0  0  0  0  0  0  0  0  0  0
   -3.3714   25.6540  -29.8258 F   0  0  0  0  0  0  0  0  0  0  0  0
  8  9  2  0  0  0
  9 10  1  0  0  0
 10 12  1  0  0  0
 12 13  2  0  0  0
 12 14  2  0  0  0
 12 15  1  0  0  0
 15 16  1  0  0  0
 16 17  1  0  0  0
  9  1  1  0  0  0
  1  2  2  0  0  0
  2  3  1  0  0  0
  3 18  1  0  0  0
 18 19  1  0  0  0
 19 20  1  0  0  0
  3  4  2  0  0  0
  4 21  1  0  0  0
 21 22  1  0  0  0
 22 23  1  0  0  0
 23 24  1  0  0  0
 24 25  1  0  0  0
 25 26  1  0  0  0
 26 29  1  0  0  0
 29 30  1  0  0  0
 29 31  1  0  0  0
 29 32  1  0  0  0
 26 27  1  0  0  0
 27 28  1  0  0  0
  4  5  1  0  0  0
  5  6  2  0  0  0
  6  7  1  0  0  0
 17 15  1  0  0  0
  6  1  1  0  0  0
 20 18  1  0  0  0
 28 23  1  0  0  0
 10 11  1  0  0  0
M  END
> <minimizedAffinity>
-8.68660

> <CNNscore>
0.1567911059

> <CNNaffinity>
6.4096956253

> <CNN_VS>
1.0049833059

> <CNNaffinity_variance>
0.1387999207

$$$$
[H]OC(=O)C1=C([H])[C@@]([H])(O[C@@]([H])(C([H])([H])C([H])([H])[H])C([H])([H])C([H])([H])C([H])([H])C([H])([H])C([H])([H])C([H])([H])C([H])([H])[H])[C@]([H])(N([H])C(=O)C([H])([H])[H])[C@@]([H])(N([H])[H])C1([H])[H]


 29 29  0  0  0  0  0  0  0  0999 V2000
   -5.7091   23.4555  -23.3740 C   0  0  0  0  0  0  0  0  0  0  0  0
   -6.8542   22.6066  -22.8563 C   0  0  0  0  0  0  0  0  0  0  0  0
   -7.3906   22.9419  -21.6825 C   0  0  0  0  0  0  0  0  0  0  0  0
   -6.7505   24.1639  -21.0641 C   0  0  0  0  0  0  0  0  0  0  0  0
   -6.9341   25.2477  -22.0949 C   0  0  0  0  0  0  0  0  0  0  0  0
   -8.3534   25.5575  -22.2380 N   0  0  0  0  0  0  0  0  0  0  0  0
   -6.3233   24.8374  -23.4065 C   0  0  0  0  0  0  0  0  0  0  0  0
   -8.9131   25.1291  -21.4683 H   0  0  0  0  0  0  0  0  0  0  0  0
   -8.4761   26.6137  -22.1901 H   0  0  0  0  0  0  0  0  0  0  0  0
   -5.3987   25.8910  -23.7565 N   0  0  0  0  0  0  0  0  0  0  0  0
   -5.3070   26.4297  -25.0575 C   0  0  0  0  0  0  0  0  0  0  0  0
   -4.3618   27.5098  -25.4251 C   0  0  0  0  0  0  0  0  0  0  0  0
   -6.0615   25.9747  -25.9514 O   0  0  0  0  0  0  0  0  0  0  0  0
   -4.7769   26.2620  -23.0092 H   0  0  0  0  0  0  0  0  0  0  0  0
   -8.4706   22.2742  -21.0217 C   0  0  0  0  0  0  0  0  0  0  0  0
   -8.5040   21.0258  -20.8325 O   0  0  0  0  0  0  0  0  0  0  0  0
   -9.5455   23.0384  -20.5602 O   0  0  0  0  0  0  0  0  0  0  0  0
   -9.9490   22.7460  -19.6653 H   0  0  0  0  0  0  0  0  0  0  0  0
   -5.3443   22.9763  -24.5853 O   0  0  0  0  0  0  0  0  0  0  0  0
   -3.9786   22.8317  -24.8501 C   0  0  0  0  0  0  0  0  0  0  0  0
   -3.4026   21.5016  -24.5668 C   0  0  0  0  0  0  0  0  0  0  0  0
   -2.4058   21.5724  -23.4083 C   0  0  0  0  0  0  0  0  0  0  0  0
   -3.5762   23.3909  -26.1434 C   0  0  0  0  0  0  0  0  0  0  0  0
   -2.7786   22.6917  -27.1514 C   0  0  0  0  0  0  0  0  0  0  0  0
   -3.0915   22.9551  -28.5618 C   0  0  0  0  0  0  0  0  0  0  0  0
   -4.2658   23.9922  -28.6466 C   0  0  0  0  0  0  0  0  0  0  0  0
   -5.3170   23.2986  -29.4896 C   0  0  0  0  0  0  0  0  0  0  0  0
   -5.0389   25.4405  -30.6106 C   0  0  0  0  0  0  0  0  0  0  0  0
   -5.6687   24.0857  -30.7166 C   0  0  0  0  0  0  0  0  0  0  0  0
 28 29  1  0  0  0
 29 27  1  0  0  0
 27 26  1  0  0  0
 26 25  1  0  0  0
 25 24  1  0  0  0
 24 23  1  0  0  0
 23 20  1  0  0  0
 20 21  1  0  0  0
 21 22  1  0  0  0
 20 19  1  0  0  0
 19  1  1  0  0  0
  1  2  1  0  0  0
  2  3  2  0  0  0
  3 15  1  0  0  0
 15 16  2  0  0  0
 15 17  1  0  0  0
  3  4  1  0  0  0
  4  5  1  0  0  0
  5  6  1  0  0  0
  5  7  1  0  0  0
  7 10  1  0  0  0
 10 11  1  0  0  0
 11 12  1  0  0  0
 11 13  2  0  0  0
  7  1  1  0  0  0
 17 18  1  0  0  0
  6  8  1  0  0  0
  6  9  1  0  0  0
 10 14  1  0  0  0
M  END
> <minimizedAffinity>
-6.68012

> <CNNscore>
0.5979861617

> <CNNaffinity>
6.1400222778

> <CNN_VS>
3.6716482639

> <CNNaffinity_variance>
0.2434208393

$$$$
[H]OC(=O)C1=C([H])[C@@]([H])(O[C@@]([H])(C([H])([H])C([H])([H])[H])C([H])([H])C([H])([H])C([H])([H])C([H])([H])C([H])([H])C([H])([H])C([H])([H])[H])[C@]([H])(N([H])C(=O)C([H])([H])[H])[C@@]([H])(N([H])[H])C1([H])[H]


 29 29  0  0  0  0  0  0  0  0999 V2000
   -5.6850   23.5555  -23.8880 C   0  0  0  0  0  0  0  0  0  0  0  0
   -6.8820   22.8550  -23.2744 C   0  0  0  0  0  0  0  0  0  0  0  0
   -7.0215   22.9156  -21.9497 C   0  0  0  0  0  0  0  0  0  0  0  0
   -5.9322   23.7167  -21.2736 C   0  0  0  0  0  0  0  0  0  0  0  0
   -6.0172   25.0802  -21.9097 C   0  0  0  0  0  0  0  0  0  0  0  0
   -7.2793   25.7169  -21.5454 N   0  0  0  0  0  0  0  0  0  0  0  0
   -5.8611   24.9770  -23.4018 C   0  0  0  0  0  0  0  0  0  0  0  0
   -7.7530   25.2013  -20.7714 H   0  0  0  0  0  0  0  0  0  0  0  0
   -7.0751   26.7061  -21.2096 H   0  0  0  0  0  0  0  0  0  0  0  0
   -4.7722   25.8622  -23.7455 N   0  0  0  0  0  0  0  0  0  0  0  0
   -4.8289   26.7618  -24.8312 C   0  0  0  0  0  0  0  0  0  0  0  0
   -3.7171   27.6728  -25.1907 C   0  0  0  0  0  0  0  0  0  0  0  0
   -5.8708   26.7960  -25.5301 O   0  0  0  0  0  0  0  0  0  0  0  0
   -3.9122   25.8270  -23.1607 H   0  0  0  0  0  0  0  0  0  0  0  0
   -8.0732   22.3244  -21.1796 C   0  0  0  0  0  0  0  0  0  0  0  0
   -8.3780   21.1004  -21.2440 O   0  0  0  0  0  0  0  0  0  0  0  0
   -8.8032   23.1391  -20.3102 O   0  0  0  0  0  0  0  0  0  0  0  0
   -9.0728   22.7118  -19.4191 H   0  0  0  0  0  0  0  0  0  0  0  0
   -5.7554   23.4103  -25.2310 O   0  0  0  0  0  0  0  0  0  0  0  0
   -4.6387   22.8922  -25.8949 C   0  0  0  0  0  0  0  0  0  0  0  0
   -3.8117   23.8711  -26.6293 C   0  0  0  0  0  0  0  0  0  0  0  0
   -4.5324   24.3625  -27.8862 C   0  0  0  0  0  0  0  0  0  0  0  0
   -3.8644   21.9518  -25.0805 C   0  0  0  0  0  0  0  0  0  0  0  0
   -2.5289   21.4535  -25.4108 C   0  0  0  0  0  0  0  0  0  0  0  0
   -1.4324   21.8054  -24.4995 C   0  0  0  0  0  0  0  0  0  0  0  0
   -0.3087   22.5481  -25.3041 C   0  0  0  0  0  0  0  0  0  0  0  0
   -0.3523   21.9138  -26.6797 C   0  0  0  0  0  0  0  0  0  0  0  0
   -0.5402   23.3513  -28.6342 C   0  0  0  0  0  0  0  0  0  0  0  0
    0.4253   22.7014  -27.6914 C   0  0  0  0  0  0  0  0  0  0  0  0
 28 29  1  0  0  0
 29 27  1  0  0  0
 27 26  1  0  0  0
 26 25  1  0  0  0
 25 24  1  0  0  0
 24 23  1  0  0  0
 23 20  1  0  0  0
 20 21  1  0  0  0
 21 22  1  0  0  0
 20 19  1  0  0  0
 19  1  1  0  0  0
  1  2  1  0  0  0
  2  3  2  0  0  0
  3 15  1  0  0  0
 15 16  2  0  0  0
 15 17  1  0  0  0
  3  4  1  0  0  0
  4  5  1  0  0  0
  5  6  1  0  0  0
  5  7  1  0  0  0
  7 10  1  0  0  0
 10 11  1  0  0  0
 11 12  1  0  0  0
 11 13  2  0  0  0
  7  1  1  0  0  0
 17 18  1  0  0  0
  6  8  1  0  0  0
  6  9  1  0  0  0
 10 14  1  0  0  0
M  END
> <minimizedAffinity>
-6.18158

> <CNNscore>
0.4551177919

> <CNNaffinity>
5.8912014961

> <CNN_VS>
2.6811907291

> <CNNaffinity_variance>
0.0852520689

$$$$
[H]OC(=O)C1=C([H])[C@@]([H])(O[C@@]([H])(C([H])([H])C([H])([H])[H])C([H])([H])C([H])([H])C([H])([H])C([H])([H])C([H])([H])C([H])([H])C([H])([H])[H])[C@]([H])(N([H])C(=O)C([H])([H])[H])[C@@]([H])(N([H])[H])C1([H])[H]


 29 29  0  0  0  0  0  0  0  0999 V2000
   -5.7087   23.1819  -24.4067 C   0  0  0  0  0  0  0  0  0  0  0  0
   -6.6055   22.4847  -23.4019 C   0  0  0  0  0  0  0  0  0  0  0  0
   -7.1699   23.2330  -22.4535 C   0  0  0  0  0  0  0  0  0  0  0  0
   -6.8169   24.6989  -22.5646 C   0  0  0  0  0  0  0  0  0  0  0  0
   -7.2817   25.0948  -23.9424 C   0  0  0  0  0  0  0  0  0  0  0  0
   -8.7377   25.0182  -24.0132 N   0  0  0  0  0  0  0  0  0  0  0  0
   -6.6316   24.2303  -24.9873 C   0  0  0  0  0  0  0  0  0  0  0  0
   -9.1572   24.9144  -23.0632 H   0  0  0  0  0  0  0  0  0  0  0  0
   -9.1040   25.9211  -24.4414 H   0  0  0  0  0  0  0  0  0  0  0  0
   -5.9920   25.1409  -25.9088 N   0  0  0  0  0  0  0  0  0  0  0  0
   -6.0414   24.9748  -27.3092 C   0  0  0  0  0  0  0  0  0  0  0  0
   -5.3884   25.9035  -28.2613 C   0  0  0  0  0  0  0  0  0  0  0  0
   -6.6685   23.9932  -27.7767 O   0  0  0  0  0  0  0  0  0  0  0  0
   -5.4742   25.9518  -25.5125 H   0  0  0  0  0  0  0  0  0  0  0  0
   -8.0418   22.7722  -21.4161 C   0  0  0  0  0  0  0  0  0  0  0  0
   -8.5708   23.5377  -20.5619 O   0  0  0  0  0  0  0  0  0  0  0  0
   -8.3255   21.4062  -21.3402 O   0  0  0  0  0  0  0  0  0  0  0  0
   -9.2851   21.1639  -21.0760 H   0  0  0  0  0  0  0  0  0  0  0  0
   -5.2784   22.2595  -25.2976 O   0  0  0  0  0  0  0  0  0  0  0  0
   -3.8988   22.0848  -25.4473 C   0  0  0  0  0  0  0  0  0  0  0  0
   -3.1811   23.1733  -26.1413 C   0  0  0  0  0  0  0  0  0  0  0  0
   -3.0879   22.8967  -27.6431 C   0  0  0  0  0  0  0  0  0  0  0  0
   -3.2369   21.6207  -24.2252 C   0  0  0  0  0  0  0  0  0  0  0  0
   -2.6609   22.4891  -23.1980 C   0  0  0  0  0  0  0  0  0  0  0  0
   -1.2218   22.7701  -23.2807 C   0  0  0  0  0  0  0  0  0  0  0  0
   -0.4432   21.4250  -23.4950 C   0  0  0  0  0  0  0  0  0  0  0  0
    0.7481   21.8142  -24.3470 C   0  0  0  0  0  0  0  0  0  0  0  0
    0.3846   22.0853  -26.7378 C   0  0  0  0  0  0  0  0  0  0  0  0
    0.3808   22.7959  -25.4194 C   0  0  0  0  0  0  0  0  0  0  0  0
 28 29  1  0  0  0
 29 27  1  0  0  0
 27 26  1  0  0  0
 26 25  1  0  0  0
 25 24  1  0  0  0
 24 23  1  0  0  0
 23 20  1  0  0  0
 20 21  1  0  0  0
 21 22  1  0  0  0
 20 19  1  0  0  0
 19  1  1  0  0  0
  1  2  1  0  0  0
  2  3  2  0  0  0
  3 15  1  0  0  0
 15 16  2  0  0  0
 15 17  1  0  0  0
  3  4  1  0  0  0
  4  5  1  0  0  0
  5  6  1  0  0  0
  5  7  1  0  0  0
  7 10  1  0  0  0
 10 11  1  0  0  0
 11 12  1  0  0  0
 11 13  2  0  0  0
  7  1  1  0  0  0
 17 18  1  0  0  0
  6  8  1  0  0  0
  6  9  1  0  0  0
 10 14  1  0  0  0
M  END
> <minimizedAffinity>
-6.39800

> <CNNscore>
0.4356243610

> <CNNaffinity>
5.8657464981

> <CNN_VS>
2.5552620888

> <CNNaffinity_variance>
0.2139751464

$$$$
[H]OC(=O)C1=C([H])[C@@]([H])(O[C@@]([H])(C([H])([H])C([H])([H])[H])C([H])([H])C([H])([H])C([H])([H])C([H])([H])C([H])([H])C([H])([H])C([H])([H])[H])[C@]([H])(N([H])C(=O)C([H])([H])[H])[C@@]([H])(N([H])[H])C1([H])[H]


 29 29  0  0  0  0  0  0  0  0999 V2000
   -6.0043   23.8636  -22.1159 C   0  0  0  0  0  0  0  0  0  0  0  0
   -7.2811   23.2970  -21.5255 C   0  0  0  0  0  0  0  0  0  0  0  0
   -8.0927   24.1390  -20.8850 C   0  0  0  0  0  0  0  0  0  0  0  0
   -7.5856   25.5632  -20.8778 C   0  0  0  0  0  0  0  0  0  0  0  0
   -7.4438   25.9200  -22.3351 C   0  0  0  0  0  0  0  0  0  0  0  0
   -8.7604   25.9577  -22.9644 N   0  0  0  0  0  0  0  0  0  0  0  0
   -6.5276   24.9501  -23.0290 C   0  0  0  0  0  0  0  0  0  0  0  0
   -9.5212   25.9401  -22.2501 H   0  0  0  0  0  0  0  0  0  0  0  0
   -8.8453   26.8627  -23.5182 H   0  0  0  0  0  0  0  0  0  0  0  0
   -5.4984   25.7544  -23.6467 N   0  0  0  0  0  0  0  0  0  0  0  0
   -5.6083   26.2656  -24.9574 C   0  0  0  0  0  0  0  0  0  0  0  0
   -4.5580   27.0909  -25.5984 C   0  0  0  0  0  0  0  0  0  0  0  0
   -6.6453   26.0114  -25.6171 O   0  0  0  0  0  0  0  0  0  0  0  0
   -4.6421   25.9600  -23.0925 H   0  0  0  0  0  0  0  0  0  0  0  0
   -9.3366   23.8075  -20.2592 C   0  0  0  0  0  0  0  0  0  0  0  0
  -10.4541   23.9043  -20.8399 O   0  0  0  0  0  0  0  0  0  0  0  0
   -9.3190   23.3527  -18.9381 O   0  0  0  0  0  0  0  0  0  0  0  0
   -9.9908   22.6133  -18.7119 H   0  0  0  0  0  0  0  0  0  0  0  0
   -5.3546   22.8622  -22.7523 O   0  0  0  0  0  0  0  0  0  0  0  0
   -3.9724   22.9841  -22.9286 C   0  0  0  0  0  0  0  0  0  0  0  0
   -3.2052   23.4158  -21.7427 C   0  0  0  0  0  0  0  0  0  0  0  0
   -1.7024   23.2407  -21.9698 C   0  0  0  0  0  0  0  0  0  0  0  0
   -3.3767   21.8514  -23.6423 C   0  0  0  0  0  0  0  0  0  0  0  0
   -3.5856   21.5442  -25.0576 C   0  0  0  0  0  0  0  0  0  0  0  0
   -2.6781   22.1729  -26.0261 C   0  0  0  0  0  0  0  0  0  0  0  0
   -3.2799   23.5483  -26.4820 C   0  0  0  0  0  0  0  0  0  0  0  0
   -4.7096   23.2226  -26.8645 C   0  0  0  0  0  0  0  0  0  0  0  0
   -4.9816   22.9268  -29.2645 C   0  0  0  0  0  0  0  0  0  0  0  0
   -5.1242   23.9011  -28.1359 C   0  0  0  0  0  0  0  0  0  0  0  0
 28 29  1  0  0  0
 29 27  1  0  0  0
 27 26  1  0  0  0
 26 25  1  0  0  0
 25 24  1  0  0  0
 24 23  1  0  0  0
 23 20  1  0  0  0
 20 21  1  0  0  0
 21 22  1  0  0  0
 20 19  1  0  0  0
 19  1  1  0  0  0
  1  2  1  0  0  0
  2  3  2  0  0  0
  3 15  1  0  0  0
 15 16  2  0  0  0
 15 17  1  0  0  0
  3  4  1  0  0  0
  4  5  1  0  0  0
  5  6  1  0  0  0
  5  7  1  0  0  0
  7 10  1  0  0  0
 10 11  1  0  0  0
 11 12  1  0  0  0
 11 13  2  0  0  0
  7  1  1  0  0  0
 17 18  1  0  0  0
  6  8  1  0  0  0
  6  9  1  0  0  0
 10 14  1  0  0  0
M  END
> <minimizedAffinity>
-6.14791

> <CNNscore>
0.4192730486

> <CNNaffinity>
5.8391580582

> <CNN_VS>
2.4482016563

> <CNNaffinity_variance>
0.5830104351

$$$$
[H]OC(=O)C1=C([H])[C@@]([H])(O[C@@]([H])(C([H])([H])C([H])([H])[H])C([H])([H])C([H])([H])C([H])([H])C([H])([H])C([H])([H])C([H])([H])C([H])([H])[H])[C@]([H])(N([H])C(=O)C([H])([H])[H])[C@@]([H])(N([H])[H])C1([H])[H]


 29 29  0  0  0  0  0  0  0  0999 V2000
   -5.9417   23.7561  -22.2147 C   0  0  0  0  0  0  0  0  0  0  0  0
   -7.2667   23.1475  -21.7975 C   0  0  0  0  0  0  0  0  0  0  0  0
   -8.1472   23.9420  -21.1881 C   0  0  0  0  0  0  0  0  0  0  0  0
   -7.6569   25.3637  -21.0332 C   0  0  0  0  0  0  0  0  0  0  0  0
   -7.3708   25.8190  -22.4410 C   0  0  0  0  0  0  0  0  0  0  0  0
   -8.6167   25.8960  -23.1977 N   0  0  0  0  0  0  0  0  0  0  0  0
   -6.3795   24.9008  -23.1013 C   0  0  0  0  0  0  0  0  0  0  0  0
   -9.4461   25.8280  -22.5678 H   0  0  0  0  0  0  0  0  0  0  0  0
   -8.6533   26.8363  -23.6950 H   0  0  0  0  0  0  0  0  0  0  0  0
   -5.3004   25.7478  -23.5549 N   0  0  0  0  0  0  0  0  0  0  0  0
   -5.3160   26.4074  -24.8022 C   0  0  0  0  0  0  0  0  0  0  0  0
   -4.2140   27.2775  -25.2753 C   0  0  0  0  0  0  0  0  0  0  0  0
   -6.3106   26.2527  -25.5520 O   0  0  0  0  0  0  0  0  0  0  0  0
   -4.4798   25.8702  -22.9269 H   0  0  0  0  0  0  0  0  0  0  0  0
   -9.4452   23.5656  -20.7166 C   0  0  0  0  0  0  0  0  0  0  0  0
   -9.6703   22.4989  -20.0787 O   0  0  0  0  0  0  0  0  0  0  0  0
  -10.5218   24.4187  -20.9725 O   0  0  0  0  0  0  0  0  0  0  0  0
  -11.2147   24.4999  -20.2225 H   0  0  0  0  0  0  0  0  0  0  0  0
   -5.2211   22.8019  -22.8472 O   0  0  0  0  0  0  0  0  0  0  0  0
   -4.0097   22.4046  -22.2720 C   0  0  0  0  0  0  0  0  0  0  0  0
   -4.0948   21.8460  -20.9074 C   0  0  0  0  0  0  0  0  0  0  0  0
   -2.7676   22.0117  -20.1646 C   0  0  0  0  0  0  0  0  0  0  0  0
   -3.1633   21.6273  -23.1811 C   0  0  0  0  0  0  0  0  0  0  0  0
   -1.9649   22.1309  -23.8528 C   0  0  0  0  0  0  0  0  0  0  0  0
   -0.6709   21.5836  -23.4253 C   0  0  0  0  0  0  0  0  0  0  0  0
    0.3811   21.7863  -24.5716 C   0  0  0  0  0  0  0  0  0  0  0  0
   -0.4372   22.2827  -25.7466 C   0  0  0  0  0  0  0  0  0  0  0  0
    0.1204   22.5797  -28.0966 C   0  0  0  0  0  0  0  0  0  0  0  0
    0.3852   23.0838  -26.7113 C   0  0  0  0  0  0  0  0  0  0  0  0
 28 29  1  0  0  0
 29 27  1  0  0  0
 27 26  1  0  0  0
 26 25  1  0  0  0
 25 24  1  0  0  0
 24 23  1  0  0  0
 23 20  1  0  0  0
 20 21  1  0  0  0
 21 22  1  0  0  0
 20 19  1  0  0  0
 19  1  1  0  0  0
  1  2  1  0  0  0
  2  3  2  0  0  0
  3 15  1  0  0  0
 15 16  2  0  0  0
 15 17  1  0  0  0
  3  4  1  0  0  0
  4  5  1  0  0  0
  5  6  1  0  0  0
  5  7  1  0  0  0
  7 10  1  0  0  0
 10 11  1  0  0  0
 11 12  1  0  0  0
 11 13  2  0  0  0
  7  1  1  0  0  0
 17 18  1  0  0  0
  6  8  1  0  0  0
  6  9  1  0  0  0
 10 14  1  0  0  0
M  END
> <minimizedAffinity>
-6.04338

> <CNNscore>
0.4062687159

> <CNNaffinity>
5.6510887146

> <CNN_VS>
2.2958605289

> <CNNaffinity_variance>
0.5663917065

$$$$
[H]OC(=O)C1=C([H])[C@@]([H])(O[C@@]([H])(C([H])([H])C([H])([H])[H])C([H])([H])C([H])([H])C([H])([H])C([H])([H])C([H])([H])C([H])([H])C([H])([H])[H])[C@]([H])(N([H])C(=O)C([H])([H])[H])[C@@]([H])(N([H])[H])C1([H])[H]


 29 29  0  0  0  0  0  0  0  0999 V2000
   -4.4181   22.1546  -24.4950 C   0  0  0  0  0  0  0  0  0  0  0  0
   -5.1680   23.1189  -25.3938 C   0  0  0  0  0  0  0  0  0  0  0  0
   -6.1632   23.8218  -24.8522 C   0  0  0  0  0  0  0  0  0  0  0  0
   -6.3611   23.5354  -23.3811 C   0  0  0  0  0  0  0  0  0  0  0  0
   -5.0328   23.8662  -22.7509 C   0  0  0  0  0  0  0  0  0  0  0  0
   -4.7790   25.2997  -22.8580 N   0  0  0  0  0  0  0  0  0  0  0  0
   -3.9324   23.0615  -23.3861 C   0  0  0  0  0  0  0  0  0  0  0  0
   -5.6387   25.8149  -23.1491 H   0  0  0  0  0  0  0  0  0  0  0  0
   -4.4811   25.6632  -21.9030 H   0  0  0  0  0  0  0  0  0  0  0  0
   -3.2722   22.3728  -22.3010 N   0  0  0  0  0  0  0  0  0  0  0  0
   -2.2584   22.9671  -21.5198 C   0  0  0  0  0  0  0  0  0  0  0  0
   -1.5762   22.2682  -20.4056 C   0  0  0  0  0  0  0  0  0  0  0  0
   -1.9139   24.1462  -21.7774 O   0  0  0  0  0  0  0  0  0  0  0  0
   -3.5640   21.3956  -22.0946 H   0  0  0  0  0  0  0  0  0  0  0  0
   -6.9907   24.7772  -25.5242 C   0  0  0  0  0  0  0  0  0  0  0  0
   -7.5440   24.5557  -26.6378 O   0  0  0  0  0  0  0  0  0  0  0  0
   -7.2003   26.0201  -24.9211 O   0  0  0  0  0  0  0  0  0  0  0  0
   -8.1408   26.4128  -25.0239 H   0  0  0  0  0  0  0  0  0  0  0  0
   -3.4319   21.5820  -25.2224 O   0  0  0  0  0  0  0  0  0  0  0  0
   -2.4507   22.4154  -25.7691 C   0  0  0  0  0  0  0  0  0  0  0  0
   -1.1339   22.3881  -25.1008 C   0  0  0  0  0  0  0  0  0  0  0  0
    0.0009   22.4489  -26.1251 C   0  0  0  0  0  0  0  0  0  0  0  0
   -2.3773   22.3434  -27.2309 C   0  0  0  0  0  0  0  0  0  0  0  0
   -3.0196   23.2804  -28.1532 C   0  0  0  0  0  0  0  0  0  0  0  0
   -4.1501   22.7799  -28.9457 C   0  0  0  0  0  0  0  0  0  0  0  0
   -5.1187   23.9696  -29.2747 C   0  0  0  0  0  0  0  0  0  0  0  0
   -4.2499   25.2048  -29.1484 C   0  0  0  0  0  0  0  0  0  0  0  0
   -5.4047   25.7261  -31.2261 C   0  0  0  0  0  0  0  0  0  0  0  0
   -4.1528   25.9631  -30.4386 C   0  0  0  0  0  0  0  0  0  0  0  0
 28 29  1  0  0  0
 29 27  1  0  0  0
 27 26  1  0  0  0
 26 25  1  0  0  0
 25 24  1  0  0  0
 24 23  1  0  0  0
 23 20  1  0  0  0
 20 21  1  0  0  0
 21 22  1  0  0  0
 20 19  1  0  0  0
 19  1  1  0  0  0
  1  2  1  0  0  0
  2  3  2  0  0  0
  3 15  1  0  0  0
 15 16  2  0  0  0
 15 17  1  0  0  0
  3  4  1  0  0  0
  4  5  1  0  0  0
  5  6  1  0  0  0
  5  7  1  0  0  0
  7 10  1  0  0  0
 10 11  1  0  0  0
 11 12  1  0  0  0
 11 13  2  0  0  0
  7  1  1  0  0  0
 17 18  1  0  0  0
  6  8  1  0  0  0
  6  9  1  0  0  0
 10 14  1  0  0  0
M  END
> <minimizedAffinity>
-7.20979

> <CNNscore>
0.3847930431

> <CNNaffinity>
6.1036314964

> <CNN_VS>
2.3486349583

> <CNNaffinity_variance>
0.4005597234

$$$$
[H]OC(=O)C1=C([H])[C@@]([H])(O[C@@]([H])(C([H])([H])C([H])([H])[H])C([H])([H])C([H])([H])C([H])([H])C([H])([H])C([H])([H])C([H])([H])C([H])([H])[H])[C@]([H])(N([H])C(=O)C([H])([H])[H])[C@@]([H])(N([H])[H])C1([H])[H]


 29 29  0  0  0  0  0  0  0  0999 V2000
   -6.3129   23.5619  -22.8960 C   0  0  0  0  0  0  0  0  0  0  0  0
   -7.5554   23.0655  -22.1822 C   0  0  0  0  0  0  0  0  0  0  0  0
   -7.7910   23.5312  -20.9552 C   0  0  0  0  0  0  0  0  0  0  0  0
   -6.7495   24.5212  -20.4853 C   0  0  0  0  0  0  0  0  0  0  0  0
   -6.7802   25.6187  -21.5176 C   0  0  0  0  0  0  0  0  0  0  0  0
   -8.0619   26.3150  -21.4597 N   0  0  0  0  0  0  0  0  0  0  0  0
   -6.5161   25.0608  -22.8889 C   0  0  0  0  0  0  0  0  0  0  0  0
   -8.5938   26.0565  -20.5998 H   0  0  0  0  0  0  0  0  0  0  0  0
   -7.8772   27.3629  -21.4340 H   0  0  0  0  0  0  0  0  0  0  0  0
   -5.4000   25.8146  -23.4120 N   0  0  0  0  0  0  0  0  0  0  0  0
   -5.4220   26.4386  -24.6775 C   0  0  0  0  0  0  0  0  0  0  0  0
   -4.2821   27.2132  -25.2216 C   0  0  0  0  0  0  0  0  0  0  0  0
   -6.4562   26.3353  -25.3811 O   0  0  0  0  0  0  0  0  0  0  0  0
   -4.5466   25.8949  -22.8220 H   0  0  0  0  0  0  0  0  0  0  0  0
   -8.8995   23.1897  -20.1165 C   0  0  0  0  0  0  0  0  0  0  0  0
   -9.3648   22.0193  -20.0222 O   0  0  0  0  0  0  0  0  0  0  0  0
   -9.5011   24.1996  -19.3611 O   0  0  0  0  0  0  0  0  0  0  0  0
   -9.8108   23.9302  -18.4225 H   0  0  0  0  0  0  0  0  0  0  0  0
   -6.2858   23.0063  -24.1291 O   0  0  0  0  0  0  0  0  0  0  0  0
   -5.0395   22.6915  -24.6802 C   0  0  0  0  0  0  0  0  0  0  0  0
   -4.5391   21.3284  -24.4099 C   0  0  0  0  0  0  0  0  0  0  0  0
   -3.2958   21.3687  -23.5193 C   0  0  0  0  0  0  0  0  0  0  0  0
   -4.9010   23.1095  -26.0777 C   0  0  0  0  0  0  0  0  0  0  0  0
   -3.7073   23.7256  -26.6578 C   0  0  0  0  0  0  0  0  0  0  0  0
   -2.9969   22.9722  -27.6992 C   0  0  0  0  0  0  0  0  0  0  0  0
   -1.9401   22.0284  -27.0255 C   0  0  0  0  0  0  0  0  0  0  0  0
   -0.6689   22.8528  -26.9936 C   0  0  0  0  0  0  0  0  0  0  0  0
    0.1748   21.9089  -24.9155 C   0  0  0  0  0  0  0  0  0  0  0  0
    0.4734   22.1083  -26.3696 C   0  0  0  0  0  0  0  0  0  0  0  0
 28 29  1  0  0  0
 29 27  1  0  0  0
 27 26  1  0  0  0
 26 25  1  0  0  0
 25 24  1  0  0  0
 24 23  1  0  0  0
 23 20  1  0  0  0
 20 21  1  0  0  0
 21 22  1  0  0  0
 20 19  1  0  0  0
 19  1  1  0  0  0
  1  2  1  0  0  0
  2  3  2  0  0  0
  3 15  1  0  0  0
 15 16  2  0  0  0
 15 17  1  0  0  0
  3  4  1  0  0  0
  4  5  1  0  0  0
  5  6  1  0  0  0
  5  7  1  0  0  0
  7 10  1  0  0  0
 10 11  1  0  0  0
 11 12  1  0  0  0
 11 13  2  0  0  0
  7  1  1  0  0  0
 17 18  1  0  0  0
  6  8  1  0  0  0
  6  9  1  0  0  0
 10 14  1  0  0  0
M  END
> <minimizedAffinity>
-6.64229

> <CNNscore>
0.3757015467

> <CNNaffinity>
5.6670899391

> <CNN_VS>
2.1291344166

> <CNNaffinity_variance>
0.2816570401

$$$$
[H]OC(=O)C1=C([H])[C@@]([H])(O[C@@]([H])(C([H])([H])C([H])([H])[H])C([H])([H])C([H])([H])C([H])([H])C([H])([H])C([H])([H])C([H])([H])C([H])([H])[H])[C@]([H])(N([H])C(=O)C([H])([H])[H])[C@@]([H])(N([H])[H])C1([H])[H]


 29 29  0  0  0  0  0  0  0  0999 V2000
   -4.2525   24.8701  -25.2695 C   0  0  0  0  0  0  0  0  0  0  0  0
   -5.1346   24.4230  -24.1198 C   0  0  0  0  0  0  0  0  0  0  0  0
   -6.2025   25.1685  -23.8339 C   0  0  0  0  0  0  0  0  0  0  0  0
   -6.3591   26.3591  -24.7523 C   0  0  0  0  0  0  0  0  0  0  0  0
   -6.4456   25.7611  -26.1329 C   0  0  0  0  0  0  0  0  0  0  0  0
   -7.6747   24.9836  -26.2578 N   0  0  0  0  0  0  0  0  0  0  0  0
   -5.2305   24.9236  -26.4222 C   0  0  0  0  0  0  0  0  0  0  0  0
   -8.3232   25.1715  -25.4619 H   0  0  0  0  0  0  0  0  0  0  0  0
   -8.1644   25.2667  -27.1595 H   0  0  0  0  0  0  0  0  0  0  0  0
   -4.6752   25.4469  -27.6492 N   0  0  0  0  0  0  0  0  0  0  0  0
   -5.1149   25.0368  -28.9258 C   0  0  0  0  0  0  0  0  0  0  0  0
   -4.5511   25.5679  -30.1889 C   0  0  0  0  0  0  0  0  0  0  0  0
   -6.0288   24.1797  -29.0006 O   0  0  0  0  0  0  0  0  0  0  0  0
   -3.9179   26.1569  -27.5777 H   0  0  0  0  0  0  0  0  0  0  0  0
   -7.1548   24.9229  -22.7938 C   0  0  0  0  0  0  0  0  0  0  0  0
   -6.8329   24.7374  -21.5866 O   0  0  0  0  0  0  0  0  0  0  0  0
   -8.5115   24.8855  -23.1261 O   0  0  0  0  0  0  0  0  0  0  0  0
   -9.1505   25.2962  -22.4388 H   0  0  0  0  0  0  0  0  0  0  0  0
   -3.2616   23.9612  -25.4176 O   0  0  0  0  0  0  0  0  0  0  0  0
   -3.2171   22.8868  -24.5233 C   0  0  0  0  0  0  0  0  0  0  0  0
   -3.5814   21.5678  -25.0791 C   0  0  0  0  0  0  0  0  0  0  0  0
   -4.6136   20.8671  -24.1936 C   0  0  0  0  0  0  0  0  0  0  0  0
   -2.0076   22.8702  -23.6963 C   0  0  0  0  0  0  0  0  0  0  0  0
   -0.8512   22.0003  -23.9135 C   0  0  0  0  0  0  0  0  0  0  0  0
    0.2195   22.5048  -24.7828 C   0  0  0  0  0  0  0  0  0  0  0  0
   -0.0000   21.9665  -26.2401 C   0  0  0  0  0  0  0  0  0  0  0  0
    0.4213   23.1175  -27.1313 C   0  0  0  0  0  0  0  0  0  0  0  0
   -1.7725   22.9876  -28.1765 C   0  0  0  0  0  0  0  0  0  0  0  0
   -0.3040   23.1122  -28.4438 C   0  0  0  0  0  0  0  0  0  0  0  0
 28 29  1  0  0  0
 29 27  1  0  0  0
 27 26  1  0  0  0
 26 25  1  0  0  0
 25 24  1  0  0  0
 24 23  1  0  0  0
 23 20  1  0  0  0
 20 21  1  0  0  0
 21 22  1  0  0  0
 20 19  1  0  0  0
 19  1  1  0  0  0
  1  2  1  0  0  0
  2  3  2  0  0  0
  3 15  1  0  0  0
 15 16  2  0  0  0
 15 17  1  0  0  0
  3  4  1  0  0  0
  4  5  1  0  0  0
  5  6  1  0  0  0
  5  7  1  0  0  0
  7 10  1  0  0  0
 10 11  1  0  0  0
 11 12  1  0  0  0
 11 13  2  0  0  0
  7  1  1  0  0  0
 17 18  1  0  0  0
  6  8  1  0  0  0
  6  9  1  0  0  0
 10 14  1  0  0  0
M  END
> <minimizedAffinity>
-6.86921

> <CNNscore>
0.3714785278

> <CNNaffinity>
6.2695283890

> <CNN_VS>
2.3289952278

> <CNNaffinity_variance>
0.0883004740

$$$$
[H]OC(=O)C1=C([H])[C@@]([H])(O[C@@]([H])(C([H])([H])C([H])([H])[H])C([H])([H])C([H])([H])C([H])([H])C([H])([H])C([H])([H])C([H])([H])C([H])([H])[H])[C@]([H])(N([H])C(=O)C([H])([H])[H])[C@@]([H])(N([H])[H])C1([H])[H]


 29 29  0  0  0  0  0  0  0  0999 V2000
   -3.5230   23.5161  -23.8731 C   0  0  0  0  0  0  0  0  0  0  0  0
   -3.7181   23.7483  -22.3872 C   0  0  0  0  0  0  0  0  0  0  0  0
   -3.5428   22.7086  -21.5709 C   0  0  0  0  0  0  0  0  0  0  0  0
   -3.1481   21.4428  -22.2972 C   0  0  0  0  0  0  0  0  0  0  0  0
   -1.8789   21.8058  -23.0241 C   0  0  0  0  0  0  0  0  0  0  0  0
   -0.8164   22.0720  -22.0592 N   0  0  0  0  0  0  0  0  0  0  0  0
   -2.1086   22.9829  -23.9314 C   0  0  0  0  0  0  0  0  0  0  0  0
   -1.0883   21.7582  -21.1016 H   0  0  0  0  0  0  0  0  0  0  0  0
    0.0513   21.5298  -22.3527 H   0  0  0  0  0  0  0  0  0  0  0  0
   -1.6885   22.5543  -25.2457 N   0  0  0  0  0  0  0  0  0  0  0  0
   -0.3369   22.5366  -25.6508 C   0  0  0  0  0  0  0  0  0  0  0  0
    0.1026   22.0989  -26.9963 C   0  0  0  0  0  0  0  0  0  0  0  0
    0.5405   22.9092  -24.8343 O   0  0  0  0  0  0  0  0  0  0  0  0
   -2.4227   22.2473  -25.9162 H   0  0  0  0  0  0  0  0  0  0  0  0
   -3.6796   22.7162  -20.1461 C   0  0  0  0  0  0  0  0  0  0  0  0
   -4.6931   23.1748  -19.5478 O   0  0  0  0  0  0  0  0  0  0  0  0
   -2.6414   22.1902  -19.3729 O   0  0  0  0  0  0  0  0  0  0  0  0
   -2.9267   21.6673  -18.5395 H   0  0  0  0  0  0  0  0  0  0  0  0
   -3.7034   24.6955  -24.5104 O   0  0  0  0  0  0  0  0  0  0  0  0
   -4.9716   24.9733  -25.0309 C   0  0  0  0  0  0  0  0  0  0  0  0
   -5.0877   26.2151  -25.8219 C   0  0  0  0  0  0  0  0  0  0  0  0
   -4.1694   27.3055  -25.2665 C   0  0  0  0  0  0  0  0  0  0  0  0
   -5.6109   23.8104  -25.6523 C   0  0  0  0  0  0  0  0  0  0  0  0
   -5.6116   23.5159  -27.0856 C   0  0  0  0  0  0  0  0  0  0  0  0
   -4.3597   23.0233  -27.6743 C   0  0  0  0  0  0  0  0  0  0  0  0
   -4.3624   23.3155  -29.2158 C   0  0  0  0  0  0  0  0  0  0  0  0
   -5.2063   24.5661  -29.3579 C   0  0  0  0  0  0  0  0  0  0  0  0
   -5.2486   26.0426  -31.2917 C   0  0  0  0  0  0  0  0  0  0  0  0
   -4.4737   25.6661  -30.0665 C   0  0  0  0  0  0  0  0  0  0  0  0
 28 29  1  0  0  0
 29 27  1  0  0  0
 27 26  1  0  0  0
 26 25  1  0  0  0
 25 24  1  0  0  0
 24 23  1  0  0  0
 23 20  1  0  0  0
 20 21  1  0  0  0
 21 22  1  0  0  0
 20 19  1  0  0  0
 19  1  1  0  0  0
  1  2  1  0  0  0
  2  3  2  0  0  0
  3 15  1  0  0  0
 15 16  2  0  0  0
 15 17  1  0  0  0
  3  4  1  0  0  0
  4  5  1  0  0  0
  5  6  1  0  0  0
  5  7  1  0  0  0
  7 10  1  0  0  0
 10 11  1  0  0  0
 11 12  1  0  0  0
 11 13  2  0  0  0
  7  1  1  0  0  0
 17 18  1  0  0  0
  6  8  1  0  0  0
  6  9  1  0  0  0
 10 14  1  0  0  0
M  END
> <minimizedAffinity>
-6.19287

> <CNNscore>
0.3512014747

> <CNNaffinity>
6.1611700058

> <CNN_VS>
2.1638119221

> <CNNaffinity_variance>
0.1930891424

$$$$
[H]c1c([H])c(-c2c([H])c([H])c(C([H])(C(=O)N([H])C([H])([H])C([H])([H])C([H])([H])C([H])([H])C([H])([H])C([H])([H])N([H])c3c4c(nc5c([H])c([H])c([H])c([H])c35)C([H])([H])C([H])([H])C([H])([H])C4([H])[H])C([H])([H])[H])c([H])c2F)c([H])c([H])c1OC([H])([H])C([H])([H])C([H])([H])C([H])([H])C([H])([H])C([H])([H])O[N+](=O)[O-]


 52 56  0  0  0  0  0  0  0  0999 V2000
    1.3130   21.1444  -20.1051 C   0  0  0  0  0  0  0  0  0  0  0  0
    1.9413   20.7071  -21.4249 C   0  0  0  0  0  0  0  0  0  0  0  0
    1.0038   21.0837  -22.5005 C   0  0  0  0  0  0  0  0  0  0  0  0
    1.5015   21.4640  -23.7245 C   0  0  0  0  0  0  0  0  0  0  0  0
    0.6590   21.8463  -24.7695 C   0  0  0  0  0  0  0  0  0  0  0  0
   -0.6862   21.8422  -24.5716 C   0  0  0  0  0  0  0  0  0  0  0  0
   -1.2042   21.4658  -23.3566 C   0  0  0  0  0  0  0  0  0  0  0  0
   -2.5412   21.4621  -23.1408 F   0  0  0  0  0  0  0  0  0  0  0  0
   -0.3511   21.0834  -22.3125 C   0  0  0  0  0  0  0  0  0  0  0  0
   -1.5864   22.2293  -25.6420 C   0  0  0  0  0  0  0  0  0  0  0  0
   -2.9511   22.2764  -25.4664 C   0  0  0  0  0  0  0  0  0  0  0  0
   -3.7958   22.6592  -26.5133 C   0  0  0  0  0  0  0  0  0  0  0  0
   -3.3249   23.0042  -27.7570 C   0  0  0  0  0  0  0  0  0  0  0  0
   -1.9255   22.9516  -27.9202 C   0  0  0  0  0  0  0  0  0  0  0  0
   -1.1141   22.5759  -26.8874 C   0  0  0  0  0  0  0  0  0  0  0  0
   -4.0829   23.3846  -28.8351 O   0  0  0  0  0  0  0  0  0  0  0  0
   -4.2346   24.6700  -29.3477 C   0  0  0  0  0  0  0  0  0  0  0  0
   -5.6461   25.1349  -29.1823 C   0  0  0  0  0  0  0  0  0  0  0  0
   -5.9357   25.4406  -27.7423 C   0  0  0  0  0  0  0  0  0  0  0  0
   -4.8475   26.2689  -27.1508 C   0  0  0  0  0  0  0  0  0  0  0  0
   -4.7637   26.1600  -25.6498 C   0  0  0  0  0  0  0  0  0  0  0  0
   -5.7540   27.0955  -25.0193 C   0  0  0  0  0  0  0  0  0  0  0  0
   -6.7119   26.3085  -24.2895 O   0  0  0  0  0  0  0  0  0  0  0  0
   -6.2622   25.1024  -23.8091 N   0  0  0  0  0  0  0  0  0  0  0  0
   -6.5307   24.0205  -24.3637 O   0  0  0  0  0  0  0  0  0  0  0  0
   -5.4880   25.1556  -22.6650 O   0  0  0  0  0  0  0  0  0  0  0  0
    2.3627   19.3078  -21.4146 C   0  0  0  0  0  0  0  0  0  0  0  0
    1.8797   18.4962  -20.5485 O   0  0  0  0  0  0  0  0  0  0  0  0
    3.2952   18.7419  -22.3139 N   0  0  0  0  0  0  0  0  0  0  0  0
    3.7141   19.3628  -23.0362 H   0  0  0  0  0  0  0  0  0  0  0  0
    3.6964   17.3616  -22.2936 C   0  0  0  0  0  0  0  0  0  0  0  0
    5.1931   17.1971  -22.1833 C   0  0  0  0  0  0  0  0  0  0  0  0
    5.8466   18.5521  -21.9975 C   0  0  0  0  0  0  0  0  0  0  0  0
    6.9208   18.3790  -20.9220 C   0  0  0  0  0  0  0  0  0  0  0  0
    6.5673   19.1118  -19.6847 C   0  0  0  0  0  0  0  0  0  0  0  0
    5.4746   20.0872  -19.8038 C   0  0  0  0  0  0  0  0  0  0  0  0
    5.7815   21.4164  -20.1220 N   0  0  0  0  0  0  0  0  0  0  0  0
    5.5662   21.7113  -21.1476 H   0  0  0  0  0  0  0  0  0  0  0  0
    6.3213   22.4643  -19.3738 C   0  0  0  0  0  0  0  0  0  0  0  0
    5.5132   23.1681  -18.5031 C   0  0  0  0  0  0  0  0  0  0  0  0
    6.0571   24.1687  -17.7321 C   0  0  0  0  0  0  0  0  0  0  0  0
    7.3874   24.4478  -17.8405 N   0  0  0  0  0  0  0  0  0  0  0  0
    8.2062   23.7877  -18.6728 C   0  0  0  0  0  0  0  0  0  0  0  0
    9.5449   24.0855  -18.7611 C   0  0  0  0  0  0  0  0  0  0  0  0
   10.3677   23.4018  -19.6108 C   0  0  0  0  0  0  0  0  0  0  0  0
    9.8211   22.3985  -20.3837 C   0  0  0  0  0  0  0  0  0  0  0  0
    8.4949   22.0843  -20.3141 C   0  0  0  0  0  0  0  0  0  0  0  0
    7.6681   22.7833  -19.4495 C   0  0  0  0  0  0  0  0  0  0  0  0
    5.1985   24.9260  -16.8153 C   0  0  0  0  0  0  0  0  0  0  0  0
    4.0236   24.1908  -16.2711 C   0  0  0  0  0  0  0  0  0  0  0  0
    3.8155   22.8166  -16.8439 C   0  0  0  0  0  0  0  0  0  0  0  0
    4.0669   22.8766  -18.3529 C   0  0  0  0  0  0  0  0  0  0  0  0
  1  2  1  0  0  0
  2 27  1  0  0  0
 27 28  2  0  0  0
 27 29  1  0  0  0
 29 31  1  0  0  0
 31 32  1  0  0  0
 32 33  1  0  0  0
 33 34  1  0  0  0
 34 35  1  0  0  0
 35 36  1  0  0  0
 36 37  1  0  0  0
 37 39  1  0  0  0
 39 40  2  0  0  0
 40 41  1  0  0  0
 41 42  2  0  0  0
 42 43  1  0  0  0
 43 44  2  0  0  0
 44 45  1  0  0  0
 45 46  2  0  0  0
 46 47  1  0  0  0
 47 48  2  0  0  0
 41 49  1  0  0  0
 49 50  1  0  0  0
 50 51  1  0  0  0
 51 52  1  0  0  0
  2  3  1  0  0  0
  3  4  2  0  0  0
  4  5  1  0  0  0
  5  6  2  0  0  0
  6 10  1  0  0  0
 10 11  2  0  0  0
 11 12  1  0  0  0
 12 13  2  0  0  0
 13 16  1  0  0  0
 16 17  1  0  0  0
 17 18  1  0  0  0
 18 19  1  0  0  0
 19 20  1  0  0  0
 20 21  1  0  0  0
 21 22  1  0  0  0
 22 23  1  0  0  0
 23 24  1  0  0  0
 24 25  2  0  0  0
 24 26  1  0  0  0
 13 14  1  0  0  0
 14 15  2  0  0  0
  6  7  1  0  0  0
  7  8  1  0  0  0
  7  9  2  0  0  0
 48 39  1  0  0  0
  9  3  1  0  0  0
 52 40  1  0  0  0
 15 10  1  0  0  0
 48 43  1  0  0  0
 29 30  1  0  0  0
 37 38  1  0  0  0
M  CHG 1  24   1
M  CHG 1  26  -1
M  END
> <minimizedAffinity>
-8.49776

> <CNNscore>
0.2481840104

> <CNNaffinity>
6.9412093163

> <CNN_VS>
1.7226971388

> <CNNaffinity_variance>
0.6084900498

$$$$
[H]c1c([H])c(-c2c([H])c([H])c(C([H])(C(=O)N([H])C([H])([H])C([H])([H])C([H])([H])C([H])([H])C([H])([H])C([H])([H])N([H])c3c4c(nc5c([H])c([H])c([H])c([H])c35)C([H])([H])C([H])([H])C([H])([H])C4([H])[H])C([H])([H])[H])c([H])c2F)c([H])c([H])c1OC([H])([H])C([H])([H])C([H])([H])C([H])([H])C([H])([H])C([H])([H])O[N+](=O)[O-]


 52 56  0  0  0  0  0  0  0  0999 V2000
   -2.9604   22.9485  -28.6348 C   0  0  0  0  0  0  0  0  0  0  0  0
   -3.2483   23.5194  -27.2496 C   0  0  0  0  0  0  0  0  0  0  0  0
   -2.2148   22.9928  -26.3372 C   0  0  0  0  0  0  0  0  0  0  0  0
   -2.4204   23.0565  -24.9791 C   0  0  0  0  0  0  0  0  0  0  0  0
   -1.4675   22.5889  -24.0728 C   0  0  0  0  0  0  0  0  0  0  0  0
   -0.3085   22.0576  -24.5450 C   0  0  0  0  0  0  0  0  0  0  0  0
   -0.0831   21.9845  -25.8978 C   0  0  0  0  0  0  0  0  0  0  0  0
    1.0685   21.4639  -26.3846 F   0  0  0  0  0  0  0  0  0  0  0  0
   -1.0452   22.4565  -26.8010 C   0  0  0  0  0  0  0  0  0  0  0  0
    0.6976   21.5584  -23.6261 C   0  0  0  0  0  0  0  0  0  0  0  0
    2.0129   21.3987  -24.0006 C   0  0  0  0  0  0  0  0  0  0  0  0
    2.9638   20.9215  -23.0928 C   0  0  0  0  0  0  0  0  0  0  0  0
    2.6499   20.5884  -21.7974 C   0  0  0  0  0  0  0  0  0  0  0  0
    1.2995   20.7582  -21.4296 C   0  0  0  0  0  0  0  0  0  0  0  0
    0.3830   21.2258  -22.3281 C   0  0  0  0  0  0  0  0  0  0  0  0
    3.5181   20.1103  -20.8492 O   0  0  0  0  0  0  0  0  0  0  0  0
    3.9336   20.7527  -19.6860 C   0  0  0  0  0  0  0  0  0  0  0  0
    5.2867   20.2664  -19.2758 C   0  0  0  0  0  0  0  0  0  0  0  0
    6.2317   21.4188  -19.1034 C   0  0  0  0  0  0  0  0  0  0  0  0
    5.5218   22.6022  -18.5415 C   0  0  0  0  0  0  0  0  0  0  0  0
    5.6676   22.7312  -17.0468 C   0  0  0  0  0  0  0  0  0  0  0  0
    6.3481   24.0276  -16.7157 C   0  0  0  0  0  0  0  0  0  0  0  0
    7.1917   23.8110  -15.5706 O   0  0  0  0  0  0  0  0  0  0  0  0
    8.4339   24.3963  -15.6161 N   0  0  0  0  0  0  0  0  0  0  0  0
    9.2902   24.0809  -16.4631 O   0  0  0  0  0  0  0  0  0  0  0  0
    8.6840   25.3638  -14.6609 O   0  0  0  0  0  0  0  0  0  0  0  0
   -4.6314   23.3088  -26.8272 C   0  0  0  0  0  0  0  0  0  0  0  0
   -5.5932   23.5041  -27.6512 O   0  0  0  0  0  0  0  0  0  0  0  0
   -5.0229   22.8891  -25.5353 N   0  0  0  0  0  0  0  0  0  0  0  0
   -4.2759   22.7170  -24.8316 H   0  0  0  0  0  0  0  0  0  0  0  0
   -6.3884   22.6821  -25.1362 C   0  0  0  0  0  0  0  0  0  0  0  0
   -6.5042   21.8316  -23.8942 C   0  0  0  0  0  0  0  0  0  0  0  0
   -5.2047   21.0879  -23.6577 C   0  0  0  0  0  0  0  0  0  0  0  0
   -4.6431   21.5948  -22.3280 C   0  0  0  0  0  0  0  0  0  0  0  0
   -5.7198   21.8019  -21.3325 C   0  0  0  0  0  0  0  0  0  0  0  0
   -5.4770   22.8482  -20.3295 C   0  0  0  0  0  0  0  0  0  0  0  0
   -5.9467   24.1453  -20.5730 N   0  0  0  0  0  0  0  0  0  0  0  0
   -5.7787   24.8599  -19.7691 H   0  0  0  0  0  0  0  0  0  0  0  0
   -6.6030   24.7211  -21.6624 C   0  0  0  0  0  0  0  0  0  0  0  0
   -7.9826   24.7748  -21.6774 C   0  0  0  0  0  0  0  0  0  0  0  0
   -8.6260   25.3848  -22.7288 C   0  0  0  0  0  0  0  0  0  0  0  0
   -7.8886   25.9279  -23.7392 N   0  0  0  0  0  0  0  0  0  0  0  0
   -6.5479   25.8977  -23.7620 C   0  0  0  0  0  0  0  0  0  0  0  0
   -5.8271   26.4557  -24.7904 C   0  0  0  0  0  0  0  0  0  0  0  0
   -4.4614   26.4208  -24.7982 C   0  0  0  0  0  0  0  0  0  0  0  0
   -3.8172   25.8086  -23.7432 C   0  0  0  0  0  0  0  0  0  0  0  0
   -4.5108   25.2472  -22.7106 C   0  0  0  0  0  0  0  0  0  0  0  0
   -5.8957   25.2873  -22.7114 C   0  0  0  0  0  0  0  0  0  0  0  0
  -10.0918   25.4324  -22.7534 C   0  0  0  0  0  0  0  0  0  0  0  0
  -10.7620   25.4512  -21.4239 C   0  0  0  0  0  0  0  0  0  0  0  0
   -9.8406   25.2869  -20.2476 C   0  0  0  0  0  0  0  0  0  0  0  0
   -8.8099   24.2065  -20.5856 C   0  0  0  0  0  0  0  0  0  0  0  0
  1  2  1  0  0  0
  2 27  1  0  0  0
 27 28  2  0  0  0
 27 29  1  0  0  0
 29 31  1  0  0  0
 31 32  1  0  0  0
 32 33  1  0  0  0
 33 34  1  0  0  0
 34 35  1  0  0  0
 35 36  1  0  0  0
 36 37  1  0  0  0
 37 39  1  0  0  0
 39 40  2  0  0  0
 40 41  1  0  0  0
 41 42  2  0  0  0
 42 43  1  0  0  0
 43 44  2  0  0  0
 44 45  1  0  0  0
 45 46  2  0  0  0
 46 47  1  0  0  0
 47 48  2  0  0  0
 41 49  1  0  0  0
 49 50  1  0  0  0
 50 51  1  0  0  0
 51 52  1  0  0  0
  2  3  1  0  0  0
  3  4  2  0  0  0
  4  5  1  0  0  0
  5  6  2  0  0  0
  6 10  1  0  0  0
 10 11  2  0  0  0
 11 12  1  0  0  0
 12 13  2  0  0  0
 13 16  1  0  0  0
 16 17  1  0  0  0
 17 18  1  0  0  0
 18 19  1  0  0  0
 19 20  1  0  0  0
 20 21  1  0  0  0
 21 22  1  0  0  0
 22 23  1  0  0  0
 23 24  1  0  0  0
 24 25  2  0  0  0
 24 26  1  0  0  0
 13 14  1  0  0  0
 14 15  2  0  0  0
  6  7  1  0  0  0
  7  8  1  0  0  0
  7  9  2  0  0  0
 48 39  1  0  0  0
  9  3  1  0  0  0
 52 40  1  0  0  0
 15 10  1  0  0  0
 48 43  1  0  0  0
 29 30  1  0  0  0
 37 38  1  0  0  0
M  CHG 1  24   1
M  CHG 1  26  -1
M  END
> <minimizedAffinity>
-8.20526

> <CNNscore>
0.1970909238

> <CNNaffinity>
7.3528304100

> <CNN_VS>
1.4491761923

> <CNNaffinity_variance>
0.3147325516

$$$$
[H]c1c([H])c(-c2c([H])c([H])c(C([H])(C(=O)N([H])C([H])([H])C([H])([H])C([H])([H])C([H])([H])C([H])([H])C([H])([H])N([H])c3c4c(nc5c([H])c([H])c([H])c([H])c35)C([H])([H])C([H])([H])C([H])([H])C4([H])[H])C([H])([H])[H])c([H])c2F)c([H])c([H])c1OC([H])([H])C([H])([H])C([H])([H])C([H])([H])C([H])([H])C([H])([H])O[N+](=O)[O-]


 52 56  0  0  0  0  0  0  0  0999 V2000
   -3.8483   23.0954  -28.5635 C   0  0  0  0  0  0  0  0  0  0  0  0
   -3.8271   23.9411  -27.2939 C   0  0  0  0  0  0  0  0  0  0  0  0
   -2.8329   23.3385  -26.3848 C   0  0  0  0  0  0  0  0  0  0  0  0
   -3.0711   23.3402  -25.0307 C   0  0  0  0  0  0  0  0  0  0  0  0
   -2.1556   22.7992  -24.1266 C   0  0  0  0  0  0  0  0  0  0  0  0
   -1.0007   22.2576  -24.5972 C   0  0  0  0  0  0  0  0  0  0  0  0
   -0.7430   22.2456  -25.9462 C   0  0  0  0  0  0  0  0  0  0  0  0
    0.4051   21.7157  -26.4310 F   0  0  0  0  0  0  0  0  0  0  0  0
   -1.6677   22.7911  -26.8471 C   0  0  0  0  0  0  0  0  0  0  0  0
   -0.0333   21.6827  -23.6810 C   0  0  0  0  0  0  0  0  0  0  0  0
    1.3078   21.6130  -23.9851 C   0  0  0  0  0  0  0  0  0  0  0  0
    2.2199   21.0596  -23.0808 C   0  0  0  0  0  0  0  0  0  0  0  0
    1.8413   20.5605  -21.8581 C   0  0  0  0  0  0  0  0  0  0  0  0
    0.4652   20.6401  -21.5617 C   0  0  0  0  0  0  0  0  0  0  0  0
   -0.4129   21.1839  -22.4557 C   0  0  0  0  0  0  0  0  0  0  0  0
    2.6686   19.9987  -20.9192 O   0  0  0  0  0  0  0  0  0  0  0  0
    2.3890   19.7769  -19.5736 C   0  0  0  0  0  0  0  0  0  0  0  0
    3.0783   20.7948  -18.7224 C   0  0  0  0  0  0  0  0  0  0  0  0
    2.0962   21.8069  -18.2104 C   0  0  0  0  0  0  0  0  0  0  0  0
    2.3994   23.1588  -18.7585 C   0  0  0  0  0  0  0  0  0  0  0  0
    2.8316   24.1465  -17.7052 C   0  0  0  0  0  0  0  0  0  0  0  0
    3.9509   23.5618  -16.8934 C   0  0  0  0  0  0  0  0  0  0  0  0
    5.1687   24.2343  -17.2598 O   0  0  0  0  0  0  0  0  0  0  0  0
    6.2924   23.8756  -16.5552 N   0  0  0  0  0  0  0  0  0  0  0  0
    6.2979   22.9334  -15.7413 O   0  0  0  0  0  0  0  0  0  0  0  0
    7.4276   24.6251  -16.8011 O   0  0  0  0  0  0  0  0  0  0  0  0
   -5.1589   24.1457  -26.7281 C   0  0  0  0  0  0  0  0  0  0  0  0
   -6.0347   23.2121  -26.7888 O   0  0  0  0  0  0  0  0  0  0  0  0
   -5.5883   25.3318  -26.0901 N   0  0  0  0  0  0  0  0  0  0  0  0
   -4.9107   26.1181  -26.0161 H   0  0  0  0  0  0  0  0  0  0  0  0
   -6.9012   25.5162  -25.5344 C   0  0  0  0  0  0  0  0  0  0  0  0
   -6.8878   25.5646  -24.0255 C   0  0  0  0  0  0  0  0  0  0  0  0
   -7.2588   24.2061  -23.4645 C   0  0  0  0  0  0  0  0  0  0  0  0
   -8.3679   24.4418  -22.4375 C   0  0  0  0  0  0  0  0  0  0  0  0
   -8.6098   25.8878  -22.2282 C   0  0  0  0  0  0  0  0  0  0  0  0
   -9.9583   26.2562  -21.7750 C   0  0  0  0  0  0  0  0  0  0  0  0
  -11.0654   25.6090  -22.3387 N   0  0  0  0  0  0  0  0  0  0  0  0
  -10.8323   24.8582  -23.0917 H   0  0  0  0  0  0  0  0  0  0  0  0
  -12.4396   25.7350  -22.1268 C   0  0  0  0  0  0  0  0  0  0  0  0
  -13.1721   26.6121  -22.9017 C   0  0  0  0  0  0  0  0  0  0  0  0
  -14.5329   26.7002  -22.7239 C   0  0  0  0  0  0  0  0  0  0  0  0
  -15.1362   25.9173  -21.7844 N   0  0  0  0  0  0  0  0  0  0  0  0
  -14.4616   25.0526  -21.0123 C   0  0  0  0  0  0  0  0  0  0  0  0
  -15.0934   24.2715  -20.0746 C   0  0  0  0  0  0  0  0  0  0  0  0
  -14.3934   23.3922  -19.2979 C   0  0  0  0  0  0  0  0  0  0  0  0
  -13.0285   23.3049  -19.4771 C   0  0  0  0  0  0  0  0  0  0  0  0
  -12.3783   24.0699  -20.4015 C   0  0  0  0  0  0  0  0  0  0  0  0
  -13.0965   24.9591  -21.1846 C   0  0  0  0  0  0  0  0  0  0  0  0
  -15.3117   27.6400  -23.5373 C   0  0  0  0  0  0  0  0  0  0  0  0
  -14.7685   27.9280  -24.8934 C   0  0  0  0  0  0  0  0  0  0  0  0
  -13.4281   27.3121  -25.1828 C   0  0  0  0  0  0  0  0  0  0  0  0
  -12.5456   27.4646  -23.9411 C   0  0  0  0  0  0  0  0  0  0  0  0
  1  2  1  0  0  0
  2 27  1  0  0  0
 27 28  2  0  0  0
 27 29  1  0  0  0
 29 31  1  0  0  0
 31 32  1  0  0  0
 32 33  1  0  0  0
 33 34  1  0  0  0
 34 35  1  0  0  0
 35 36  1  0  0  0
 36 37  1  0  0  0
 37 39  1  0  0  0
 39 40  2  0  0  0
 40 41  1  0  0  0
 41 42  2  0  0  0
 42 43  1  0  0  0
 43 44  2  0  0  0
 44 45  1  0  0  0
 45 46  2  0  0  0
 46 47  1  0  0  0
 47 48  2  0  0  0
 41 49  1  0  0  0
 49 50  1  0  0  0
 50 51  1  0  0  0
 51 52  1  0  0  0
  2  3  1  0  0  0
  3  4  2  0  0  0
  4  5  1  0  0  0
  5  6  2  0  0  0
  6 10  1  0  0  0
 10 11  2  0  0  0
 11 12  1  0  0  0
 12 13  2  0  0  0
 13 16  1  0  0  0
 16 17  1  0  0  0
 17 18  1  0  0  0
 18 19  1  0  0  0
 19 20  1  0  0  0
 20 21  1  0  0  0
 21 22  1  0  0  0
 22 23  1  0  0  0
 23 24  1  0  0  0
 24 25  2  0  0  0
 24 26  1  0  0  0
 13 14  1  0  0  0
 14 15  2  0  0  0
  6  7  1  0  0  0
  7  8  1  0  0  0
  7  9  2  0  0  0
 48 39  1  0  0  0
  9  3  1  0  0  0
 52 40  1  0  0  0
 15 10  1  0  0  0
 48 43  1  0  0  0
 29 30  1  0  0  0
 37 38  1  0  0  0
M  CHG 1  24   1
M  CHG 1  26  -1
M  END
> <minimizedAffinity>
-8.14998

> <CNNscore>
0.1695142239

> <CNNaffinity>
6.5791344643

> <CNN_VS>
1.1152569056

> <CNNaffinity_variance>
0.2098449916

$$$$
[H]c1c([H])c(-c2c([H])c([H])c(C([H])(C(=O)N([H])C([H])([H])C([H])([H])C([H])([H])C([H])([H])C([H])([H])C([H])([H])N([H])c3c4c(nc5c([H])c([H])c([H])c([H])c35)C([H])([H])C([H])([H])C([H])([H])C4([H])[H])C([H])([H])[H])c([H])c2F)c([H])c([H])c1OC([H])([H])C([H])([H])C([H])([H])C([H])([H])C([H])([H])C([H])([H])O[N+](=O)[O-]


 52 56  0  0  0  0  0  0  0  0999 V2000
   -4.9653   23.0082  -28.8999 C   0  0  0  0  0  0  0  0  0  0  0  0
   -4.6969   24.1053  -27.8743 C   0  0  0  0  0  0  0  0  0  0  0  0
   -3.6919   23.5822  -26.9287 C   0  0  0  0  0  0  0  0  0  0  0  0
   -2.7660   22.6661  -27.3692 C   0  0  0  0  0  0  0  0  0  0  0  0
   -1.8056   22.1272  -26.5118 C   0  0  0  0  0  0  0  0  0  0  0  0
   -1.7857   22.5181  -25.2097 C   0  0  0  0  0  0  0  0  0  0  0  0
   -2.7016   23.4320  -24.7490 C   0  0  0  0  0  0  0  0  0  0  0  0
   -2.6996   23.8273  -23.4537 F   0  0  0  0  0  0  0  0  0  0  0  0
   -3.6627   23.9682  -25.6168 C   0  0  0  0  0  0  0  0  0  0  0  0
   -0.7949   21.9787  -24.2969 C   0  0  0  0  0  0  0  0  0  0  0  0
    0.5487   21.9745  -24.5978 C   0  0  0  0  0  0  0  0  0  0  0  0
    1.4833   21.4541  -23.6969 C   0  0  0  0  0  0  0  0  0  0  0  0
    1.1253   20.9248  -22.4807 C   0  0  0  0  0  0  0  0  0  0  0  0
   -0.2537   20.9373  -22.1875 C   0  0  0  0  0  0  0  0  0  0  0  0
   -1.1539   21.4496  -23.0781 C   0  0  0  0  0  0  0  0  0  0  0  0
    1.9754   20.3917  -21.5455 O   0  0  0  0  0  0  0  0  0  0  0  0
    1.8222   20.4048  -20.1619 C   0  0  0  0  0  0  0  0  0  0  0  0
    2.1008   21.7697  -19.6186 C   0  0  0  0  0  0  0  0  0  0  0  0
    3.5774   21.9835  -19.4608 C   0  0  0  0  0  0  0  0  0  0  0  0
    4.1899   20.8719  -18.6803 C   0  0  0  0  0  0  0  0  0  0  0  0
    4.1989   21.1210  -17.1937 C   0  0  0  0  0  0  0  0  0  0  0  0
    5.0378   22.3280  -16.8889 C   0  0  0  0  0  0  0  0  0  0  0  0
    4.1637   23.3802  -16.4434 O   0  0  0  0  0  0  0  0  0  0  0  0
    4.2806   24.5814  -17.1000 N   0  0  0  0  0  0  0  0  0  0  0  0
    5.3498   25.2179  -17.1428 O   0  0  0  0  0  0  0  0  0  0  0  0
    3.1354   25.0496  -17.7166 O   0  0  0  0  0  0  0  0  0  0  0  0
   -5.9212   24.6276  -27.2710 C   0  0  0  0  0  0  0  0  0  0  0  0
   -6.4750   25.6808  -27.7468 O   0  0  0  0  0  0  0  0  0  0  0  0
   -6.5809   24.0507  -26.1617 N   0  0  0  0  0  0  0  0  0  0  0  0
   -6.1682   23.1928  -25.7415 H   0  0  0  0  0  0  0  0  0  0  0  0
   -7.7877   24.5743  -25.5821 C   0  0  0  0  0  0  0  0  0  0  0  0
   -7.5475   25.2323  -24.2447 C   0  0  0  0  0  0  0  0  0  0  0  0
   -7.7021   24.2116  -23.1348 C   0  0  0  0  0  0  0  0  0  0  0  0
   -8.7716   24.7532  -22.1843 C   0  0  0  0  0  0  0  0  0  0  0  0
   -9.5301   25.8640  -22.8039 C   0  0  0  0  0  0  0  0  0  0  0  0
  -10.9914   25.7108  -22.8290 C   0  0  0  0  0  0  0  0  0  0  0  0
  -11.7757   26.7538  -23.3382 N   0  0  0  0  0  0  0  0  0  0  0  0
  -11.2336   27.6635  -23.5907 H   0  0  0  0  0  0  0  0  0  0  0  0
  -13.1438   26.8669  -23.5926 C   0  0  0  0  0  0  0  0  0  0  0  0
  -13.9937   27.2772  -22.5848 C   0  0  0  0  0  0  0  0  0  0  0  0
  -15.3341   27.4336  -22.8501 C   0  0  0  0  0  0  0  0  0  0  0  0
  -15.8007   27.1815  -24.1064 N   0  0  0  0  0  0  0  0  0  0  0  0
  -15.0088   26.7823  -25.1126 C   0  0  0  0  0  0  0  0  0  0  0  0
  -15.5028   26.5380  -26.3715 C   0  0  0  0  0  0  0  0  0  0  0  0
  -14.6834   26.1357  -27.3878 C   0  0  0  0  0  0  0  0  0  0  0  0
  -13.3392   25.9789  -27.1206 C   0  0  0  0  0  0  0  0  0  0  0  0
  -12.8248   26.2151  -25.8788 C   0  0  0  0  0  0  0  0  0  0  0  0
  -13.6637   26.6227  -24.8541 C   0  0  0  0  0  0  0  0  0  0  0  0
  -16.2411   27.8576  -21.7783 C   0  0  0  0  0  0  0  0  0  0  0  0
  -15.6382   28.7135  -20.7195 C   0  0  0  0  0  0  0  0  0  0  0  0
  -14.1525   28.9114  -20.8347 C   0  0  0  0  0  0  0  0  0  0  0  0
  -13.5125   27.5732  -21.2136 C   0  0  0  0  0  0  0  0  0  0  0  0
  1  2  1  0  0  0
  2 27  1  0  0  0
 27 28  2  0  0  0
 27 29  1  0  0  0
 29 31  1  0  0  0
 31 32  1  0  0  0
 32 33  1  0  0  0
 33 34  1  0  0  0
 34 35  1  0  0  0
 35 36  1  0  0  0
 36 37  1  0  0  0
 37 39  1  0  0  0
 39 40  2  0  0  0
 40 41  1  0  0  0
 41 42  2  0  0  0
 42 43  1  0  0  0
 43 44  2  0  0  0
 44 45  1  0  0  0
 45 46  2  0  0  0
 46 47  1  0  0  0
 47 48  2  0  0  0
 41 49  1  0  0  0
 49 50  1  0  0  0
 50 51  1  0  0  0
 51 52  1  0  0  0
  2  3  1  0  0  0
  3  4  2  0  0  0
  4  5  1  0  0  0
  5  6  2  0  0  0
  6 10  1  0  0  0
 10 11  2  0  0  0
 11 12  1  0  0  0
 12 13  2  0  0  0
 13 16  1  0  0  0
 16 17  1  0  0  0
 17 18  1  0  0  0
 18 19  1  0  0  0
 19 20  1  0  0  0
 20 21  1  0  0  0
 21 22  1  0  0  0
 22 23  1  0  0  0
 23 24  1  0  0  0
 24 25  2  0  0  0
 24 26  1  0  0  0
 13 14  1  0  0  0
 14 15  2  0  0  0
  6  7  1  0  0  0
  7  8  1  0  0  0
  7  9  2  0  0  0
 48 39  1  0  0  0
  9  3  1  0  0  0
 52 40  1  0  0  0
 15 10  1  0  0  0
 48 43  1  0  0  0
 29 30  1  0  0  0
 37 38  1  0  0  0
M  CHG 1  24   1
M  CHG 1  26  -1
M  END
> <minimizedAffinity>
-8.92811

> <CNNscore>
0.1623724699

> <CNNaffinity>
6.7808928490

> <CNN_VS>
1.1010303497

> <CNNaffinity_variance>
0.1332908571

$$$$
[H]c1c([H])c(-c2c([H])c([H])c(C([H])(C(=O)N([H])C([H])([H])C([H])([H])C([H])([H])C([H])([H])C([H])([H])C([H])([H])N([H])c3c4c(nc5c([H])c([H])c([H])c([H])c35)C([H])([H])C([H])([H])C([H])([H])C4([H])[H])C([H])([H])[H])c([H])c2F)c([H])c([H])c1OC([H])([H])C([H])([H])C([H])([H])C([H])([H])C([H])([H])C([H])([H])O[N+](=O)[O-]


 52 56  0  0  0  0  0  0  0  0999 V2000
   -1.9216   22.7052  -27.1190 C   0  0  0  0  0  0  0  0  0  0  0  0
   -2.1089   21.8870  -25.8450 C   0  0  0  0  0  0  0  0  0  0  0  0
   -3.3468   22.3636  -25.1984 C   0  0  0  0  0  0  0  0  0  0  0  0
   -3.4701   23.6956  -24.8803 C   0  0  0  0  0  0  0  0  0  0  0  0
   -4.6124   24.1946  -24.2524 C   0  0  0  0  0  0  0  0  0  0  0  0
   -5.6272   23.3424  -23.9484 C   0  0  0  0  0  0  0  0  0  0  0  0
   -5.5245   22.0081  -24.2574 C   0  0  0  0  0  0  0  0  0  0  0  0
   -6.5235   21.1448  -23.9559 F   0  0  0  0  0  0  0  0  0  0  0  0
   -4.3739   21.5153  -24.8879 C   0  0  0  0  0  0  0  0  0  0  0  0
   -6.8291   23.8342  -23.3007 C   0  0  0  0  0  0  0  0  0  0  0  0
   -7.6659   24.7429  -23.9088 C   0  0  0  0  0  0  0  0  0  0  0  0
   -8.8217   25.1958  -23.2644 C   0  0  0  0  0  0  0  0  0  0  0  0
   -9.1854   24.7709  -22.0096 C   0  0  0  0  0  0  0  0  0  0  0  0
   -8.3186   23.8402  -21.4011 C   0  0  0  0  0  0  0  0  0  0  0  0
   -7.1936   23.4075  -22.0440 C   0  0  0  0  0  0  0  0  0  0  0  0
  -10.2952   25.1681  -21.3081 O   0  0  0  0  0  0  0  0  0  0  0  0
  -11.6062   25.2351  -21.7715 C   0  0  0  0  0  0  0  0  0  0  0  0
  -11.6915   26.1250  -22.9701 C   0  0  0  0  0  0  0  0  0  0  0  0
  -13.1216   26.4549  -23.2817 C   0  0  0  0  0  0  0  0  0  0  0  0
  -13.3045   27.9274  -23.4176 C   0  0  0  0  0  0  0  0  0  0  0  0
  -14.2068   28.5162  -22.3635 C   0  0  0  0  0  0  0  0  0  0  0  0
  -13.4132   28.8027  -21.1219 C   0  0  0  0  0  0  0  0  0  0  0  0
  -12.2504   29.5613  -21.4985 O   0  0  0  0  0  0  0  0  0  0  0  0
  -11.1524   29.4286  -20.6833 N   0  0  0  0  0  0  0  0  0  0  0  0
  -10.8434   28.3469  -20.1498 O   0  0  0  0  0  0  0  0  0  0  0  0
  -10.4020   30.5726  -20.4853 O   0  0  0  0  0  0  0  0  0  0  0  0
   -0.9172   21.8767  -24.9990 C   0  0  0  0  0  0  0  0  0  0  0  0
    0.1999   22.3086  -25.4549 O   0  0  0  0  0  0  0  0  0  0  0  0
   -0.8828   21.4145  -23.6635 N   0  0  0  0  0  0  0  0  0  0  0  0
   -1.7671   21.0547  -23.2495 H   0  0  0  0  0  0  0  0  0  0  0  0
    0.2972   21.4149  -22.8425 C   0  0  0  0  0  0  0  0  0  0  0  0
    0.0620   20.7790  -21.4935 C   0  0  0  0  0  0  0  0  0  0  0  0
    1.2046   19.8398  -21.1619 C   0  0  0  0  0  0  0  0  0  0  0  0
    2.3098   20.6941  -20.5380 C   0  0  0  0  0  0  0  0  0  0  0  0
    3.6523   20.1655  -20.8714 C   0  0  0  0  0  0  0  0  0  0  0  0
    4.7279   20.4968  -19.9264 C   0  0  0  0  0  0  0  0  0  0  0  0
    5.5235   21.6237  -20.1697 N   0  0  0  0  0  0  0  0  0  0  0  0
    5.7490   21.8172  -21.2171 H   0  0  0  0  0  0  0  0  0  0  0  0
    6.1008   22.5709  -19.3219 C   0  0  0  0  0  0  0  0  0  0  0  0
    5.3162   23.2212  -18.3903 C   0  0  0  0  0  0  0  0  0  0  0  0
    5.8954   24.1190  -17.5244 C   0  0  0  0  0  0  0  0  0  0  0  0
    7.2370   24.3506  -17.6004 N   0  0  0  0  0  0  0  0  0  0  0  0
    8.0340   23.7395  -18.4894 C   0  0  0  0  0  0  0  0  0  0  0  0
    9.3846   23.9874  -18.5436 C   0  0  0  0  0  0  0  0  0  0  0  0
   10.1847   23.3544  -19.4522 C   0  0  0  0  0  0  0  0  0  0  0  0
    9.6026   22.4543  -20.3204 C   0  0  0  0  0  0  0  0  0  0  0  0
    8.2639   22.1913  -20.2863 C   0  0  0  0  0  0  0  0  0  0  0  0
    7.4603   22.8383  -19.3615 C   0  0  0  0  0  0  0  0  0  0  0  0
    5.0621   24.8203  -16.5419 C   0  0  0  0  0  0  0  0  0  0  0  0
    3.8533   24.0866  -16.0756 C   0  0  0  0  0  0  0  0  0  0  0  0
    3.5923   22.7840  -16.7792 C   0  0  0  0  0  0  0  0  0  0  0  0
    3.8578   22.9782  -18.2744 C   0  0  0  0  0  0  0  0  0  0  0  0
  1  2  1  0  0  0
  2 27  1  0  0  0
 27 28  2  0  0  0
 27 29  1  0  0  0
 29 31  1  0  0  0
 31 32  1  0  0  0
 32 33  1  0  0  0
 33 34  1  0  0  0
 34 35  1  0  0  0
 35 36  1  0  0  0
 36 37  1  0  0  0
 37 39  1  0  0  0
 39 40  2  0  0  0
 40 41  1  0  0  0
 41 42  2  0  0  0
 42 43  1  0  0  0
 43 44  2  0  0  0
 44 45  1  0  0  0
 45 46  2  0  0  0
 46 47  1  0  0  0
 47 48  2  0  0  0
 41 49  1  0  0  0
 49 50  1  0  0  0
 50 51  1  0  0  0
 51 52  1  0  0  0
  2  3  1  0  0  0
  3  4  2  0  0  0
  4  5  1  0  0  0
  5  6  2  0  0  0
  6 10  1  0  0  0
 10 11  2  0  0  0
 11 12  1  0  0  0
 12 13  2  0  0  0
 13 16  1  0  0  0
 16 17  1  0  0  0
 17 18  1  0  0  0
 18 19  1  0  0  0
 19 20  1  0  0  0
 20 21  1  0  0  0
 21 22  1  0  0  0
 22 23  1  0  0  0
 23 24  1  0  0  0
 24 25  2  0  0  0
 24 26  1  0  0  0
 13 14  1  0  0  0
 14 15  2  0  0  0
  6  7  1  0  0  0
  7  8  1  0  0  0
  7  9  2  0  0  0
 48 39  1  0  0  0
  9  3  1  0  0  0
 52 40  1  0  0  0
 15 10  1  0  0  0
 48 43  1  0  0  0
 29 30  1  0  0  0
 37 38  1  0  0  0
M  CHG 1  24   1
M  CHG 1  26  -1
M  END
> <minimizedAffinity>
-8.38227

> <CNNscore>
0.1555972546

> <CNNaffinity>
6.1919646263

> <CNN_VS>
0.9634526968

> <CNNaffinity_variance>
0.1274723113

$$$$
[H]c1c([H])c(-c2c([H])c([H])c(C([H])(C(=O)N([H])C([H])([H])C([H])([H])C([H])([H])C([H])([H])C([H])([H])C([H])([H])N([H])c3c4c(nc5c([H])c([H])c([H])c([H])c35)C([H])([H])C([H])([H])C([H])([H])C4([H])[H])C([H])([H])[H])c([H])c2F)c([H])c([H])c1OC([H])([H])C([H])([H])C([H])([H])C([H])([H])C([H])([H])C([H])([H])O[N+](=O)[O-]


 52 56  0  0  0  0  0  0  0  0999 V2000
   -4.6430   22.9155  -29.0932 C   0  0  0  0  0  0  0  0  0  0  0  0
   -4.2518   24.0831  -28.1925 C   0  0  0  0  0  0  0  0  0  0  0  0
   -3.3460   23.5505  -27.1564 C   0  0  0  0  0  0  0  0  0  0  0  0
   -2.3706   22.6497  -27.5137 C   0  0  0  0  0  0  0  0  0  0  0  0
   -1.4996   22.1025  -26.5702 C   0  0  0  0  0  0  0  0  0  0  0  0
   -1.6193   22.4698  -25.2666 C   0  0  0  0  0  0  0  0  0  0  0  0
   -2.5868   23.3681  -24.8882 C   0  0  0  0  0  0  0  0  0  0  0  0
   -2.7235   23.7397  -23.5931 F   0  0  0  0  0  0  0  0  0  0  0  0
   -3.4573   23.9127  -25.8421 C   0  0  0  0  0  0  0  0  0  0  0  0
   -0.7239   21.9214  -24.2649 C   0  0  0  0  0  0  0  0  0  0  0  0
   -1.1878   21.4048  -23.0759 C   0  0  0  0  0  0  0  0  0  0  0  0
   -0.3033   20.8765  -22.1302 C   0  0  0  0  0  0  0  0  0  0  0  0
    1.0563   20.8420  -22.3252 C   0  0  0  0  0  0  0  0  0  0  0  0
    1.5151   21.3740  -23.5476 C   0  0  0  0  0  0  0  0  0  0  0  0
    0.6380   21.8860  -24.4611 C   0  0  0  0  0  0  0  0  0  0  0  0
    1.9895   20.3481  -21.4497 O   0  0  0  0  0  0  0  0  0  0  0  0
    3.0251   21.0486  -20.8372 C   0  0  0  0  0  0  0  0  0  0  0  0
    2.4974   21.8879  -19.7180 C   0  0  0  0  0  0  0  0  0  0  0  0
    3.1498   21.5090  -18.4212 C   0  0  0  0  0  0  0  0  0  0  0  0
    4.5334   22.0573  -18.3481 C   0  0  0  0  0  0  0  0  0  0  0  0
    5.5563   21.0392  -17.9134 C   0  0  0  0  0  0  0  0  0  0  0  0
    6.8980   21.6982  -17.7755 C   0  0  0  0  0  0  0  0  0  0  0  0
    6.6871   23.0653  -17.3802 O   0  0  0  0  0  0  0  0  0  0  0  0
    7.1539   23.4133  -16.1358 N   0  0  0  0  0  0  0  0  0  0  0  0
    7.0425   22.6646  -15.1472 O   0  0  0  0  0  0  0  0  0  0  0  0
    7.7598   24.6521  -16.0397 O   0  0  0  0  0  0  0  0  0  0  0  0
   -5.4077   24.8290  -27.6991 C   0  0  0  0  0  0  0  0  0  0  0  0
   -5.6191   26.0279  -28.0995 O   0  0  0  0  0  0  0  0  0  0  0  0
   -6.3572   24.3260  -26.7806 N   0  0  0  0  0  0  0  0  0  0  0  0
   -6.2274   23.3557  -26.4277 H   0  0  0  0  0  0  0  0  0  0  0  0
   -7.4921   25.0712  -26.3078 C   0  0  0  0  0  0  0  0  0  0  0  0
   -7.9947   24.5732  -24.9742 C   0  0  0  0  0  0  0  0  0  0  0  0
   -6.9755   24.8782  -23.8945 C   0  0  0  0  0  0  0  0  0  0  0  0
   -7.6853   25.7424  -22.8505 C   0  0  0  0  0  0  0  0  0  0  0  0
   -8.5242   24.9189  -21.9499 C   0  0  0  0  0  0  0  0  0  0  0  0
   -9.9448   25.2880  -21.8767 C   0  0  0  0  0  0  0  0  0  0  0  0
  -10.4213   26.3222  -22.6925 N   0  0  0  0  0  0  0  0  0  0  0  0
   -9.9374   26.4099  -23.6637 H   0  0  0  0  0  0  0  0  0  0  0  0
  -11.4135   27.2871  -22.5083 C   0  0  0  0  0  0  0  0  0  0  0  0
  -12.5728   27.2252  -23.2556 C   0  0  0  0  0  0  0  0  0  0  0  0
  -13.5690   28.1484  -23.0394 C   0  0  0  0  0  0  0  0  0  0  0  0
  -13.3943   29.1097  -22.0881 N   0  0  0  0  0  0  0  0  0  0  0  0
  -12.2846   29.2039  -21.3408 C   0  0  0  0  0  0  0  0  0  0  0  0
  -12.1340   30.1801  -20.3853 C   0  0  0  0  0  0  0  0  0  0  0  0
  -10.9994   30.2613  -19.6288 C   0  0  0  0  0  0  0  0  0  0  0  0
  -10.0009   29.3349  -19.8466 C   0  0  0  0  0  0  0  0  0  0  0  0
  -10.1267   28.3563  -20.7895 C   0  0  0  0  0  0  0  0  0  0  0  0
  -11.2811   28.2819  -21.5522 C   0  0  0  0  0  0  0  0  0  0  0  0
  -14.7964   28.0924  -23.8404 C   0  0  0  0  0  0  0  0  0  0  0  0
  -15.1946   26.7411  -24.3226 C   0  0  0  0  0  0  0  0  0  0  0  0
  -14.2075   25.6466  -24.0268 C   0  0  0  0  0  0  0  0  0  0  0  0
  -12.7969   26.1823  -24.2859 C   0  0  0  0  0  0  0  0  0  0  0  0
  1  2  1  0  0  0
  2 27  1  0  0  0
 27 28  2  0  0  0
 27 29  1  0  0  0
 29 31  1  0  0  0
 31 32  1  0  0  0
 32 33  1  0  0  0
 33 34  1  0  0  0
 34 35  1  0  0  0
 35 36  1  0  0  0
 36 37  1  0  0  0
 37 39  1  0  0  0
 39 40  2  0  0  0
 40 41  1  0  0  0
 41 42  2  0  0  0
 42 43  1  0  0  0
 43 44  2  0  0  0
 44 45  1  0  0  0
 45 46  2  0  0  0
 46 47  1  0  0  0
 47 48  2  0  0  0
 41 49  1  0  0  0
 49 50  1  0  0  0
 50 51  1  0  0  0
 51 52  1  0  0  0
  2  3  1  0  0  0
  3  4  2  0  0  0
  4  5  1  0  0  0
  5  6  2  0  0  0
  6 10  1  0  0  0
 10 11  2  0  0  0
 11 12  1  0  0  0
 12 13  2  0  0  0
 13 16  1  0  0  0
 16 17  1  0  0  0
 17 18  1  0  0  0
 18 19  1  0  0  0
 19 20  1  0  0  0
 20 21  1  0  0  0
 21 22  1  0  0  0
 22 23  1  0  0  0
 23 24  1  0  0  0
 24 25  2  0  0  0
 24 26  1  0  0  0
 13 14  1  0  0  0
 14 15  2  0  0  0
  6  7  1  0  0  0
  7  8  1  0  0  0
  7  9  2  0  0  0
 48 39  1  0  0  0
  9  3  1  0  0  0
 52 40  1  0  0  0
 15 10  1  0  0  0
 48 43  1  0  0  0
 29 30  1  0  0  0
 37 38  1  0  0  0
M  CHG 1  24   1
M  CHG 1  26  -1
M  END
> <minimizedAffinity>
-8.58226

> <CNNscore>
0.1480064094

> <CNNaffinity>
6.7964072227

> <CNN_VS>
1.0059118271

> <CNNaffinity_variance>
0.2666528523

$$$$
[H]c1c([H])c(-c2c([H])c([H])c(C([H])(C(=O)N([H])C([H])([H])C([H])([H])C([H])([H])C([H])([H])C([H])([H])C([H])([H])N([H])c3c4c(nc5c([H])c([H])c([H])c([H])c35)C([H])([H])C([H])([H])C([H])([H])C4([H])[H])C([H])([H])[H])c([H])c2F)c([H])c([H])c1OC([H])([H])C([H])([H])C([H])([H])C([H])([H])C([H])([H])C([H])([H])O[N+](=O)[O-]


 52 56  0  0  0  0  0  0  0  0999 V2000
  -11.5875   22.4245  -16.5598 C   0  0  0  0  0  0  0  0  0  0  0  0
  -11.9643   21.9875  -17.9722 C   0  0  0  0  0  0  0  0  0  0  0  0
  -10.7204   21.9557  -18.7655 C   0  0  0  0  0  0  0  0  0  0  0  0
  -10.5397   22.8762  -19.7708 C   0  0  0  0  0  0  0  0  0  0  0  0
   -9.3898   22.8786  -20.5619 C   0  0  0  0  0  0  0  0  0  0  0  0
   -8.4255   21.9480  -20.3322 C   0  0  0  0  0  0  0  0  0  0  0  0
   -8.5860   21.0194  -19.3330 C   0  0  0  0  0  0  0  0  0  0  0  0
   -7.6381   20.0819  -19.0950 F   0  0  0  0  0  0  0  0  0  0  0  0
   -9.7439   21.0241  -18.5433 C   0  0  0  0  0  0  0  0  0  0  0  0
   -7.2169   21.9302  -21.1352 C   0  0  0  0  0  0  0  0  0  0  0  0
   -7.2490   21.7345  -22.4977 C   0  0  0  0  0  0  0  0  0  0  0  0
   -6.0693   21.7283  -23.2489 C   0  0  0  0  0  0  0  0  0  0  0  0
   -4.8303   21.9126  -22.6845 C   0  0  0  0  0  0  0  0  0  0  0  0
   -4.8148   22.1124  -21.2890 C   0  0  0  0  0  0  0  0  0  0  0  0
   -5.9760   22.1160  -20.5695 C   0  0  0  0  0  0  0  0  0  0  0  0
   -3.6291   21.9155  -23.3467 O   0  0  0  0  0  0  0  0  0  0  0  0
   -3.3968   21.5634  -24.6734 C   0  0  0  0  0  0  0  0  0  0  0  0
   -3.1301   22.7818  -25.4980 C   0  0  0  0  0  0  0  0  0  0  0  0
   -2.5090   22.4051  -26.8107 C   0  0  0  0  0  0  0  0  0  0  0  0
   -3.1402   23.1619  -27.9282 C   0  0  0  0  0  0  0  0  0  0  0  0
   -4.6440   23.2130  -27.8396 C   0  0  0  0  0  0  0  0  0  0  0  0
   -5.2346   23.1224  -29.2167 C   0  0  0  0  0  0  0  0  0  0  0  0
   -6.1958   24.1828  -29.3626 O   0  0  0  0  0  0  0  0  0  0  0  0
   -5.7661   25.2988  -30.0391 N   0  0  0  0  0  0  0  0  0  0  0  0
   -5.4303   26.3459  -29.4551 O   0  0  0  0  0  0  0  0  0  0  0  0
   -5.7266   25.1952  -31.4171 O   0  0  0  0  0  0  0  0  0  0  0  0
  -13.0547   22.7795  -18.5374 C   0  0  0  0  0  0  0  0  0  0  0  0
  -14.0304   22.1997  -19.1325 O   0  0  0  0  0  0  0  0  0  0  0  0
  -13.1361   24.1898  -18.4841 N   0  0  0  0  0  0  0  0  0  0  0  0
  -12.3663   24.7047  -18.0096 H   0  0  0  0  0  0  0  0  0  0  0  0
  -14.2182   24.9546  -19.0415 C   0  0  0  0  0  0  0  0  0  0  0  0
  -13.8112   25.7103  -20.2835 C   0  0  0  0  0  0  0  0  0  0  0  0
  -13.7489   24.7622  -21.4645 C   0  0  0  0  0  0  0  0  0  0  0  0
  -14.6997   25.3184  -22.5262 C   0  0  0  0  0  0  0  0  0  0  0  0
  -13.9578   26.0169  -23.6008 C   0  0  0  0  0  0  0  0  0  0  0  0
  -12.5460   25.6405  -23.7583 C   0  0  0  0  0  0  0  0  0  0  0  0
  -11.5575   26.6146  -23.5681 N   0  0  0  0  0  0  0  0  0  0  0  0
  -11.3038   27.1992  -24.4507 H   0  0  0  0  0  0  0  0  0  0  0  0
  -10.8130   26.9963  -22.4504 C   0  0  0  0  0  0  0  0  0  0  0  0
   -9.6409   26.3306  -22.1512 C   0  0  0  0  0  0  0  0  0  0  0  0
   -8.8845   26.7386  -21.0776 C   0  0  0  0  0  0  0  0  0  0  0  0
   -9.3056   27.7961  -20.3267 N   0  0  0  0  0  0  0  0  0  0  0  0
  -10.4365   28.4697  -20.5840 C   0  0  0  0  0  0  0  0  0  0  0  0
  -10.8376   29.5350  -19.8141 C   0  0  0  0  0  0  0  0  0  0  0  0
  -11.9903   30.2141  -20.0906 C   0  0  0  0  0  0  0  0  0  0  0  0
  -12.7483   29.8039  -21.1676 C   0  0  0  0  0  0  0  0  0  0  0  0
  -12.3712   28.7489  -21.9469 C   0  0  0  0  0  0  0  0  0  0  0  0
  -11.2006   28.0661  -21.6587 C   0  0  0  0  0  0  0  0  0  0  0  0
   -7.6453   26.0255  -20.7503 C   0  0  0  0  0  0  0  0  0  0  0  0
   -6.9377   25.3947  -21.8986 C   0  0  0  0  0  0  0  0  0  0  0  0
   -7.6671   25.4703  -23.2109 C   0  0  0  0  0  0  0  0  0  0  0  0
   -9.1504   25.1874  -22.9587 C   0  0  0  0  0  0  0  0  0  0  0  0
  1  2  1  0  0  0
  2 27  1  0  0  0
 27 28  2  0  0  0
 27 29  1  0  0  0
 29 31  1  0  0  0
 31 32  1  0  0  0
 32 33  1  0  0  0
 33 34  1  0  0  0
 34 35  1  0  0  0
 35 36  1  0  0  0
 36 37  1  0  0  0
 37 39  1  0  0  0
 39 40  2  0  0  0
 40 41  1  0  0  0
 41 42  2  0  0  0
 42 43  1  0  0  0
 43 44  2  0  0  0
 44 45  1  0  0  0
 45 46  2  0  0  0
 46 47  1  0  0  0
 47 48  2  0  0  0
 41 49  1  0  0  0
 49 50  1  0  0  0
 50 51  1  0  0  0
 51 52  1  0  0  0
  2  3  1  0  0  0
  3  4  2  0  0  0
  4  5  1  0  0  0
  5  6  2  0  0  0
  6 10  1  0  0  0
 10 11  2  0  0  0
 11 12  1  0  0  0
 12 13  2  0  0  0
 13 16  1  0  0  0
 16 17  1  0  0  0
 17 18  1  0  0  0
 18 19  1  0  0  0
 19 20  1  0  0  0
 20 21  1  0  0  0
 21 22  1  0  0  0
 22 23  1  0  0  0
 23 24  1  0  0  0
 24 25  2  0  0  0
 24 26  1  0  0  0
 13 14  1  0  0  0
 14 15  2  0  0  0
  6  7  1  0  0  0
  7  8  1  0  0  0
  7  9  2  0  0  0
 48 39  1  0  0  0
  9  3  1  0  0  0
 52 40  1  0  0  0
 15 10  1  0  0  0
 48 43  1  0  0  0
 29 30  1  0  0  0
 37 38  1  0  0  0
M  CHG 1  24   1
M  CHG 1  26  -1
M  END
> <minimizedAffinity>
-8.25863

> <CNNscore>
0.1372561008

> <CNNaffinity>
7.1561021805

> <CNN_VS>
0.9822186828

> <CNNaffinity_variance>
1.1922485828

$$$$
[H]c1c([H])c(-c2c([H])c([H])c(C([H])(C(=O)N([H])C([H])([H])C([H])([H])C([H])([H])C([H])([H])C([H])([H])C([H])([H])N([H])c3c4c(nc5c([H])c([H])c([H])c([H])c35)C([H])([H])C([H])([H])C([H])([H])C4([H])[H])C([H])([H])[H])c([H])c2F)c([H])c([H])c1OC([H])([H])C([H])([H])C([H])([H])C([H])([H])C([H])([H])C([H])([H])O[N+](=O)[O-]


 52 56  0  0  0  0  0  0  0  0999 V2000
   -2.1692   21.1487  -22.5193 C   0  0  0  0  0  0  0  0  0  0  0  0
   -1.8522   22.5874  -22.1225 C   0  0  0  0  0  0  0  0  0  0  0  0
   -0.9469   22.5297  -20.9585 C   0  0  0  0  0  0  0  0  0  0  0  0
   -1.1350   23.4058  -19.9156 C   0  0  0  0  0  0  0  0  0  0  0  0
   -0.2967   23.4047  -18.7997 C   0  0  0  0  0  0  0  0  0  0  0  0
    0.7303   22.5155  -18.7433 C   0  0  0  0  0  0  0  0  0  0  0  0
    0.9360   21.6317  -19.7742 C   0  0  0  0  0  0  0  0  0  0  0  0
    1.9579   20.7438  -19.7367 F   0  0  0  0  0  0  0  0  0  0  0  0
    0.0895   21.6395  -20.8912 C   0  0  0  0  0  0  0  0  0  0  0  0
    1.6144   22.4878  -17.5928 C   0  0  0  0  0  0  0  0  0  0  0  0
    1.3980   21.6441  -16.5265 C   0  0  0  0  0  0  0  0  0  0  0  0
    2.2696   21.6331  -15.4328 C   0  0  0  0  0  0  0  0  0  0  0  0
    3.3730   22.4482  -15.3562 C   0  0  0  0  0  0  0  0  0  0  0  0
    3.5807   23.3054  -16.4561 C   0  0  0  0  0  0  0  0  0  0  0  0
    2.7202   23.3037  -17.5170 C   0  0  0  0  0  0  0  0  0  0  0  0
    4.2714   22.5029  -14.3212 O   0  0  0  0  0  0  0  0  0  0  0  0
    5.6541   22.6379  -14.4111 C   0  0  0  0  0  0  0  0  0  0  0  0
    6.3145   21.2977  -14.3528 C   0  0  0  0  0  0  0  0  0  0  0  0
    6.3232   20.6543  -15.7082 C   0  0  0  0  0  0  0  0  0  0  0  0
    7.6508   20.0397  -15.9907 C   0  0  0  0  0  0  0  0  0  0  0  0
    8.8090   20.8691  -15.4981 C   0  0  0  0  0  0  0  0  0  0  0  0
    8.9808   22.0713  -16.3805 C   0  0  0  0  0  0  0  0  0  0  0  0
    9.4175   23.1700  -15.5608 O   0  0  0  0  0  0  0  0  0  0  0  0
    8.6777   24.3240  -15.6533 N   0  0  0  0  0  0  0  0  0  0  0  0
    8.7000   25.2041  -14.7728 O   0  0  0  0  0  0  0  0  0  0  0  0
    7.8994   24.4564  -16.7881 O   0  0  0  0  0  0  0  0  0  0  0  0
   -3.0518   23.4042  -21.9506 C   0  0  0  0  0  0  0  0  0  0  0  0
   -3.1818   24.5019  -22.5992 O   0  0  0  0  0  0  0  0  0  0  0  0
   -4.1310   23.0790  -21.0974 N   0  0  0  0  0  0  0  0  0  0  0  0
   -4.0707   22.1958  -20.5504 H   0  0  0  0  0  0  0  0  0  0  0  0
   -5.3069   23.8913  -20.9425 C   0  0  0  0  0  0  0  0  0  0  0  0
   -6.4556   23.4129  -21.7973 C   0  0  0  0  0  0  0  0  0  0  0  0
   -6.6276   24.3336  -22.9891 C   0  0  0  0  0  0  0  0  0  0  0  0
   -6.7532   23.4379  -24.2229 C   0  0  0  0  0  0  0  0  0  0  0  0
   -6.0829   22.1343  -24.0127 C   0  0  0  0  0  0  0  0  0  0  0  0
   -4.8633   21.9029  -24.7994 C   0  0  0  0  0  0  0  0  0  0  0  0
   -4.1799   23.0029  -25.3332 N   0  0  0  0  0  0  0  0  0  0  0  0
   -4.0958   23.8642  -24.6728 H   0  0  0  0  0  0  0  0  0  0  0  0
   -3.5711   23.2248  -26.5699 C   0  0  0  0  0  0  0  0  0  0  0  0
   -4.2983   23.7945  -27.5961 C   0  0  0  0  0  0  0  0  0  0  0  0
   -3.6840   24.0560  -28.7985 C   0  0  0  0  0  0  0  0  0  0  0  0
   -2.3649   23.7485  -28.9559 N   0  0  0  0  0  0  0  0  0  0  0  0
   -1.6234   23.1955  -27.9847 C   0  0  0  0  0  0  0  0  0  0  0  0
   -0.2941   22.8981  -28.1669 C   0  0  0  0  0  0  0  0  0  0  0  0
    0.4497   22.3385  -27.1670 C   0  0  0  0  0  0  0  0  0  0  0  0
   -0.1675   22.0765  -25.9615 C   0  0  0  0  0  0  0  0  0  0  0  0
   -1.4861   22.3625  -25.7562 C   0  0  0  0  0  0  0  0  0  0  0  0
   -2.2325   22.9299  -26.7763 C   0  0  0  0  0  0  0  0  0  0  0  0
   -4.4573   24.6499  -29.8942 C   0  0  0  0  0  0  0  0  0  0  0  0
   -5.5894   25.5274  -29.4874 C   0  0  0  0  0  0  0  0  0  0  0  0
   -5.8559   25.5729  -28.0086 C   0  0  0  0  0  0  0  0  0  0  0  0
   -5.7297   24.1535  -27.4489 C   0  0  0  0  0  0  0  0  0  0  0  0
  1  2  1  0  0  0
  2 27  1  0  0  0
 27 28  2  0  0  0
 27 29  1  0  0  0
 29 31  1  0  0  0
 31 32  1  0  0  0
 32 33  1  0  0  0
 33 34  1  0  0  0
 34 35  1  0  0  0
 35 36  1  0  0  0
 36 37  1  0  0  0
 37 39  1  0  0  0
 39 40  2  0  0  0
 40 41  1  0  0  0
 41 42  2  0  0  0
 42 43  1  0  0  0
 43 44  2  0  0  0
 44 45  1  0  0  0
 45 46  2  0  0  0
 46 47  1  0  0  0
 47 48  2  0  0  0
 41 49  1  0  0  0
 49 50  1  0  0  0
 50 51  1  0  0  0
 51 52  1  0  0  0
  2  3  1  0  0  0
  3  4  2  0  0  0
  4  5  1  0  0  0
  5  6  2  0  0  0
  6 10  1  0  0  0
 10 11  2  0  0  0
 11 12  1  0  0  0
 12 13  2  0  0  0
 13 16  1  0  0  0
 16 17  1  0  0  0
 17 18  1  0  0  0
 18 19  1  0  0  0
 19 20  1  0  0  0
 20 21  1  0  0  0
 21 22  1  0  0  0
 22 23  1  0  0  0
 23 24  1  0  0  0
 24 25  2  0  0  0
 24 26  1  0  0  0
 13 14  1  0  0  0
 14 15  2  0  0  0
  6  7  1  0  0  0
  7  8  1  0  0  0
  7  9  2  0  0  0
 48 39  1  0  0  0
  9  3  1  0  0  0
 52 40  1  0  0  0
 15 10  1  0  0  0
 48 43  1  0  0  0
 29 30  1  0  0  0
 37 38  1  0  0  0
M  CHG 1  24   1
M  CHG 1  26  -1
M  END
> <minimizedAffinity>
-7.80236

> <CNNscore>
0.1329327524

> <CNNaffinity>
6.7991304398

> <CNN_VS>
0.9038271308

> <CNNaffinity_variance>
0.3367017806

$$$$
[H]c1c([H])c(-c2c([H])c([H])c(C([H])(C(=O)N([H])C([H])([H])C([H])([H])C([H])([H])C([H])([H])C([H])([H])C([H])([H])N([H])c3c4c(nc5c([H])c([H])c([H])c([H])c35)C([H])([H])C([H])([H])C([H])([H])C4([H])[H])C([H])([H])[H])c([H])c2F)c([H])c([H])c1OC([H])([H])C([H])([H])C([H])([H])C([H])([H])C([H])([H])C([H])([H])O[N+](=O)[O-]


 52 56  0  0  0  0  0  0  0  0999 V2000
   -3.7795   22.9535  -27.5129 C   0  0  0  0  0  0  0  0  0  0  0  0
   -3.5823   23.7734  -26.2415 C   0  0  0  0  0  0  0  0  0  0  0  0
   -2.4510   23.1746  -25.5071 C   0  0  0  0  0  0  0  0  0  0  0  0
   -2.4526   23.1989  -24.1324 C   0  0  0  0  0  0  0  0  0  0  0  0
   -1.3992   22.6623  -23.3904 C   0  0  0  0  0  0  0  0  0  0  0  0
   -0.3464   22.1023  -24.0436 C   0  0  0  0  0  0  0  0  0  0  0  0
   -0.3248   22.0676  -25.4165 C   0  0  0  0  0  0  0  0  0  0  0  0
    0.7190   21.5191  -26.0827 F   0  0  0  0  0  0  0  0  0  0  0  0
   -1.3867   22.6088  -26.1538 C   0  0  0  0  0  0  0  0  0  0  0  0
    0.7600   21.5316  -23.2980 C   0  0  0  0  0  0  0  0  0  0  0  0
    2.0247   21.4297  -23.8327 C   0  0  0  0  0  0  0  0  0  0  0  0
    3.0750   20.8811  -23.0897 C   0  0  0  0  0  0  0  0  0  0  0  0
    2.9123   20.4185  -21.8064 C   0  0  0  0  0  0  0  0  0  0  0  0
    1.6119   20.5307  -21.2733 C   0  0  0  0  0  0  0  0  0  0  0  0
    0.5969   21.0693  -22.0120 C   0  0  0  0  0  0  0  0  0  0  0  0
    3.8851   19.8640  -21.0141 O   0  0  0  0  0  0  0  0  0  0  0  0
    4.2291   20.2348  -19.7171 C   0  0  0  0  0  0  0  0  0  0  0  0
    4.7274   21.6443  -19.6917 C   0  0  0  0  0  0  0  0  0  0  0  0
    5.2588   21.9918  -18.3324 C   0  0  0  0  0  0  0  0  0  0  0  0
    4.5115   23.1437  -17.7537 C   0  0  0  0  0  0  0  0  0  0  0  0
    5.2997   24.4285  -17.7573 C   0  0  0  0  0  0  0  0  0  0  0  0
    6.7215   24.1500  -17.3644 C   0  0  0  0  0  0  0  0  0  0  0  0
    6.9085   24.5996  -16.0107 O   0  0  0  0  0  0  0  0  0  0  0  0
    8.0806   24.2181  -15.4038 N   0  0  0  0  0  0  0  0  0  0  0  0
    9.0472   24.9917  -15.2722 O   0  0  0  0  0  0  0  0  0  0  0  0
    8.1292   22.9156  -14.9430 O   0  0  0  0  0  0  0  0  0  0  0  0
   -4.8169   23.9371  -25.4767 C   0  0  0  0  0  0  0  0  0  0  0  0
   -5.6834   22.9935  -25.4432 O   0  0  0  0  0  0  0  0  0  0  0  0
   -5.1572   25.0921  -24.7361 N   0  0  0  0  0  0  0  0  0  0  0  0
   -4.4834   25.8850  -24.7329 H   0  0  0  0  0  0  0  0  0  0  0  0
   -6.3744   25.2361  -23.9849 C   0  0  0  0  0  0  0  0  0  0  0  0
   -6.1736   24.9935  -22.5084 C   0  0  0  0  0  0  0  0  0  0  0  0
   -7.1764   23.9695  -22.0148 C   0  0  0  0  0  0  0  0  0  0  0  0
   -8.5662   24.5336  -22.3162 C   0  0  0  0  0  0  0  0  0  0  0  0
   -9.5266   24.2041  -21.2383 C   0  0  0  0  0  0  0  0  0  0  0  0
  -10.8212   24.8974  -21.2949 C   0  0  0  0  0  0  0  0  0  0  0  0
  -10.9386   26.0553  -22.0744 N   0  0  0  0  0  0  0  0  0  0  0  0
  -10.2288   26.1377  -22.8957 H   0  0  0  0  0  0  0  0  0  0  0  0
  -11.8005   27.1517  -22.0097 C   0  0  0  0  0  0  0  0  0  0  0  0
  -11.5421   28.1712  -21.1152 C   0  0  0  0  0  0  0  0  0  0  0  0
  -12.3653   29.2725  -21.0859 C   0  0  0  0  0  0  0  0  0  0  0  0
  -13.4236   29.3388  -21.9433 N   0  0  0  0  0  0  0  0  0  0  0  0
  -13.7086   28.3712  -22.8273 C   0  0  0  0  0  0  0  0  0  0  0  0
  -14.7794   28.4632  -23.6837 C   0  0  0  0  0  0  0  0  0  0  0  0
  -15.0550   27.4713  -24.5817 C   0  0  0  0  0  0  0  0  0  0  0  0
  -14.2288   26.3671  -24.6100 C   0  0  0  0  0  0  0  0  0  0  0  0
  -13.1595   26.2524  -23.7697 C   0  0  0  0  0  0  0  0  0  0  0  0
  -12.8878   27.2635  -22.8622 C   0  0  0  0  0  0  0  0  0  0  0  0
  -12.1001   30.3513  -20.1283 C   0  0  0  0  0  0  0  0  0  0  0  0
  -10.6744   30.5396  -19.7424 C   0  0  0  0  0  0  0  0  0  0  0  0
   -9.7279   29.5094  -20.2925 C   0  0  0  0  0  0  0  0  0  0  0  0
  -10.3902   28.1336  -20.1818 C   0  0  0  0  0  0  0  0  0  0  0  0
  1  2  1  0  0  0
  2 27  1  0  0  0
 27 28  2  0  0  0
 27 29  1  0  0  0
 29 31  1  0  0  0
 31 32  1  0  0  0
 32 33  1  0  0  0
 33 34  1  0  0  0
 34 35  1  0  0  0
 35 36  1  0  0  0
 36 37  1  0  0  0
 37 39  1  0  0  0
 39 40  2  0  0  0
 40 41  1  0  0  0
 41 42  2  0  0  0
 42 43  1  0  0  0
 43 44  2  0  0  0
 44 45  1  0  0  0
 45 46  2  0  0  0
 46 47  1  0  0  0
 47 48  2  0  0  0
 41 49  1  0  0  0
 49 50  1  0  0  0
 50 51  1  0  0  0
 51 52  1  0  0  0
  2  3  1  0  0  0
  3  4  2  0  0  0
  4  5  1  0  0  0
  5  6  2  0  0  0
  6 10  1  0  0  0
 10 11  2  0  0  0
 11 12  1  0  0  0
 12 13  2  0  0  0
 13 16  1  0  0  0
 16 17  1  0  0  0
 17 18  1  0  0  0
 18 19  1  0  0  0
 19 20  1  0  0  0
 20 21  1  0  0  0
 21 22  1  0  0  0
 22 23  1  0  0  0
 23 24  1  0  0  0
 24 25  2  0  0  0
 24 26  1  0  0  0
 13 14  1  0  0  0
 14 15  2  0  0  0
  6  7  1  0  0  0
  7  8  1  0  0  0
  7  9  2  0  0  0
 48 39  1  0  0  0
  9  3  1  0  0  0
 52 40  1  0  0  0
 15 10  1  0  0  0
 48 43  1  0  0  0
 29 30  1  0  0  0
 37 38  1  0  0  0
M  CHG 1  24   1
M  CHG 1  26  -1
M  END
> <minimizedAffinity>
-8.36877

> <CNNscore>
0.1324531883

> <CNNaffinity>
6.2280497551

> <CNN_VS>
0.8249250650

> <CNNaffinity_variance>
0.2443614751

$$$$
[H]OC(=O)[C@@]([H])(N([H])[H])C([H])([H])OP(=O)(O[H])O[C@]1([H])C([H])([H])C([H])([H])C([H])([H])O[C@]1([H])C([H])([H])OC(=O)C([H])([H])C([H])([H])c1c([H])c([H])c([H])c([H])c1OC([H])([H])c1c([H])c([H])c([H])c(Oc2c([H])c([H])c(C([H])([H])[H])c([H])c2[H])c1[H]


 49 52  0  0  0  0  0  0  0  0999 V2000
   -5.5220   22.1085  -23.5300 C   0  0  0  0  0  0  0  0  0  0  0  0
   -6.1140   21.1348  -24.0238 O   0  0  0  0  0  0  0  0  0  0  0  0
   -5.9789   22.5716  -22.2732 O   0  0  0  0  0  0  0  0  0  0  0  0
   -6.5774   21.8113  -21.3189 C   0  0  0  0  0  0  0  0  0  0  0  0
   -7.9511   22.1731  -20.8409 C   0  0  0  0  0  0  0  0  0  0  0  0
   -8.6347   21.1276  -20.2787 O   0  0  0  0  0  0  0  0  0  0  0  0
   -9.4766   21.4350  -19.2393 C   0  0  0  0  0  0  0  0  0  0  0  0
  -10.1723   22.7556  -19.3338 C   0  0  0  0  0  0  0  0  0  0  0  0
   -9.3081   23.8800  -19.7828 C   0  0  0  0  0  0  0  0  0  0  0  0
   -7.8785   23.3806  -19.8973 C   0  0  0  0  0  0  0  0  0  0  0  0
   -7.3079   23.1136  -18.6887 O   0  0  0  0  0  0  0  0  0  0  0  0
   -6.1119   24.1645  -18.1929 P   0  0  0  0  0  0  0  0  0  0  0  0
   -4.7278   23.6077  -18.2450 O   0  0  0  0  0  0  0  0  0  0  0  0
   -6.0944   25.5832  -19.1526 O   0  0  0  0  0  0  0  0  0  0  0  0
   -6.6927   26.2392  -18.7634 H   0  0  0  0  0  0  0  0  0  0  0  0
   -6.5114   24.6782  -16.6170 O   0  0  0  0  0  0  0  0  0  0  0  0
   -5.6072   24.2105  -15.6671 C   0  0  0  0  0  0  0  0  0  0  0  0
   -6.2853   24.3908  -14.3178 C   0  0  0  0  0  0  0  0  0  0  0  0
   -7.6345   23.9126  -14.4267 N   0  0  0  0  0  0  0  0  0  0  0  0
   -7.7163   22.8989  -14.3236 H   0  0  0  0  0  0  0  0  0  0  0  0
   -8.3337   24.4812  -13.9316 H   0  0  0  0  0  0  0  0  0  0  0  0
   -6.1706   25.7498  -13.7808 C   0  0  0  0  0  0  0  0  0  0  0  0
   -6.3796   25.9915  -12.5722 O   0  0  0  0  0  0  0  0  0  0  0  0
   -5.8262   26.7992  -14.6110 O   0  0  0  0  0  0  0  0  0  0  0  0
   -4.9536   26.9455  -15.0605 H   0  0  0  0  0  0  0  0  0  0  0  0
   -4.4035   22.7981  -24.1644 C   0  0  0  0  0  0  0  0  0  0  0  0
   -3.8476   22.2850  -25.4276 C   0  0  0  0  0  0  0  0  0  0  0  0
   -1.6360   22.2761  -26.6549 C   0  0  0  0  0  0  0  0  0  0  0  0
   -0.2713   22.2113  -26.5784 C   0  0  0  0  0  0  0  0  0  0  0  0
    0.4093   21.9650  -25.3789 C   0  0  0  0  0  0  0  0  0  0  0  0
   -0.3463   21.7845  -24.2456 C   0  0  0  0  0  0  0  0  0  0  0  0
   -1.7131   21.8474  -24.2943 C   0  0  0  0  0  0  0  0  0  0  0  0
   -2.3725   22.0933  -25.4850 C   0  0  0  0  0  0  0  0  0  0  0  0
   -2.2695   22.5001  -27.8274 O   0  0  0  0  0  0  0  0  0  0  0  0
   -2.1172   23.4262  -28.8226 C   0  0  0  0  0  0  0  0  0  0  0  0
   -5.5267   25.0654  -28.5913 C   0  0  0  0  0  0  0  0  0  0  0  0
   -5.4896   25.9963  -29.6327 C   0  0  0  0  0  0  0  0  0  0  0  0
   -4.3328   26.0380  -30.3719 C   0  0  0  0  0  0  0  0  0  0  0  0
   -3.2646   25.2135  -30.1087 C   0  0  0  0  0  0  0  0  0  0  0  0
   -3.3257   24.2988  -29.0688 C   0  0  0  0  0  0  0  0  0  0  0  0
   -4.4643   24.2389  -28.3213 C   0  0  0  0  0  0  0  0  0  0  0  0
   -6.7007   25.0307  -27.8572 O   0  0  0  0  0  0  0  0  0  0  0  0
   -7.0768   25.9009  -22.3308 C   0  0  0  0  0  0  0  0  0  0  0  0
   -6.9860   25.6686  -23.7858 C   0  0  0  0  0  0  0  0  0  0  0  0
   -7.8334   24.7533  -24.3955 C   0  0  0  0  0  0  0  0  0  0  0  0
   -7.7179   24.5577  -25.7695 C   0  0  0  0  0  0  0  0  0  0  0  0
   -6.7974   25.2394  -26.5221 C   0  0  0  0  0  0  0  0  0  0  0  0
   -5.9581   26.1535  -25.8851 C   0  0  0  0  0  0  0  0  0  0  0  0
   -6.0437   26.3731  -24.5314 C   0  0  0  0  0  0  0  0  0  0  0  0
 43 44  1  0  0  0
 44 45  2  0  0  0
 45 46  1  0  0  0
 46 47  2  0  0  0
 47 42  1  0  0  0
 42 36  1  0  0  0
 36 37  2  0  0  0
 37 38  1  0  0  0
 38 39  2  0  0  0
 39 40  1  0  0  0
 40 35  1  0  0  0
 35 34  1  0  0  0
 34 28  1  0  0  0
 28 29  2  0  0  0
 29 30  1  0  0  0
 30 31  2  0  0  0
 31 32  1  0  0  0
 32 33  2  0  0  0
 33 27  1  0  0  0
 27 26  1  0  0  0
 26  1  1  0  0  0
  1  2  2  0  0  0
  1  3  1  0  0  0
  3  4  1  0  0  0
  4  5  1  0  0  0
  5  6  1  0  0  0
  6  7  1  0  0  0
  7  8  1  0  0  0
  8  9  1  0  0  0
  9 10  1  0  0  0
 10 11  1  0  0  0
 11 12  1  0  0  0
 12 13  2  0  0  0
 12 14  1  0  0  0
 12 16  1  0  0  0
 16 17  1  0  0  0
 17 18  1  0  0  0
 18 19  1  0  0  0
 18 22  1  0  0  0
 22 23  2  0  0  0
 22 24  1  0  0  0
 40 41  2  0  0  0
 47 48  1  0  0  0
 48 49  2  0  0  0
 49 44  1  0  0  0
 41 36  1  0  0  0
 33 28  1  0  0  0
 10  5  1  0  0  0
 14 15  1  0  0  0
 19 20  1  0  0  0
 19 21  1  0  0  0
 24 25  1  0  0  0
M  END
> <minimizedAffinity>
-9.32407

> <CNNscore>
0.4463235736

> <CNNaffinity>
6.4409856796

> <CNN_VS>
2.8747637272

> <CNNaffinity_variance>
0.3235108256

$$$$
[H]OC(=O)[C@@]([H])(N([H])[H])C([H])([H])OP(=O)(O[H])O[C@]1([H])C([H])([H])C([H])([H])C([H])([H])O[C@]1([H])C([H])([H])OC(=O)C([H])([H])C([H])([H])c1c([H])c([H])c([H])c([H])c1OC([H])([H])c1c([H])c([H])c([H])c(Oc2c([H])c([H])c(C([H])([H])[H])c([H])c2[H])c1[H]


 49 52  0  0  0  0  0  0  0  0999 V2000
   -7.0655   22.2905  -21.8317 C   0  0  0  0  0  0  0  0  0  0  0  0
   -7.6864   23.3555  -21.6803 O   0  0  0  0  0  0  0  0  0  0  0  0
   -6.4453   21.7371  -20.6863 O   0  0  0  0  0  0  0  0  0  0  0  0
   -7.0586   20.9719  -19.7455 C   0  0  0  0  0  0  0  0  0  0  0  0
   -6.9409   21.3452  -18.2986 C   0  0  0  0  0  0  0  0  0  0  0  0
   -6.2383   22.5007  -18.0806 O   0  0  0  0  0  0  0  0  0  0  0  0
   -6.6512   23.2789  -17.0281 C   0  0  0  0  0  0  0  0  0  0  0  0
   -7.1692   22.5394  -15.8357 C   0  0  0  0  0  0  0  0  0  0  0  0
   -8.0735   21.4028  -16.1566 C   0  0  0  0  0  0  0  0  0  0  0  0
   -8.3318   21.3927  -17.6531 C   0  0  0  0  0  0  0  0  0  0  0  0
   -9.1068   22.4343  -18.0680 O   0  0  0  0  0  0  0  0  0  0  0  0
  -10.7329   22.3263  -17.7148 P   0  0  0  0  0  0  0  0  0  0  0  0
  -11.1294   22.9166  -16.4023 O   0  0  0  0  0  0  0  0  0  0  0  0
  -11.6805   23.1176  -18.9022 O   0  0  0  0  0  0  0  0  0  0  0  0
  -11.8950   22.4903  -19.6096 H   0  0  0  0  0  0  0  0  0  0  0  0
  -11.1616   20.6785  -17.8050 O   0  0  0  0  0  0  0  0  0  0  0  0
  -12.5359   20.5001  -17.9397 C   0  0  0  0  0  0  0  0  0  0  0  0
  -13.0218   19.9603  -16.6035 C   0  0  0  0  0  0  0  0  0  0  0  0
  -13.6054   21.0457  -15.8670 N   0  0  0  0  0  0  0  0  0  0  0  0
  -14.5732   21.2423  -16.1308 H   0  0  0  0  0  0  0  0  0  0  0  0
  -13.3965   21.0439  -14.8602 H   0  0  0  0  0  0  0  0  0  0  0  0
  -11.9986   19.2143  -15.8652 C   0  0  0  0  0  0  0  0  0  0  0  0
  -11.9451   17.9661  -15.9089 O   0  0  0  0  0  0  0  0  0  0  0  0
  -11.0655   19.8858  -15.0989 O   0  0  0  0  0  0  0  0  0  0  0  0
  -10.3409   20.4813  -15.4235 H   0  0  0  0  0  0  0  0  0  0  0  0
   -6.9335   21.5903  -23.1049 C   0  0  0  0  0  0  0  0  0  0  0  0
   -5.7215   21.7745  -23.9204 C   0  0  0  0  0  0  0  0  0  0  0  0
   -5.6429   24.2444  -24.4600 C   0  0  0  0  0  0  0  0  0  0  0  0
   -5.0447   25.4564  -24.2460 C   0  0  0  0  0  0  0  0  0  0  0  0
   -3.8887   25.6036  -23.4683 C   0  0  0  0  0  0  0  0  0  0  0  0
   -3.3520   24.4700  -22.9075 C   0  0  0  0  0  0  0  0  0  0  0  0
   -3.9326   23.2458  -23.1035 C   0  0  0  0  0  0  0  0  0  0  0  0
   -5.0751   23.1146  -23.8721 C   0  0  0  0  0  0  0  0  0  0  0  0
   -6.7492   24.1266  -25.2271 O   0  0  0  0  0  0  0  0  0  0  0  0
   -6.9586   23.8214  -26.5440 C   0  0  0  0  0  0  0  0  0  0  0  0
   -3.6541   23.6851  -28.3952 C   0  0  0  0  0  0  0  0  0  0  0  0
   -3.7201   24.8097  -29.2218 C   0  0  0  0  0  0  0  0  0  0  0  0
   -4.8601   25.5698  -29.1268 C   0  0  0  0  0  0  0  0  0  0  0  0
   -5.8855   25.2491  -28.2689 C   0  0  0  0  0  0  0  0  0  0  0  0
   -5.7963   24.1271  -27.4596 C   0  0  0  0  0  0  0  0  0  0  0  0
   -4.6737   23.3575  -27.5362 C   0  0  0  0  0  0  0  0  0  0  0  0
   -2.4971   22.9305  -28.4977 O   0  0  0  0  0  0  0  0  0  0  0  0
    1.0103   21.7424  -24.2875 C   0  0  0  0  0  0  0  0  0  0  0  0
    0.0804   22.0563  -25.3902 C   0  0  0  0  0  0  0  0  0  0  0  0
   -1.2888   21.9250  -25.2004 C   0  0  0  0  0  0  0  0  0  0  0  0
   -2.1362   22.2273  -26.2633 C   0  0  0  0  0  0  0  0  0  0  0  0
   -1.6540   22.6448  -27.4765 C   0  0  0  0  0  0  0  0  0  0  0  0
   -0.2744   22.7686  -27.6409 C   0  0  0  0  0  0  0  0  0  0  0  0
    0.5923   22.4798  -26.6144 C   0  0  0  0  0  0  0  0  0  0  0  0
 43 44  1  0  0  0
 44 45  2  0  0  0
 45 46  1  0  0  0
 46 47  2  0  0  0
 47 42  1  0  0  0
 42 36  1  0  0  0
 36 37  2  0  0  0
 37 38  1  0  0  0
 38 39  2  0  0  0
 39 40  1  0  0  0
 40 35  1  0  0  0
 35 34  1  0  0  0
 34 28  1  0  0  0
 28 29  2  0  0  0
 29 30  1  0  0  0
 30 31  2  0  0  0
 31 32  1  0  0  0
 32 33  2  0  0  0
 33 27  1  0  0  0
 27 26  1  0  0  0
 26  1  1  0  0  0
  1  2  2  0  0  0
  1  3  1  0  0  0
  3  4  1  0  0  0
  4  5  1  0  0  0
  5  6  1  0  0  0
  6  7  1  0  0  0
  7  8  1  0  0  0
  8  9  1  0  0  0
  9 10  1  0  0  0
 10 11  1  0  0  0
 11 12  1  0  0  0
 12 13  2  0  0  0
 12 14  1  0  0  0
 12 16  1  0  0  0
 16 17  1  0  0  0
 17 18  1  0  0  0
 18 19  1  0  0  0
 18 22  1  0  0  0
 22 23  2  0  0  0
 22 24  1  0  0  0
 40 41  2  0  0  0
 47 48  1  0  0  0
 48 49  2  0  0  0
 49 44  1  0  0  0
 41 36  1  0  0  0
 33 28  1  0  0  0
 10  5  1  0  0  0
 14 15  1  0  0  0
 19 20  1  0  0  0
 19 21  1  0  0  0
 24 25  1  0  0  0
M  END
> <minimizedAffinity>
-8.48258

> <CNNscore>
0.3825131655

> <CNNaffinity>
6.4085607529

> <CNN_VS>
2.4513587952

> <CNNaffinity_variance>
0.1711546630

$$$$
[H]OC(=O)[C@@]([H])(N([H])[H])C([H])([H])OP(=O)(O[H])O[C@]1([H])C([H])([H])C([H])([H])C([H])([H])O[C@]1([H])C([H])([H])OC(=O)C([H])([H])C([H])([H])c1c([H])c([H])c([H])c([H])c1OC([H])([H])c1c([H])c([H])c([H])c(Oc2c([H])c([H])c(C([H])([H])[H])c([H])c2[H])c1[H]


 49 52  0  0  0  0  0  0  0  0999 V2000
   -5.6538   23.1104  -24.4255 C   0  0  0  0  0  0  0  0  0  0  0  0
   -4.8035   23.8998  -24.8687 O   0  0  0  0  0  0  0  0  0  0  0  0
   -6.9016   23.6558  -24.0403 O   0  0  0  0  0  0  0  0  0  0  0  0
   -7.4052   23.6670  -22.7781 C   0  0  0  0  0  0  0  0  0  0  0  0
   -8.1217   24.8855  -22.2799 C   0  0  0  0  0  0  0  0  0  0  0  0
   -9.1263   25.3137  -23.1068 O   0  0  0  0  0  0  0  0  0  0  0  0
  -10.2255   25.8670  -22.4990 C   0  0  0  0  0  0  0  0  0  0  0  0
   -9.9542   26.6590  -21.2595 C   0  0  0  0  0  0  0  0  0  0  0  0
   -8.9806   26.0329  -20.3253 C   0  0  0  0  0  0  0  0  0  0  0  0
   -8.6213   24.6531  -20.8481 C   0  0  0  0  0  0  0  0  0  0  0  0
   -9.6475   23.7614  -20.7506 O   0  0  0  0  0  0  0  0  0  0  0  0
   -9.4763   22.5674  -19.5992 P   0  0  0  0  0  0  0  0  0  0  0  0
   -8.7664   21.3412  -20.0693 O   0  0  0  0  0  0  0  0  0  0  0  0
   -8.6025   23.1358  -18.2399 O   0  0  0  0  0  0  0  0  0  0  0  0
   -9.2213   23.5228  -17.6018 H   0  0  0  0  0  0  0  0  0  0  0  0
  -11.0365   22.1941  -19.0219 O   0  0  0  0  0  0  0  0  0  0  0  0
  -11.4234   23.0289  -17.9769 C   0  0  0  0  0  0  0  0  0  0  0  0
  -12.2281   24.1518  -18.6128 C   0  0  0  0  0  0  0  0  0  0  0  0
  -12.5038   25.1336  -17.6024 N   0  0  0  0  0  0  0  0  0  0  0  0
  -11.7318   25.7853  -17.4470 H   0  0  0  0  0  0  0  0  0  0  0  0
  -13.4464   25.5422  -17.6453 H   0  0  0  0  0  0  0  0  0  0  0  0
  -13.4138   23.6859  -19.3378 C   0  0  0  0  0  0  0  0  0  0  0  0
  -14.4814   23.4275  -18.7410 O   0  0  0  0  0  0  0  0  0  0  0  0
  -13.3709   23.5219  -20.7090 O   0  0  0  0  0  0  0  0  0  0  0  0
  -13.2799   24.2337  -21.3946 H   0  0  0  0  0  0  0  0  0  0  0  0
   -5.4418   21.6748  -24.2737 C   0  0  0  0  0  0  0  0  0  0  0  0
   -4.0883   21.1573  -24.0128 C   0  0  0  0  0  0  0  0  0  0  0  0
   -2.0987   21.6790  -22.5407 C   0  0  0  0  0  0  0  0  0  0  0  0
   -1.6404   22.1371  -21.3355 C   0  0  0  0  0  0  0  0  0  0  0  0
   -2.4933   22.4369  -20.2652 C   0  0  0  0  0  0  0  0  0  0  0  0
   -3.8416   22.2557  -20.4576 C   0  0  0  0  0  0  0  0  0  0  0  0
   -4.3263   21.8014  -21.6546 C   0  0  0  0  0  0  0  0  0  0  0  0
   -3.4733   21.5109  -22.7041 C   0  0  0  0  0  0  0  0  0  0  0  0
   -1.2539   21.3823  -23.5529 O   0  0  0  0  0  0  0  0  0  0  0  0
   -0.3445   22.1107  -24.2697 C   0  0  0  0  0  0  0  0  0  0  0  0
   -2.2851   22.5889  -27.4900 C   0  0  0  0  0  0  0  0  0  0  0  0
   -1.2746   22.8426  -28.4211 C   0  0  0  0  0  0  0  0  0  0  0  0
    0.0119   22.8405  -27.9401 C   0  0  0  0  0  0  0  0  0  0  0  0
    0.2991   22.6034  -26.6166 C   0  0  0  0  0  0  0  0  0  0  0  0
   -0.7217   22.3553  -25.7121 C   0  0  0  0  0  0  0  0  0  0  0  0
   -2.0069   22.3518  -26.1667 C   0  0  0  0  0  0  0  0  0  0  0  0
   -3.5770   22.5892  -27.9895 O   0  0  0  0  0  0  0  0  0  0  0  0
   -5.7858   26.5346  -31.3055 C   0  0  0  0  0  0  0  0  0  0  0  0
   -5.2017   25.5020  -30.4268 C   0  0  0  0  0  0  0  0  0  0  0  0
   -4.2222   25.8492  -29.5060 C   0  0  0  0  0  0  0  0  0  0  0  0
   -3.6917   24.8488  -28.6953 C   0  0  0  0  0  0  0  0  0  0  0  0
   -4.1095   23.5466  -28.7865 C   0  0  0  0  0  0  0  0  0  0  0  0
   -5.0949   23.2245  -29.7197 C   0  0  0  0  0  0  0  0  0  0  0  0
   -5.6419   24.1851  -30.5360 C   0  0  0  0  0  0  0  0  0  0  0  0
 43 44  1  0  0  0
 44 45  2  0  0  0
 45 46  1  0  0  0
 46 47  2  0  0  0
 47 42  1  0  0  0
 42 36  1  0  0  0
 36 37  2  0  0  0
 37 38  1  0  0  0
 38 39  2  0  0  0
 39 40  1  0  0  0
 40 35  1  0  0  0
 35 34  1  0  0  0
 34 28  1  0  0  0
 28 29  2  0  0  0
 29 30  1  0  0  0
 30 31  2  0  0  0
 31 32  1  0  0  0
 32 33  2  0  0  0
 33 27  1  0  0  0
 27 26  1  0  0  0
 26  1  1  0  0  0
  1  2  2  0  0  0
  1  3  1  0  0  0
  3  4  1  0  0  0
  4  5  1  0  0  0
  5  6  1  0  0  0
  6  7  1  0  0  0
  7  8  1  0  0  0
  8  9  1  0  0  0
  9 10  1  0  0  0
 10 11  1  0  0  0
 11 12  1  0  0  0
 12 13  2  0  0  0
 12 14  1  0  0  0
 12 16  1  0  0  0
 16 17  1  0  0  0
 17 18  1  0  0  0
 18 19  1  0  0  0
 18 22  1  0  0  0
 22 23  2  0  0  0
 22 24  1  0  0  0
 40 41  2  0  0  0
 47 48  1  0  0  0
 48 49  2  0  0  0
 49 44  1  0  0  0
 41 36  1  0  0  0
 33 28  1  0  0  0
 10  5  1  0  0  0
 14 15  1  0  0  0
 19 20  1  0  0  0
 19 21  1  0  0  0
 24 25  1  0  0  0
M  END
> <minimizedAffinity>
-9.25320

> <CNNscore>
0.3262230456

> <CNNaffinity>
6.2573633194

> <CNN_VS>
2.0412960052

> <CNNaffinity_variance>
0.2106635123

$$$$
[H]OC(=O)[C@@]([H])(N([H])[H])C([H])([H])OP(=O)(O[H])O[C@]1([H])C([H])([H])C([H])([H])C([H])([H])O[C@]1([H])C([H])([H])OC(=O)C([H])([H])C([H])([H])c1c([H])c([H])c([H])c([H])c1OC([H])([H])c1c([H])c([H])c([H])c(Oc2c([H])c([H])c(C([H])([H])[H])c([H])c2[H])c1[H]


 49 52  0  0  0  0  0  0  0  0999 V2000
   -1.7298   22.5386  -20.4234 C   0  0  0  0  0  0  0  0  0  0  0  0
   -1.4586   23.7241  -20.6753 O   0  0  0  0  0  0  0  0  0  0  0  0
   -3.0573   22.1143  -20.6694 O   0  0  0  0  0  0  0  0  0  0  0  0
   -4.0504   22.8819  -21.1905 C   0  0  0  0  0  0  0  0  0  0  0  0
   -4.3770   22.7760  -22.6495 C   0  0  0  0  0  0  0  0  0  0  0  0
   -4.8962   21.5619  -23.0137 O   0  0  0  0  0  0  0  0  0  0  0  0
   -5.8363   21.5732  -24.0136 C   0  0  0  0  0  0  0  0  0  0  0  0
   -5.6353   22.5979  -25.0845 C   0  0  0  0  0  0  0  0  0  0  0  0
   -5.2447   23.9444  -24.5876 C   0  0  0  0  0  0  0  0  0  0  0  0
   -5.2890   23.9359  -23.0696 C   0  0  0  0  0  0  0  0  0  0  0  0
   -6.5561   23.8604  -22.5731 O   0  0  0  0  0  0  0  0  0  0  0  0
   -7.0280   25.1076  -21.5717 P   0  0  0  0  0  0  0  0  0  0  0  0
   -6.0187   25.5029  -20.5453 O   0  0  0  0  0  0  0  0  0  0  0  0
   -7.3808   26.5242  -22.4677 O   0  0  0  0  0  0  0  0  0  0  0  0
   -8.3147   26.5131  -22.7276 H   0  0  0  0  0  0  0  0  0  0  0  0
   -8.4985   24.6432  -20.8444 O   0  0  0  0  0  0  0  0  0  0  0  0
   -9.0320   25.6527  -20.0476 C   0  0  0  0  0  0  0  0  0  0  0  0
  -10.4326   25.9120  -20.5806 C   0  0  0  0  0  0  0  0  0  0  0  0
  -10.6434   25.0626  -21.7187 N   0  0  0  0  0  0  0  0  0  0  0  0
  -10.9225   24.1112  -21.4700 H   0  0  0  0  0  0  0  0  0  0  0  0
  -11.1555   25.5021  -22.4945 H   0  0  0  0  0  0  0  0  0  0  0  0
  -10.7130   27.3292  -20.8281 C   0  0  0  0  0  0  0  0  0  0  0  0
  -10.2274   27.9261  -21.8133 O   0  0  0  0  0  0  0  0  0  0  0  0
  -11.5277   28.0379  -19.9662 O   0  0  0  0  0  0  0  0  0  0  0  0
  -12.5015   27.9109  -19.8224 H   0  0  0  0  0  0  0  0  0  0  0  0
   -0.7753   21.5731  -19.8890 C   0  0  0  0  0  0  0  0  0  0  0  0
   -0.4129   20.3857  -20.6806 C   0  0  0  0  0  0  0  0  0  0  0  0
    0.9940   20.9835  -22.6958 C   0  0  0  0  0  0  0  0  0  0  0  0
    2.2446   21.1107  -23.2364 C   0  0  0  0  0  0  0  0  0  0  0  0
    3.4056   20.7110  -22.5618 C   0  0  0  0  0  0  0  0  0  0  0  0
    3.2571   20.1721  -21.3067 C   0  0  0  0  0  0  0  0  0  0  0  0
    2.0175   20.0365  -20.7418 C   0  0  0  0  0  0  0  0  0  0  0  0
    0.8792   20.4371  -21.4180 C   0  0  0  0  0  0  0  0  0  0  0  0
   -0.1121   21.3628  -23.3733 O   0  0  0  0  0  0  0  0  0  0  0  0
   -0.5595   22.5612  -23.8579 C   0  0  0  0  0  0  0  0  0  0  0  0
   -2.2415   22.5555  -27.2544 C   0  0  0  0  0  0  0  0  0  0  0  0
   -1.1592   22.6620  -28.1317 C   0  0  0  0  0  0  0  0  0  0  0  0
    0.0867   22.7277  -27.5574 C   0  0  0  0  0  0  0  0  0  0  0  0
    0.2686   22.6919  -26.1951 C   0  0  0  0  0  0  0  0  0  0  0  0
   -0.8219   22.5869  -25.3455 C   0  0  0  0  0  0  0  0  0  0  0  0
   -2.0687   22.5197  -25.8929 C   0  0  0  0  0  0  0  0  0  0  0  0
   -3.4914   22.4853  -27.8471 O   0  0  0  0  0  0  0  0  0  0  0  0
   -5.6220   26.2469  -31.4179 C   0  0  0  0  0  0  0  0  0  0  0  0
   -5.0577   25.2630  -30.4730 C   0  0  0  0  0  0  0  0  0  0  0  0
   -3.9957   25.6202  -29.6529 C   0  0  0  0  0  0  0  0  0  0  0  0
   -3.4870   24.6659  -28.7756 C   0  0  0  0  0  0  0  0  0  0  0  0
   -4.0044   23.3986  -28.7062 C   0  0  0  0  0  0  0  0  0  0  0  0
   -5.0712   23.0654  -29.5408 C   0  0  0  0  0  0  0  0  0  0  0  0
   -5.5997   23.9811  -30.4186 C   0  0  0  0  0  0  0  0  0  0  0  0
 43 44  1  0  0  0
 44 45  2  0  0  0
 45 46  1  0  0  0
 46 47  2  0  0  0
 47 42  1  0  0  0
 42 36  1  0  0  0
 36 37  2  0  0  0
 37 38  1  0  0  0
 38 39  2  0  0  0
 39 40  1  0  0  0
 40 35  1  0  0  0
 35 34  1  0  0  0
 34 28  1  0  0  0
 28 29  2  0  0  0
 29 30  1  0  0  0
 30 31  2  0  0  0
 31 32  1  0  0  0
 32 33  2  0  0  0
 33 27  1  0  0  0
 27 26  1  0  0  0
 26  1  1  0  0  0
  1  2  2  0  0  0
  1  3  1  0  0  0
  3  4  1  0  0  0
  4  5  1  0  0  0
  5  6  1  0  0  0
  6  7  1  0  0  0
  7  8  1  0  0  0
  8  9  1  0  0  0
  9 10  1  0  0  0
 10 11  1  0  0  0
 11 12  1  0  0  0
 12 13  2  0  0  0
 12 14  1  0  0  0
 12 16  1  0  0  0
 16 17  1  0  0  0
 17 18  1  0  0  0
 18 19  1  0  0  0
 18 22  1  0  0  0
 22 23  2  0  0  0
 22 24  1  0  0  0
 40 41  2  0  0  0
 47 48  1  0  0  0
 48 49  2  0  0  0
 49 44  1  0  0  0
 41 36  1  0  0  0
 33 28  1  0  0  0
 10  5  1  0  0  0
 14 15  1  0  0  0
 19 20  1  0  0  0
 19 21  1  0  0  0
 24 25  1  0  0  0
M  END
> <minimizedAffinity>
-9.16467

> <CNNscore>
0.2989248037

> <CNNaffinity>
6.6122756004

> <CNN_VS>
1.9765732288

> <CNNaffinity_variance>
0.3209734559

$$$$
[H]OC(=O)[C@@]([H])(N([H])[H])C([H])([H])OP(=O)(O[H])O[C@]1([H])C([H])([H])C([H])([H])C([H])([H])O[C@]1([H])C([H])([H])OC(=O)C([H])([H])C([H])([H])c1c([H])c([H])c([H])c([H])c1OC([H])([H])c1c([H])c([H])c([H])c(Oc2c([H])c([H])c(C([H])([H])[H])c([H])c2[H])c1[H]


 49 52  0  0  0  0  0  0  0  0999 V2000
   -3.8947   23.2834  -21.5476 C   0  0  0  0  0  0  0  0  0  0  0  0
   -4.4446   24.3581  -21.2562 O   0  0  0  0  0  0  0  0  0  0  0  0
   -4.2037   22.7220  -22.8094 O   0  0  0  0  0  0  0  0  0  0  0  0
   -5.2923   23.0233  -23.5651 C   0  0  0  0  0  0  0  0  0  0  0  0
   -5.1867   24.0787  -24.6241 C   0  0  0  0  0  0  0  0  0  0  0  0
   -5.6801   23.6920  -25.8420 O   0  0  0  0  0  0  0  0  0  0  0  0
   -6.2827   24.6676  -26.5962 C   0  0  0  0  0  0  0  0  0  0  0  0
   -5.6899   26.0362  -26.4840 C   0  0  0  0  0  0  0  0  0  0  0  0
   -5.3462   26.4504  -25.0973 C   0  0  0  0  0  0  0  0  0  0  0  0
   -5.8323   25.3814  -24.1344 C   0  0  0  0  0  0  0  0  0  0  0  0
   -7.1907   25.3305  -24.0348 O   0  0  0  0  0  0  0  0  0  0  0  0
   -7.8172   25.4032  -22.4911 P   0  0  0  0  0  0  0  0  0  0  0  0
   -8.2502   24.0901  -21.9284 O   0  0  0  0  0  0  0  0  0  0  0  0
   -6.6757   26.0450  -21.3869 O   0  0  0  0  0  0  0  0  0  0  0  0
   -6.7647   27.0100  -21.3606 H   0  0  0  0  0  0  0  0  0  0  0  0
   -9.1074   26.5175  -22.5210 O   0  0  0  0  0  0  0  0  0  0  0  0
  -10.3464   25.8886  -22.4326 C   0  0  0  0  0  0  0  0  0  0  0  0
  -11.3216   26.9496  -21.9464 C   0  0  0  0  0  0  0  0  0  0  0  0
  -11.0778   28.1554  -22.6863 N   0  0  0  0  0  0  0  0  0  0  0  0
  -11.5313   28.1694  -23.6023 H   0  0  0  0  0  0  0  0  0  0  0  0
  -11.1378   29.0196  -22.1324 H   0  0  0  0  0  0  0  0  0  0  0  0
  -11.3188   27.1261  -20.4913 C   0  0  0  0  0  0  0  0  0  0  0  0
  -11.2990   26.1449  -19.7170 O   0  0  0  0  0  0  0  0  0  0  0  0
  -11.3389   28.3948  -19.9445 O   0  0  0  0  0  0  0  0  0  0  0  0
  -10.6199   29.0775  -19.9892 H   0  0  0  0  0  0  0  0  0  0  0  0
   -2.9675   22.5717  -20.6743 C   0  0  0  0  0  0  0  0  0  0  0  0
   -1.5840   23.0534  -20.5262 C   0  0  0  0  0  0  0  0  0  0  0  0
   -0.0874   21.5072  -21.8556 C   0  0  0  0  0  0  0  0  0  0  0  0
    1.0044   20.6824  -21.8674 C   0  0  0  0  0  0  0  0  0  0  0  0
    1.7134   20.3477  -20.7063 C   0  0  0  0  0  0  0  0  0  0  0  0
    1.2756   20.8821  -19.5187 C   0  0  0  0  0  0  0  0  0  0  0  0
    0.1878   21.7124  -19.4798 C   0  0  0  0  0  0  0  0  0  0  0  0
   -0.5022   22.0365  -20.6340 C   0  0  0  0  0  0  0  0  0  0  0  0
   -0.7636   21.8028  -22.9877 O   0  0  0  0  0  0  0  0  0  0  0  0
   -0.8928   22.9357  -23.7434 C   0  0  0  0  0  0  0  0  0  0  0  0
   -2.0745   22.3850  -27.3023 C   0  0  0  0  0  0  0  0  0  0  0  0
   -0.8744   22.2850  -28.0108 C   0  0  0  0  0  0  0  0  0  0  0  0
    0.2794   22.4013  -27.2749 C   0  0  0  0  0  0  0  0  0  0  0  0
    0.2641   22.6055  -25.9154 C   0  0  0  0  0  0  0  0  0  0  0  0
   -0.9400   22.7022  -25.2353 C   0  0  0  0  0  0  0  0  0  0  0  0
   -2.0986   22.5894  -25.9449 C   0  0  0  0  0  0  0  0  0  0  0  0
   -3.2300   22.2611  -28.0559 O   0  0  0  0  0  0  0  0  0  0  0  0
   -5.5243   26.2965  -31.2010 C   0  0  0  0  0  0  0  0  0  0  0  0
   -4.9157   25.2401  -30.3686 C   0  0  0  0  0  0  0  0  0  0  0  0
   -3.7226   25.4847  -29.7019 C   0  0  0  0  0  0  0  0  0  0  0  0
   -3.1758   24.4643  -28.9278 C   0  0  0  0  0  0  0  0  0  0  0  0
   -3.7817   23.2403  -28.8124 C   0  0  0  0  0  0  0  0  0  0  0  0
   -4.9797   23.0205  -29.4922 C   0  0  0  0  0  0  0  0  0  0  0  0
   -5.5491   24.0040  -30.2648 C   0  0  0  0  0  0  0  0  0  0  0  0
 43 44  1  0  0  0
 44 45  2  0  0  0
 45 46  1  0  0  0
 46 47  2  0  0  0
 47 42  1  0  0  0
 42 36  1  0  0  0
 36 37  2  0  0  0
 37 38  1  0  0  0
 38 39  2  0  0  0
 39 40  1  0  0  0
 40 35  1  0  0  0
 35 34  1  0  0  0
 34 28  1  0  0  0
 28 29  2  0  0  0
 29 30  1  0  0  0
 30 31  2  0  0  0
 31 32  1  0  0  0
 32 33  2  0  0  0
 33 27  1  0  0  0
 27 26  1  0  0  0
 26  1  1  0  0  0
  1  2  2  0  0  0
  1  3  1  0  0  0
  3  4  1  0  0  0
  4  5  1  0  0  0
  5  6  1  0  0  0
  6  7  1  0  0  0
  7  8  1  0  0  0
  8  9  1  0  0  0
  9 10  1  0  0  0
 10 11  1  0  0  0
 11 12  1  0  0  0
 12 13  2  0  0  0
 12 14  1  0  0  0
 12 16  1  0  0  0
 16 17  1  0  0  0
 17 18  1  0  0  0
 18 19  1  0  0  0
 18 22  1  0  0  0
 22 23  2  0  0  0
 22 24  1  0  0  0
 40 41  2  0  0  0
 47 48  1  0  0  0
 48 49  2  0  0  0
 49 44  1  0  0  0
 41 36  1  0  0  0
 33 28  1  0  0  0
 10  5  1  0  0  0
 14 15  1  0  0  0
 19 20  1  0  0  0
 19 21  1  0  0  0
 24 25  1  0  0  0
M  END
> <minimizedAffinity>
-9.18927

> <CNNscore>
0.2961146832

> <CNNaffinity>
6.7882485390

> <CNN_VS>
2.0101001263

> <CNNaffinity_variance>
0.2490936816

$$$$
[H]OC(=O)[C@@]([H])(N([H])[H])C([H])([H])OP(=O)(O[H])O[C@]1([H])C([H])([H])C([H])([H])C([H])([H])O[C@]1([H])C([H])([H])OC(=O)C([H])([H])C([H])([H])c1c([H])c([H])c([H])c([H])c1OC([H])([H])c1c([H])c([H])c([H])c(Oc2c([H])c([H])c(C([H])([H])[H])c([H])c2[H])c1[H]


 49 52  0  0  0  0  0  0  0  0999 V2000
   -4.1529   23.2930  -21.8516 C   0  0  0  0  0  0  0  0  0  0  0  0
   -3.5246   24.3641  -21.8338 O   0  0  0  0  0  0  0  0  0  0  0  0
   -4.6417   22.8112  -20.6140 O   0  0  0  0  0  0  0  0  0  0  0  0
   -5.1008   21.5538  -20.3792 C   0  0  0  0  0  0  0  0  0  0  0  0
   -6.5328   21.3522  -19.9854 C   0  0  0  0  0  0  0  0  0  0  0  0
   -6.7778   20.1441  -19.3880 O   0  0  0  0  0  0  0  0  0  0  0  0
   -7.7385   20.1295  -18.4079 C   0  0  0  0  0  0  0  0  0  0  0  0
   -8.8954   21.0541  -18.6166 C   0  0  0  0  0  0  0  0  0  0  0  0
   -8.5242   22.4116  -19.0984 C   0  0  0  0  0  0  0  0  0  0  0  0
   -7.0099   22.5246  -19.1186 C   0  0  0  0  0  0  0  0  0  0  0  0
   -6.4606   22.5592  -17.8717 O   0  0  0  0  0  0  0  0  0  0  0  0
   -5.7981   24.0154  -17.4010 P   0  0  0  0  0  0  0  0  0  0  0  0
   -4.3174   23.9981  -17.2122 O   0  0  0  0  0  0  0  0  0  0  0  0
   -6.1206   25.2447  -18.5494 O   0  0  0  0  0  0  0  0  0  0  0  0
   -6.9631   25.6720  -18.3316 H   0  0  0  0  0  0  0  0  0  0  0  0
   -6.5967   24.4964  -15.9735 O   0  0  0  0  0  0  0  0  0  0  0  0
   -6.3089   23.6552  -14.9019 C   0  0  0  0  0  0  0  0  0  0  0  0
   -6.3162   24.5369  -13.6627 C   0  0  0  0  0  0  0  0  0  0  0  0
   -7.1339   23.9038  -12.6669 N   0  0  0  0  0  0  0  0  0  0  0  0
   -6.6435   23.1788  -12.1388 H   0  0  0  0  0  0  0  0  0  0  0  0
   -7.7243   24.5463  -12.1231 H   0  0  0  0  0  0  0  0  0  0  0  0
   -6.6746   25.9314  -13.9371 C   0  0  0  0  0  0  0  0  0  0  0  0
   -7.7915   26.3915  -13.6153 O   0  0  0  0  0  0  0  0  0  0  0  0
   -5.7738   26.7707  -14.5640 O   0  0  0  0  0  0  0  0  0  0  0  0
   -4.9131   27.1048  -14.1997 H   0  0  0  0  0  0  0  0  0  0  0  0
   -4.4066   22.5093  -23.0560 C   0  0  0  0  0  0  0  0  0  0  0  0
   -5.5736   22.8180  -23.8990 C   0  0  0  0  0  0  0  0  0  0  0  0
   -6.4357   25.1947  -23.8233 C   0  0  0  0  0  0  0  0  0  0  0  0
   -7.4179   26.0562  -23.4163 C   0  0  0  0  0  0  0  0  0  0  0  0
   -8.4800   25.6595  -22.5933 C   0  0  0  0  0  0  0  0  0  0  0  0
   -8.5156   24.3461  -22.1914 C   0  0  0  0  0  0  0  0  0  0  0  0
   -7.5471   23.4631  -22.5868 C   0  0  0  0  0  0  0  0  0  0  0  0
   -6.5047   23.8675  -23.4012 C   0  0  0  0  0  0  0  0  0  0  0  0
   -5.4129   25.6057  -24.6051 O   0  0  0  0  0  0  0  0  0  0  0  0
   -5.3412   26.3118  -25.7746 C   0  0  0  0  0  0  0  0  0  0  0  0
   -3.8532   23.7609  -28.1503 C   0  0  0  0  0  0  0  0  0  0  0  0
   -4.5345   24.0196  -29.3425 C   0  0  0  0  0  0  0  0  0  0  0  0
   -5.4588   25.0349  -29.3082 C   0  0  0  0  0  0  0  0  0  0  0  0
   -5.7072   25.7619  -28.1680 C   0  0  0  0  0  0  0  0  0  0  0  0
   -5.0186   25.4850  -26.9972 C   0  0  0  0  0  0  0  0  0  0  0  0
   -4.0957   24.4816  -27.0072 C   0  0  0  0  0  0  0  0  0  0  0  0
   -2.9208   22.7379  -28.2002 O   0  0  0  0  0  0  0  0  0  0  0  0
    1.0458   21.7900  -24.3522 C   0  0  0  0  0  0  0  0  0  0  0  0
    0.0075   22.0392  -25.3716 C   0  0  0  0  0  0  0  0  0  0  0  0
    0.3651   22.5373  -26.6174 C   0  0  0  0  0  0  0  0  0  0  0  0
   -0.6408   22.7628  -27.5536 C   0  0  0  0  0  0  0  0  0  0  0  0
   -1.9584   22.5080  -27.2749 C   0  0  0  0  0  0  0  0  0  0  0  0
   -2.2908   22.0078  -26.0159 C   0  0  0  0  0  0  0  0  0  0  0  0
   -1.3252   21.7723  -25.0671 C   0  0  0  0  0  0  0  0  0  0  0  0
 43 44  1  0  0  0
 44 45  2  0  0  0
 45 46  1  0  0  0
 46 47  2  0  0  0
 47 42  1  0  0  0
 42 36  1  0  0  0
 36 37  2  0  0  0
 37 38  1  0  0  0
 38 39  2  0  0  0
 39 40  1  0  0  0
 40 35  1  0  0  0
 35 34  1  0  0  0
 34 28  1  0  0  0
 28 29  2  0  0  0
 29 30  1  0  0  0
 30 31  2  0  0  0
 31 32  1  0  0  0
 32 33  2  0  0  0
 33 27  1  0  0  0
 27 26  1  0  0  0
 26  1  1  0  0  0
  1  2  2  0  0  0
  1  3  1  0  0  0
  3  4  1  0  0  0
  4  5  1  0  0  0
  5  6  1  0  0  0
  6  7  1  0  0  0
  7  8  1  0  0  0
  8  9  1  0  0  0
  9 10  1  0  0  0
 10 11  1  0  0  0
 11 12  1  0  0  0
 12 13  2  0  0  0
 12 14  1  0  0  0
 12 16  1  0  0  0
 16 17  1  0  0  0
 17 18  1  0  0  0
 18 19  1  0  0  0
 18 22  1  0  0  0
 22 23  2  0  0  0
 22 24  1  0  0  0
 40 41  2  0  0  0
 47 48  1  0  0  0
 48 49  2  0  0  0
 49 44  1  0  0  0
 41 36  1  0  0  0
 33 28  1  0  0  0
 10  5  1  0  0  0
 14 15  1  0  0  0
 19 20  1  0  0  0
 19 21  1  0  0  0
 24 25  1  0  0  0
M  END
> <minimizedAffinity>
-9.00937

> <CNNscore>
0.2769730091

> <CNNaffinity>
6.2382593155

> <CNN_VS>
1.7278294563

> <CNNaffinity_variance>
0.3180926442

$$$$
[H]OC(=O)[C@@]([H])(N([H])[H])C([H])([H])OP(=O)(O[H])O[C@]1([H])C([H])([H])C([H])([H])C([H])([H])O[C@]1([H])C([H])([H])OC(=O)C([H])([H])C([H])([H])c1c([H])c([H])c([H])c([H])c1OC([H])([H])c1c([H])c([H])c([H])c(Oc2c([H])c([H])c(C([H])([H])[H])c([H])c2[H])c1[H]


 49 52  0  0  0  0  0  0  0  0999 V2000
   -7.0851   23.6687  -22.2192 C   0  0  0  0  0  0  0  0  0  0  0  0
   -6.3430   24.3894  -21.5320 O   0  0  0  0  0  0  0  0  0  0  0  0
   -8.4158   24.1105  -22.4112 O   0  0  0  0  0  0  0  0  0  0  0  0
   -9.3041   24.4004  -21.4244 C   0  0  0  0  0  0  0  0  0  0  0  0
  -10.2563   25.5444  -21.6008 C   0  0  0  0  0  0  0  0  0  0  0  0
  -10.9377   25.5191  -22.7889 O   0  0  0  0  0  0  0  0  0  0  0  0
  -12.2255   25.9933  -22.7661 C   0  0  0  0  0  0  0  0  0  0  0  0
  -12.4818   27.1368  -21.8368 C   0  0  0  0  0  0  0  0  0  0  0  0
  -11.8495   26.9999  -20.4973 C   0  0  0  0  0  0  0  0  0  0  0  0
  -11.2068   25.6274  -20.3995 C   0  0  0  0  0  0  0  0  0  0  0  0
  -12.1172   24.6152  -20.3344 O   0  0  0  0  0  0  0  0  0  0  0  0
  -12.4168   23.9932  -18.8165 P   0  0  0  0  0  0  0  0  0  0  0  0
  -12.1612   24.9392  -17.6903 O   0  0  0  0  0  0  0  0  0  0  0  0
  -14.0474   23.4922  -18.6610 O   0  0  0  0  0  0  0  0  0  0  0  0
  -14.1260   22.5687  -18.9452 H   0  0  0  0  0  0  0  0  0  0  0  0
  -11.4815   22.5766  -18.6568 O   0  0  0  0  0  0  0  0  0  0  0  0
  -11.2244   22.2645  -17.3244 C   0  0  0  0  0  0  0  0  0  0  0  0
  -12.0189   21.0020  -17.0285 C   0  0  0  0  0  0  0  0  0  0  0  0
  -13.2367   21.3826  -16.3704 N   0  0  0  0  0  0  0  0  0  0  0  0
  -13.9705   21.6839  -17.0151 H   0  0  0  0  0  0  0  0  0  0  0  0
  -13.5264   20.7581  -15.6066 H   0  0  0  0  0  0  0  0  0  0  0  0
  -11.2479   19.9764  -16.3199 C   0  0  0  0  0  0  0  0  0  0  0  0
  -11.2131   18.7938  -16.7237 O   0  0  0  0  0  0  0  0  0  0  0  0
  -10.5387   20.3029  -15.1800 O   0  0  0  0  0  0  0  0  0  0  0  0
   -9.7403   20.8892  -15.1189 H   0  0  0  0  0  0  0  0  0  0  0  0
   -6.6733   22.4071  -22.8255 C   0  0  0  0  0  0  0  0  0  0  0  0
   -6.2216   22.3802  -24.2267 C   0  0  0  0  0  0  0  0  0  0  0  0
   -4.6462   24.3336  -24.5436 C   0  0  0  0  0  0  0  0  0  0  0  0
   -4.3259   25.4571  -25.2561 C   0  0  0  0  0  0  0  0  0  0  0  0
   -5.1530   25.9792  -26.2591 C   0  0  0  0  0  0  0  0  0  0  0  0
   -6.3289   25.3186  -26.5204 C   0  0  0  0  0  0  0  0  0  0  0  0
   -6.6716   24.1907  -25.8241 C   0  0  0  0  0  0  0  0  0  0  0  0
   -5.8449   23.6845  -24.8374 C   0  0  0  0  0  0  0  0  0  0  0  0
   -3.8383   23.8584  -23.5701 O   0  0  0  0  0  0  0  0  0  0  0  0
   -2.6435   23.1922  -23.5743 C   0  0  0  0  0  0  0  0  0  0  0  0
   -2.3486   22.4523  -27.2798 C   0  0  0  0  0  0  0  0  0  0  0  0
   -0.9794   22.2233  -27.4377 C   0  0  0  0  0  0  0  0  0  0  0  0
   -0.2103   22.3209  -26.3040 C   0  0  0  0  0  0  0  0  0  0  0  0
   -0.7494   22.6270  -25.0768 C   0  0  0  0  0  0  0  0  0  0  0  0
   -2.1112   22.8509  -24.9464 C   0  0  0  0  0  0  0  0  0  0  0  0
   -2.8948   22.7591  -26.0582 C   0  0  0  0  0  0  0  0  0  0  0  0
   -3.1128   22.3461  -28.4301 O   0  0  0  0  0  0  0  0  0  0  0  0
   -5.7164   26.5808  -31.0239 C   0  0  0  0  0  0  0  0  0  0  0  0
   -5.0255   25.4716  -30.3372 C   0  0  0  0  0  0  0  0  0  0  0  0
   -3.7332   25.6489  -29.8616 C   0  0  0  0  0  0  0  0  0  0  0  0
   -3.1112   24.5802  -29.2211 C   0  0  0  0  0  0  0  0  0  0  0  0
   -3.7386   23.3731  -29.0536 C   0  0  0  0  0  0  0  0  0  0  0  0
   -5.0369   23.2212  -29.5406 C   0  0  0  0  0  0  0  0  0  0  0  0
   -5.6824   24.2538  -30.1772 C   0  0  0  0  0  0  0  0  0  0  0  0
 43 44  1  0  0  0
 44 45  2  0  0  0
 45 46  1  0  0  0
 46 47  2  0  0  0
 47 42  1  0  0  0
 42 36  1  0  0  0
 36 37  2  0  0  0
 37 38  1  0  0  0
 38 39  2  0  0  0
 39 40  1  0  0  0
 40 35  1  0  0  0
 35 34  1  0  0  0
 34 28  1  0  0  0
 28 29  2  0  0  0
 29 30  1  0  0  0
 30 31  2  0  0  0
 31 32  1  0  0  0
 32 33  2  0  0  0
 33 27  1  0  0  0
 27 26  1  0  0  0
 26  1  1  0  0  0
  1  2  2  0  0  0
  1  3  1  0  0  0
  3  4  1  0  0  0
  4  5  1  0  0  0
  5  6  1  0  0  0
  6  7  1  0  0  0
  7  8  1  0  0  0
  8  9  1  0  0  0
  9 10  1  0  0  0
 10 11  1  0  0  0
 11 12  1  0  0  0
 12 13  2  0  0  0
 12 14  1  0  0  0
 12 16  1  0  0  0
 16 17  1  0  0  0
 17 18  1  0  0  0
 18 19  1  0  0  0
 18 22  1  0  0  0
 22 23  2  0  0  0
 22 24  1  0  0  0
 40 41  2  0  0  0
 47 48  1  0  0  0
 48 49  2  0  0  0
 49 44  1  0  0  0
 41 36  1  0  0  0
 33 28  1  0  0  0
 10  5  1  0  0  0
 14 15  1  0  0  0
 19 20  1  0  0  0
 19 21  1  0  0  0
 24 25  1  0  0  0
M  END
> <minimizedAffinity>
-9.01983

> <CNNscore>
0.2756466269

> <CNNaffinity>
6.3359704018

> <CNN_VS>
1.7464889288

> <CNNaffinity_variance>
0.1734127700

$$$$
[H]OC(=O)[C@@]([H])(N([H])[H])C([H])([H])OP(=O)(O[H])O[C@]1([H])C([H])([H])C([H])([H])C([H])([H])O[C@]1([H])C([H])([H])OC(=O)C([H])([H])C([H])([H])c1c([H])c([H])c([H])c([H])c1OC([H])([H])c1c([H])c([H])c([H])c(Oc2c([H])c([H])c(C([H])([H])[H])c([H])c2[H])c1[H]


 49 52  0  0  0  0  0  0  0  0999 V2000
   -6.9002   23.2889  -23.3162 C   0  0  0  0  0  0  0  0  0  0  0  0
   -7.1529   24.4271  -22.8886 O   0  0  0  0  0  0  0  0  0  0  0  0
   -7.1669   22.2009  -22.4513 O   0  0  0  0  0  0  0  0  0  0  0  0
   -6.7567   22.0970  -21.1599 C   0  0  0  0  0  0  0  0  0  0  0  0
   -7.7335   21.6673  -20.1073 C   0  0  0  0  0  0  0  0  0  0  0  0
   -7.5900   20.3615  -19.7191 O   0  0  0  0  0  0  0  0  0  0  0  0
   -7.8540   20.0821  -18.4015 C   0  0  0  0  0  0  0  0  0  0  0  0
   -8.9504   20.8824  -17.7734 C   0  0  0  0  0  0  0  0  0  0  0  0
   -8.9273   22.3321  -18.1055 C   0  0  0  0  0  0  0  0  0  0  0  0
   -7.6751   22.6277  -18.9124 C   0  0  0  0  0  0  0  0  0  0  0  0
   -6.5318   22.5368  -18.1760 O   0  0  0  0  0  0  0  0  0  0  0  0
   -5.8738   23.9796  -17.6602 P   0  0  0  0  0  0  0  0  0  0  0  0
   -4.3922   23.9628  -17.4782 O   0  0  0  0  0  0  0  0  0  0  0  0
   -6.2066   25.2448  -18.7660 O   0  0  0  0  0  0  0  0  0  0  0  0
   -7.0500   25.6608  -18.5305 H   0  0  0  0  0  0  0  0  0  0  0  0
   -6.6682   24.4095  -16.2142 O   0  0  0  0  0  0  0  0  0  0  0  0
   -6.3539   23.5483  -15.1663 C   0  0  0  0  0  0  0  0  0  0  0  0
   -6.1918   24.4268  -13.9355 C   0  0  0  0  0  0  0  0  0  0  0  0
   -6.8182   23.7645  -12.8264 N   0  0  0  0  0  0  0  0  0  0  0  0
   -6.2260   23.0555  -12.3888 H   0  0  0  0  0  0  0  0  0  0  0  0
   -7.3349   24.3857  -12.1904 H   0  0  0  0  0  0  0  0  0  0  0  0
   -6.6353   25.8089  -14.1388 C   0  0  0  0  0  0  0  0  0  0  0  0
   -7.7950   26.1702  -13.8433 O   0  0  0  0  0  0  0  0  0  0  0  0
   -5.7692   26.7468  -14.6673 O   0  0  0  0  0  0  0  0  0  0  0  0
   -4.9512   27.1135  -14.2414 H   0  0  0  0  0  0  0  0  0  0  0  0
   -6.3452   23.0119  -24.6369 C   0  0  0  0  0  0  0  0  0  0  0  0
   -5.7767   24.1089  -25.4378 C   0  0  0  0  0  0  0  0  0  0  0  0
   -3.8890   23.3917  -26.9609 C   0  0  0  0  0  0  0  0  0  0  0  0
   -3.5058   22.9473  -28.1971 C   0  0  0  0  0  0  0  0  0  0  0  0
   -4.3955   22.8450  -29.2745 C   0  0  0  0  0  0  0  0  0  0  0  0
   -5.7016   23.2115  -29.0565 C   0  0  0  0  0  0  0  0  0  0  0  0
   -6.1115   23.6565  -27.8285 C   0  0  0  0  0  0  0  0  0  0  0  0
   -5.2232   23.7510  -26.7725 C   0  0  0  0  0  0  0  0  0  0  0  0
   -3.0079   23.4958  -25.9416 O   0  0  0  0  0  0  0  0  0  0  0  0
   -3.0408   24.1168  -24.7231 C   0  0  0  0  0  0  0  0  0  0  0  0
   -1.4368   23.1986  -21.4141 C   0  0  0  0  0  0  0  0  0  0  0  0
   -0.9373   21.9173  -21.6617 C   0  0  0  0  0  0  0  0  0  0  0  0
   -1.1514   21.4125  -22.9209 C   0  0  0  0  0  0  0  0  0  0  0  0
   -1.8198   22.1213  -23.8909 C   0  0  0  0  0  0  0  0  0  0  0  0
   -2.3069   23.3907  -23.6201 C   0  0  0  0  0  0  0  0  0  0  0  0
   -2.1059   23.9129  -22.3768 C   0  0  0  0  0  0  0  0  0  0  0  0
   -1.2097   23.6972  -20.1420 O   0  0  0  0  0  0  0  0  0  0  0  0
    0.5790   20.7078  -15.7484 C   0  0  0  0  0  0  0  0  0  0  0  0
    0.1163   21.4952  -16.9082 C   0  0  0  0  0  0  0  0  0  0  0  0
    1.0183   22.2728  -17.6220 C   0  0  0  0  0  0  0  0  0  0  0  0
    0.5462   23.0045  -18.7088 C   0  0  0  0  0  0  0  0  0  0  0  0
   -0.7720   22.9746  -19.0830 C   0  0  0  0  0  0  0  0  0  0  0  0
   -1.6575   22.1852  -18.3492 C   0  0  0  0  0  0  0  0  0  0  0  0
   -1.2277   21.4492  -17.2713 C   0  0  0  0  0  0  0  0  0  0  0  0
 43 44  1  0  0  0
 44 45  2  0  0  0
 45 46  1  0  0  0
 46 47  2  0  0  0
 47 42  1  0  0  0
 42 36  1  0  0  0
 36 37  2  0  0  0
 37 38  1  0  0  0
 38 39  2  0  0  0
 39 40  1  0  0  0
 40 35  1  0  0  0
 35 34  1  0  0  0
 34 28  1  0  0  0
 28 29  2  0  0  0
 29 30  1  0  0  0
 30 31  2  0  0  0
 31 32  1  0  0  0
 32 33  2  0  0  0
 33 27  1  0  0  0
 27 26  1  0  0  0
 26  1  1  0  0  0
  1  2  2  0  0  0
  1  3  1  0  0  0
  3  4  1  0  0  0
  4  5  1  0  0  0
  5  6  1  0  0  0
  6  7  1  0  0  0
  7  8  1  0  0  0
  8  9  1  0  0  0
  9 10  1  0  0  0
 10 11  1  0  0  0
 11 12  1  0  0  0
 12 13  2  0  0  0
 12 14  1  0  0  0
 12 16  1  0  0  0
 16 17  1  0  0  0
 17 18  1  0  0  0
 18 19  1  0  0  0
 18 22  1  0  0  0
 22 23  2  0  0  0
 22 24  1  0  0  0
 40 41  2  0  0  0
 47 48  1  0  0  0
 48 49  2  0  0  0
 49 44  1  0  0  0
 41 36  1  0  0  0
 33 28  1  0  0  0
 10  5  1  0  0  0
 14 15  1  0  0  0
 19 20  1  0  0  0
 19 21  1  0  0  0
 24 25  1  0  0  0
M  END
> <minimizedAffinity>
-8.22392

> <CNNscore>
0.2557428777

> <CNNaffinity>
5.7832279205

> <CNN_VS>
1.4790194035

> <CNNaffinity_variance>
0.7210355997

$$$$
[H]OC(=O)[C@@]([H])(N([H])[H])C([H])([H])OP(=O)(O[H])O[C@]1([H])C([H])([H])C([H])([H])C([H])([H])O[C@]1([H])C([H])([H])OC(=O)C([H])([H])C([H])([H])c1c([H])c([H])c([H])c([H])c1OC([H])([H])c1c([H])c([H])c([H])c(Oc2c([H])c([H])c(C([H])([H])[H])c([H])c2[H])c1[H]


 49 52  0  0  0  0  0  0  0  0999 V2000
   -7.0464   22.1211  -21.0185 C   0  0  0  0  0  0  0  0  0  0  0  0
   -7.5560   23.0663  -20.3946 O   0  0  0  0  0  0  0  0  0  0  0  0
   -6.2193   21.2363  -20.2863 O   0  0  0  0  0  0  0  0  0  0  0  0
   -5.1294   21.5923  -19.5567 C   0  0  0  0  0  0  0  0  0  0  0  0
   -4.5665   20.6313  -18.5537 C   0  0  0  0  0  0  0  0  0  0  0  0
   -3.2019   20.6810  -18.4448 O   0  0  0  0  0  0  0  0  0  0  0  0
   -2.6788   20.4542  -17.1963 C   0  0  0  0  0  0  0  0  0  0  0  0
   -3.4120   19.4591  -16.3543 C   0  0  0  0  0  0  0  0  0  0  0  0
   -4.8933   19.5898  -16.3897 C   0  0  0  0  0  0  0  0  0  0  0  0
   -5.2547   20.8247  -17.1963 C   0  0  0  0  0  0  0  0  0  0  0  0
   -4.9309   21.9884  -16.5648 O   0  0  0  0  0  0  0  0  0  0  0  0
   -6.1949   22.8199  -15.8637 P   0  0  0  0  0  0  0  0  0  0  0  0
   -5.9029   23.3791  -14.5107 O   0  0  0  0  0  0  0  0  0  0  0  0
   -6.6821   24.1441  -16.8348 O   0  0  0  0  0  0  0  0  0  0  0  0
   -7.3579   23.8474  -17.4634 H   0  0  0  0  0  0  0  0  0  0  0  0
   -7.5324   21.7634  -15.8191 O   0  0  0  0  0  0  0  0  0  0  0  0
   -8.6264   22.3284  -15.1692 C   0  0  0  0  0  0  0  0  0  0  0  0
   -9.8598   21.7786  -15.8687 C   0  0  0  0  0  0  0  0  0  0  0  0
  -10.1666   20.4983  -15.2961 N   0  0  0  0  0  0  0  0  0  0  0  0
  -10.6975   20.5591  -14.4247 H   0  0  0  0  0  0  0  0  0  0  0  0
  -10.4757   19.7877  -15.9719 H   0  0  0  0  0  0  0  0  0  0  0  0
   -9.7516   21.7730  -17.3304 C   0  0  0  0  0  0  0  0  0  0  0  0
  -10.2227   20.8384  -18.0141 O   0  0  0  0  0  0  0  0  0  0  0  0
   -9.1191   22.8124  -17.9851 O   0  0  0  0  0  0  0  0  0  0  0  0
   -9.4262   23.7539  -18.0507 H   0  0  0  0  0  0  0  0  0  0  0  0
   -7.2416   21.8770  -22.4437 C   0  0  0  0  0  0  0  0  0  0  0  0
   -6.0797   21.8431  -23.3474 C   0  0  0  0  0  0  0  0  0  0  0  0
   -5.7456   24.2382  -24.0886 C   0  0  0  0  0  0  0  0  0  0  0  0
   -4.9890   25.3762  -24.0166 C   0  0  0  0  0  0  0  0  0  0  0  0
   -3.7643   25.4298  -23.3385 C   0  0  0  0  0  0  0  0  0  0  0  0
   -3.3255   24.2797  -22.7282 C   0  0  0  0  0  0  0  0  0  0  0  0
   -4.0646   23.1287  -22.7826 C   0  0  0  0  0  0  0  0  0  0  0  0
   -5.2734   23.0899  -23.4539 C   0  0  0  0  0  0  0  0  0  0  0  0
   -6.9168   24.2082  -24.7621 O   0  0  0  0  0  0  0  0  0  0  0  0
   -7.2440   24.2083  -26.0903 C   0  0  0  0  0  0  0  0  0  0  0  0
   -4.0291   23.6416  -28.0161 C   0  0  0  0  0  0  0  0  0  0  0  0
   -3.9666   24.7653  -28.8441 C   0  0  0  0  0  0  0  0  0  0  0  0
   -4.9951   25.6679  -28.7253 C   0  0  0  0  0  0  0  0  0  0  0  0
   -6.0335   25.4838  -27.8433 C   0  0  0  0  0  0  0  0  0  0  0  0
   -6.0731   24.3596  -27.0331 C   0  0  0  0  0  0  0  0  0  0  0  0
   -5.0627   23.4499  -27.1331 C   0  0  0  0  0  0  0  0  0  0  0  0
   -2.9833   22.7423  -28.1428 O   0  0  0  0  0  0  0  0  0  0  0  0
    1.0003   21.8081  -24.3090 C   0  0  0  0  0  0  0  0  0  0  0  0
   -0.0544   22.0550  -25.3120 C   0  0  0  0  0  0  0  0  0  0  0  0
   -1.3876   21.8581  -24.9782 C   0  0  0  0  0  0  0  0  0  0  0  0
   -2.3557   22.0982  -25.9501 C   0  0  0  0  0  0  0  0  0  0  0  0
   -2.0247   22.5179  -27.2122 C   0  0  0  0  0  0  0  0  0  0  0  0
   -0.6780   22.7082  -27.5218 C   0  0  0  0  0  0  0  0  0  0  0  0
    0.3046   22.4819  -26.5883 C   0  0  0  0  0  0  0  0  0  0  0  0
 43 44  1  0  0  0
 44 45  2  0  0  0
 45 46  1  0  0  0
 46 47  2  0  0  0
 47 42  1  0  0  0
 42 36  1  0  0  0
 36 37  2  0  0  0
 37 38  1  0  0  0
 38 39  2  0  0  0
 39 40  1  0  0  0
 40 35  1  0  0  0
 35 34  1  0  0  0
 34 28  1  0  0  0
 28 29  2  0  0  0
 29 30  1  0  0  0
 30 31  2  0  0  0
 31 32  1  0  0  0
 32 33  2  0  0  0
 33 27  1  0  0  0
 27 26  1  0  0  0
 26  1  1  0  0  0
  1  2  2  0  0  0
  1  3  1  0  0  0
  3  4  1  0  0  0
  4  5  1  0  0  0
  5  6  1  0  0  0
  6  7  1  0  0  0
  7  8  1  0  0  0
  8  9  1  0  0  0
  9 10  1  0  0  0
 10 11  1  0  0  0
 11 12  1  0  0  0
 12 13  2  0  0  0
 12 14  1  0  0  0
 12 16  1  0  0  0
 16 17  1  0  0  0
 17 18  1  0  0  0
 18 19  1  0  0  0
 18 22  1  0  0  0
 22 23  2  0  0  0
 22 24  1  0  0  0
 40 41  2  0  0  0
 47 48  1  0  0  0
 48 49  2  0  0  0
 49 44  1  0  0  0
 41 36  1  0  0  0
 33 28  1  0  0  0
 10  5  1  0  0  0
 14 15  1  0  0  0
 19 20  1  0  0  0
 19 21  1  0  0  0
 24 25  1  0  0  0
M  END
> <minimizedAffinity>
-7.59495

> <CNNscore>
0.2407545894

> <CNNaffinity>
6.2391500473

> <CNN_VS>
1.5021040440

> <CNNaffinity_variance>
0.0756214038

$$$$
[H]C([H])([H])C1([H])OC([H])(C([H])([H])[N+](C([H])([H])[H])(C([H])([H])[H])C([H])([H])[H])C([H])([H])OC1([H])[H].[I-]


 12 12  0  0  0  0  0  0  0  0999 V2000
   -4.4022   21.3478  -23.6225 C   0  0  0  0  0  0  0  0  0  0  0  0
   -5.0215   22.3295  -22.6219 C   0  0  0  0  0  0  0  0  0  0  0  0
   -5.4437   23.5398  -23.4370 C   0  0  0  0  0  0  0  0  0  0  0  0
   -6.8257   23.3636  -23.6858 O   0  0  0  0  0  0  0  0  0  0  0  0
   -7.4459   23.5913  -22.4411 C   0  0  0  0  0  0  0  0  0  0  0  0
   -6.9799   22.5705  -21.4092 C   0  0  0  0  0  0  0  0  0  0  0  0
   -6.0692   21.7083  -21.9934 O   0  0  0  0  0  0  0  0  0  0  0  0
   -8.1854   21.8249  -20.9366 C   0  0  0  0  0  0  0  0  0  0  0  0
   -8.2789   21.6231  -19.5408 N   0  0  0  0  0  0  0  0  0  0  0  0
   -9.6905   21.6873  -19.1290 C   0  0  0  0  0  0  0  0  0  0  0  0
   -7.5796   22.7190  -18.8516 C   0  0  0  0  0  0  0  0  0  0  0  0
   -7.7453   20.4020  -19.0418 C   0  0  0  0  0  0  0  0  0  0  0  0
  1  2  1  0  0  0
  2  3  1  0  0  0
  3  4  1  0  0  0
  4  5  1  0  0  0
  5  6  1  0  0  0
  6  8  1  0  0  0
  8  9  1  0  0  0
  9 10  1  0  0  0
  9 11  1  0  0  0
  9 12  1  0  0  0
  6  7  1  0  0  0
  7  2  1  0  0  0
M  CHG 1   9   1
M  END
> <minimizedAffinity>
-2.97086

> <CNNscore>
0.6003552675

> <CNNaffinity>
3.1599402428

> <CNN_VS>
1.8970867395

> <CNNaffinity_variance>
0.1613521129

$$$$
[H]C([H])([H])C1([H])OC([H])(C([H])([H])[N+](C([H])([H])[H])(C([H])([H])[H])C([H])([H])[H])C([H])([H])OC1([H])[H].[I-]


 12 12  0  0  0  0  0  0  0  0999 V2000
   -4.8279   25.9710  -30.9388 C   0  0  0  0  0  0  0  0  0  0  0  0
   -5.5676   25.3643  -29.7416 C   0  0  0  0  0  0  0  0  0  0  0  0
   -5.6029   23.8666  -29.9928 C   0  0  0  0  0  0  0  0  0  0  0  0
   -4.5310   23.3323  -29.2388 O   0  0  0  0  0  0  0  0  0  0  0  0
   -4.9498   23.4358  -27.8973 C   0  0  0  0  0  0  0  0  0  0  0  0
   -5.1685   24.8937  -27.5093 C   0  0  0  0  0  0  0  0  0  0  0  0
   -4.8963   25.7051  -28.5963 O   0  0  0  0  0  0  0  0  0  0  0  0
   -4.2454   25.2018  -26.3756 C   0  0  0  0  0  0  0  0  0  0  0  0
   -4.8194   25.8858  -25.2800 N   0  0  0  0  0  0  0  0  0  0  0  0
   -4.3079   27.2654  -25.2401 C   0  0  0  0  0  0  0  0  0  0  0  0
   -4.3930   25.2329  -24.0323 C   0  0  0  0  0  0  0  0  0  0  0  0
   -6.2403   25.9581  -25.2545 C   0  0  0  0  0  0  0  0  0  0  0  0
  1  2  1  0  0  0
  2  3  1  0  0  0
  3  4  1  0  0  0
  4  5  1  0  0  0
  5  6  1  0  0  0
  6  8  1  0  0  0
  8  9  1  0  0  0
  9 10  1  0  0  0
  9 11  1  0  0  0
  9 12  1  0  0  0
  6  7  1  0  0  0
  7  2  1  0  0  0
M  CHG 1   9   1
M  END
> <minimizedAffinity>
-4.55122

> <CNNscore>
0.3913909793

> <CNNaffinity>
3.8698005676

> <CNN_VS>
1.5146050453

> <CNNaffinity_variance>
0.2767834067

$$$$
[H]C([H])([H])C1([H])OC([H])(C([H])([H])[N+](C([H])([H])[H])(C([H])([H])[H])C([H])([H])[H])C([H])([H])OC1([H])[H].[I-]


 12 12  0  0  0  0  0  0  0  0999 V2000
   -5.5702   23.4959  -30.4479 C   0  0  0  0  0  0  0  0  0  0  0  0
   -5.0566   24.0961  -29.1348 C   0  0  0  0  0  0  0  0  0  0  0  0
   -5.3281   25.5878  -29.2276 C   0  0  0  0  0  0  0  0  0  0  0  0
   -6.5358   25.7960  -28.5198 O   0  0  0  0  0  0  0  0  0  0  0  0
   -6.1914   25.6232  -27.1644 C   0  0  0  0  0  0  0  0  0  0  0  0
   -5.6896   24.2064  -26.9097 C   0  0  0  0  0  0  0  0  0  0  0  0
   -5.7108   23.4908  -28.0936 O   0  0  0  0  0  0  0  0  0  0  0  0
   -6.5956   23.5822  -25.8987 C   0  0  0  0  0  0  0  0  0  0  0  0
   -6.0389   23.3724  -24.6166 N   0  0  0  0  0  0  0  0  0  0  0  0
   -6.0259   21.9314  -24.3170 C   0  0  0  0  0  0  0  0  0  0  0  0
   -6.9008   24.0130  -23.6107 C   0  0  0  0  0  0  0  0  0  0  0  0
   -4.7180   23.8610  -24.4136 C   0  0  0  0  0  0  0  0  0  0  0  0
  1  2  1  0  0  0
  2  3  1  0  0  0
  3  4  1  0  0  0
  4  5  1  0  0  0
  5  6  1  0  0  0
  6  8  1  0  0  0
  8  9  1  0  0  0
  9 10  1  0  0  0
  9 11  1  0  0  0
  9 12  1  0  0  0
  6  7  1  0  0  0
  7  2  1  0  0  0
M  CHG 1   9   1
M  END
> <minimizedAffinity>
-4.49867

> <CNNscore>
0.3073033690

> <CNNaffinity>
3.7362189293

> <CNN_VS>
1.1481527090

> <CNNaffinity_variance>
0.1912557334

$$$$
[H]C([H])([H])C1([H])OC([H])(C([H])([H])[N+](C([H])([H])[H])(C([H])([H])[H])C([H])([H])[H])C([H])([H])OC1([H])[H].[I-]


 12 12  0  0  0  0  0  0  0  0999 V2000
   -6.1736   21.4011  -24.0470 C   0  0  0  0  0  0  0  0  0  0  0  0
   -6.0062   22.8753  -23.6636 C   0  0  0  0  0  0  0  0  0  0  0  0
   -5.8876   23.6330  -24.9749 C   0  0  0  0  0  0  0  0  0  0  0  0
   -7.1823   24.1420  -25.2347 O   0  0  0  0  0  0  0  0  0  0  0  0
   -7.3581   25.1734  -24.2908 C   0  0  0  0  0  0  0  0  0  0  0  0
   -7.3031   24.6226  -22.8704 C   0  0  0  0  0  0  0  0  0  0  0  0
   -7.0888   23.2565  -22.9145 O   0  0  0  0  0  0  0  0  0  0  0  0
   -8.6104   24.9317  -22.2162 C   0  0  0  0  0  0  0  0  0  0  0  0
   -8.5382   25.4163  -20.8904 N   0  0  0  0  0  0  0  0  0  0  0  0
   -7.1405   25.7397  -20.5614 C   0  0  0  0  0  0  0  0  0  0  0  0
   -8.9616   24.3507  -19.9684 C   0  0  0  0  0  0  0  0  0  0  0  0
   -9.3219   26.5666  -20.5947 C   0  0  0  0  0  0  0  0  0  0  0  0
  1  2  1  0  0  0
  2  3  1  0  0  0
  3  4  1  0  0  0
  4  5  1  0  0  0
  5  6  1  0  0  0
  6  8  1  0  0  0
  8  9  1  0  0  0
  9 10  1  0  0  0
  9 11  1  0  0  0
  9 12  1  0  0  0
  6  7  1  0  0  0
  7  2  1  0  0  0
M  CHG 1   9   1
M  END
> <minimizedAffinity>
-3.46061

> <CNNscore>
0.2768348455

> <CNNaffinity>
3.0652124882

> <CNN_VS>
0.8485576510

> <CNNaffinity_variance>
0.2923640907

$$$$
[H]C([H])([H])C1([H])OC([H])(C([H])([H])[N+](C([H])([H])[H])(C([H])([H])[H])C([H])([H])[H])C([H])([H])OC1([H])[H].[I-]


 12 12  0  0  0  0  0  0  0  0999 V2000
   -3.2912   23.0006  -28.6067 C   0  0  0  0  0  0  0  0  0  0  0  0
   -4.0410   23.8728  -27.5940 C   0  0  0  0  0  0  0  0  0  0  0  0
   -5.2586   24.4065  -28.3289 C   0  0  0  0  0  0  0  0  0  0  0  0
   -6.3264   23.5551  -27.9576 O   0  0  0  0  0  0  0  0  0  0  0  0
   -6.5992   23.8868  -26.6155 C   0  0  0  0  0  0  0  0  0  0  0  0
   -5.3904   23.6030  -25.7311 C   0  0  0  0  0  0  0  0  0  0  0  0
   -4.3602   23.1018  -26.5068 O   0  0  0  0  0  0  0  0  0  0  0  0
   -5.8099   22.6053  -24.7010 C   0  0  0  0  0  0  0  0  0  0  0  0
   -5.8440   23.0718  -23.3672 N   0  0  0  0  0  0  0  0  0  0  0  0
   -4.8589   24.1526  -23.1998 C   0  0  0  0  0  0  0  0  0  0  0  0
   -5.4405   21.9792  -22.4682 C   0  0  0  0  0  0  0  0  0  0  0  0
   -7.0961   23.5615  -22.9010 C   0  0  0  0  0  0  0  0  0  0  0  0
  1  2  1  0  0  0
  2  3  1  0  0  0
  3  4  1  0  0  0
  4  5  1  0  0  0
  5  6  1  0  0  0
  6  8  1  0  0  0
  8  9  1  0  0  0
  9 10  1  0  0  0
  9 11  1  0  0  0
  9 12  1  0  0  0
  6  7  1  0  0  0
  7  2  1  0  0  0
M  CHG 1   9   1
M  END
> <minimizedAffinity>
-4.02657

> <CNNscore>
0.2559414804

> <CNNaffinity>
3.5932445526

> <CNN_VS>
0.9196603298

> <CNNaffinity_variance>
0.1216297299

$$$$
[H]C([H])([H])C1([H])OC([H])(C([H])([H])[N+](C([H])([H])[H])(C([H])([H])[H])C([H])([H])[H])C([H])([H])OC1([H])[H].[I-]


 12 12  0  0  0  0  0  0  0  0999 V2000
    0.7945   21.5872  -24.5586 C   0  0  0  0  0  0  0  0  0  0  0  0
   -0.1016   22.6694  -25.1703 C   0  0  0  0  0  0  0  0  0  0  0  0
    0.3629   22.8273  -26.6080 C   0  0  0  0  0  0  0  0  0  0  0  0
   -0.5324   22.0501  -27.3810 O   0  0  0  0  0  0  0  0  0  0  0  0
   -1.7427   22.7716  -27.3609 C   0  0  0  0  0  0  0  0  0  0  0  0
   -2.2749   22.8966  -25.9378 C   0  0  0  0  0  0  0  0  0  0  0  0
   -1.4070   22.2653  -25.0647 O   0  0  0  0  0  0  0  0  0  0  0  0
   -3.6222   22.2517  -25.9022 C   0  0  0  0  0  0  0  0  0  0  0  0
   -4.7102   23.1092  -25.6213 N   0  0  0  0  0  0  0  0  0  0  0  0
   -5.3443   23.5269  -26.8822 C   0  0  0  0  0  0  0  0  0  0  0  0
   -4.2028   24.3275  -24.9708 C   0  0  0  0  0  0  0  0  0  0  0  0
   -5.7330   22.5792  -24.7860 C   0  0  0  0  0  0  0  0  0  0  0  0
  1  2  1  0  0  0
  2  3  1  0  0  0
  3  4  1  0  0  0
  4  5  1  0  0  0
  5  6  1  0  0  0
  6  8  1  0  0  0
  8  9  1  0  0  0
  9 10  1  0  0  0
  9 11  1  0  0  0
  9 12  1  0  0  0
  6  7  1  0  0  0
  7  2  1  0  0  0
M  CHG 1   9   1
M  END
> <minimizedAffinity>
-4.16078

> <CNNscore>
0.2551835775

> <CNNaffinity>
3.7568523884

> <CNN_VS>
0.9586870074

> <CNNaffinity_variance>
0.1751868278

$$$$
[H]C([H])([H])C1([H])OC([H])(C([H])([H])[N+](C([H])([H])[H])(C([H])([H])[H])C([H])([H])[H])C([H])([H])OC1([H])[H].[I-]


 12 12  0  0  0  0  0  0  0  0999 V2000
   -6.3961   23.7324  -25.7377 C   0  0  0  0  0  0  0  0  0  0  0  0
   -5.6000   23.4698  -24.4549 C   0  0  0  0  0  0  0  0  0  0  0  0
   -6.3263   22.3431  -23.7404 C   0  0  0  0  0  0  0  0  0  0  0  0
   -5.6212   21.1642  -24.0810 O   0  0  0  0  0  0  0  0  0  0  0  0
   -4.4072   21.2549  -23.3714 C   0  0  0  0  0  0  0  0  0  0  0  0
   -3.6082   22.4736  -23.8191 C   0  0  0  0  0  0  0  0  0  0  0  0
   -4.3121   23.1510  -24.7987 O   0  0  0  0  0  0  0  0  0  0  0  0
   -2.3003   21.9844  -24.3508 C   0  0  0  0  0  0  0  0  0  0  0  0
   -1.1759   22.2047  -23.5232 N   0  0  0  0  0  0  0  0  0  0  0  0
   -1.4020   23.4010  -22.6960 C   0  0  0  0  0  0  0  0  0  0  0  0
   -0.0058   22.4829  -24.3708 C   0  0  0  0  0  0  0  0  0  0  0  0
   -0.8190   21.1425  -22.6462 C   0  0  0  0  0  0  0  0  0  0  0  0
  1  2  1  0  0  0
  2  3  1  0  0  0
  3  4  1  0  0  0
  4  5  1  0  0  0
  5  6  1  0  0  0
  6  8  1  0  0  0
  8  9  1  0  0  0
  9 10  1  0  0  0
  9 11  1  0  0  0
  9 12  1  0  0  0
  6  7  1  0  0  0
  7  2  1  0  0  0
M  CHG 1   9   1
M  END
> <minimizedAffinity>
-3.47974

> <CNNscore>
0.2435454428

> <CNNaffinity>
3.2407684326

> <CNN_VS>
0.7892743945

> <CNNaffinity_variance>
0.1839962304

$$$$
[H]C([H])([H])C1([H])OC([H])(C([H])([H])[N+](C([H])([H])[H])(C([H])([H])[H])C([H])([H])[H])C([H])([H])OC1([H])[H].[I-]


 12 12  0  0  0  0  0  0  0  0999 V2000
   -5.5812   21.8108  -24.2991 C   0  0  0  0  0  0  0  0  0  0  0  0
   -5.3968   23.1328  -23.5462 C   0  0  0  0  0  0  0  0  0  0  0  0
   -5.0090   24.1576  -24.5983 C   0  0  0  0  0  0  0  0  0  0  0  0
   -6.2073   24.8375  -24.9222 O   0  0  0  0  0  0  0  0  0  0  0  0
   -6.4833   25.6349  -23.7937 C   0  0  0  0  0  0  0  0  0  0  0  0
   -6.7071   24.7680  -22.5598 C   0  0  0  0  0  0  0  0  0  0  0  0
   -6.5686   23.4349  -22.9027 O   0  0  0  0  0  0  0  0  0  0  0  0
   -8.0876   25.0443  -22.0593 C   0  0  0  0  0  0  0  0  0  0  0  0
   -8.1913   25.3911  -20.6930 N   0  0  0  0  0  0  0  0  0  0  0  0
   -9.0629   24.4243  -20.0060 C   0  0  0  0  0  0  0  0  0  0  0  0
   -8.8383   26.7079  -20.5820 C   0  0  0  0  0  0  0  0  0  0  0  0
   -6.9713   25.4572  -19.9635 C   0  0  0  0  0  0  0  0  0  0  0  0
  1  2  1  0  0  0
  2  3  1  0  0  0
  3  4  1  0  0  0
  4  5  1  0  0  0
  5  6  1  0  0  0
  6  8  1  0  0  0
  8  9  1  0  0  0
  9 10  1  0  0  0
  9 11  1  0  0  0
  9 12  1  0  0  0
  6  7  1  0  0  0
  7  2  1  0  0  0
M  CHG 1   9   1
M  END
> <minimizedAffinity>
-3.37964

> <CNNscore>
0.2428160906

> <CNNaffinity>
3.0804786682

> <CNN_VS>
0.7479897738

> <CNNaffinity_variance>
0.2370911539

$$$$
[H]C([H])([H])C1([H])OC([H])(C([H])([H])[N+](C([H])([H])[H])(C([H])([H])[H])C([H])([H])[H])C([H])([H])OC1([H])[H].[I-]


 12 12  0  0  0  0  0  0  0  0999 V2000
   -2.1813   22.2438  -27.0142 C   0  0  0  0  0  0  0  0  0  0  0  0
   -3.0504   23.5022  -27.1113 C   0  0  0  0  0  0  0  0  0  0  0  0
   -3.6239   23.5015  -28.5179 C   0  0  0  0  0  0  0  0  0  0  0  0
   -4.9247   22.9577  -28.3945 O   0  0  0  0  0  0  0  0  0  0  0  0
   -5.6738   23.9624  -27.7504 C   0  0  0  0  0  0  0  0  0  0  0  0
   -5.1099   24.2535  -26.3643 C   0  0  0  0  0  0  0  0  0  0  0  0
   -4.0110   23.4448  -26.1353 O   0  0  0  0  0  0  0  0  0  0  0  0
   -6.1894   23.9721  -25.3703 C   0  0  0  0  0  0  0  0  0  0  0  0
   -6.4416   24.9935  -24.4265 N   0  0  0  0  0  0  0  0  0  0  0  0
   -5.6292   24.7598  -23.2215 C   0  0  0  0  0  0  0  0  0  0  0  0
   -7.8523   24.9253  -24.0139 C   0  0  0  0  0  0  0  0  0  0  0  0
   -6.1913   26.3267  -24.8563 C   0  0  0  0  0  0  0  0  0  0  0  0
  1  2  1  0  0  0
  2  3  1  0  0  0
  3  4  1  0  0  0
  4  5  1  0  0  0
  5  6  1  0  0  0
  6  8  1  0  0  0
  8  9  1  0  0  0
  9 10  1  0  0  0
  9 11  1  0  0  0
  9 12  1  0  0  0
  6  7  1  0  0  0
  7  2  1  0  0  0
M  CHG 1   9   1
M  END
> <minimizedAffinity>
-4.16686

> <CNNscore>
0.2395700216

> <CNNaffinity>
3.5618107319

> <CNN_VS>
0.8533030748

> <CNNaffinity_variance>
0.1938553751

$$$$
[H]Sc1nnc(N([H])C(=O)N([H])N=C([H])c2c([H])c([H])c([H])c(OC([H])([H])[H])c2[H])s1


 23 24  0  0  0  0  0  0  0  0999 V2000
   -2.5084   21.9091  -26.2507 N   0  0  0  0  0  0  0  0  0  0  0  0
   -3.2838   22.8794  -26.9235 C   0  0  0  0  0  0  0  0  0  0  0  0
   -3.7512   23.8560  -26.2868 O   0  0  0  0  0  0  0  0  0  0  0  0
   -3.5510   22.7822  -28.3030 N   0  0  0  0  0  0  0  0  0  0  0  0
   -2.1284   21.1032  -26.8000 H   0  0  0  0  0  0  0  0  0  0  0  0
   -3.1781   21.9890  -28.8481 H   0  0  0  0  0  0  0  0  0  0  0  0
   -4.3359   23.7645  -28.9840 C   0  0  0  0  0  0  0  0  0  0  0  0
   -5.6500   23.8108  -29.1842 N   0  0  0  0  0  0  0  0  0  0  0  0
   -6.1619   24.7755  -29.8191 N   0  0  0  0  0  0  0  0  0  0  0  0
   -5.3856   25.7445  -30.2870 C   0  0  0  0  0  0  0  0  0  0  0  0
   -5.9492   27.1692  -31.1993 S   0  0  0  0  0  0  0  0  0  0  0  0
   -3.8492   25.2130  -29.7720 S   0  0  0  0  0  0  0  0  0  0  0  0
   -7.1253   27.7241  -30.6243 H   0  0  0  0  0  0  0  0  0  0  0  0
   -1.0325   21.7656  -24.4184 C   0  0  0  0  0  0  0  0  0  0  0  0
   -2.2099   21.9439  -24.9054 N   0  0  0  0  0  0  0  0  0  0  0  0
   -1.4351   22.5064  -20.7688 C   0  0  0  0  0  0  0  0  0  0  0  0
   -0.3022   21.8956  -20.2745 C   0  0  0  0  0  0  0  0  0  0  0  0
    0.5667   21.2573  -21.1347 C   0  0  0  0  0  0  0  0  0  0  0  0
    0.3354   21.2099  -22.4927 C   0  0  0  0  0  0  0  0  0  0  0  0
   -0.7890   21.8161  -22.9844 C   0  0  0  0  0  0  0  0  0  0  0  0
   -1.6531   22.4513  -22.1247 C   0  0  0  0  0  0  0  0  0  0  0  0
   -3.0371   22.4535  -18.9458 C   0  0  0  0  0  0  0  0  0  0  0  0
   -2.3220   23.1516  -19.9371 O   0  0  0  0  0  0  0  0  0  0  0  0
 22 23  1  0  0  0
 23 16  1  0  0  0
 16 17  2  0  0  0
 17 18  1  0  0  0
 18 19  2  0  0  0
 19 20  1  0  0  0
 20 14  1  0  0  0
 14 15  2  0  0  0
 15  1  1  0  0  0
  1  2  1  0  0  0
  2  3  2  0  0  0
  2  4  1  0  0  0
  4  7  1  0  0  0
  7  8  2  0  0  0
  8  9  1  0  0  0
  9 10  2  0  0  0
 10 11  1  0  0  0
 10 12  1  0  0  0
 20 21  2  0  0  0
 21 16  1  0  0  0
 12  7  1  0  0  0
  1  5  1  0  0  0
  4  6  1  0  0  0
 11 13  1  0  0  0
M  END
> <minimizedAffinity>
-5.70641

> <CNNscore>
0.5232157111

> <CNNaffinity>
5.7646460533

> <CNN_VS>
3.0161533356

> <CNNaffinity_variance>
0.1588823795

$$$$
[H]Sc1nnc(N([H])C(=O)N([H])N=C([H])c2c([H])c([H])c([H])c(OC([H])([H])[H])c2[H])s1


 23 24  0  0  0  0  0  0  0  0999 V2000
   -2.1843   22.1024  -25.9532 N   0  0  0  0  0  0  0  0  0  0  0  0
   -2.9972   22.9713  -26.7144 C   0  0  0  0  0  0  0  0  0  0  0  0
   -3.4887   23.9955  -26.1786 O   0  0  0  0  0  0  0  0  0  0  0  0
   -3.2758   22.7196  -28.0719 N   0  0  0  0  0  0  0  0  0  0  0  0
   -1.7846   21.2546  -26.4190 H   0  0  0  0  0  0  0  0  0  0  0  0
   -2.8836   21.8845  -28.5347 H   0  0  0  0  0  0  0  0  0  0  0  0
   -4.0987   23.5992  -28.8424 C   0  0  0  0  0  0  0  0  0  0  0  0
   -5.3630   23.4562  -29.2299 N   0  0  0  0  0  0  0  0  0  0  0  0
   -5.9227   24.3575  -29.9156 N   0  0  0  0  0  0  0  0  0  0  0  0
   -5.2464   25.4492  -30.2496 C   0  0  0  0  0  0  0  0  0  0  0  0
   -5.8884   26.8081  -31.2093 S   0  0  0  0  0  0  0  0  0  0  0  0
   -3.7344   25.1337  -29.5268 S   0  0  0  0  0  0  0  0  0  0  0  0
   -7.2048   27.1581  -30.8011 H   0  0  0  0  0  0  0  0  0  0  0  0
   -0.9927   21.6056  -23.9810 C   0  0  0  0  0  0  0  0  0  0  0  0
   -1.8728   22.2896  -24.6234 N   0  0  0  0  0  0  0  0  0  0  0  0
    0.5569   21.4207  -20.5758 C   0  0  0  0  0  0  0  0  0  0  0  0
   -0.2100   22.3553  -19.9131 C   0  0  0  0  0  0  0  0  0  0  0  0
   -1.2120   23.0245  -20.5842 C   0  0  0  0  0  0  0  0  0  0  0  0
   -1.4751   22.7852  -21.9160 C   0  0  0  0  0  0  0  0  0  0  0  0
   -0.7143   21.8576  -22.5749 C   0  0  0  0  0  0  0  0  0  0  0  0
    0.2836   21.1924  -21.9033 C   0  0  0  0  0  0  0  0  0  0  0  0
    2.7593   21.3759  -19.5559 C   0  0  0  0  0  0  0  0  0  0  0  0
    1.5642   20.7358  -19.9348 O   0  0  0  0  0  0  0  0  0  0  0  0
 22 23  1  0  0  0
 23 16  1  0  0  0
 16 17  2  0  0  0
 17 18  1  0  0  0
 18 19  2  0  0  0
 19 20  1  0  0  0
 20 14  1  0  0  0
 14 15  2  0  0  0
 15  1  1  0  0  0
  1  2  1  0  0  0
  2  3  2  0  0  0
  2  4  1  0  0  0
  4  7  1  0  0  0
  7  8  2  0  0  0
  8  9  1  0  0  0
  9 10  2  0  0  0
 10 11  1  0  0  0
 10 12  1  0  0  0
 20 21  2  0  0  0
 21 16  1  0  0  0
 12  7  1  0  0  0
  1  5  1  0  0  0
  4  6  1  0  0  0
 11 13  1  0  0  0
M  END
> <minimizedAffinity>
-5.67286

> <CNNscore>
0.4996799231

> <CNNaffinity>
5.6503515244

> <CNN_VS>
2.8233671188

> <CNNaffinity_variance>
0.1660612375

$$$$
[H]Sc1nnc(N([H])C(=O)N([H])N=C([H])c2c([H])c([H])c([H])c(OC([H])([H])[H])c2[H])s1


 23 24  0  0  0  0  0  0  0  0999 V2000
    1.0251   21.9619  -25.2715 N   0  0  0  0  0  0  0  0  0  0  0  0
    1.4226   21.5059  -23.9951 C   0  0  0  0  0  0  0  0  0  0  0  0
    0.5632   21.3500  -23.0925 O   0  0  0  0  0  0  0  0  0  0  0  0
    2.7698   21.2181  -23.7019 N   0  0  0  0  0  0  0  0  0  0  0  0
    1.7572   22.0851  -26.0094 H   0  0  0  0  0  0  0  0  0  0  0  0
    3.4947   21.3383  -24.4268 H   0  0  0  0  0  0  0  0  0  0  0  0
    3.1722   20.7564  -22.4098 C   0  0  0  0  0  0  0  0  0  0  0  0
    3.5264   21.4518  -21.3327 N   0  0  0  0  0  0  0  0  0  0  0  0
    3.8537   20.8530  -20.2696 N   0  0  0  0  0  0  0  0  0  0  0  0
    3.8437   19.5268  -20.2287 C   0  0  0  0  0  0  0  0  0  0  0  0
    4.2766   18.5344  -18.8118 S   0  0  0  0  0  0  0  0  0  0  0  0
    3.3341   19.1524  -21.8124 S   0  0  0  0  0  0  0  0  0  0  0  0
    3.7163   19.0615  -17.6159 H   0  0  0  0  0  0  0  0  0  0  0  0
   -0.6829   22.3997  -26.8359 C   0  0  0  0  0  0  0  0  0  0  0  0
   -0.2734   22.2613  -25.6242 N   0  0  0  0  0  0  0  0  0  0  0  0
   -4.3633   22.9733  -26.4404 C   0  0  0  0  0  0  0  0  0  0  0  0
   -4.6912   23.3219  -27.7334 C   0  0  0  0  0  0  0  0  0  0  0  0
   -3.7126   23.3633  -28.7044 C   0  0  0  0  0  0  0  0  0  0  0  0
   -2.3978   23.0629  -28.4194 C   0  0  0  0  0  0  0  0  0  0  0  0
   -2.0713   22.7167  -27.1360 C   0  0  0  0  0  0  0  0  0  0  0  0
   -3.0488   22.6764  -26.1705 C   0  0  0  0  0  0  0  0  0  0  0  0
   -6.6040   23.4570  -25.6418 C   0  0  0  0  0  0  0  0  0  0  0  0
   -5.3162   22.9225  -25.4485 O   0  0  0  0  0  0  0  0  0  0  0  0
 22 23  1  0  0  0
 23 16  1  0  0  0
 16 17  2  0  0  0
 17 18  1  0  0  0
 18 19  2  0  0  0
 19 20  1  0  0  0
 20 14  1  0  0  0
 14 15  2  0  0  0
 15  1  1  0  0  0
  1  2  1  0  0  0
  2  3  2  0  0  0
  2  4  1  0  0  0
  4  7  1  0  0  0
  7  8  2  0  0  0
  8  9  1  0  0  0
  9 10  2  0  0  0
 10 11  1  0  0  0
 10 12  1  0  0  0
 20 21  2  0  0  0
 21 16  1  0  0  0
 12  7  1  0  0  0
  1  5  1  0  0  0
  4  6  1  0  0  0
 11 13  1  0  0  0
M  END
> <minimizedAffinity>
-6.77427

> <CNNscore>
0.4243814349

> <CNNaffinity>
5.1714959145

> <CNN_VS>
2.1946868896

> <CNNaffinity_variance>
0.0214888267

$$$$
[H]Sc1nnc(N([H])C(=O)N([H])N=C([H])c2c([H])c([H])c([H])c(OC([H])([H])[H])c2[H])s1


 23 24  0  0  0  0  0  0  0  0999 V2000
    0.8474   21.9588  -25.3001 N   0  0  0  0  0  0  0  0  0  0  0  0
    1.3266   21.5047  -24.0513 C   0  0  0  0  0  0  0  0  0  0  0  0
    0.5294   21.3619  -23.0913 O   0  0  0  0  0  0  0  0  0  0  0  0
    2.6877   21.2043  -23.8492 N   0  0  0  0  0  0  0  0  0  0  0  0
    1.5285   22.0708  -26.0869 H   0  0  0  0  0  0  0  0  0  0  0  0
    3.3625   21.3136  -24.6226 H   0  0  0  0  0  0  0  0  0  0  0  0
    3.1728   20.7446  -22.5851 C   0  0  0  0  0  0  0  0  0  0  0  0
    3.5130   21.4396  -21.5033 N   0  0  0  0  0  0  0  0  0  0  0  0
    3.9252   20.8428  -20.4689 N   0  0  0  0  0  0  0  0  0  0  0  0
    4.0186   19.5193  -20.4630 C   0  0  0  0  0  0  0  0  0  0  0  0
    4.5794   18.5299  -19.0895 S   0  0  0  0  0  0  0  0  0  0  0  0
    3.4797   19.1442  -22.0369 S   0  0  0  0  0  0  0  0  0  0  0  0
    4.0259   18.9833  -17.8607 H   0  0  0  0  0  0  0  0  0  0  0  0
   -0.9188   22.5950  -26.7256 C   0  0  0  0  0  0  0  0  0  0  0  0
   -0.4692   22.2699  -25.5648 N   0  0  0  0  0  0  0  0  0  0  0  0
   -4.2341   23.1294  -28.3850 C   0  0  0  0  0  0  0  0  0  0  0  0
   -4.9864   23.5176  -27.2967 C   0  0  0  0  0  0  0  0  0  0  0  0
   -4.4026   23.5975  -26.0497 C   0  0  0  0  0  0  0  0  0  0  0  0
   -3.0717   23.2973  -25.8536 C   0  0  0  0  0  0  0  0  0  0  0  0
   -2.3240   22.9118  -26.9334 C   0  0  0  0  0  0  0  0  0  0  0  0
   -2.9086   22.8331  -28.1749 C   0  0  0  0  0  0  0  0  0  0  0  0
   -5.5535   24.0895  -30.1822 C   0  0  0  0  0  0  0  0  0  0  0  0
   -4.7865   23.0398  -29.6425 O   0  0  0  0  0  0  0  0  0  0  0  0
 22 23  1  0  0  0
 23 16  1  0  0  0
 16 17  2  0  0  0
 17 18  1  0  0  0
 18 19  2  0  0  0
 19 20  1  0  0  0
 20 14  1  0  0  0
 14 15  2  0  0  0
 15  1  1  0  0  0
  1  2  1  0  0  0
  2  3  2  0  0  0
  2  4  1  0  0  0
  4  7  1  0  0  0
  7  8  2  0  0  0
  8  9  1  0  0  0
  9 10  2  0  0  0
 10 11  1  0  0  0
 10 12  1  0  0  0
 20 21  2  0  0  0
 21 16  1  0  0  0
 12  7  1  0  0  0
  1  5  1  0  0  0
  4  6  1  0  0  0
 11 13  1  0  0  0
M  END
> <minimizedAffinity>
-6.79604

> <CNNscore>
0.4221144617

> <CNNaffinity>
5.0510478020

> <CNN_VS>
2.1321203709

> <CNNaffinity_variance>
0.0370876715

$$$$
[H]Sc1nnc(N([H])C(=O)N([H])N=C([H])c2c([H])c([H])c([H])c(OC([H])([H])[H])c2[H])s1


 23 24  0  0  0  0  0  0  0  0999 V2000
   -4.2651   24.2918  -23.2502 N   0  0  0  0  0  0  0  0  0  0  0  0
   -4.7518   24.4049  -24.5714 C   0  0  0  0  0  0  0  0  0  0  0  0
   -5.7645   23.7497  -24.9216 O   0  0  0  0  0  0  0  0  0  0  0  0
   -4.1273   25.2403  -25.5179 N   0  0  0  0  0  0  0  0  0  0  0  0
   -3.4199   24.8465  -22.9789 H   0  0  0  0  0  0  0  0  0  0  0  0
   -3.2936   25.7888  -25.2542 H   0  0  0  0  0  0  0  0  0  0  0  0
   -4.6201   25.3548  -26.8553 C   0  0  0  0  0  0  0  0  0  0  0  0
   -5.5048   26.2081  -27.3634 N   0  0  0  0  0  0  0  0  0  0  0  0
   -5.8142   26.1486  -28.5867 N   0  0  0  0  0  0  0  0  0  0  0  0
   -5.2545   25.2319  -29.3657 C   0  0  0  0  0  0  0  0  0  0  0  0
   -5.5816   25.0162  -31.1054 S   0  0  0  0  0  0  0  0  0  0  0  0
   -4.2378   24.4319  -28.2546 S   0  0  0  0  0  0  0  0  0  0  0  0
   -5.6334   26.2645  -31.7844 H   0  0  0  0  0  0  0  0  0  0  0  0
   -4.1669   22.6690  -21.5434 C   0  0  0  0  0  0  0  0  0  0  0  0
   -4.8275   23.4943  -22.2765 N   0  0  0  0  0  0  0  0  0  0  0  0
   -6.8086   20.8195  -19.6378 C   0  0  0  0  0  0  0  0  0  0  0  0
   -6.0487   20.3153  -18.6038 C   0  0  0  0  0  0  0  0  0  0  0  0
   -4.6974   20.5858  -18.5471 C   0  0  0  0  0  0  0  0  0  0  0  0
   -4.0732   21.3555  -19.5053 C   0  0  0  0  0  0  0  0  0  0  0  0
   -4.8267   21.8565  -20.5322 C   0  0  0  0  0  0  0  0  0  0  0  0
   -6.1731   21.5851  -20.5860 C   0  0  0  0  0  0  0  0  0  0  0  0
   -9.1071   21.5972  -19.5697 C   0  0  0  0  0  0  0  0  0  0  0  0
   -8.1592   20.5680  -19.7232 O   0  0  0  0  0  0  0  0  0  0  0  0
 22 23  1  0  0  0
 23 16  1  0  0  0
 16 17  2  0  0  0
 17 18  1  0  0  0
 18 19  2  0  0  0
 19 20  1  0  0  0
 20 14  1  0  0  0
 14 15  2  0  0  0
 15  1  1  0  0  0
  1  2  1  0  0  0
  2  3  2  0  0  0
  2  4  1  0  0  0
  4  7  1  0  0  0
  7  8  2  0  0  0
  8  9  1  0  0  0
  9 10  2  0  0  0
 10 11  1  0  0  0
 10 12  1  0  0  0
 20 21  2  0  0  0
 21 16  1  0  0  0
 12  7  1  0  0  0
  1  5  1  0  0  0
  4  6  1  0  0  0
 11 13  1  0  0  0
M  END
> <minimizedAffinity>
-5.27725

> <CNNscore>
0.3938216865

> <CNNaffinity>
5.2143964767

> <CNN_VS>
2.0535423756

> <CNNaffinity_variance>
0.1833927482

$$$$
[H]Sc1nnc(N([H])C(=O)N([H])N=C([H])c2c([H])c([H])c([H])c(OC([H])([H])[H])c2[H])s1


 23 24  0  0  0  0  0  0  0  0999 V2000
   -3.4481   23.4584  -24.1082 N   0  0  0  0  0  0  0  0  0  0  0  0
   -3.7102   23.7227  -25.4708 C   0  0  0  0  0  0  0  0  0  0  0  0
   -2.7988   23.5735  -26.3221 O   0  0  0  0  0  0  0  0  0  0  0  0
   -4.9781   24.1537  -25.9073 N   0  0  0  0  0  0  0  0  0  0  0  0
   -4.2215   23.5891  -23.4152 H   0  0  0  0  0  0  0  0  0  0  0  0
   -5.7433   24.2838  -25.2270 H   0  0  0  0  0  0  0  0  0  0  0  0
   -5.2435   24.4212  -27.2867 C   0  0  0  0  0  0  0  0  0  0  0  0
   -6.0117   23.7587  -28.1469 N   0  0  0  0  0  0  0  0  0  0  0  0
   -6.1190   24.1583  -29.3405 N   0  0  0  0  0  0  0  0  0  0  0  0
   -5.4631   25.2418  -29.7358 C   0  0  0  0  0  0  0  0  0  0  0  0
   -5.5077   25.9336  -31.3788 S   0  0  0  0  0  0  0  0  0  0  0  0
   -4.6617   25.6847  -28.2972 S   0  0  0  0  0  0  0  0  0  0  0  0
   -6.8298   25.9483  -31.9021 H   0  0  0  0  0  0  0  0  0  0  0  0
   -1.7115   21.8842  -23.8585 C   0  0  0  0  0  0  0  0  0  0  0  0
   -2.2325   23.0350  -23.6149 N   0  0  0  0  0  0  0  0  0  0  0  0
    0.9073   20.6074  -21.5043 C   0  0  0  0  0  0  0  0  0  0  0  0
    2.0337   20.7893  -22.2782 C   0  0  0  0  0  0  0  0  0  0  0  0
    1.9196   21.3215  -23.5455 C   0  0  0  0  0  0  0  0  0  0  0  0
    0.6974   21.6827  -24.0708 C   0  0  0  0  0  0  0  0  0  0  0  0
   -0.4215   21.5026  -23.3032 C   0  0  0  0  0  0  0  0  0  0  0  0
   -0.3045   20.9719  -22.0407 C   0  0  0  0  0  0  0  0  0  0  0  0
   -0.0733   20.2099  -19.3196 C   0  0  0  0  0  0  0  0  0  0  0  0
    0.9872   20.0789  -20.2359 O   0  0  0  0  0  0  0  0  0  0  0  0
 22 23  1  0  0  0
 23 16  1  0  0  0
 16 17  2  0  0  0
 17 18  1  0  0  0
 18 19  2  0  0  0
 19 20  1  0  0  0
 20 14  1  0  0  0
 14 15  2  0  0  0
 15  1  1  0  0  0
  1  2  1  0  0  0
  2  3  2  0  0  0
  2  4  1  0  0  0
  4  7  1  0  0  0
  7  8  2  0  0  0
  8  9  1  0  0  0
  9 10  2  0  0  0
 10 11  1  0  0  0
 10 12  1  0  0  0
 20 21  2  0  0  0
 21 16  1  0  0  0
 12  7  1  0  0  0
  1  5  1  0  0  0
  4  6  1  0  0  0
 11 13  1  0  0  0
M  END
> <minimizedAffinity>
-6.05019

> <CNNscore>
0.3837051988

> <CNNaffinity>
5.5296735764

> <CNN_VS>
2.1217644215

> <CNNaffinity_variance>
0.1677064598

$$$$
[H]Sc1nnc(N([H])C(=O)N([H])N=C([H])c2c([H])c([H])c([H])c(OC([H])([H])[H])c2[H])s1


 23 24  0  0  0  0  0  0  0  0999 V2000
   -5.8517   23.0981  -23.5733 N   0  0  0  0  0  0  0  0  0  0  0  0
   -6.0664   23.6082  -24.8729 C   0  0  0  0  0  0  0  0  0  0  0  0
   -7.1575   24.1640  -25.1527 O   0  0  0  0  0  0  0  0  0  0  0  0
   -5.0817   23.5104  -25.8751 N   0  0  0  0  0  0  0  0  0  0  0  0
   -4.9354   22.6387  -23.3610 H   0  0  0  0  0  0  0  0  0  0  0  0
   -4.1769   23.0581  -25.6697 H   0  0  0  0  0  0  0  0  0  0  0  0
   -5.2991   24.0268  -27.1906 C   0  0  0  0  0  0  0  0  0  0  0  0
   -6.0434   23.5415  -28.1803 N   0  0  0  0  0  0  0  0  0  0  0  0
   -6.1081   24.1520  -29.2843 N   0  0  0  0  0  0  0  0  0  0  0  0
   -5.4312   25.2803  -29.4559 C   0  0  0  0  0  0  0  0  0  0  0  0
   -5.4162   26.2588  -30.9466 S   0  0  0  0  0  0  0  0  0  0  0  0
   -4.6747   25.4445  -27.9364 S   0  0  0  0  0  0  0  0  0  0  0  0
   -6.7200   26.3858  -31.4995 H   0  0  0  0  0  0  0  0  0  0  0  0
   -7.3332   22.1341  -22.0138 C   0  0  0  0  0  0  0  0  0  0  0  0
   -6.7712   23.1606  -22.5482 N   0  0  0  0  0  0  0  0  0  0  0  0
   -9.3171   21.4528  -18.9105 C   0  0  0  0  0  0  0  0  0  0  0  0
  -10.1315   22.5652  -18.8983 C   0  0  0  0  0  0  0  0  0  0  0  0
  -10.0195   23.5112  -19.8958 C   0  0  0  0  0  0  0  0  0  0  0  0
   -9.1062   23.3780  -20.9196 C   0  0  0  0  0  0  0  0  0  0  0  0
   -8.2973   22.2739  -20.9325 C   0  0  0  0  0  0  0  0  0  0  0  0
   -8.4111   21.3330  -19.9371 C   0  0  0  0  0  0  0  0  0  0  0  0
  -10.5333   20.3951  -17.0953 C   0  0  0  0  0  0  0  0  0  0  0  0
   -9.4038   20.4906  -17.9300 O   0  0  0  0  0  0  0  0  0  0  0  0
 22 23  1  0  0  0
 23 16  1  0  0  0
 16 17  2  0  0  0
 17 18  1  0  0  0
 18 19  2  0  0  0
 19 20  1  0  0  0
 20 14  1  0  0  0
 14 15  2  0  0  0
 15  1  1  0  0  0
  1  2  1  0  0  0
  2  3  2  0  0  0
  2  4  1  0  0  0
  4  7  1  0  0  0
  7  8  2  0  0  0
  8  9  1  0  0  0
  9 10  2  0  0  0
 10 11  1  0  0  0
 10 12  1  0  0  0
 20 21  2  0  0  0
 21 16  1  0  0  0
 12  7  1  0  0  0
  1  5  1  0  0  0
  4  6  1  0  0  0
 11 13  1  0  0  0
M  END
> <minimizedAffinity>
-5.69322

> <CNNscore>
0.3581038117

> <CNNaffinity>
5.1646661758

> <CNN_VS>
1.8494865894

> <CNNaffinity_variance>
0.2008897364

$$$$
[H]Sc1nnc(N([H])C(=O)N([H])N=C([H])c2c([H])c([H])c([H])c(OC([H])([H])[H])c2[H])s1


 23 24  0  0  0  0  0  0  0  0999 V2000
   -4.5865   23.5772  -23.4445 N   0  0  0  0  0  0  0  0  0  0  0  0
   -4.8272   23.7734  -24.8225 C   0  0  0  0  0  0  0  0  0  0  0  0
   -5.9351   23.4460  -25.3153 O   0  0  0  0  0  0  0  0  0  0  0  0
   -3.8498   24.3315  -25.6692 N   0  0  0  0  0  0  0  0  0  0  0  0
   -3.6566   23.8569  -23.0540 H   0  0  0  0  0  0  0  0  0  0  0  0
   -2.9316   24.6086  -25.2879 H   0  0  0  0  0  0  0  0  0  0  0  0
   -4.0935   24.5301  -27.0641 C   0  0  0  0  0  0  0  0  0  0  0  0
   -3.6853   23.8130  -28.1073 N   0  0  0  0  0  0  0  0  0  0  0  0
   -4.0097   24.1555  -29.2792 N   0  0  0  0  0  0  0  0  0  0  0  0
   -4.7596   25.2336  -29.4686 C   0  0  0  0  0  0  0  0  0  0  0  0
   -5.3019   25.8487  -31.0521 S   0  0  0  0  0  0  0  0  0  0  0  0
   -4.9931   25.7584  -27.8629 S   0  0  0  0  0  0  0  0  0  0  0  0
   -5.7454   24.7942  -31.8965 H   0  0  0  0  0  0  0  0  0  0  0  0
   -5.9782   23.6596  -21.5438 C   0  0  0  0  0  0  0  0  0  0  0  0
   -5.4975   23.0372  -22.5619 N   0  0  0  0  0  0  0  0  0  0  0  0
   -7.8504   22.6900  -18.4478 C   0  0  0  0  0  0  0  0  0  0  0  0
   -8.7686   21.8147  -18.9879 C   0  0  0  0  0  0  0  0  0  0  0  0
   -8.7606   21.5583  -20.3430 C   0  0  0  0  0  0  0  0  0  0  0  0
   -7.8506   22.1579  -21.1872 C   0  0  0  0  0  0  0  0  0  0  0  0
   -6.9387   23.0270  -20.6519 C   0  0  0  0  0  0  0  0  0  0  0  0
   -6.9492   23.2806  -19.3010 C   0  0  0  0  0  0  0  0  0  0  0  0
   -6.7725   22.5382  -16.2781 C   0  0  0  0  0  0  0  0  0  0  0  0
   -7.8319   22.9673  -17.0997 O   0  0  0  0  0  0  0  0  0  0  0  0
 22 23  1  0  0  0
 23 16  1  0  0  0
 16 17  2  0  0  0
 17 18  1  0  0  0
 18 19  2  0  0  0
 19 20  1  0  0  0
 20 14  1  0  0  0
 14 15  2  0  0  0
 15  1  1  0  0  0
  1  2  1  0  0  0
  2  3  2  0  0  0
  2  4  1  0  0  0
  4  7  1  0  0  0
  7  8  2  0  0  0
  8  9  1  0  0  0
  9 10  2  0  0  0
 10 11  1  0  0  0
 10 12  1  0  0  0
 20 21  2  0  0  0
 21 16  1  0  0  0
 12  7  1  0  0  0
  1  5  1  0  0  0
  4  6  1  0  0  0
 11 13  1  0  0  0
M  END
> <minimizedAffinity>
-5.14611

> <CNNscore>
0.3445283473

> <CNNaffinity>
5.1405420303

> <CNN_VS>
1.7710624933

> <CNNaffinity_variance>
0.2102593184

$$$$
[H]Sc1nnc(N([H])C(=O)N([H])N=C([H])c2c([H])c([H])c([H])c(OC([H])([H])[H])c2[H])s1


 23 24  0  0  0  0  0  0  0  0999 V2000
   -4.6724   25.4356  -22.2879 N   0  0  0  0  0  0  0  0  0  0  0  0
   -5.0001   25.2111  -23.6434 C   0  0  0  0  0  0  0  0  0  0  0  0
   -5.7688   24.2667  -23.9515 O   0  0  0  0  0  0  0  0  0  0  0  0
   -4.4840   26.0244  -24.6709 N   0  0  0  0  0  0  0  0  0  0  0  0
   -4.0301   26.2280  -22.0529 H   0  0  0  0  0  0  0  0  0  0  0  0
   -3.8503   26.8067  -24.4432 H   0  0  0  0  0  0  0  0  0  0  0  0
   -4.8158   25.7971  -26.0431 C   0  0  0  0  0  0  0  0  0  0  0  0
   -5.5962   26.5041  -26.8557 N   0  0  0  0  0  0  0  0  0  0  0  0
   -5.7671   26.1352  -28.0517 N   0  0  0  0  0  0  0  0  0  0  0  0
   -5.1662   25.0394  -28.4973 C   0  0  0  0  0  0  0  0  0  0  0  0
   -5.3034   24.3865  -30.1510 S   0  0  0  0  0  0  0  0  0  0  0  0
   -4.3209   24.5378  -27.1038 S   0  0  0  0  0  0  0  0  0  0  0  0
   -5.2193   25.4174  -31.1267 H   0  0  0  0  0  0  0  0  0  0  0  0
   -6.1964   24.9584  -20.5542 C   0  0  0  0  0  0  0  0  0  0  0  0
   -5.1415   24.6789  -21.2355 N   0  0  0  0  0  0  0  0  0  0  0  0
   -7.9971   22.3203  -18.5975 C   0  0  0  0  0  0  0  0  0  0  0  0
   -7.4451   22.5284  -17.3513 C   0  0  0  0  0  0  0  0  0  0  0  0
   -6.5019   23.5187  -17.1729 C   0  0  0  0  0  0  0  0  0  0  0  0
   -6.0873   24.3189  -18.2159 C   0  0  0  0  0  0  0  0  0  0  0  0
   -6.6347   24.1131  -19.4534 C   0  0  0  0  0  0  0  0  0  0  0  0
   -7.5745   23.1254  -19.6281 C   0  0  0  0  0  0  0  0  0  0  0  0
  -10.2880   21.5315  -18.4491 C   0  0  0  0  0  0  0  0  0  0  0  0
   -8.9405   21.3406  -18.8086 O   0  0  0  0  0  0  0  0  0  0  0  0
 22 23  1  0  0  0
 23 16  1  0  0  0
 16 17  2  0  0  0
 17 18  1  0  0  0
 18 19  2  0  0  0
 19 20  1  0  0  0
 20 14  1  0  0  0
 14 15  2  0  0  0
 15  1  1  0  0  0
  1  2  1  0  0  0
  2  3  2  0  0  0
  2  4  1  0  0  0
  4  7  1  0  0  0
  7  8  2  0  0  0
  8  9  1  0  0  0
  9 10  2  0  0  0
 10 11  1  0  0  0
 10 12  1  0  0  0
 20 21  2  0  0  0
 21 16  1  0  0  0
 12  7  1  0  0  0
  1  5  1  0  0  0
  4  6  1  0  0  0
 11 13  1  0  0  0
M  END
> <minimizedAffinity>
-5.47720

> <CNNscore>
0.2819921076

> <CNNaffinity>
5.0199980736

> <CNN_VS>
1.4155998230

> <CNNaffinity_variance>
0.2301154584

$$$$
[H]c1c([H])c(-c2c([H])c(SC([H])([H])[H])n([H])c2-c2c([H])c([H])c(S(=O)(=O)C([H])([H])[H])c([H])c2[H])c([H])c([H])c1F


 25 27  0  0  0  0  0  0  0  0999 V2000
   -0.1395   21.7907  -24.2001 C   0  0  0  0  0  0  0  0  0  0  0  0
   -1.2908   21.5724  -23.4287 C   0  0  0  0  0  0  0  0  0  0  0  0
   -2.3774   22.0243  -24.1355 C   0  0  0  0  0  0  0  0  0  0  0  0
   -1.8977   22.5120  -25.3218 C   0  0  0  0  0  0  0  0  0  0  0  0
   -0.5537   22.3628  -25.3415 N   0  0  0  0  0  0  0  0  0  0  0  0
    0.0902   22.6378  -26.1070 H   0  0  0  0  0  0  0  0  0  0  0  0
   -3.7650   21.9914  -23.7097 C   0  0  0  0  0  0  0  0  0  0  0  0
   -4.1958   22.7717  -22.6564 C   0  0  0  0  0  0  0  0  0  0  0  0
   -5.4810   22.7689  -22.2254 C   0  0  0  0  0  0  0  0  0  0  0  0
   -6.4107   21.9696  -22.8416 C   0  0  0  0  0  0  0  0  0  0  0  0
   -7.6715   22.0009  -22.3783 F   0  0  0  0  0  0  0  0  0  0  0  0
   -6.0074   21.1735  -23.9042 C   0  0  0  0  0  0  0  0  0  0  0  0
   -4.7032   21.1860  -24.3302 C   0  0  0  0  0  0  0  0  0  0  0  0
   -2.7207   23.0924  -26.3649 C   0  0  0  0  0  0  0  0  0  0  0  0
   -2.6906   22.5458  -27.6523 C   0  0  0  0  0  0  0  0  0  0  0  0
   -3.5022   23.1478  -28.5895 C   0  0  0  0  0  0  0  0  0  0  0  0
   -4.3130   24.2243  -28.3282 C   0  0  0  0  0  0  0  0  0  0  0  0
   -4.3349   24.7561  -27.0548 C   0  0  0  0  0  0  0  0  0  0  0  0
   -3.5444   24.1839  -26.1057 C   0  0  0  0  0  0  0  0  0  0  0  0
   -5.3313   24.9579  -29.5385 S   0  0  0  0  0  0  0  0  0  0  0  0
   -4.3057   25.9409  -30.6154 C   0  0  0  0  0  0  0  0  0  0  0  0
   -6.3116   25.8874  -28.8528 O   0  0  0  0  0  0  0  0  0  0  0  0
   -6.1291   23.9403  -30.2724 O   0  0  0  0  0  0  0  0  0  0  0  0
    1.7549   20.8308  -22.1013 C   0  0  0  0  0  0  0  0  0  0  0  0
    1.5487   21.4122  -23.7981 S   0  0  0  0  0  0  0  0  0  0  0  0
 24 25  1  0  0  0
 25  1  1  0  0  0
  1  2  2  0  0  0
  2  3  1  0  0  0
  3  7  1  0  0  0
  7  8  2  0  0  0
  8  9  1  0  0  0
  9 10  2  0  0  0
 10 11  1  0  0  0
 10 12  1  0  0  0
 12 13  2  0  0  0
  3  4  2  0  0  0
  4 14  1  0  0  0
 14 15  2  0  0  0
 15 16  1  0  0  0
 16 17  2  0  0  0
 17 20  1  0  0  0
 20 21  1  0  0  0
 20 22  2  0  0  0
 20 23  2  0  0  0
 17 18  1  0  0  0
 18 19  2  0  0  0
  4  5  1  0  0  0
  5  1  1  0  0  0
 13  7  1  0  0  0
 19 14  1  0  0  0
  5  6  1  0  0  0
M  END
> <minimizedAffinity>
-8.30330

> <CNNscore>
0.6630741358

> <CNNaffinity>
6.6047234535

> <CNN_VS>
4.3794212341

> <CNNaffinity_variance>
0.0598119982

$$$$
[H]c1c([H])c(-c2c([H])c(SC([H])([H])[H])n([H])c2-c2c([H])c([H])c(S(=O)(=O)C([H])([H])[H])c([H])c2[H])c([H])c([H])c1F


 25 27  0  0  0  0  0  0  0  0999 V2000
   -5.8739   22.2913  -23.5578 C   0  0  0  0  0  0  0  0  0  0  0  0
   -4.5150   21.9967  -23.7444 C   0  0  0  0  0  0  0  0  0  0  0  0
   -4.1218   22.5153  -24.9531 C   0  0  0  0  0  0  0  0  0  0  0  0
   -5.2241   23.1182  -25.4978 C   0  0  0  0  0  0  0  0  0  0  0  0
   -6.2644   22.9732  -24.6460 N   0  0  0  0  0  0  0  0  0  0  0  0
   -7.2314   23.3236  -24.7818 H   0  0  0  0  0  0  0  0  0  0  0  0
   -2.7960   22.4405  -25.5400 C   0  0  0  0  0  0  0  0  0  0  0  0
   -1.6714   22.4573  -24.7407 C   0  0  0  0  0  0  0  0  0  0  0  0
   -0.4160   22.3922  -25.2478 C   0  0  0  0  0  0  0  0  0  0  0  0
   -0.2263   22.3055  -26.6040 C   0  0  0  0  0  0  0  0  0  0  0  0
    1.0365   22.2439  -27.0589 F   0  0  0  0  0  0  0  0  0  0  0  0
   -1.3383   22.2864  -27.4338 C   0  0  0  0  0  0  0  0  0  0  0  0
   -2.6035   22.3530  -26.9072 C   0  0  0  0  0  0  0  0  0  0  0  0
   -5.2429   23.7900  -26.7826 C   0  0  0  0  0  0  0  0  0  0  0  0
   -4.8317   25.1243  -26.8699 C   0  0  0  0  0  0  0  0  0  0  0  0
   -4.8732   25.6943  -28.1240 C   0  0  0  0  0  0  0  0  0  0  0  0
   -5.2859   25.0360  -29.2557 C   0  0  0  0  0  0  0  0  0  0  0  0
   -5.6898   23.7199  -29.1585 C   0  0  0  0  0  0  0  0  0  0  0  0
   -5.6605   23.1276  -27.9331 C   0  0  0  0  0  0  0  0  0  0  0  0
   -5.3207   25.7881  -30.8284 S   0  0  0  0  0  0  0  0  0  0  0  0
   -6.1703   24.6979  -31.9542 C   0  0  0  0  0  0  0  0  0  0  0  0
   -3.8979   25.9509  -31.3225 O   0  0  0  0  0  0  0  0  0  0  0  0
   -5.9255   27.1452  -30.7728 O   0  0  0  0  0  0  0  0  0  0  0  0
   -6.7617   23.0205  -20.8018 C   0  0  0  0  0  0  0  0  0  0  0  0
   -6.9180   21.8696  -22.1841 S   0  0  0  0  0  0  0  0  0  0  0  0
 24 25  1  0  0  0
 25  1  1  0  0  0
  1  2  2  0  0  0
  2  3  1  0  0  0
  3  7  1  0  0  0
  7  8  2  0  0  0
  8  9  1  0  0  0
  9 10  2  0  0  0
 10 11  1  0  0  0
 10 12  1  0  0  0
 12 13  2  0  0  0
  3  4  2  0  0  0
  4 14  1  0  0  0
 14 15  2  0  0  0
 15 16  1  0  0  0
 16 17  2  0  0  0
 17 20  1  0  0  0
 20 21  1  0  0  0
 20 22  2  0  0  0
 20 23  2  0  0  0
 17 18  1  0  0  0
 18 19  2  0  0  0
  4  5  1  0  0  0
  5  1  1  0  0  0
 13  7  1  0  0  0
 19 14  1  0  0  0
  5  6  1  0  0  0
M  END
> <minimizedAffinity>
-8.46192

> <CNNscore>
0.5865866542

> <CNNaffinity>
6.7947282791

> <CNN_VS>
3.9856970310

> <CNNaffinity_variance>
0.1018014401

$$$$
[H]c1c([H])c(-c2c([H])c(SC([H])([H])[H])n([H])c2-c2c([H])c([H])c(S(=O)(=O)C([H])([H])[H])c([H])c2[H])c([H])c([H])c1F


 25 27  0  0  0  0  0  0  0  0999 V2000
   -0.6437   22.3935  -26.1662 C   0  0  0  0  0  0  0  0  0  0  0  0
   -2.0378   22.5101  -26.0595 C   0  0  0  0  0  0  0  0  0  0  0  0
   -2.3808   22.4029  -24.7345 C   0  0  0  0  0  0  0  0  0  0  0  0
   -1.2136   22.2233  -24.0411 C   0  0  0  0  0  0  0  0  0  0  0  0
   -0.1834   22.2206  -24.9172 N   0  0  0  0  0  0  0  0  0  0  0  0
    0.8226   22.1051  -24.6920 H   0  0  0  0  0  0  0  0  0  0  0  0
   -3.7193   22.4680  -24.1762 C   0  0  0  0  0  0  0  0  0  0  0  0
   -4.4771   21.3239  -24.0316 C   0  0  0  0  0  0  0  0  0  0  0  0
   -5.7313   21.3408  -23.5177 C   0  0  0  0  0  0  0  0  0  0  0  0
   -6.2942   22.5266  -23.1179 C   0  0  0  0  0  0  0  0  0  0  0  0
   -7.5400   22.4925  -22.6156 F   0  0  0  0  0  0  0  0  0  0  0  0
   -5.5565   23.6943  -23.2509 C   0  0  0  0  0  0  0  0  0  0  0  0
   -4.2879   23.6629  -23.7727 C   0  0  0  0  0  0  0  0  0  0  0  0
   -1.1288   22.0602  -22.6029 C   0  0  0  0  0  0  0  0  0  0  0  0
   -0.7394   20.8267  -22.0699 C   0  0  0  0  0  0  0  0  0  0  0  0
   -0.6778   20.7486  -20.6953 C   0  0  0  0  0  0  0  0  0  0  0  0
   -0.9711   21.7905  -19.8510 C   0  0  0  0  0  0  0  0  0  0  0  0
   -1.3546   23.0030  -20.3871 C   0  0  0  0  0  0  0  0  0  0  0  0
   -1.4252   23.1129  -21.7422 C   0  0  0  0  0  0  0  0  0  0  0  0
   -0.8774   21.6569  -18.1150 S   0  0  0  0  0  0  0  0  0  0  0  0
   -0.9069   19.9279  -17.6819 C   0  0  0  0  0  0  0  0  0  0  0  0
   -2.1028   22.3097  -17.5089 O   0  0  0  0  0  0  0  0  0  0  0  0
    0.3122   22.3666  -17.5749 O   0  0  0  0  0  0  0  0  0  0  0  0
   -0.4109   23.3682  -28.9788 C   0  0  0  0  0  0  0  0  0  0  0  0
    0.3615   22.4504  -27.6295 S   0  0  0  0  0  0  0  0  0  0  0  0
 24 25  1  0  0  0
 25  1  1  0  0  0
  1  2  2  0  0  0
  2  3  1  0  0  0
  3  7  1  0  0  0
  7  8  2  0  0  0
  8  9  1  0  0  0
  9 10  2  0  0  0
 10 11  1  0  0  0
 10 12  1  0  0  0
 12 13  2  0  0  0
  3  4  2  0  0  0
  4 14  1  0  0  0
 14 15  2  0  0  0
 15 16  1  0  0  0
 16 17  2  0  0  0
 17 20  1  0  0  0
 20 21  1  0  0  0
 20 22  2  0  0  0
 20 23  2  0  0  0
 17 18  1  0  0  0
 18 19  2  0  0  0
  4  5  1  0  0  0
  5  1  1  0  0  0
 13  7  1  0  0  0
 19 14  1  0  0  0
  5  6  1  0  0  0
M  END
> <minimizedAffinity>
-6.27477

> <CNNscore>
0.5661292076

> <CNNaffinity>
6.1621551514

> <CNN_VS>
3.4885759354

> <CNNaffinity_variance>
0.1084479839

$$$$
[H]c1c([H])c(-c2c([H])c(SC([H])([H])[H])n([H])c2-c2c([H])c([H])c(S(=O)(=O)C([H])([H])[H])c([H])c2[H])c([H])c([H])c1F


 25 27  0  0  0  0  0  0  0  0999 V2000
   -0.5321   22.4267  -25.9126 C   0  0  0  0  0  0  0  0  0  0  0  0
    0.0820   22.0883  -24.6975 C   0  0  0  0  0  0  0  0  0  0  0  0
   -0.8807   22.0597  -23.7193 C   0  0  0  0  0  0  0  0  0  0  0  0
   -2.0663   22.3761  -24.3273 C   0  0  0  0  0  0  0  0  0  0  0  0
   -1.8364   22.5925  -25.6423 N   0  0  0  0  0  0  0  0  0  0  0  0
   -2.5388   22.8492  -26.3612 H   0  0  0  0  0  0  0  0  0  0  0  0
   -0.6820   21.7532  -22.3142 C   0  0  0  0  0  0  0  0  0  0  0  0
   -0.3785   20.4691  -21.9109 C   0  0  0  0  0  0  0  0  0  0  0  0
   -0.1878   20.1398  -20.6098 C   0  0  0  0  0  0  0  0  0  0  0  0
   -0.2944   21.0999  -19.6353 C   0  0  0  0  0  0  0  0  0  0  0  0
   -0.0975   20.7249  -18.3602 F   0  0  0  0  0  0  0  0  0  0  0  0
   -0.5987   22.4008  -20.0101 C   0  0  0  0  0  0  0  0  0  0  0  0
   -0.7892   22.7203  -21.3308 C   0  0  0  0  0  0  0  0  0  0  0  0
   -3.3427   22.4623  -23.6448 C   0  0  0  0  0  0  0  0  0  0  0  0
   -3.7756   23.6946  -23.1437 C   0  0  0  0  0  0  0  0  0  0  0  0
   -5.0001   23.6994  -22.5111 C   0  0  0  0  0  0  0  0  0  0  0  0
   -5.7900   22.5877  -22.3543 C   0  0  0  0  0  0  0  0  0  0  0  0
   -5.3534   21.3769  -22.8522 C   0  0  0  0  0  0  0  0  0  0  0  0
   -4.1476   21.3385  -23.4828 C   0  0  0  0  0  0  0  0  0  0  0  0
   -7.3375   22.6320  -21.5520 S   0  0  0  0  0  0  0  0  0  0  0  0
   -8.2181   24.0785  -22.1089 C   0  0  0  0  0  0  0  0  0  0  0  0
   -7.1097   22.7709  -20.0608 O   0  0  0  0  0  0  0  0  0  0  0  0
   -8.1009   21.3742  -21.7656 O   0  0  0  0  0  0  0  0  0  0  0  0
   -0.9276   23.2709  -28.7492 C   0  0  0  0  0  0  0  0  0  0  0  0
    0.2142   22.6163  -27.5133 S   0  0  0  0  0  0  0  0  0  0  0  0
 24 25  1  0  0  0
 25  1  1  0  0  0
  1  2  2  0  0  0
  2  3  1  0  0  0
  3  7  1  0  0  0
  7  8  2  0  0  0
  8  9  1  0  0  0
  9 10  2  0  0  0
 10 11  1  0  0  0
 10 12  1  0  0  0
 12 13  2  0  0  0
  3  4  2  0  0  0
  4 14  1  0  0  0
 14 15  2  0  0  0
 15 16  1  0  0  0
 16 17  2  0  0  0
 17 20  1  0  0  0
 20 21  1  0  0  0
 20 22  2  0  0  0
 20 23  2  0  0  0
 17 18  1  0  0  0
 18 19  2  0  0  0
  4  5  1  0  0  0
  5  1  1  0  0  0
 13  7  1  0  0  0
 19 14  1  0  0  0
  5  6  1  0  0  0
M  END
> <minimizedAffinity>
-6.16402

> <CNNscore>
0.5473432541

> <CNNaffinity>
6.0617465973

> <CNN_VS>
3.3178560734

> <CNNaffinity_variance>
0.1547348797

$$$$
[H]c1c([H])c(-c2c([H])c(SC([H])([H])[H])n([H])c2-c2c([H])c([H])c(S(=O)(=O)C([H])([H])[H])c([H])c2[H])c([H])c([H])c1F


 25 27  0  0  0  0  0  0  0  0999 V2000
    0.4938   21.6400  -24.1081 C   0  0  0  0  0  0  0  0  0  0  0  0
    0.0236   22.1143  -25.3419 C   0  0  0  0  0  0  0  0  0  0  0  0
   -1.3221   22.3598  -25.2267 C   0  0  0  0  0  0  0  0  0  0  0  0
   -1.6699   22.0404  -23.9413 C   0  0  0  0  0  0  0  0  0  0  0  0
   -0.5673   21.6109  -23.2865 N   0  0  0  0  0  0  0  0  0  0  0  0
   -0.5142   21.2989  -22.2986 H   0  0  0  0  0  0  0  0  0  0  0  0
   -2.2051   22.8612  -26.2643 C   0  0  0  0  0  0  0  0  0  0  0  0
   -2.1388   22.3581  -27.5474 C   0  0  0  0  0  0  0  0  0  0  0  0
   -2.9424   22.7998  -28.5457 C   0  0  0  0  0  0  0  0  0  0  0  0
   -3.8664   23.7838  -28.2996 C   0  0  0  0  0  0  0  0  0  0  0  0
   -4.6396   24.1889  -29.3210 F   0  0  0  0  0  0  0  0  0  0  0  0
   -3.9569   24.3095  -27.0186 C   0  0  0  0  0  0  0  0  0  0  0  0
   -3.1372   23.8532  -26.0173 C   0  0  0  0  0  0  0  0  0  0  0  0
   -3.0110   22.1503  -23.4011 C   0  0  0  0  0  0  0  0  0  0  0  0
   -3.9889   21.2280  -23.7887 C   0  0  0  0  0  0  0  0  0  0  0  0
   -5.2383   21.3936  -23.2309 C   0  0  0  0  0  0  0  0  0  0  0  0
   -5.5587   22.3889  -22.3414 C   0  0  0  0  0  0  0  0  0  0  0  0
   -4.5865   23.2936  -21.9659 C   0  0  0  0  0  0  0  0  0  0  0  0
   -3.3415   23.1574  -22.4992 C   0  0  0  0  0  0  0  0  0  0  0  0
   -7.1503   22.5651  -21.6514 S   0  0  0  0  0  0  0  0  0  0  0  0
   -6.9752   22.8545  -19.9012 C   0  0  0  0  0  0  0  0  0  0  0  0
   -7.9078   21.2661  -21.8351 O   0  0  0  0  0  0  0  0  0  0  0  0
   -7.9292   23.6298  -22.3371 O   0  0  0  0  0  0  0  0  0  0  0  0
    2.2750   20.5720  -21.9629 C   0  0  0  0  0  0  0  0  0  0  0  0
    2.1448   21.1566  -23.6661 S   0  0  0  0  0  0  0  0  0  0  0  0
 24 25  1  0  0  0
 25  1  1  0  0  0
  1  2  2  0  0  0
  2  3  1  0  0  0
  3  7  1  0  0  0
  7  8  2  0  0  0
  8  9  1  0  0  0
  9 10  2  0  0  0
 10 11  1  0  0  0
 10 12  1  0  0  0
 12 13  2  0  0  0
  3  4  2  0  0  0
  4 14  1  0  0  0
 14 15  2  0  0  0
 15 16  1  0  0  0
 16 17  2  0  0  0
 17 20  1  0  0  0
 20 21  1  0  0  0
 20 22  2  0  0  0
 20 23  2  0  0  0
 17 18  1  0  0  0
 18 19  2  0  0  0
  4  5  1  0  0  0
  5  1  1  0  0  0
 13  7  1  0  0  0
 19 14  1  0  0  0
  5  6  1  0  0  0
M  END
> <minimizedAffinity>
-7.62791

> <CNNscore>
0.4314427376

> <CNNaffinity>
6.1566820145

> <CNN_VS>
2.6562557220

> <CNNaffinity_variance>
0.0871706232

$$$$
[H]c1c([H])c(-c2c([H])c(SC([H])([H])[H])n([H])c2-c2c([H])c([H])c(S(=O)(=O)C([H])([H])[H])c([H])c2[H])c([H])c([H])c1F


 25 27  0  0  0  0  0  0  0  0999 V2000
   -8.2767   20.3668  -17.2750 C   0  0  0  0  0  0  0  0  0  0  0  0
   -8.6024   21.0272  -18.4692 C   0  0  0  0  0  0  0  0  0  0  0  0
   -7.4493   21.5431  -19.0067 C   0  0  0  0  0  0  0  0  0  0  0  0
   -6.4333   21.2032  -18.1537 C   0  0  0  0  0  0  0  0  0  0  0  0
   -6.9497   20.4981  -17.1216 N   0  0  0  0  0  0  0  0  0  0  0  0
   -6.4277   20.1034  -16.3167 H   0  0  0  0  0  0  0  0  0  0  0  0
   -7.3292   22.3007  -20.2392 C   0  0  0  0  0  0  0  0  0  0  0  0
   -7.0583   21.6632  -21.4327 C   0  0  0  0  0  0  0  0  0  0  0  0
   -6.9356   22.3328  -22.6049 C   0  0  0  0  0  0  0  0  0  0  0  0
   -7.0814   23.6968  -22.6358 C   0  0  0  0  0  0  0  0  0  0  0  0
   -6.9502   24.3158  -23.8210 F   0  0  0  0  0  0  0  0  0  0  0  0
   -7.3543   24.3661  -21.4512 C   0  0  0  0  0  0  0  0  0  0  0  0
   -7.4760   23.6759  -20.2716 C   0  0  0  0  0  0  0  0  0  0  0  0
   -5.0417   21.5601  -18.3494 C   0  0  0  0  0  0  0  0  0  0  0  0
   -4.5304   22.7077  -17.7340 C   0  0  0  0  0  0  0  0  0  0  0  0
   -3.1989   22.9804  -17.9627 C   0  0  0  0  0  0  0  0  0  0  0  0
   -2.3767   22.2041  -18.7411 C   0  0  0  0  0  0  0  0  0  0  0  0
   -2.8913   21.0743  -19.3438 C   0  0  0  0  0  0  0  0  0  0  0  0
   -4.2036   20.7770  -19.1375 C   0  0  0  0  0  0  0  0  0  0  0  0
   -0.6939   22.5773  -19.0046 S   0  0  0  0  0  0  0  0  0  0  0  0
    0.2276   22.0626  -17.5680 C   0  0  0  0  0  0  0  0  0  0  0  0
   -0.5431   24.0785  -19.1413 O   0  0  0  0  0  0  0  0  0  0  0  0
   -0.1887   21.9676  -20.2629 O   0  0  0  0  0  0  0  0  0  0  0  0
  -11.1058   19.7962  -16.5093 C   0  0  0  0  0  0  0  0  0  0  0  0
   -9.3584   19.5166  -16.1515 S   0  0  0  0  0  0  0  0  0  0  0  0
 24 25  1  0  0  0
 25  1  1  0  0  0
  1  2  2  0  0  0
  2  3  1  0  0  0
  3  7  1  0  0  0
  7  8  2  0  0  0
  8  9  1  0  0  0
  9 10  2  0  0  0
 10 11  1  0  0  0
 10 12  1  0  0  0
 12 13  2  0  0  0
  3  4  2  0  0  0
  4 14  1  0  0  0
 14 15  2  0  0  0
 15 16  1  0  0  0
 16 17  2  0  0  0
 17 20  1  0  0  0
 20 21  1  0  0  0
 20 22  2  0  0  0
 20 23  2  0  0  0
 17 18  1  0  0  0
 18 19  2  0  0  0
  4  5  1  0  0  0
  5  1  1  0  0  0
 13  7  1  0  0  0
 19 14  1  0  0  0
  5  6  1  0  0  0
M  END
> <minimizedAffinity>
-4.49324

> <CNNscore>
0.4267092943

> <CNNaffinity>
5.1882886887

> <CNN_VS>
2.2138910294

> <CNNaffinity_variance>
0.3468837440

$$$$
[H]c1c([H])c(-c2c([H])c(SC([H])([H])[H])n([H])c2-c2c([H])c([H])c(S(=O)(=O)C([H])([H])[H])c([H])c2[H])c([H])c([H])c1F


 25 27  0  0  0  0  0  0  0  0999 V2000
   -0.9051   22.5152  -26.6014 C   0  0  0  0  0  0  0  0  0  0  0  0
   -1.4840   22.8182  -27.8429 C   0  0  0  0  0  0  0  0  0  0  0  0
   -2.7580   23.2809  -27.6249 C   0  0  0  0  0  0  0  0  0  0  0  0
   -2.9553   23.2611  -26.2699 C   0  0  0  0  0  0  0  0  0  0  0  0
   -1.8328   22.7990  -25.6738 N   0  0  0  0  0  0  0  0  0  0  0  0
   -1.6782   22.6710  -24.6560 H   0  0  0  0  0  0  0  0  0  0  0  0
   -3.7107   23.7088  -28.6333 C   0  0  0  0  0  0  0  0  0  0  0  0
   -3.6853   24.9989  -29.1221 C   0  0  0  0  0  0  0  0  0  0  0  0
   -4.5578   25.4396  -30.0612 C   0  0  0  0  0  0  0  0  0  0  0  0
   -5.5133   24.5923  -30.5630 C   0  0  0  0  0  0  0  0  0  0  0  0
   -6.3558   25.0753  -31.4916 F   0  0  0  0  0  0  0  0  0  0  0  0
   -5.5639   23.2885  -30.0909 C   0  0  0  0  0  0  0  0  0  0  0  0
   -4.6746   22.8554  -29.1400 C   0  0  0  0  0  0  0  0  0  0  0  0
   -4.1808   23.6701  -25.6117 C   0  0  0  0  0  0  0  0  0  0  0  0
   -5.1914   22.7289  -25.3880 C   0  0  0  0  0  0  0  0  0  0  0  0
   -6.3248   23.1903  -24.7540 C   0  0  0  0  0  0  0  0  0  0  0  0
   -6.5036   24.4883  -24.3445 C   0  0  0  0  0  0  0  0  0  0  0  0
   -5.5005   25.4088  -24.5703 C   0  0  0  0  0  0  0  0  0  0  0  0
   -4.3677   24.9846  -25.1946 C   0  0  0  0  0  0  0  0  0  0  0  0
   -7.9503   25.0359  -23.5399 S   0  0  0  0  0  0  0  0  0  0  0  0
   -8.2676   23.9562  -22.1574 C   0  0  0  0  0  0  0  0  0  0  0  0
   -9.1164   24.9181  -24.4998 O   0  0  0  0  0  0  0  0  0  0  0  0
   -7.8486   26.4654  -23.1440 O   0  0  0  0  0  0  0  0  0  0  0  0
    1.0689   21.7419  -24.4989 C   0  0  0  0  0  0  0  0  0  0  0  0
    0.7186   21.8787  -26.2647 S   0  0  0  0  0  0  0  0  0  0  0  0
 24 25  1  0  0  0
 25  1  1  0  0  0
  1  2  2  0  0  0
  2  3  1  0  0  0
  3  7  1  0  0  0
  7  8  2  0  0  0
  8  9  1  0  0  0
  9 10  2  0  0  0
 10 11  1  0  0  0
 10 12  1  0  0  0
 12 13  2  0  0  0
  3  4  2  0  0  0
  4 14  1  0  0  0
 14 15  2  0  0  0
 15 16  1  0  0  0
 16 17  2  0  0  0
 17 20  1  0  0  0
 20 21  1  0  0  0
 20 22  2  0  0  0
 20 23  2  0  0  0
 17 18  1  0  0  0
 18 19  2  0  0  0
  4  5  1  0  0  0
  5  1  1  0  0  0
 13  7  1  0  0  0
 19 14  1  0  0  0
  5  6  1  0  0  0
M  END
> <minimizedAffinity>
-8.30230

> <CNNscore>
0.3348738551

> <CNNaffinity>
6.3192653656

> <CNN_VS>
2.1161568165

> <CNNaffinity_variance>
0.0759489015

$$$$
[H]c1c([H])c(-c2c([H])c(SC([H])([H])[H])n([H])c2-c2c([H])c([H])c(S(=O)(=O)C([H])([H])[H])c([H])c2[H])c([H])c([H])c1F


 25 27  0  0  0  0  0  0  0  0999 V2000
   -4.0685   21.5033  -22.4949 C   0  0  0  0  0  0  0  0  0  0  0  0
   -4.8867   21.6042  -21.3597 C   0  0  0  0  0  0  0  0  0  0  0  0
   -4.0816   21.7572  -20.2583 C   0  0  0  0  0  0  0  0  0  0  0  0
   -2.7899   21.7499  -20.7133 C   0  0  0  0  0  0  0  0  0  0  0  0
   -2.8032   21.5967  -22.0569 N   0  0  0  0  0  0  0  0  0  0  0  0
   -1.9786   21.5540  -22.6849 H   0  0  0  0  0  0  0  0  0  0  0  0
   -4.5141   21.8998  -18.8798 C   0  0  0  0  0  0  0  0  0  0  0  0
   -4.6999   20.7889  -18.0828 C   0  0  0  0  0  0  0  0  0  0  0  0
   -5.1052   20.8775  -16.7923 C   0  0  0  0  0  0  0  0  0  0  0  0
   -5.3472   22.1059  -16.2308 C   0  0  0  0  0  0  0  0  0  0  0  0
   -5.7477   22.1425  -14.9488 F   0  0  0  0  0  0  0  0  0  0  0  0
   -5.1690   23.2418  -17.0076 C   0  0  0  0  0  0  0  0  0  0  0  0
   -4.7584   23.1377  -18.3126 C   0  0  0  0  0  0  0  0  0  0  0  0
   -1.6198   21.8816  -19.8674 C   0  0  0  0  0  0  0  0  0  0  0  0
   -1.0993   20.7512  -19.2283 C   0  0  0  0  0  0  0  0  0  0  0  0
    0.0159   20.9534  -18.4442 C   0  0  0  0  0  0  0  0  0  0  0  0
    0.6212   22.1726  -18.2660 C   0  0  0  0  0  0  0  0  0  0  0  0
    0.0995   23.2814  -18.9008 C   0  0  0  0  0  0  0  0  0  0  0  0
   -1.0022   23.1151  -19.6830 C   0  0  0  0  0  0  0  0  0  0  0  0
    2.0353   22.3904  -17.2695 S   0  0  0  0  0  0  0  0  0  0  0  0
    2.8977   23.8471  -17.8284 C   0  0  0  0  0  0  0  0  0  0  0  0
    2.9551   21.2022  -17.4619 O   0  0  0  0  0  0  0  0  0  0  0  0
    1.6842   22.4463  -15.8258 O   0  0  0  0  0  0  0  0  0  0  0  0
   -4.4771   22.8221  -25.1424 C   0  0  0  0  0  0  0  0  0  0  0  0
   -4.5522   21.2897  -24.1906 S   0  0  0  0  0  0  0  0  0  0  0  0
 24 25  1  0  0  0
 25  1  1  0  0  0
  1  2  2  0  0  0
  2  3  1  0  0  0
  3  7  1  0  0  0
  7  8  2  0  0  0
  8  9  1  0  0  0
  9 10  2  0  0  0
 10 11  1  0  0  0
 10 12  1  0  0  0
 12 13  2  0  0  0
  3  4  2  0  0  0
  4 14  1  0  0  0
 14 15  2  0  0  0
 15 16  1  0  0  0
 16 17  2  0  0  0
 17 20  1  0  0  0
 20 21  1  0  0  0
 20 22  2  0  0  0
 20 23  2  0  0  0
 17 18  1  0  0  0
 18 19  2  0  0  0
  4  5  1  0  0  0
  5  1  1  0  0  0
 13  7  1  0  0  0
 19 14  1  0  0  0
  5  6  1  0  0  0
M  END
> <minimizedAffinity>
-4.41590

> <CNNscore>
0.3048766553

> <CNNaffinity>
5.3241515160

> <CNN_VS>
1.6232094765

> <CNNaffinity_variance>
0.2518484294

$$$$
[H]c1c([H])c(-c2c([H])c(SC([H])([H])[H])n([H])c2-c2c([H])c([H])c(S(=O)(=O)C([H])([H])[H])c([H])c2[H])c([H])c([H])c1F


 25 27  0  0  0  0  0  0  0  0999 V2000
    1.7546   21.0616  -22.8043 C   0  0  0  0  0  0  0  0  0  0  0  0
    1.5122   21.2822  -24.1684 C   0  0  0  0  0  0  0  0  0  0  0  0
    0.2501   21.8049  -24.3047 C   0  0  0  0  0  0  0  0  0  0  0  0
   -0.2717   21.9025  -23.0424 C   0  0  0  0  0  0  0  0  0  0  0  0
    0.6457   21.4521  -22.1567 N   0  0  0  0  0  0  0  0  0  0  0  0
    0.5409   21.4022  -21.1258 H   0  0  0  0  0  0  0  0  0  0  0  0
   -0.4043   22.1817  -25.5446 C   0  0  0  0  0  0  0  0  0  0  0  0
   -1.7614   21.9935  -25.7087 C   0  0  0  0  0  0  0  0  0  0  0  0
   -2.4107   22.3287  -26.8503 C   0  0  0  0  0  0  0  0  0  0  0  0
   -1.7174   22.8782  -27.8993 C   0  0  0  0  0  0  0  0  0  0  0  0
   -2.4046   23.1932  -29.0100 F   0  0  0  0  0  0  0  0  0  0  0  0
   -0.3512   23.0797  -27.7641 C   0  0  0  0  0  0  0  0  0  0  0  0
    0.2936   22.7357  -26.6028 C   0  0  0  0  0  0  0  0  0  0  0  0
   -1.5968   22.4059  -22.7374 C   0  0  0  0  0  0  0  0  0  0  0  0
   -2.6353   21.5045  -22.4805 C   0  0  0  0  0  0  0  0  0  0  0  0
   -3.8652   22.0568  -22.1945 C   0  0  0  0  0  0  0  0  0  0  0  0
   -4.1119   23.4065  -22.1511 C   0  0  0  0  0  0  0  0  0  0  0  0
   -3.0804   24.2871  -22.4064 C   0  0  0  0  0  0  0  0  0  0  0  0
   -1.8526   23.7732  -22.6923 C   0  0  0  0  0  0  0  0  0  0  0  0
   -5.6811   24.0703  -21.7805 S   0  0  0  0  0  0  0  0  0  0  0  0
   -6.8897   22.7673  -21.9197 C   0  0  0  0  0  0  0  0  0  0  0  0
   -6.0177   25.1297  -22.8098 O   0  0  0  0  0  0  0  0  0  0  0  0
   -5.6953   24.7304  -20.4484 O   0  0  0  0  0  0  0  0  0  0  0  0
    3.7542   21.3645  -20.6077 C   0  0  0  0  0  0  0  0  0  0  0  0
    3.2112   20.3990  -22.0334 S   0  0  0  0  0  0  0  0  0  0  0  0
 24 25  1  0  0  0
 25  1  1  0  0  0
  1  2  2  0  0  0
  2  3  1  0  0  0
  3  7  1  0  0  0
  7  8  2  0  0  0
  8  9  1  0  0  0
  9 10  2  0  0  0
 10 11  1  0  0  0
 10 12  1  0  0  0
 12 13  2  0  0  0
  3  4  2  0  0  0
  4 14  1  0  0  0
 14 15  2  0  0  0
 15 16  1  0  0  0
 16 17  2  0  0  0
 17 20  1  0  0  0
 20 21  1  0  0  0
 20 22  2  0  0  0
 20 23  2  0  0  0
 17 18  1  0  0  0
 18 19  2  0  0  0
  4  5  1  0  0  0
  5  1  1  0  0  0
 13  7  1  0  0  0
 19 14  1  0  0  0
  5  6  1  0  0  0
M  END
> <minimizedAffinity>
-7.95636

> <CNNscore>
0.2982267439

> <CNNaffinity>
5.7131271362

> <CNN_VS>
1.7038073540

> <CNNaffinity_variance>
0.2369250506

$$$$
[H]OC([H])([H])C([H])([H])N([H])C(=O)[C@@]1([H])O[C@@]([H])(n2c([H])nc3c(N([H])C([H])([H])c4c([H])c([H])c([H])c([H])c4C([H])([H])[H])nc([H])nc32)[C@]([H])(O[H])[C@]1([H])O[H]


 36 39  0  0  0  0  0  0  0  0999 V2000
   -1.5503   22.2370  -26.8304 C   0  0  0  0  0  0  0  0  0  0  0  0
   -0.2640   22.4610  -27.1790 N   0  0  0  0  0  0  0  0  0  0  0  0
    0.7199   22.5392  -26.2726 C   0  0  0  0  0  0  0  0  0  0  0  0
    0.4173   22.3900  -24.9759 N   0  0  0  0  0  0  0  0  0  0  0  0
   -0.8338   22.1667  -24.5698 C   0  0  0  0  0  0  0  0  0  0  0  0
   -1.8372   22.0864  -25.4869 C   0  0  0  0  0  0  0  0  0  0  0  0
   -2.9866   21.8580  -24.8245 N   0  0  0  0  0  0  0  0  0  0  0  0
   -2.7323   21.7920  -23.5068 C   0  0  0  0  0  0  0  0  0  0  0  0
   -1.4126   21.9818  -23.3571 N   0  0  0  0  0  0  0  0  0  0  0  0
   -0.7285   21.9874  -22.1056 C   0  0  0  0  0  0  0  0  0  0  0  0
   -0.1069   20.7763  -21.8116 O   0  0  0  0  0  0  0  0  0  0  0  0
    0.2091   20.9163  -20.4466 C   0  0  0  0  0  0  0  0  0  0  0  0
   -1.1570   21.3112  -19.8971 C   0  0  0  0  0  0  0  0  0  0  0  0
   -1.0969   21.8121  -18.6231 O   0  0  0  0  0  0  0  0  0  0  0  0
   -1.5595   22.3615  -20.9254 C   0  0  0  0  0  0  0  0  0  0  0  0
   -1.1776   23.6021  -20.3881 O   0  0  0  0  0  0  0  0  0  0  0  0
   -1.9951   21.7085  -18.1967 H   0  0  0  0  0  0  0  0  0  0  0  0
   -1.9387   24.2432  -20.4116 H   0  0  0  0  0  0  0  0  0  0  0  0
    0.7337   19.6928  -19.8629 C   0  0  0  0  0  0  0  0  0  0  0  0
    0.7245   19.5230  -18.6240 O   0  0  0  0  0  0  0  0  0  0  0  0
    1.2647   18.6701  -20.6836 N   0  0  0  0  0  0  0  0  0  0  0  0
    1.2824   18.7895  -21.7154 H   0  0  0  0  0  0  0  0  0  0  0  0
    1.7959   17.4359  -20.1249 C   0  0  0  0  0  0  0  0  0  0  0  0
    2.0674   16.4525  -21.2139 C   0  0  0  0  0  0  0  0  0  0  0  0
    0.9281   15.6741  -21.4276 O   0  0  0  0  0  0  0  0  0  0  0  0
    0.8782   15.3445  -22.3743 H   0  0  0  0  0  0  0  0  0  0  0  0
   -2.5788   22.1760  -27.8071 N   0  0  0  0  0  0  0  0  0  0  0  0
   -3.0725   21.2578  -27.9303 H   0  0  0  0  0  0  0  0  0  0  0  0
   -2.9613   23.2922  -28.6138 C   0  0  0  0  0  0  0  0  0  0  0  0
   -3.7428   25.6602  -29.9704 C   0  0  0  0  0  0  0  0  0  0  0  0
   -4.5429   25.1823  -28.8353 C   0  0  0  0  0  0  0  0  0  0  0  0
   -5.6428   25.8794  -28.4374 C   0  0  0  0  0  0  0  0  0  0  0  0
   -6.4146   25.4560  -27.3751 C   0  0  0  0  0  0  0  0  0  0  0  0
   -6.0837   24.3078  -26.6891 C   0  0  0  0  0  0  0  0  0  0  0  0
   -4.9581   23.6216  -27.1196 C   0  0  0  0  0  0  0  0  0  0  0  0
   -4.1666   24.0113  -28.1716 C   0  0  0  0  0  0  0  0  0  0  0  0
 30 31  1  0  0  0
 31 32  2  0  0  0
 32 33  1  0  0  0
 33 34  2  0  0  0
 34 35  1  0  0  0
 35 36  2  0  0  0
 36 29  1  0  0  0
 29 27  1  0  0  0
 27  1  1  0  0  0
  1  2  2  0  0  0
  2  3  1  0  0  0
  3  4  2  0  0  0
  4  5  1  0  0  0
  5  6  2  0  0  0
  6  7  1  0  0  0
  7  8  2  0  0  0
  8  9  1  0  0  0
  9 10  1  0  0  0
 10 11  1  0  0  0
 11 12  1  0  0  0
 12 19  1  0  0  0
 19 20  2  0  0  0
 19 21  1  0  0  0
 21 23  1  0  0  0
 23 24  1  0  0  0
 24 25  1  0  0  0
 12 13  1  0  0  0
 13 14  1  0  0  0
 13 15  1  0  0  0
 15 16  1  0  0  0
 36 31  1  0  0  0
  6  1  1  0  0  0
 15 10  1  0  0  0
  9  5  1  0  0  0
 27 28  1  0  0  0
 21 22  1  0  0  0
 25 26  1  0  0  0
 14 17  1  0  0  0
 16 18  1  0  0  0
M  END
> <minimizedAffinity>
-7.61930

> <CNNscore>
0.7358232737

> <CNNaffinity>
6.2241334915

> <CNN_VS>
4.5798621178

> <CNNaffinity_variance>
0.2301698178

$$$$
[H]OC([H])([H])C([H])([H])N([H])C(=O)[C@@]1([H])O[C@@]([H])(n2c([H])nc3c(N([H])C([H])([H])c4c([H])c([H])c([H])c([H])c4C([H])([H])[H])nc([H])nc32)[C@]([H])(O[H])[C@]1([H])O[H]


 36 39  0  0  0  0  0  0  0  0999 V2000
   -0.5124   22.0675  -23.1341 C   0  0  0  0  0  0  0  0  0  0  0  0
    0.2119   21.8099  -24.2455 N   0  0  0  0  0  0  0  0  0  0  0  0
   -0.3135   21.8864  -25.4758 C   0  0  0  0  0  0  0  0  0  0  0  0
   -1.6017   22.2302  -25.6081 N   0  0  0  0  0  0  0  0  0  0  0  0
   -2.3680   22.4965  -24.5488 C   0  0  0  0  0  0  0  0  0  0  0  0
   -1.8387   22.4202  -23.2964 C   0  0  0  0  0  0  0  0  0  0  0  0
   -2.8088   22.7326  -22.4169 N   0  0  0  0  0  0  0  0  0  0  0  0
   -3.9416   23.0051  -23.0861 C   0  0  0  0  0  0  0  0  0  0  0  0
   -3.6655   22.8589  -24.3908 N   0  0  0  0  0  0  0  0  0  0  0  0
   -4.6027   23.0564  -25.4477 C   0  0  0  0  0  0  0  0  0  0  0  0
   -4.1370   23.9093  -26.4454 O   0  0  0  0  0  0  0  0  0  0  0  0
   -5.3058   24.1930  -27.1775 C   0  0  0  0  0  0  0  0  0  0  0  0
   -6.2228   24.6480  -26.0479 C   0  0  0  0  0  0  0  0  0  0  0  0
   -7.5406   24.7055  -26.4186 O   0  0  0  0  0  0  0  0  0  0  0  0
   -5.9447   23.5514  -25.0267 C   0  0  0  0  0  0  0  0  0  0  0  0
   -6.9431   22.5807  -25.2128 O   0  0  0  0  0  0  0  0  0  0  0  0
   -8.0192   25.3289  -25.8007 H   0  0  0  0  0  0  0  0  0  0  0  0
   -7.3824   22.3597  -24.3475 H   0  0  0  0  0  0  0  0  0  0  0  0
   -5.0980   25.2088  -28.1963 C   0  0  0  0  0  0  0  0  0  0  0  0
   -5.5807   26.3545  -28.0612 O   0  0  0  0  0  0  0  0  0  0  0  0
   -4.3462   24.9225  -29.3599 N   0  0  0  0  0  0  0  0  0  0  0  0
   -3.9358   23.9775  -29.4930 H   0  0  0  0  0  0  0  0  0  0  0  0
   -4.1232   25.9211  -30.3946 C   0  0  0  0  0  0  0  0  0  0  0  0
   -5.2652   25.9317  -31.3550 C   0  0  0  0  0  0  0  0  0  0  0  0
   -6.1227   26.9879  -31.0409 O   0  0  0  0  0  0  0  0  0  0  0  0
   -6.6124   27.3197  -31.8517 H   0  0  0  0  0  0  0  0  0  0  0  0
    0.0613   21.9625  -21.8397 N   0  0  0  0  0  0  0  0  0  0  0  0
   -0.0713   22.7737  -21.1866 H   0  0  0  0  0  0  0  0  0  0  0  0
    0.7977   20.8196  -21.3986 C   0  0  0  0  0  0  0  0  0  0  0  0
    3.3026   20.5148  -22.6991 C   0  0  0  0  0  0  0  0  0  0  0  0
    3.2667   20.9488  -21.2964 C   0  0  0  0  0  0  0  0  0  0  0  0
    4.4289   21.1917  -20.6300 C   0  0  0  0  0  0  0  0  0  0  0  0
    4.4280   21.6006  -19.3123 C   0  0  0  0  0  0  0  0  0  0  0  0
    3.2386   21.7727  -18.6384 C   0  0  0  0  0  0  0  0  0  0  0  0
    2.0735   21.5169  -19.3458 C   0  0  0  0  0  0  0  0  0  0  0  0
    2.0347   21.1095  -20.6563 C   0  0  0  0  0  0  0  0  0  0  0  0
 30 31  1  0  0  0
 31 32  2  0  0  0
 32 33  1  0  0  0
 33 34  2  0  0  0
 34 35  1  0  0  0
 35 36  2  0  0  0
 36 29  1  0  0  0
 29 27  1  0  0  0
 27  1  1  0  0  0
  1  2  2  0  0  0
  2  3  1  0  0  0
  3  4  2  0  0  0
  4  5  1  0  0  0
  5  6  2  0  0  0
  6  7  1  0  0  0
  7  8  2  0  0  0
  8  9  1  0  0  0
  9 10  1  0  0  0
 10 11  1  0  0  0
 11 12  1  0  0  0
 12 19  1  0  0  0
 19 20  2  0  0  0
 19 21  1  0  0  0
 21 23  1  0  0  0
 23 24  1  0  0  0
 24 25  1  0  0  0
 12 13  1  0  0  0
 13 14  1  0  0  0
 13 15  1  0  0  0
 15 16  1  0  0  0
 36 31  1  0  0  0
  6  1  1  0  0  0
 15 10  1  0  0  0
  9  5  1  0  0  0
 27 28  1  0  0  0
 21 22  1  0  0  0
 25 26  1  0  0  0
 14 17  1  0  0  0
 16 18  1  0  0  0
M  END
> <minimizedAffinity>
-7.15799

> <CNNscore>
0.3641320467

> <CNNaffinity>
6.3232316971

> <CNN_VS>
2.3024911880

> <CNNaffinity_variance>
0.2052303851

$$$$
[H]OC([H])([H])C([H])([H])N([H])C(=O)[C@@]1([H])O[C@@]([H])(n2c([H])nc3c(N([H])C([H])([H])c4c([H])c([H])c([H])c([H])c4C([H])([H])[H])nc([H])nc32)[C@]([H])(O[H])[C@]1([H])O[H]


 36 39  0  0  0  0  0  0  0  0999 V2000
   -0.2323   21.2857  -22.0758 C   0  0  0  0  0  0  0  0  0  0  0  0
   -1.0831   21.3305  -21.0269 N   0  0  0  0  0  0  0  0  0  0  0  0
   -2.3628   21.7058  -21.1590 C   0  0  0  0  0  0  0  0  0  0  0  0
   -2.8136   22.0484  -22.3733 N   0  0  0  0  0  0  0  0  0  0  0  0
   -2.0219   22.0241  -23.4470 C   0  0  0  0  0  0  0  0  0  0  0  0
   -0.7208   21.6435  -23.3180 C   0  0  0  0  0  0  0  0  0  0  0  0
   -0.1486   21.7051  -24.5349 N   0  0  0  0  0  0  0  0  0  0  0  0
   -1.0601   22.1169  -25.4321 C   0  0  0  0  0  0  0  0  0  0  0  0
   -2.2050   22.3106  -24.7601 N   0  0  0  0  0  0  0  0  0  0  0  0
   -3.4276   22.7527  -25.3467 C   0  0  0  0  0  0  0  0  0  0  0  0
   -3.4784   22.5621  -26.7253 O   0  0  0  0  0  0  0  0  0  0  0  0
   -4.5922   23.3367  -27.1020 C   0  0  0  0  0  0  0  0  0  0  0  0
   -4.2225   24.6661  -26.4536 C   0  0  0  0  0  0  0  0  0  0  0  0
   -5.2734   25.5434  -26.3950 O   0  0  0  0  0  0  0  0  0  0  0  0
   -3.7869   24.1747  -25.0784 C   0  0  0  0  0  0  0  0  0  0  0  0
   -4.9155   24.2822  -24.2486 O   0  0  0  0  0  0  0  0  0  0  0  0
   -4.9103   26.4713  -26.3136 H   0  0  0  0  0  0  0  0  0  0  0  0
   -4.6908   24.7754  -23.4137 H   0  0  0  0  0  0  0  0  0  0  0  0
   -4.7545   23.4238  -28.5438 C   0  0  0  0  0  0  0  0  0  0  0  0
   -4.2255   22.5768  -29.2967 O   0  0  0  0  0  0  0  0  0  0  0  0
   -5.5133   24.4671  -29.1242 N   0  0  0  0  0  0  0  0  0  0  0  0
   -5.9618   25.1817  -28.5181 H   0  0  0  0  0  0  0  0  0  0  0  0
   -5.6915   24.5772  -30.5643 C   0  0  0  0  0  0  0  0  0  0  0  0
   -5.1877   25.8964  -31.0463 C   0  0  0  0  0  0  0  0  0  0  0  0
   -6.1926   26.8550  -30.9024 O   0  0  0  0  0  0  0  0  0  0  0  0
   -5.8106   27.7738  -30.7714 H   0  0  0  0  0  0  0  0  0  0  0  0
    1.1243   20.9020  -21.9085 N   0  0  0  0  0  0  0  0  0  0  0  0
    1.8180   21.2668  -22.6069 H   0  0  0  0  0  0  0  0  0  0  0  0
    1.5748   20.0553  -20.8486 C   0  0  0  0  0  0  0  0  0  0  0  0
    0.0307   17.7782  -20.1494 C   0  0  0  0  0  0  0  0  0  0  0  0
    1.2792   17.5991  -20.9020 C   0  0  0  0  0  0  0  0  0  0  0  0
    1.6904   16.3484  -21.2493 C   0  0  0  0  0  0  0  0  0  0  0  0
    2.8581   16.1479  -21.9562 C   0  0  0  0  0  0  0  0  0  0  0  0
    3.6390   17.2205  -22.3279 C   0  0  0  0  0  0  0  0  0  0  0  0
    3.1920   18.4803  -21.9586 C   0  0  0  0  0  0  0  0  0  0  0  0
    2.0366   18.7191  -21.2564 C   0  0  0  0  0  0  0  0  0  0  0  0
 30 31  1  0  0  0
 31 32  2  0  0  0
 32 33  1  0  0  0
 33 34  2  0  0  0
 34 35  1  0  0  0
 35 36  2  0  0  0
 36 29  1  0  0  0
 29 27  1  0  0  0
 27  1  1  0  0  0
  1  2  2  0  0  0
  2  3  1  0  0  0
  3  4  2  0  0  0
  4  5  1  0  0  0
  5  6  2  0  0  0
  6  7  1  0  0  0
  7  8  2  0  0  0
  8  9  1  0  0  0
  9 10  1  0  0  0
 10 11  1  0  0  0
 11 12  1  0  0  0
 12 19  1  0  0  0
 19 20  2  0  0  0
 19 21  1  0  0  0
 21 23  1  0  0  0
 23 24  1  0  0  0
 24 25  1  0  0  0
 12 13  1  0  0  0
 13 14  1  0  0  0
 13 15  1  0  0  0
 15 16  1  0  0  0
 36 31  1  0  0  0
  6  1  1  0  0  0
 15 10  1  0  0  0
  9  5  1  0  0  0
 27 28  1  0  0  0
 21 22  1  0  0  0
 25 26  1  0  0  0
 14 17  1  0  0  0
 16 18  1  0  0  0
M  END
> <minimizedAffinity>
-7.54418

> <CNNscore>
0.2718765140

> <CNNaffinity>
5.8527755737

> <CNN_VS>
1.5912321806

> <CNNaffinity_variance>
0.1057379246

$$$$
[H]OC([H])([H])C([H])([H])N([H])C(=O)[C@@]1([H])O[C@@]([H])(n2c([H])nc3c(N([H])C([H])([H])c4c([H])c([H])c([H])c([H])c4C([H])([H])[H])nc([H])nc32)[C@]([H])(O[H])[C@]1([H])O[H]


 36 39  0  0  0  0  0  0  0  0999 V2000
   -3.9487   21.6298  -22.7120 C   0  0  0  0  0  0  0  0  0  0  0  0
   -2.9612   21.8405  -21.8140 N   0  0  0  0  0  0  0  0  0  0  0  0
   -3.2104   22.2028  -20.5481 C   0  0  0  0  0  0  0  0  0  0  0  0
   -4.4829   22.3615  -20.1600 N   0  0  0  0  0  0  0  0  0  0  0  0
   -5.5009   22.1680  -21.0004 C   0  0  0  0  0  0  0  0  0  0  0  0
   -5.2530   21.7997  -22.2878 C   0  0  0  0  0  0  0  0  0  0  0  0
   -6.4360   21.6712  -22.9171 N   0  0  0  0  0  0  0  0  0  0  0  0
   -7.4282   21.9505  -22.0553 C   0  0  0  0  0  0  0  0  0  0  0  0
   -6.8495   22.2539  -20.8835 N   0  0  0  0  0  0  0  0  0  0  0  0
   -7.5547   22.6129  -19.6969 C   0  0  0  0  0  0  0  0  0  0  0  0
   -7.7176   21.5517  -18.8098 O   0  0  0  0  0  0  0  0  0  0  0  0
   -8.6791   22.0486  -17.9092 C   0  0  0  0  0  0  0  0  0  0  0  0
   -9.7579   22.4923  -18.8907 C   0  0  0  0  0  0  0  0  0  0  0  0
  -10.7038   23.3006  -18.3168 O   0  0  0  0  0  0  0  0  0  0  0  0
   -8.8970   23.2253  -19.9126 C   0  0  0  0  0  0  0  0  0  0  0  0
   -8.9198   24.5807  -19.5434 O   0  0  0  0  0  0  0  0  0  0  0  0
  -11.5370   23.2578  -18.8677 H   0  0  0  0  0  0  0  0  0  0  0  0
   -9.1635   25.1516  -20.3215 H   0  0  0  0  0  0  0  0  0  0  0  0
   -9.1371   21.0429  -16.9648 C   0  0  0  0  0  0  0  0  0  0  0  0
  -10.0860   21.2846  -16.1870 O   0  0  0  0  0  0  0  0  0  0  0  0
   -8.5194   19.7716  -16.9064 N   0  0  0  0  0  0  0  0  0  0  0  0
   -7.7294   19.5488  -17.5431 H   0  0  0  0  0  0  0  0  0  0  0  0
   -8.9584   18.7472  -15.9707 C   0  0  0  0  0  0  0  0  0  0  0  0
   -9.7250   17.6876  -16.6892 C   0  0  0  0  0  0  0  0  0  0  0  0
   -9.1551   17.4776  -17.9464 O   0  0  0  0  0  0  0  0  0  0  0  0
   -9.3061   16.5390  -18.2682 H   0  0  0  0  0  0  0  0  0  0  0  0
   -3.6598   21.2637  -24.0530 N   0  0  0  0  0  0  0  0  0  0  0  0
   -3.5749   20.2392  -24.2652 H   0  0  0  0  0  0  0  0  0  0  0  0
   -3.4830   22.2153  -25.1048 C   0  0  0  0  0  0  0  0  0  0  0  0
   -3.1603   23.0045  -27.8125 C   0  0  0  0  0  0  0  0  0  0  0  0
   -1.9753   22.6615  -27.0155 C   0  0  0  0  0  0  0  0  0  0  0  0
   -0.7374   22.7149  -27.5801 C   0  0  0  0  0  0  0  0  0  0  0  0
    0.3946   22.3990  -26.8575 C   0  0  0  0  0  0  0  0  0  0  0  0
    0.2932   22.0191  -25.5369 C   0  0  0  0  0  0  0  0  0  0  0  0
   -0.9815   21.9748  -24.9925 C   0  0  0  0  0  0  0  0  0  0  0  0
   -2.1300   22.2823  -25.6792 C   0  0  0  0  0  0  0  0  0  0  0  0
 30 31  1  0  0  0
 31 32  2  0  0  0
 32 33  1  0  0  0
 33 34  2  0  0  0
 34 35  1  0  0  0
 35 36  2  0  0  0
 36 29  1  0  0  0
 29 27  1  0  0  0
 27  1  1  0  0  0
  1  2  2  0  0  0
  2  3  1  0  0  0
  3  4  2  0  0  0
  4  5  1  0  0  0
  5  6  2  0  0  0
  6  7  1  0  0  0
  7  8  2  0  0  0
  8  9  1  0  0  0
  9 10  1  0  0  0
 10 11  1  0  0  0
 11 12  1  0  0  0
 12 19  1  0  0  0
 19 20  2  0  0  0
 19 21  1  0  0  0
 21 23  1  0  0  0
 23 24  1  0  0  0
 24 25  1  0  0  0
 12 13  1  0  0  0
 13 14  1  0  0  0
 13 15  1  0  0  0
 15 16  1  0  0  0
 36 31  1  0  0  0
  6  1  1  0  0  0
 15 10  1  0  0  0
  9  5  1  0  0  0
 27 28  1  0  0  0
 21 22  1  0  0  0
 25 26  1  0  0  0
 14 17  1  0  0  0
 16 18  1  0  0  0
M  END
> <minimizedAffinity>
-7.49658

> <CNNscore>
0.2276255190

> <CNNaffinity>
4.8670945168

> <CNN_VS>
1.1078748703

> <CNNaffinity_variance>
0.1605911851

$$$$
[H]OC([H])([H])C([H])([H])N([H])C(=O)[C@@]1([H])O[C@@]([H])(n2c([H])nc3c(N([H])C([H])([H])c4c([H])c([H])c([H])c([H])c4C([H])([H])[H])nc([H])nc32)[C@]([H])(O[H])[C@]1([H])O[H]


 36 39  0  0  0  0  0  0  0  0999 V2000
   -2.2983   22.3076  -24.0683 C   0  0  0  0  0  0  0  0  0  0  0  0
   -3.1275   22.1826  -23.0086 N   0  0  0  0  0  0  0  0  0  0  0  0
   -2.7002   21.7569  -21.8119 C   0  0  0  0  0  0  0  0  0  0  0  0
   -1.4060   21.4447  -21.6614 N   0  0  0  0  0  0  0  0  0  0  0  0
   -0.5387   21.5475  -22.6701 C   0  0  0  0  0  0  0  0  0  0  0  0
   -0.9679   21.9795  -23.8881 C   0  0  0  0  0  0  0  0  0  0  0  0
    0.0907   21.9929  -24.7195 N   0  0  0  0  0  0  0  0  0  0  0  0
    1.1815   21.5782  -24.0536 C   0  0  0  0  0  0  0  0  0  0  0  0
    0.7899   21.3070  -22.7994 N   0  0  0  0  0  0  0  0  0  0  0  0
    1.6489   20.8358  -21.7630 C   0  0  0  0  0  0  0  0  0  0  0  0
    1.5893   21.6064  -20.6044 O   0  0  0  0  0  0  0  0  0  0  0  0
    2.7106   21.1591  -19.8796 C   0  0  0  0  0  0  0  0  0  0  0  0
    3.7943   21.3231  -20.9393 C   0  0  0  0  0  0  0  0  0  0  0  0
    4.9591   20.6772  -20.6178 O   0  0  0  0  0  0  0  0  0  0  0  0
    3.0861   20.7011  -22.1368 C   0  0  0  0  0  0  0  0  0  0  0  0
    3.4929   19.3570  -22.1776 O   0  0  0  0  0  0  0  0  0  0  0  0
    5.7092   21.1000  -21.1259 H   0  0  0  0  0  0  0  0  0  0  0  0
    3.8218   19.1179  -23.0861 H   0  0  0  0  0  0  0  0  0  0  0  0
    2.9536   21.9433  -18.6801 C   0  0  0  0  0  0  0  0  0  0  0  0
    2.5010   21.5734  -17.5745 O   0  0  0  0  0  0  0  0  0  0  0  0
    3.7066   23.1395  -18.7387 N   0  0  0  0  0  0  0  0  0  0  0  0
    4.0923   23.4658  -19.6463 H   0  0  0  0  0  0  0  0  0  0  0  0
    3.9645   23.9429  -17.5531 C   0  0  0  0  0  0  0  0  0  0  0  0
    5.4216   24.2449  -17.4425 C   0  0  0  0  0  0  0  0  0  0  0  0
    5.6796   25.4912  -18.0166 O   0  0  0  0  0  0  0  0  0  0  0  0
    6.4767   25.9335  -17.5966 H   0  0  0  0  0  0  0  0  0  0  0  0
   -2.7773   22.7436  -25.3317 N   0  0  0  0  0  0  0  0  0  0  0  0
   -2.5001   22.1800  -26.1728 H   0  0  0  0  0  0  0  0  0  0  0  0
   -3.6052   23.8964  -25.5011 C   0  0  0  0  0  0  0  0  0  0  0  0
   -4.6671   26.4241  -26.2370 C   0  0  0  0  0  0  0  0  0  0  0  0
   -4.7112   25.3158  -27.1997 C   0  0  0  0  0  0  0  0  0  0  0  0
   -5.2666   25.5043  -28.4285 C   0  0  0  0  0  0  0  0  0  0  0  0
   -5.3227   24.4830  -29.3544 C   0  0  0  0  0  0  0  0  0  0  0  0
   -4.8128   23.2396  -29.0501 C   0  0  0  0  0  0  0  0  0  0  0  0
   -4.2545   23.0811  -27.7906 C   0  0  0  0  0  0  0  0  0  0  0  0
   -4.1802   24.0728  -26.8440 C   0  0  0  0  0  0  0  0  0  0  0  0
 30 31  1  0  0  0
 31 32  2  0  0  0
 32 33  1  0  0  0
 33 34  2  0  0  0
 34 35  1  0  0  0
 35 36  2  0  0  0
 36 29  1  0  0  0
 29 27  1  0  0  0
 27  1  1  0  0  0
  1  2  2  0  0  0
  2  3  1  0  0  0
  3  4  2  0  0  0
  4  5  1  0  0  0
  5  6  2  0  0  0
  6  7  1  0  0  0
  7  8  2  0  0  0
  8  9  1  0  0  0
  9 10  1  0  0  0
 10 11  1  0  0  0
 11 12  1  0  0  0
 12 19  1  0  0  0
 19 20  2  0  0  0
 19 21  1  0  0  0
 21 23  1  0  0  0
 23 24  1  0  0  0
 24 25  1  0  0  0
 12 13  1  0  0  0
 13 14  1  0  0  0
 13 15  1  0  0  0
 15 16  1  0  0  0
 36 31  1  0  0  0
  6  1  1  0  0  0
 15 10  1  0  0  0
  9  5  1  0  0  0
 27 28  1  0  0  0
 21 22  1  0  0  0
 25 26  1  0  0  0
 14 17  1  0  0  0
 16 18  1  0  0  0
M  END
> <minimizedAffinity>
-7.97769

> <CNNscore>
0.2241707146

> <CNNaffinity>
5.6746835709

> <CNN_VS>
1.2720978260

> <CNNaffinity_variance>
0.4829175472

$$$$
[H]OC([H])([H])C([H])([H])N([H])C(=O)[C@@]1([H])O[C@@]([H])(n2c([H])nc3c(N([H])C([H])([H])c4c([H])c([H])c([H])c([H])c4C([H])([H])[H])nc([H])nc32)[C@]([H])(O[H])[C@]1([H])O[H]


 36 39  0  0  0  0  0  0  0  0999 V2000
   -0.2521   21.3353  -22.2530 C   0  0  0  0  0  0  0  0  0  0  0  0
   -1.1003   21.3880  -21.2023 N   0  0  0  0  0  0  0  0  0  0  0  0
   -2.3773   21.7730  -21.3321 C   0  0  0  0  0  0  0  0  0  0  0  0
   -2.8281   22.1176  -22.5458 N   0  0  0  0  0  0  0  0  0  0  0  0
   -2.0389   22.0859  -23.6212 C   0  0  0  0  0  0  0  0  0  0  0  0
   -0.7406   21.6954  -23.4946 C   0  0  0  0  0  0  0  0  0  0  0  0
   -0.1705   21.7511  -24.7128 N   0  0  0  0  0  0  0  0  0  0  0  0
   -1.0807   22.1689  -25.6085 C   0  0  0  0  0  0  0  0  0  0  0  0
   -2.2226   22.3723  -24.9342 N   0  0  0  0  0  0  0  0  0  0  0  0
   -3.4431   22.8231  -25.5187 C   0  0  0  0  0  0  0  0  0  0  0  0
   -3.5199   22.5837  -26.8885 O   0  0  0  0  0  0  0  0  0  0  0  0
   -4.6202   23.3717  -27.2770 C   0  0  0  0  0  0  0  0  0  0  0  0
   -4.2081   24.7142  -26.6836 C   0  0  0  0  0  0  0  0  0  0  0  0
   -5.2361   25.6191  -26.6419 O   0  0  0  0  0  0  0  0  0  0  0  0
   -3.7632   24.2625  -25.2977 C   0  0  0  0  0  0  0  0  0  0  0  0
   -4.8758   24.4284  -24.4560 O   0  0  0  0  0  0  0  0  0  0  0  0
   -4.8493   26.5399  -26.6000 H   0  0  0  0  0  0  0  0  0  0  0  0
   -4.6261   24.9459  -23.6432 H   0  0  0  0  0  0  0  0  0  0  0  0
   -4.8027   23.4102  -28.7186 C   0  0  0  0  0  0  0  0  0  0  0  0
   -4.2789   22.5419  -29.4505 O   0  0  0  0  0  0  0  0  0  0  0  0
   -5.5760   24.4294  -29.3224 N   0  0  0  0  0  0  0  0  0  0  0  0
   -6.0205   25.1610  -28.7339 H   0  0  0  0  0  0  0  0  0  0  0  0
   -5.7744   24.4908  -30.7627 C   0  0  0  0  0  0  0  0  0  0  0  0
   -5.3096   25.8066  -31.2911 C   0  0  0  0  0  0  0  0  0  0  0  0
   -6.1205   26.8219  -30.7801 O   0  0  0  0  0  0  0  0  0  0  0  0
   -5.6255   27.6926  -30.7153 H   0  0  0  0  0  0  0  0  0  0  0  0
    1.1019   20.9412  -22.0882 N   0  0  0  0  0  0  0  0  0  0  0  0
    1.7885   21.2599  -22.8155 H   0  0  0  0  0  0  0  0  0  0  0  0
    1.5588   20.1437  -20.9935 C   0  0  0  0  0  0  0  0  0  0  0  0
    0.4324   19.8636  -18.4029 C   0  0  0  0  0  0  0  0  0  0  0  0
    1.5834   20.7552  -18.5959 C   0  0  0  0  0  0  0  0  0  0  0  0
    2.0939   21.4450  -17.5388 C   0  0  0  0  0  0  0  0  0  0  0  0
    3.1744   22.2899  -17.6881 C   0  0  0  0  0  0  0  0  0  0  0  0
    3.7635   22.4538  -18.9228 C   0  0  0  0  0  0  0  0  0  0  0  0
    3.2195   21.7372  -19.9782 C   0  0  0  0  0  0  0  0  0  0  0  0
    2.1466   20.8876  -19.8682 C   0  0  0  0  0  0  0  0  0  0  0  0
 30 31  1  0  0  0
 31 32  2  0  0  0
 32 33  1  0  0  0
 33 34  2  0  0  0
 34 35  1  0  0  0
 35 36  2  0  0  0
 36 29  1  0  0  0
 29 27  1  0  0  0
 27  1  1  0  0  0
  1  2  2  0  0  0
  2  3  1  0  0  0
  3  4  2  0  0  0
  4  5  1  0  0  0
  5  6  2  0  0  0
  6  7  1  0  0  0
  7  8  2  0  0  0
  8  9  1  0  0  0
  9 10  1  0  0  0
 10 11  1  0  0  0
 11 12  1  0  0  0
 12 19  1  0  0  0
 19 20  2  0  0  0
 19 21  1  0  0  0
 21 23  1  0  0  0
 23 24  1  0  0  0
 24 25  1  0  0  0
 12 13  1  0  0  0
 13 14  1  0  0  0
 13 15  1  0  0  0
 15 16  1  0  0  0
 36 31  1  0  0  0
  6  1  1  0  0  0
 15 10  1  0  0  0
  9  5  1  0  0  0
 27 28  1  0  0  0
 21 22  1  0  0  0
 25 26  1  0  0  0
 14 17  1  0  0  0
 16 18  1  0  0  0
M  END
> <minimizedAffinity>
-7.17974

> <CNNscore>
0.2045877129

> <CNNaffinity>
5.7534561157

> <CNN_VS>
1.1770864725

> <CNNaffinity_variance>
0.0980592147

$$$$
[H]OC([H])([H])C([H])([H])N([H])C(=O)[C@@]1([H])O[C@@]([H])(n2c([H])nc3c(N([H])C([H])([H])c4c([H])c([H])c([H])c([H])c4C([H])([H])[H])nc([H])nc32)[C@]([H])(O[H])[C@]1([H])O[H]


 36 39  0  0  0  0  0  0  0  0999 V2000
   -3.7424   21.4931  -23.5803 C   0  0  0  0  0  0  0  0  0  0  0  0
   -2.6779   21.5956  -22.7541 N   0  0  0  0  0  0  0  0  0  0  0  0
   -2.8115   21.8139  -21.4387 C   0  0  0  0  0  0  0  0  0  0  0  0
   -4.0432   21.9346  -20.9255 N   0  0  0  0  0  0  0  0  0  0  0  0
   -5.1327   21.8428  -21.6901 C   0  0  0  0  0  0  0  0  0  0  0  0
   -5.0024   21.6210  -23.0273 C   0  0  0  0  0  0  0  0  0  0  0  0
   -6.2371   21.5709  -23.5612 N   0  0  0  0  0  0  0  0  0  0  0  0
   -7.1469   21.7564  -22.5901 C   0  0  0  0  0  0  0  0  0  0  0  0
   -6.4648   21.9223  -21.4468 N   0  0  0  0  0  0  0  0  0  0  0  0
   -7.0594   22.1488  -20.1703 C   0  0  0  0  0  0  0  0  0  0  0  0
   -6.4232   23.1455  -19.4346 O   0  0  0  0  0  0  0  0  0  0  0  0
   -6.9621   22.9679  -18.1460 C   0  0  0  0  0  0  0  0  0  0  0  0
   -6.6928   21.4805  -17.9483 C   0  0  0  0  0  0  0  0  0  0  0  0
   -7.3843   20.9471  -16.8924 O   0  0  0  0  0  0  0  0  0  0  0  0
   -7.1681   20.9470  -19.2944 C   0  0  0  0  0  0  0  0  0  0  0  0
   -8.5038   20.5525  -19.1098 O   0  0  0  0  0  0  0  0  0  0  0  0
   -6.9159   20.1170  -16.5908 H   0  0  0  0  0  0  0  0  0  0  0  0
   -8.6431   19.6232  -19.4379 H   0  0  0  0  0  0  0  0  0  0  0  0
   -6.3205   23.8077  -17.1479 C   0  0  0  0  0  0  0  0  0  0  0  0
   -5.7450   24.8668  -17.4812 O   0  0  0  0  0  0  0  0  0  0  0  0
   -6.3341   23.4446  -15.7808 N   0  0  0  0  0  0  0  0  0  0  0  0
   -6.8064   22.5691  -15.4811 H   0  0  0  0  0  0  0  0  0  0  0  0
   -5.6997   24.2671  -14.7617 C   0  0  0  0  0  0  0  0  0  0  0  0
   -6.6912   25.2145  -14.1735 C   0  0  0  0  0  0  0  0  0  0  0  0
   -7.9264   24.5746  -14.0537 O   0  0  0  0  0  0  0  0  0  0  0  0
   -8.4680   24.9553  -13.2994 H   0  0  0  0  0  0  0  0  0  0  0  0
   -3.5758   21.2793  -24.9740 N   0  0  0  0  0  0  0  0  0  0  0  0
   -3.4823   20.2864  -25.3014 H   0  0  0  0  0  0  0  0  0  0  0  0
   -3.5310   22.3408  -25.9302 C   0  0  0  0  0  0  0  0  0  0  0  0
   -3.4786   23.1643  -28.6464 C   0  0  0  0  0  0  0  0  0  0  0  0
   -2.2125   22.9349  -27.9382 C   0  0  0  0  0  0  0  0  0  0  0  0
   -1.0288   23.1085  -28.5881 C   0  0  0  0  0  0  0  0  0  0  0  0
    0.1768   22.9010  -27.9502 C   0  0  0  0  0  0  0  0  0  0  0  0
    0.2064   22.5097  -26.6294 C   0  0  0  0  0  0  0  0  0  0  0  0
   -1.0163   22.3417  -25.9969 C   0  0  0  0  0  0  0  0  0  0  0  0
   -2.2348   22.5390  -26.5979 C   0  0  0  0  0  0  0  0  0  0  0  0
 30 31  1  0  0  0
 31 32  2  0  0  0
 32 33  1  0  0  0
 33 34  2  0  0  0
 34 35  1  0  0  0
 35 36  2  0  0  0
 36 29  1  0  0  0
 29 27  1  0  0  0
 27  1  1  0  0  0
  1  2  2  0  0  0
  2  3  1  0  0  0
  3  4  2  0  0  0
  4  5  1  0  0  0
  5  6  2  0  0  0
  6  7  1  0  0  0
  7  8  2  0  0  0
  8  9  1  0  0  0
  9 10  1  0  0  0
 10 11  1  0  0  0
 11 12  1  0  0  0
 12 19  1  0  0  0
 19 20  2  0  0  0
 19 21  1  0  0  0
 21 23  1  0  0  0
 23 24  1  0  0  0
 24 25  1  0  0  0
 12 13  1  0  0  0
 13 14  1  0  0  0
 13 15  1  0  0  0
 15 16  1  0  0  0
 36 31  1  0  0  0
  6  1  1  0  0  0
 15 10  1  0  0  0
  9  5  1  0  0  0
 27 28  1  0  0  0
 21 22  1  0  0  0
 25 26  1  0  0  0
 14 17  1  0  0  0
 16 18  1  0  0  0
M  END
> <minimizedAffinity>
-7.61712

> <CNNscore>
0.1883516759

> <CNNaffinity>
4.9865498543

> <CNN_VS>
0.9392250180

> <CNNaffinity_variance>
0.1148401648

$$$$
[H]OC([H])([H])C([H])([H])N([H])C(=O)[C@@]1([H])O[C@@]([H])(n2c([H])nc3c(N([H])C([H])([H])c4c([H])c([H])c([H])c([H])c4C([H])([H])[H])nc([H])nc32)[C@]([H])(O[H])[C@]1([H])O[H]


 36 39  0  0  0  0  0  0  0  0999 V2000
   -6.5483   23.7230  -24.7138 C   0  0  0  0  0  0  0  0  0  0  0  0
   -7.3839   24.7831  -24.7775 N   0  0  0  0  0  0  0  0  0  0  0  0
   -8.1325   25.1678  -23.7347 C   0  0  0  0  0  0  0  0  0  0  0  0
   -8.0491   24.4771  -22.5896 N   0  0  0  0  0  0  0  0  0  0  0  0
   -7.2424   23.4217  -22.4653 C   0  0  0  0  0  0  0  0  0  0  0  0
   -6.4797   23.0267  -23.5220 C   0  0  0  0  0  0  0  0  0  0  0  0
   -5.7653   21.9522  -23.1386 N   0  0  0  0  0  0  0  0  0  0  0  0
   -6.0597   21.6580  -21.8610 C   0  0  0  0  0  0  0  0  0  0  0  0
   -6.9646   22.5612  -21.4543 N   0  0  0  0  0  0  0  0  0  0  0  0
   -7.5435   22.6028  -20.1514 C   0  0  0  0  0  0  0  0  0  0  0  0
   -7.5955   21.3569  -19.5312 O   0  0  0  0  0  0  0  0  0  0  0  0
   -8.4617   21.5897  -18.4458 C   0  0  0  0  0  0  0  0  0  0  0  0
   -9.6456   22.2098  -19.1793 C   0  0  0  0  0  0  0  0  0  0  0  0
  -10.5357   22.8226  -18.3369 O   0  0  0  0  0  0  0  0  0  0  0  0
   -8.9095   23.1959  -20.0784 C   0  0  0  0  0  0  0  0  0  0  0  0
   -8.9114   24.4242  -19.3964 O   0  0  0  0  0  0  0  0  0  0  0  0
  -11.4224   22.8784  -18.7952 H   0  0  0  0  0  0  0  0  0  0  0  0
   -9.2450   25.1524  -19.9873 H   0  0  0  0  0  0  0  0  0  0  0  0
   -8.8018   20.3728  -17.7272 C   0  0  0  0  0  0  0  0  0  0  0  0
   -9.9753   20.1630  -17.3492 O   0  0  0  0  0  0  0  0  0  0  0  0
   -7.8134   19.4020  -17.4412 N   0  0  0  0  0  0  0  0  0  0  0  0
   -6.8321   19.5553  -17.7458 H   0  0  0  0  0  0  0  0  0  0  0  0
   -8.1272   18.1755  -16.7237 C   0  0  0  0  0  0  0  0  0  0  0  0
   -8.4430   17.0811  -17.6877 C   0  0  0  0  0  0  0  0  0  0  0  0
   -9.8215   17.0410  -17.9052 O   0  0  0  0  0  0  0  0  0  0  0  0
  -10.0415   16.6808  -18.8158 H   0  0  0  0  0  0  0  0  0  0  0  0
   -5.7781   23.3231  -25.8375 N   0  0  0  0  0  0  0  0  0  0  0  0
   -6.0657   22.4418  -26.3298 H   0  0  0  0  0  0  0  0  0  0  0  0
   -4.6489   24.0576  -26.3157 C   0  0  0  0  0  0  0  0  0  0  0  0
   -3.1858   23.3403  -28.6402 C   0  0  0  0  0  0  0  0  0  0  0  0
   -2.6342   23.0261  -27.3157 C   0  0  0  0  0  0  0  0  0  0  0  0
   -1.4358   22.3881  -27.2122 C   0  0  0  0  0  0  0  0  0  0  0  0
   -0.8915   22.0796  -25.9826 C   0  0  0  0  0  0  0  0  0  0  0  0
   -1.5571   22.4145  -24.8236 C   0  0  0  0  0  0  0  0  0  0  0  0
   -2.7748   23.0632  -24.9640 C   0  0  0  0  0  0  0  0  0  0  0  0
   -3.3474   23.3869  -26.1692 C   0  0  0  0  0  0  0  0  0  0  0  0
 30 31  1  0  0  0
 31 32  2  0  0  0
 32 33  1  0  0  0
 33 34  2  0  0  0
 34 35  1  0  0  0
 35 36  2  0  0  0
 36 29  1  0  0  0
 29 27  1  0  0  0
 27  1  1  0  0  0
  1  2  2  0  0  0
  2  3  1  0  0  0
  3  4  2  0  0  0
  4  5  1  0  0  0
  5  6  2  0  0  0
  6  7  1  0  0  0
  7  8  2  0  0  0
  8  9  1  0  0  0
  9 10  1  0  0  0
 10 11  1  0  0  0
 11 12  1  0  0  0
 12 19  1  0  0  0
 19 20  2  0  0  0
 19 21  1  0  0  0
 21 23  1  0  0  0
 23 24  1  0  0  0
 24 25  1  0  0  0
 12 13  1  0  0  0
 13 14  1  0  0  0
 13 15  1  0  0  0
 15 16  1  0  0  0
 36 31  1  0  0  0
  6  1  1  0  0  0
 15 10  1  0  0  0
  9  5  1  0  0  0
 27 28  1  0  0  0
 21 22  1  0  0  0
 25 26  1  0  0  0
 14 17  1  0  0  0
 16 18  1  0  0  0
M  END
> <minimizedAffinity>
-7.23836

> <CNNscore>
0.1881838590

> <CNNaffinity>
5.1232919693

> <CNN_VS>
0.9641208649

> <CNNaffinity_variance>
0.0813103691

$$$$
[H]OC([H])([H])C([H])([H])N([H])C(=O)[C@@]1([H])O[C@@]([H])(n2c([H])nc3c(N([H])C([H])([H])c4c([H])c([H])c([H])c([H])c4C([H])([H])[H])nc([H])nc32)[C@]([H])(O[H])[C@]1([H])O[H]


 36 39  0  0  0  0  0  0  0  0999 V2000
   -0.5604   21.4970  -21.0006 C   0  0  0  0  0  0  0  0  0  0  0  0
   -1.3924   22.2631  -20.2610 N   0  0  0  0  0  0  0  0  0  0  0  0
   -0.9982   22.8591  -19.1273 C   0  0  0  0  0  0  0  0  0  0  0  0
    0.2647   22.6890  -18.7132 N   0  0  0  0  0  0  0  0  0  0  0  0
    1.1329   21.9444  -19.4002 C   0  0  0  0  0  0  0  0  0  0  0  0
    0.7372   21.3368  -20.5529 C   0  0  0  0  0  0  0  0  0  0  0  0
    1.7890   20.6553  -21.0441 N   0  0  0  0  0  0  0  0  0  0  0  0
    2.8428   20.8185  -20.2266 C   0  0  0  0  0  0  0  0  0  0  0  0
    2.4349   21.6087  -19.2220 N   0  0  0  0  0  0  0  0  0  0  0  0
    3.2546   22.0278  -18.1326 C   0  0  0  0  0  0  0  0  0  0  0  0
    2.7527   21.6529  -16.8888 O   0  0  0  0  0  0  0  0  0  0  0  0
    3.5258   22.4243  -16.0001 C   0  0  0  0  0  0  0  0  0  0  0  0
    3.3203   23.8094  -16.6029 C   0  0  0  0  0  0  0  0  0  0  0  0
    4.2049   24.7389  -16.1223 O   0  0  0  0  0  0  0  0  0  0  0  0
    3.5429   23.4897  -18.0763 C   0  0  0  0  0  0  0  0  0  0  0  0
    4.8953   23.7672  -18.3371 O   0  0  0  0  0  0  0  0  0  0  0  0
    3.8136   25.6495  -16.2530 H   0  0  0  0  0  0  0  0  0  0  0  0
    4.9844   24.3581  -19.1331 H   0  0  0  0  0  0  0  0  0  0  0  0
    3.0701   22.3211  -14.6237 C   0  0  0  0  0  0  0  0  0  0  0  0
    2.3378   21.3731  -14.2644 O   0  0  0  0  0  0  0  0  0  0  0  0
    3.4453   23.2897  -13.6633 N   0  0  0  0  0  0  0  0  0  0  0  0
    4.0531   24.0857  -13.9394 H   0  0  0  0  0  0  0  0  0  0  0  0
    3.0031   23.2098  -12.2793 C   0  0  0  0  0  0  0  0  0  0  0  0
    1.8042   24.0733  -12.0708 C   0  0  0  0  0  0  0  0  0  0  0  0
    2.0761   25.3610  -12.5371 O   0  0  0  0  0  0  0  0  0  0  0  0
    1.2410   25.8282  -12.8399 H   0  0  0  0  0  0  0  0  0  0  0  0
   -1.0056   20.8608  -22.1891 N   0  0  0  0  0  0  0  0  0  0  0  0
   -0.6103   19.9127  -22.4054 H   0  0  0  0  0  0  0  0  0  0  0  0
   -1.9515   21.4478  -23.0857 C   0  0  0  0  0  0  0  0  0  0  0  0
   -3.7827   21.7381  -25.2353 C   0  0  0  0  0  0  0  0  0  0  0  0
   -2.3445   21.8963  -25.4873 C   0  0  0  0  0  0  0  0  0  0  0  0
   -1.9006   22.1702  -26.7450 C   0  0  0  0  0  0  0  0  0  0  0  0
   -0.5561   22.3246  -27.0133 C   0  0  0  0  0  0  0  0  0  0  0  0
    0.3730   22.2029  -26.0031 C   0  0  0  0  0  0  0  0  0  0  0  0
   -0.1120   21.9235  -24.7343 C   0  0  0  0  0  0  0  0  0  0  0  0
   -1.4411   21.7639  -24.4291 C   0  0  0  0  0  0  0  0  0  0  0  0
 30 31  1  0  0  0
 31 32  2  0  0  0
 32 33  1  0  0  0
 33 34  2  0  0  0
 34 35  1  0  0  0
 35 36  2  0  0  0
 36 29  1  0  0  0
 29 27  1  0  0  0
 27  1  1  0  0  0
  1  2  2  0  0  0
  2  3  1  0  0  0
  3  4  2  0  0  0
  4  5  1  0  0  0
  5  6  2  0  0  0
  6  7  1  0  0  0
  7  8  2  0  0  0
  8  9  1  0  0  0
  9 10  1  0  0  0
 10 11  1  0  0  0
 11 12  1  0  0  0
 12 19  1  0  0  0
 19 20  2  0  0  0
 19 21  1  0  0  0
 21 23  1  0  0  0
 23 24  1  0  0  0
 24 25  1  0  0  0
 12 13  1  0  0  0
 13 14  1  0  0  0
 13 15  1  0  0  0
 15 16  1  0  0  0
 36 31  1  0  0  0
  6  1  1  0  0  0
 15 10  1  0  0  0
  9  5  1  0  0  0
 27 28  1  0  0  0
 21 22  1  0  0  0
 25 26  1  0  0  0
 14 17  1  0  0  0
 16 18  1  0  0  0
M  END
> <minimizedAffinity>
-7.80720

> <CNNscore>
0.1516338736

> <CNNaffinity>
4.6411218643

> <CNN_VS>
0.7037512660

> <CNNaffinity_variance>
0.2188709229

$$$$
[H]c1c([H])c([H])c(S(=O)(=O)c2c([H])c([H])c3c(c2[H])c2c(n3[H])C([H])([H])C([H])([H])C([H])(N([H])[H])C2([H])[H])c([H])c1[H]


 26 29  0  0  0  0  0  0  0  0999 V2000
   -1.6921   21.3383  -21.7410 N   0  0  0  0  0  0  0  0  0  0  0  0
   -1.0150   21.9227  -22.8959 C   0  0  0  0  0  0  0  0  0  0  0  0
    0.4224   21.5532  -22.8359 C   0  0  0  0  0  0  0  0  0  0  0  0
    1.0823   21.3208  -24.1567 C   0  0  0  0  0  0  0  0  0  0  0  0
    0.3535   21.8777  -25.3092 C   0  0  0  0  0  0  0  0  0  0  0  0
    0.7914   22.3625  -26.4713 N   0  0  0  0  0  0  0  0  0  0  0  0
   -0.2343   22.7600  -27.2207 C   0  0  0  0  0  0  0  0  0  0  0  0
   -0.3287   23.3293  -28.4961 C   0  0  0  0  0  0  0  0  0  0  0  0
   -1.5912   23.6181  -28.9644 C   0  0  0  0  0  0  0  0  0  0  0  0
   -2.7303   23.3764  -28.2495 C   0  0  0  0  0  0  0  0  0  0  0  0
   -2.6308   22.8156  -26.9945 C   0  0  0  0  0  0  0  0  0  0  0  0
   -1.3788   22.5206  -26.5104 C   0  0  0  0  0  0  0  0  0  0  0  0
   -1.0104   21.9665  -25.3099 C   0  0  0  0  0  0  0  0  0  0  0  0
   -1.7412   21.4861  -24.1157 C   0  0  0  0  0  0  0  0  0  0  0  0
   -2.6907   21.2062  -21.9554 H   0  0  0  0  0  0  0  0  0  0  0  0
   -1.4933   21.8742  -20.8782 H   0  0  0  0  0  0  0  0  0  0  0  0
    1.7913   22.4404  -26.7948 H   0  0  0  0  0  0  0  0  0  0  0  0
   -4.3078   23.7642  -28.8960 S   0  0  0  0  0  0  0  0  0  0  0  0
   -4.8919   22.5300  -29.4947 O   0  0  0  0  0  0  0  0  0  0  0  0
   -4.1441   24.8042  -29.9650 O   0  0  0  0  0  0  0  0  0  0  0  0
   -5.2813   24.3710  -27.5751 C   0  0  0  0  0  0  0  0  0  0  0  0
   -5.0132   25.6107  -27.0497 C   0  0  0  0  0  0  0  0  0  0  0  0
   -5.7292   26.1691  -26.0073 C   0  0  0  0  0  0  0  0  0  0  0  0
   -6.7651   25.4164  -25.4854 C   0  0  0  0  0  0  0  0  0  0  0  0
   -7.0587   24.1613  -25.9960 C   0  0  0  0  0  0  0  0  0  0  0  0
   -6.3164   23.6517  -27.0328 C   0  0  0  0  0  0  0  0  0  0  0  0
  1  2  1  0  0  0
  2  3  1  0  0  0
  3  4  1  0  0  0
  4  5  1  0  0  0
  5  6  1  0  0  0
  6  7  1  0  0  0
  7  8  2  0  0  0
  8  9  1  0  0  0
  9 10  2  0  0  0
 10 18  1  0  0  0
 18 19  2  0  0  0
 18 20  2  0  0  0
 18 21  1  0  0  0
 21 22  2  0  0  0
 22 23  1  0  0  0
 23 24  2  0  0  0
 24 25  1  0  0  0
 25 26  2  0  0  0
 10 11  1  0  0  0
 11 12  2  0  0  0
 12 13  1  0  0  0
 13 14  1  0  0  0
 14  2  1  0  0  0
 13  5  2  0  0  0
 12  7  1  0  0  0
 26 21  1  0  0  0
  1 15  1  0  0  0
  1 16  1  0  0  0
  6 17  1  0  0  0
M  END
> <minimizedAffinity>
-9.27633

> <CNNscore>
0.7146754861

> <CNNaffinity>
6.6803994179

> <CNN_VS>
4.7743177414

> <CNNaffinity_variance>
0.2122254819

$$$$
[H]c1c([H])c([H])c(S(=O)(=O)c2c([H])c([H])c3c(c2[H])c2c(n3[H])C([H])([H])C([H])([H])C([H])(N([H])[H])C2([H])[H])c([H])c1[H]


 26 29  0  0  0  0  0  0  0  0999 V2000
    1.4706   20.8745  -18.8183 N   0  0  0  0  0  0  0  0  0  0  0  0
    1.6161   21.3668  -20.1859 C   0  0  0  0  0  0  0  0  0  0  0  0
    2.9888   21.0506  -20.6569 C   0  0  0  0  0  0  0  0  0  0  0  0
    3.1090   20.7139  -22.1082 C   0  0  0  0  0  0  0  0  0  0  0  0
    1.9608   21.1344  -22.9292 C   0  0  0  0  0  0  0  0  0  0  0  0
    1.8895   21.5194  -24.2036 N   0  0  0  0  0  0  0  0  0  0  0  0
    0.6318   21.8105  -24.5274 C   0  0  0  0  0  0  0  0  0  0  0  0
    0.0208   22.2519  -25.7071 C   0  0  0  0  0  0  0  0  0  0  0  0
   -1.3410   22.4542  -25.6729 C   0  0  0  0  0  0  0  0  0  0  0  0
   -2.1028   22.2460  -24.5578 C   0  0  0  0  0  0  0  0  0  0  0  0
   -1.4956   21.8114  -23.3995 C   0  0  0  0  0  0  0  0  0  0  0  0
   -0.1370   21.6040  -23.4147 C   0  0  0  0  0  0  0  0  0  0  0  0
    0.6970   21.1794  -22.4107 C   0  0  0  0  0  0  0  0  0  0  0  0
    0.5102   20.7925  -20.9942 C   0  0  0  0  0  0  0  0  0  0  0  0
    0.4768   20.6908  -18.6203 H   0  0  0  0  0  0  0  0  0  0  0  0
    1.9474   21.4966  -18.1425 H   0  0  0  0  0  0  0  0  0  0  0  0
    2.6831   21.5977  -24.8927 H   0  0  0  0  0  0  0  0  0  0  0  0
   -3.8295   22.5199  -24.5735 S   0  0  0  0  0  0  0  0  0  0  0  0
   -4.2243   23.1345  -23.2737 O   0  0  0  0  0  0  0  0  0  0  0  0
   -4.5222   21.1979  -24.7275 O   0  0  0  0  0  0  0  0  0  0  0  0
   -4.1814   23.5729  -25.9255 C   0  0  0  0  0  0  0  0  0  0  0  0
   -4.2186   24.9318  -25.7339 C   0  0  0  0  0  0  0  0  0  0  0  0
   -4.4881   25.8378  -26.7428 C   0  0  0  0  0  0  0  0  0  0  0  0
   -4.7293   25.3194  -28.0018 C   0  0  0  0  0  0  0  0  0  0  0  0
   -4.6982   23.9514  -28.2248 C   0  0  0  0  0  0  0  0  0  0  0  0
   -4.4255   23.0933  -27.1878 C   0  0  0  0  0  0  0  0  0  0  0  0
  1  2  1  0  0  0
  2  3  1  0  0  0
  3  4  1  0  0  0
  4  5  1  0  0  0
  5  6  1  0  0  0
  6  7  1  0  0  0
  7  8  2  0  0  0
  8  9  1  0  0  0
  9 10  2  0  0  0
 10 18  1  0  0  0
 18 19  2  0  0  0
 18 20  2  0  0  0
 18 21  1  0  0  0
 21 22  2  0  0  0
 22 23  1  0  0  0
 23 24  2  0  0  0
 24 25  1  0  0  0
 25 26  2  0  0  0
 10 11  1  0  0  0
 11 12  2  0  0  0
 12 13  1  0  0  0
 13 14  1  0  0  0
 14  2  1  0  0  0
 13  5  2  0  0  0
 12  7  1  0  0  0
 26 21  1  0  0  0
  1 15  1  0  0  0
  1 16  1  0  0  0
  6 17  1  0  0  0
M  END
> <minimizedAffinity>
-8.19672

> <CNNscore>
0.4335696399

> <CNNaffinity>
5.7850408554

> <CNN_VS>
2.5082180500

> <CNNaffinity_variance>
0.0809597224

$$$$
[H]c1c([H])c([H])c(S(=O)(=O)c2c([H])c([H])c3c(c2[H])c2c(n3[H])C([H])([H])C([H])([H])C([H])(N([H])[H])C2([H])[H])c([H])c1[H]


 26 29  0  0  0  0  0  0  0  0999 V2000
   -6.2717   23.7582  -27.6805 N   0  0  0  0  0  0  0  0  0  0  0  0
   -4.9671   23.1115  -27.5643 C   0  0  0  0  0  0  0  0  0  0  0  0
   -4.2884   23.1796  -28.8837 C   0  0  0  0  0  0  0  0  0  0  0  0
   -2.8036   23.3440  -28.8353 C   0  0  0  0  0  0  0  0  0  0  0  0
   -2.1945   23.0077  -27.5371 C   0  0  0  0  0  0  0  0  0  0  0  0
   -0.9965   22.5070  -27.2351 N   0  0  0  0  0  0  0  0  0  0  0  0
   -0.8751   22.3651  -25.9172 C   0  0  0  0  0  0  0  0  0  0  0  0
    0.1535   21.8951  -25.0921 C   0  0  0  0  0  0  0  0  0  0  0  0
   -0.0801   21.8923  -23.7349 C   0  0  0  0  0  0  0  0  0  0  0  0
   -1.2501   22.3206  -23.1739 C   0  0  0  0  0  0  0  0  0  0  0  0
   -2.2591   22.7822  -23.9915 C   0  0  0  0  0  0  0  0  0  0  0  0
   -2.0439   22.7924  -25.3489 C   0  0  0  0  0  0  0  0  0  0  0  0
   -2.8729   23.1961  -26.3656 C   0  0  0  0  0  0  0  0  0  0  0  0
   -4.2439   23.7499  -26.4350 C   0  0  0  0  0  0  0  0  0  0  0  0
   -6.5721   24.1003  -26.7568 H   0  0  0  0  0  0  0  0  0  0  0  0
   -6.9513   23.1481  -28.1674 H   0  0  0  0  0  0  0  0  0  0  0  0
   -0.2257   22.2462  -27.9049 H   0  0  0  0  0  0  0  0  0  0  0  0
   -1.4903   22.2940  -21.4423 S   0  0  0  0  0  0  0  0  0  0  0  0
   -2.8647   21.7888  -21.1616 O   0  0  0  0  0  0  0  0  0  0  0  0
   -1.3604   23.6944  -20.9198 O   0  0  0  0  0  0  0  0  0  0  0  0
   -0.2616   21.2533  -20.7583 C   0  0  0  0  0  0  0  0  0  0  0  0
    0.7175   21.7939  -19.9622 C   0  0  0  0  0  0  0  0  0  0  0  0
    1.7263   21.0486  -19.3807 C   0  0  0  0  0  0  0  0  0  0  0  0
    1.7243   19.6888  -19.6314 C   0  0  0  0  0  0  0  0  0  0  0  0
    0.7480   19.1154  -20.4314 C   0  0  0  0  0  0  0  0  0  0  0  0
   -0.2329   19.9004  -20.9859 C   0  0  0  0  0  0  0  0  0  0  0  0
  1  2  1  0  0  0
  2  3  1  0  0  0
  3  4  1  0  0  0
  4  5  1  0  0  0
  5  6  1  0  0  0
  6  7  1  0  0  0
  7  8  2  0  0  0
  8  9  1  0  0  0
  9 10  2  0  0  0
 10 18  1  0  0  0
 18 19  2  0  0  0
 18 20  2  0  0  0
 18 21  1  0  0  0
 21 22  2  0  0  0
 22 23  1  0  0  0
 23 24  2  0  0  0
 24 25  1  0  0  0
 25 26  2  0  0  0
 10 11  1  0  0  0
 11 12  2  0  0  0
 12 13  1  0  0  0
 13 14  1  0  0  0
 14  2  1  0  0  0
 13  5  2  0  0  0
 12  7  1  0  0  0
 26 21  1  0  0  0
  1 15  1  0  0  0
  1 16  1  0  0  0
  6 17  1  0  0  0
M  END
> <minimizedAffinity>
-8.16378

> <CNNscore>
0.2836180925

> <CNNaffinity>
6.1003937721

> <CNN_VS>
1.7301820517

> <CNNaffinity_variance>
0.2981053889

$$$$
[H]c1c([H])c([H])c(S(=O)(=O)c2c([H])c([H])c3c(c2[H])c2c(n3[H])C([H])([H])C([H])([H])C([H])(N([H])[H])C2([H])[H])c([H])c1[H]


 26 29  0  0  0  0  0  0  0  0999 V2000
   -1.2513   22.1319  -26.3540 N   0  0  0  0  0  0  0  0  0  0  0  0
   -1.3413   21.6945  -24.9631 C   0  0  0  0  0  0  0  0  0  0  0  0
    0.0096   21.7855  -24.3524 C   0  0  0  0  0  0  0  0  0  0  0  0
    0.0379   22.1716  -22.9087 C   0  0  0  0  0  0  0  0  0  0  0  0
   -1.2469   22.0063  -22.2077 C   0  0  0  0  0  0  0  0  0  0  0  0
   -1.5195   21.7081  -20.9372 N   0  0  0  0  0  0  0  0  0  0  0  0
   -2.8359   21.6633  -20.7466 C   0  0  0  0  0  0  0  0  0  0  0  0
   -3.6365   21.4008  -19.6286 C   0  0  0  0  0  0  0  0  0  0  0  0
   -5.0013   21.4428  -19.8081 C   0  0  0  0  0  0  0  0  0  0  0  0
   -5.5921   21.7243  -21.0076 C   0  0  0  0  0  0  0  0  0  0  0  0
   -4.7986   21.9818  -22.1046 C   0  0  0  0  0  0  0  0  0  0  0  0
   -3.4341   21.9444  -21.9444 C   0  0  0  0  0  0  0  0  0  0  0  0
   -2.4367   22.1600  -22.8624 C   0  0  0  0  0  0  0  0  0  0  0  0
   -2.4014   22.4985  -24.3030 C   0  0  0  0  0  0  0  0  0  0  0  0
   -2.1687   22.4790  -26.6678 H   0  0  0  0  0  0  0  0  0  0  0  0
   -0.8287   21.4000  -26.9513 H   0  0  0  0  0  0  0  0  0  0  0  0
   -0.8296   21.5261  -20.1616 H   0  0  0  0  0  0  0  0  0  0  0  0
   -7.3319   21.7636  -21.1760 S   0  0  0  0  0  0  0  0  0  0  0  0
   -7.9268   20.8329  -20.1745 O   0  0  0  0  0  0  0  0  0  0  0  0
   -7.6894   21.2999  -22.5574 O   0  0  0  0  0  0  0  0  0  0  0  0
   -7.8468   23.4154  -20.9165 C   0  0  0  0  0  0  0  0  0  0  0  0
   -9.0877   23.6624  -20.3838 C   0  0  0  0  0  0  0  0  0  0  0  0
   -9.5766   24.9333  -20.1449 C   0  0  0  0  0  0  0  0  0  0  0  0
   -8.7501   25.9933  -20.4694 C   0  0  0  0  0  0  0  0  0  0  0  0
   -7.4918   25.7739  -21.0086 C   0  0  0  0  0  0  0  0  0  0  0  0
   -7.0531   24.4909  -21.2266 C   0  0  0  0  0  0  0  0  0  0  0  0
  1  2  1  0  0  0
  2  3  1  0  0  0
  3  4  1  0  0  0
  4  5  1  0  0  0
  5  6  1  0  0  0
  6  7  1  0  0  0
  7  8  2  0  0  0
  8  9  1  0  0  0
  9 10  2  0  0  0
 10 18  1  0  0  0
 18 19  2  0  0  0
 18 20  2  0  0  0
 18 21  1  0  0  0
 21 22  2  0  0  0
 22 23  1  0  0  0
 23 24  2  0  0  0
 24 25  1  0  0  0
 25 26  2  0  0  0
 10 11  1  0  0  0
 11 12  2  0  0  0
 12 13  1  0  0  0
 13 14  1  0  0  0
 14  2  1  0  0  0
 13  5  2  0  0  0
 12  7  1  0  0  0
 26 21  1  0  0  0
  1 15  1  0  0  0
  1 16  1  0  0  0
  6 17  1  0  0  0
M  END
> <minimizedAffinity>
-5.99599

> <CNNscore>
0.2226364166

> <CNNaffinity>
5.3640689850

> <CNN_VS>
1.1942371130

> <CNNaffinity_variance>
0.2386407405

$$$$
[H]c1c([H])c([H])c(S(=O)(=O)c2c([H])c([H])c3c(c2[H])c2c(n3[H])C([H])([H])C([H])([H])C([H])(N([H])[H])C2([H])[H])c([H])c1[H]


 26 29  0  0  0  0  0  0  0  0999 V2000
    1.1772   21.8565  -24.5412 N   0  0  0  0  0  0  0  0  0  0  0  0
   -0.0014   22.4816  -25.1362 C   0  0  0  0  0  0  0  0  0  0  0  0
    0.2175   22.6015  -26.6004 C   0  0  0  0  0  0  0  0  0  0  0  0
   -1.0016   22.4335  -27.4487 C   0  0  0  0  0  0  0  0  0  0  0  0
   -2.2748   22.5834  -26.7235 C   0  0  0  0  0  0  0  0  0  0  0  0
   -3.4625   23.0376  -27.1238 N   0  0  0  0  0  0  0  0  0  0  0  0
   -4.3356   22.9919  -26.1202 C   0  0  0  0  0  0  0  0  0  0  0  0
   -5.6862   23.3415  -26.0049 C   0  0  0  0  0  0  0  0  0  0  0  0
   -6.2827   23.1521  -24.7782 C   0  0  0  0  0  0  0  0  0  0  0  0
   -5.6233   22.6476  -23.6929 C   0  0  0  0  0  0  0  0  0  0  0  0
   -4.2937   22.3052  -23.8127 C   0  0  0  0  0  0  0  0  0  0  0  0
   -3.6815   22.4873  -25.0297 C   0  0  0  0  0  0  0  0  0  0  0  0
   -2.3873   22.2305  -25.4079 C   0  0  0  0  0  0  0  0  0  0  0  0
   -1.1896   21.6907  -24.7258 C   0  0  0  0  0  0  0  0  0  0  0  0
    0.9140   21.3869  -23.6633 H   0  0  0  0  0  0  0  0  0  0  0  0
    1.9605   22.5286  -24.4644 H   0  0  0  0  0  0  0  0  0  0  0  0
   -3.7213   23.3913  -28.0823 H   0  0  0  0  0  0  0  0  0  0  0  0
   -6.4332   22.4288  -22.1590 S   0  0  0  0  0  0  0  0  0  0  0  0
   -7.3954   21.2971  -22.2875 O   0  0  0  0  0  0  0  0  0  0  0  0
   -7.1859   23.6849  -21.8321 O   0  0  0  0  0  0  0  0  0  0  0  0
   -5.2031   22.1048  -20.9579 C   0  0  0  0  0  0  0  0  0  0  0  0
   -5.3990   21.1019  -20.0412 C   0  0  0  0  0  0  0  0  0  0  0  0
   -4.4828   20.7765  -19.0583 C   0  0  0  0  0  0  0  0  0  0  0  0
   -3.3159   21.5175  -19.0201 C   0  0  0  0  0  0  0  0  0  0  0  0
   -3.0911   22.5362  -19.9332 C   0  0  0  0  0  0  0  0  0  0  0  0
   -4.0338   22.8197  -20.8907 C   0  0  0  0  0  0  0  0  0  0  0  0
  1  2  1  0  0  0
  2  3  1  0  0  0
  3  4  1  0  0  0
  4  5  1  0  0  0
  5  6  1  0  0  0
  6  7  1  0  0  0
  7  8  2  0  0  0
  8  9  1  0  0  0
  9 10  2  0  0  0
 10 18  1  0  0  0
 18 19  2  0  0  0
 18 20  2  0  0  0
 18 21  1  0  0  0
 21 22  2  0  0  0
 22 23  1  0  0  0
 23 24  2  0  0  0
 24 25  1  0  0  0
 25 26  2  0  0  0
 10 11  1  0  0  0
 11 12  2  0  0  0
 12 13  1  0  0  0
 13 14  1  0  0  0
 14  2  1  0  0  0
 13  5  2  0  0  0
 12  7  1  0  0  0
 26 21  1  0  0  0
  1 15  1  0  0  0
  1 16  1  0  0  0
  6 17  1  0  0  0
M  END
> <minimizedAffinity>
-7.94901

> <CNNscore>
0.2131153792

> <CNNaffinity>
5.6662025452

> <CNN_VS>
1.2075549364

> <CNNaffinity_variance>
0.1763750911

$$$$
[H]c1c([H])c([H])c(S(=O)(=O)c2c([H])c([H])c3c(c2[H])c2c(n3[H])C([H])([H])C([H])([H])C([H])(N([H])[H])C2([H])[H])c([H])c1[H]


 26 29  0  0  0  0  0  0  0  0999 V2000
    1.1708   21.9781  -24.9566 N   0  0  0  0  0  0  0  0  0  0  0  0
   -0.0459   22.6097  -25.4611 C   0  0  0  0  0  0  0  0  0  0  0  0
    0.1052   22.8224  -26.9233 C   0  0  0  0  0  0  0  0  0  0  0  0
   -1.1466   22.6768  -27.7270 C   0  0  0  0  0  0  0  0  0  0  0  0
   -2.3892   22.7528  -26.9400 C   0  0  0  0  0  0  0  0  0  0  0  0
   -3.6029   23.2019  -27.2603 N   0  0  0  0  0  0  0  0  0  0  0  0
   -4.4293   23.0753  -26.2247 C   0  0  0  0  0  0  0  0  0  0  0  0
   -5.7806   23.3854  -26.0303 C   0  0  0  0  0  0  0  0  0  0  0  0
   -6.3179   23.1085  -24.7928 C   0  0  0  0  0  0  0  0  0  0  0  0
   -5.6005   22.5555  -23.7698 C   0  0  0  0  0  0  0  0  0  0  0  0
   -4.2706   22.2525  -23.9674 C   0  0  0  0  0  0  0  0  0  0  0  0
   -3.7170   22.5218  -25.1962 C   0  0  0  0  0  0  0  0  0  0  0  0
   -2.4358   22.3190  -25.6447 C   0  0  0  0  0  0  0  0  0  0  0  0
   -1.1979   21.7677  -25.0490 C   0  0  0  0  0  0  0  0  0  0  0  0
    0.9568   21.4505  -24.0985 H   0  0  0  0  0  0  0  0  0  0  0  0
    1.9424   22.6627  -24.8728 H   0  0  0  0  0  0  0  0  0  0  0  0
   -3.9113   23.6063  -28.1834 H   0  0  0  0  0  0  0  0  0  0  0  0
   -6.3367   22.2260  -22.2186 S   0  0  0  0  0  0  0  0  0  0  0  0
   -5.3006   21.6499  -21.3144 O   0  0  0  0  0  0  0  0  0  0  0  0
   -7.4364   21.2242  -22.4142 O   0  0  0  0  0  0  0  0  0  0  0  0
   -6.9681   23.7381  -21.6058 C   0  0  0  0  0  0  0  0  0  0  0  0
   -6.2411   24.4529  -20.6866 C   0  0  0  0  0  0  0  0  0  0  0  0
   -6.6615   25.6552  -20.1491 C   0  0  0  0  0  0  0  0  0  0  0  0
   -7.8833   26.1398  -20.5785 C   0  0  0  0  0  0  0  0  0  0  0  0
   -8.6392   25.4394  -21.5060 C   0  0  0  0  0  0  0  0  0  0  0  0
   -8.1762   24.2486  -22.0095 C   0  0  0  0  0  0  0  0  0  0  0  0
  1  2  1  0  0  0
  2  3  1  0  0  0
  3  4  1  0  0  0
  4  5  1  0  0  0
  5  6  1  0  0  0
  6  7  1  0  0  0
  7  8  2  0  0  0
  8  9  1  0  0  0
  9 10  2  0  0  0
 10 18  1  0  0  0
 18 19  2  0  0  0
 18 20  2  0  0  0
 18 21  1  0  0  0
 21 22  2  0  0  0
 22 23  1  0  0  0
 23 24  2  0  0  0
 24 25  1  0  0  0
 25 26  2  0  0  0
 10 11  1  0  0  0
 11 12  2  0  0  0
 12 13  1  0  0  0
 13 14  1  0  0  0
 14  2  1  0  0  0
 13  5  2  0  0  0
 12  7  1  0  0  0
 26 21  1  0  0  0
  1 15  1  0  0  0
  1 16  1  0  0  0
  6 17  1  0  0  0
M  END
> <minimizedAffinity>
-8.62912

> <CNNscore>
0.2025530934

> <CNNaffinity>
5.5519719124

> <CNN_VS>
1.1245690584

> <CNNaffinity_variance>
0.1106681079

$$$$
[H]c1c([H])c([H])c(S(=O)(=O)c2c([H])c([H])c3c(c2[H])c2c(n3[H])C([H])([H])C([H])([H])C([H])(N([H])[H])C2([H])[H])c([H])c1[H]


 26 29  0  0  0  0  0  0  0  0999 V2000
    0.4870   21.9082  -23.9688 N   0  0  0  0  0  0  0  0  0  0  0  0
   -0.0742   22.5624  -25.1481 C   0  0  0  0  0  0  0  0  0  0  0  0
    0.7341   22.1734  -26.3320 C   0  0  0  0  0  0  0  0  0  0  0  0
   -0.0273   22.0244  -27.6096 C   0  0  0  0  0  0  0  0  0  0  0  0
   -1.3526   22.6669  -27.6085 C   0  0  0  0  0  0  0  0  0  0  0  0
   -2.0563   23.2250  -28.5937 N   0  0  0  0  0  0  0  0  0  0  0  0
   -3.2158   23.6844  -28.1290 C   0  0  0  0  0  0  0  0  0  0  0  0
   -4.2983   24.3406  -28.7267 C   0  0  0  0  0  0  0  0  0  0  0  0
   -5.3584   24.6750  -27.9136 C   0  0  0  0  0  0  0  0  0  0  0  0
   -5.3948   24.3978  -26.5761 C   0  0  0  0  0  0  0  0  0  0  0  0
   -4.3260   23.7516  -25.9934 C   0  0  0  0  0  0  0  0  0  0  0  0
   -3.2589   23.4100  -26.7894 C   0  0  0  0  0  0  0  0  0  0  0  0
   -2.0892   22.7710  -26.4619 C   0  0  0  0  0  0  0  0  0  0  0  0
   -1.5176   22.2184  -25.2132 C   0  0  0  0  0  0  0  0  0  0  0  0
   -0.2438   21.8023  -23.2509 H   0  0  0  0  0  0  0  0  0  0  0  0
    1.3512   22.3816  -23.6522 H   0  0  0  0  0  0  0  0  0  0  0  0
   -1.7784   23.3136  -29.6065 H   0  0  0  0  0  0  0  0  0  0  0  0
   -6.7689   24.8468  -25.5927 S   0  0  0  0  0  0  0  0  0  0  0  0
   -7.9972   24.7808  -26.4352 O   0  0  0  0  0  0  0  0  0  0  0  0
   -6.5730   26.2543  -25.1111 O   0  0  0  0  0  0  0  0  0  0  0  0
   -6.8399   23.7288  -24.2489 C   0  0  0  0  0  0  0  0  0  0  0  0
   -6.3737   22.4475  -24.4084 C   0  0  0  0  0  0  0  0  0  0  0  0
   -6.3904   21.4985  -23.4032 C   0  0  0  0  0  0  0  0  0  0  0  0
   -6.9099   21.8886  -22.1825 C   0  0  0  0  0  0  0  0  0  0  0  0
   -7.3878   23.1761  -21.9925 C   0  0  0  0  0  0  0  0  0  0  0  0
   -7.3486   24.0816  -23.0242 C   0  0  0  0  0  0  0  0  0  0  0  0
  1  2  1  0  0  0
  2  3  1  0  0  0
  3  4  1  0  0  0
  4  5  1  0  0  0
  5  6  1  0  0  0
  6  7  1  0  0  0
  7  8  2  0  0  0
  8  9  1  0  0  0
  9 10  2  0  0  0
 10 18  1  0  0  0
 18 19  2  0  0  0
 18 20  2  0  0  0
 18 21  1  0  0  0
 21 22  2  0  0  0
 22 23  1  0  0  0
 23 24  2  0  0  0
 24 25  1  0  0  0
 25 26  2  0  0  0
 10 11  1  0  0  0
 11 12  2  0  0  0
 12 13  1  0  0  0
 13 14  1  0  0  0
 14  2  1  0  0  0
 13  5  2  0  0  0
 12  7  1  0  0  0
 26 21  1  0  0  0
  1 15  1  0  0  0
  1 16  1  0  0  0
  6 17  1  0  0  0
M  END
> <minimizedAffinity>
-9.17657

> <CNNscore>
0.1898985505

> <CNNaffinity>
6.1555485725

> <CNN_VS>
1.1689296961

> <CNNaffinity_variance>
0.2595456243

$$$$
[H]c1c([H])c([H])c(S(=O)(=O)c2c([H])c([H])c3c(c2[H])c2c(n3[H])C([H])([H])C([H])([H])C([H])(N([H])[H])C2([H])[H])c([H])c1[H]


 26 29  0  0  0  0  0  0  0  0999 V2000
   -2.5297   22.9760  -20.0590 N   0  0  0  0  0  0  0  0  0  0  0  0
   -1.9892   22.9616  -21.4161 C   0  0  0  0  0  0  0  0  0  0  0  0
   -0.7868   22.0898  -21.4349 C   0  0  0  0  0  0  0  0  0  0  0  0
   -0.5740   21.3150  -22.6952 C   0  0  0  0  0  0  0  0  0  0  0  0
   -1.3251   21.8211  -23.8567 C   0  0  0  0  0  0  0  0  0  0  0  0
   -1.0378   21.8089  -25.1585 N   0  0  0  0  0  0  0  0  0  0  0  0
   -2.0179   22.3832  -25.8521 C   0  0  0  0  0  0  0  0  0  0  0  0
   -2.2150   22.6257  -27.2167 C   0  0  0  0  0  0  0  0  0  0  0  0
   -3.3811   23.2613  -27.5810 C   0  0  0  0  0  0  0  0  0  0  0  0
   -4.3326   23.6560  -26.6832 C   0  0  0  0  0  0  0  0  0  0  0  0
   -4.1329   23.4144  -25.3411 C   0  0  0  0  0  0  0  0  0  0  0  0
   -2.9747   22.7810  -24.9588 C   0  0  0  0  0  0  0  0  0  0  0  0
   -2.5402   22.4283  -23.7055 C   0  0  0  0  0  0  0  0  0  0  0  0
   -3.0857   22.5654  -22.3363 C   0  0  0  0  0  0  0  0  0  0  0  0
   -3.5357   23.1943  -20.0894 H   0  0  0  0  0  0  0  0  0  0  0  0
   -1.9657   23.5805  -19.4365 H   0  0  0  0  0  0  0  0  0  0  0  0
   -0.1756   21.4146  -25.6188 H   0  0  0  0  0  0  0  0  0  0  0  0
   -5.7952   24.4598  -27.2044 S   0  0  0  0  0  0  0  0  0  0  0  0
   -5.9572   25.7117  -26.4110 O   0  0  0  0  0  0  0  0  0  0  0  0
   -6.9600   23.5516  -26.9408 O   0  0  0  0  0  0  0  0  0  0  0  0
   -5.6318   24.7891  -28.9148 C   0  0  0  0  0  0  0  0  0  0  0  0
   -5.2110   26.0285  -29.3289 C   0  0  0  0  0  0  0  0  0  0  0  0
   -5.0538   26.3767  -30.6575 C   0  0  0  0  0  0  0  0  0  0  0  0
   -5.3429   25.4050  -31.5978 C   0  0  0  0  0  0  0  0  0  0  0  0
   -5.7697   24.1446  -31.2088 C   0  0  0  0  0  0  0  0  0  0  0  0
   -5.9098   23.8491  -29.8750 C   0  0  0  0  0  0  0  0  0  0  0  0
  1  2  1  0  0  0
  2  3  1  0  0  0
  3  4  1  0  0  0
  4  5  1  0  0  0
  5  6  1  0  0  0
  6  7  1  0  0  0
  7  8  2  0  0  0
  8  9  1  0  0  0
  9 10  2  0  0  0
 10 18  1  0  0  0
 18 19  2  0  0  0
 18 20  2  0  0  0
 18 21  1  0  0  0
 21 22  2  0  0  0
 22 23  1  0  0  0
 23 24  2  0  0  0
 24 25  1  0  0  0
 25 26  2  0  0  0
 10 11  1  0  0  0
 11 12  2  0  0  0
 12 13  1  0  0  0
 13 14  1  0  0  0
 14  2  1  0  0  0
 13  5  2  0  0  0
 12  7  1  0  0  0
 26 21  1  0  0  0
  1 15  1  0  0  0
  1 16  1  0  0  0
  6 17  1  0  0  0
M  END
> <minimizedAffinity>
-8.93847

> <CNNscore>
0.1868464500

> <CNNaffinity>
5.9531316757

> <CNN_VS>
1.1123214960

> <CNNaffinity_variance>
0.1804781258

$$$$
[H]c1c([H])c([H])c(S(=O)(=O)c2c([H])c([H])c3c(c2[H])c2c(n3[H])C([H])([H])C([H])([H])C([H])(N([H])[H])C2([H])[H])c([H])c1[H]


 26 29  0  0  0  0  0  0  0  0999 V2000
    0.6411   21.4436  -23.0541 N   0  0  0  0  0  0  0  0  0  0  0  0
   -0.5909   22.0574  -23.5432 C   0  0  0  0  0  0  0  0  0  0  0  0
   -0.4523   22.2936  -25.0030 C   0  0  0  0  0  0  0  0  0  0  0  0
   -1.7052   22.1339  -25.8021 C   0  0  0  0  0  0  0  0  0  0  0  0
   -2.9448   22.1736  -25.0075 C   0  0  0  0  0  0  0  0  0  0  0  0
   -4.1690   22.6025  -25.3151 N   0  0  0  0  0  0  0  0  0  0  0  0
   -4.9870   22.4447  -24.2771 C   0  0  0  0  0  0  0  0  0  0  0  0
   -6.3431   22.7245  -24.0711 C   0  0  0  0  0  0  0  0  0  0  0  0
   -6.8679   22.4194  -22.8350 C   0  0  0  0  0  0  0  0  0  0  0  0
   -6.1338   21.8668  -21.8237 C   0  0  0  0  0  0  0  0  0  0  0  0
   -4.7992   21.5937  -22.0325 C   0  0  0  0  0  0  0  0  0  0  0  0
   -4.2579   21.8913  -23.2602 C   0  0  0  0  0  0  0  0  0  0  0  0
   -2.9754   21.7208  -23.7183 C   0  0  0  0  0  0  0  0  0  0  0  0
   -1.7233   21.1864  -23.1370 C   0  0  0  0  0  0  0  0  0  0  0  0
    0.4425   20.8997  -22.2024 H   0  0  0  0  0  0  0  0  0  0  0  0
    1.3991   22.1424  -22.9646 H   0  0  0  0  0  0  0  0  0  0  0  0
   -4.4907   23.0135  -26.2307 H   0  0  0  0  0  0  0  0  0  0  0  0
   -6.8546   21.5006  -20.2734 S   0  0  0  0  0  0  0  0  0  0  0  0
   -6.4236   20.1343  -19.8606 O   0  0  0  0  0  0  0  0  0  0  0  0
   -8.3474   21.5259  -20.4221 O   0  0  0  0  0  0  0  0  0  0  0  0
   -6.3166   22.7227  -19.1430 C   0  0  0  0  0  0  0  0  0  0  0  0
   -5.4796   22.3713  -18.1131 C   0  0  0  0  0  0  0  0  0  0  0  0
   -5.0055   23.2690  -17.1748 C   0  0  0  0  0  0  0  0  0  0  0  0
   -5.4122   24.5842  -17.3050 C   0  0  0  0  0  0  0  0  0  0  0  0
   -6.2569   24.9678  -18.3352 C   0  0  0  0  0  0  0  0  0  0  0  0
   -6.7001   24.0365  -19.2419 C   0  0  0  0  0  0  0  0  0  0  0  0
  1  2  1  0  0  0
  2  3  1  0  0  0
  3  4  1  0  0  0
  4  5  1  0  0  0
  5  6  1  0  0  0
  6  7  1  0  0  0
  7  8  2  0  0  0
  8  9  1  0  0  0
  9 10  2  0  0  0
 10 18  1  0  0  0
 18 19  2  0  0  0
 18 20  2  0  0  0
 18 21  1  0  0  0
 21 22  2  0  0  0
 22 23  1  0  0  0
 23 24  2  0  0  0
 24 25  1  0  0  0
 25 26  2  0  0  0
 10 11  1  0  0  0
 11 12  2  0  0  0
 12 13  1  0  0  0
 13 14  1  0  0  0
 14  2  1  0  0  0
 13  5  2  0  0  0
 12  7  1  0  0  0
 26 21  1  0  0  0
  1 15  1  0  0  0
  1 16  1  0  0  0
  6 17  1  0  0  0
M  END
> <minimizedAffinity>
-6.00786

> <CNNscore>
0.1721294075

> <CNNaffinity>
5.3695855141

> <CNN_VS>
0.9242635965

> <CNNaffinity_variance>
0.1131617203

$$$$
[H]c1c([H])c(OC([H])([H])[H])c2c(c1[H])[C@]([H])(C([H])([H])N(C([H])([H])[H])C([H])([H])C([H])([H])c1c([H])c([H])c3c(c1[H])C([H])([H])N(S(=O)(=O)C([H])([H])[H])C3([H])[H])C([H])([H])C([H])([H])C2([H])[H]


 30 33  0  0  0  0  0  0  0  0999 V2000
   -5.2832   22.5442  -20.8647 N   0  0  0  0  0  0  0  0  0  0  0  0
   -5.3160   22.0590  -19.5560 C   0  0  0  0  0  0  0  0  0  0  0  0
   -4.8840   21.7621  -21.9327 C   0  0  0  0  0  0  0  0  0  0  0  0
   -1.4706   22.1664  -25.4319 C   0  0  0  0  0  0  0  0  0  0  0  0
   -2.4725   22.2129  -26.3927 C   0  0  0  0  0  0  0  0  0  0  0  0
   -3.7993   22.1349  -25.9635 C   0  0  0  0  0  0  0  0  0  0  0  0
   -4.1453   22.0145  -24.6266 C   0  0  0  0  0  0  0  0  0  0  0  0
   -3.1456   21.9679  -23.6707 C   0  0  0  0  0  0  0  0  0  0  0  0
   -1.8526   22.0466  -24.1154 C   0  0  0  0  0  0  0  0  0  0  0  0
   -0.8217   22.0186  -23.0116 C   0  0  0  0  0  0  0  0  0  0  0  0
   -1.2594   23.0787  -22.0098 C   0  0  0  0  0  0  0  0  0  0  0  0
   -2.6036   22.7362  -21.4105 C   0  0  0  0  0  0  0  0  0  0  0  0
   -3.4146   21.8043  -22.2282 C   0  0  0  0  0  0  0  0  0  0  0  0
    0.3385   22.3154  -27.0991 C   0  0  0  0  0  0  0  0  0  0  0  0
   -0.1074   22.2369  -25.7609 O   0  0  0  0  0  0  0  0  0  0  0  0
   -5.5316   23.9208  -21.0834 C   0  0  0  0  0  0  0  0  0  0  0  0
   -6.5895   24.2792  -22.0728 C   0  0  0  0  0  0  0  0  0  0  0  0
   -5.9772   24.8060  -23.3467 C   0  0  0  0  0  0  0  0  0  0  0  0
   -4.6877   25.2714  -23.4377 C   0  0  0  0  0  0  0  0  0  0  0  0
   -4.1549   25.7621  -24.6053 C   0  0  0  0  0  0  0  0  0  0  0  0
   -4.9138   25.8102  -25.7719 C   0  0  0  0  0  0  0  0  0  0  0  0
   -6.1936   25.3512  -25.6921 C   0  0  0  0  0  0  0  0  0  0  0  0
   -6.7352   24.8504  -24.4999 C   0  0  0  0  0  0  0  0  0  0  0  0
   -6.8445   25.4880  -27.0224 C   0  0  0  0  0  0  0  0  0  0  0  0
   -5.7836   25.8782  -27.8946 N   0  0  0  0  0  0  0  0  0  0  0  0
   -4.6360   26.2645  -27.1452 C   0  0  0  0  0  0  0  0  0  0  0  0
   -5.3187   24.6106  -28.9714 S   0  0  0  0  0  0  0  0  0  0  0  0
   -5.6303   25.0424  -30.6597 C   0  0  0  0  0  0  0  0  0  0  0  0
   -3.8577   24.3463  -28.7464 O   0  0  0  0  0  0  0  0  0  0  0  0
   -6.0368   23.3382  -28.5817 O   0  0  0  0  0  0  0  0  0  0  0  0
 14 15  1  0  0  0
 15  4  1  0  0  0
  4  5  2  0  0  0
  5  6  1  0  0  0
  6  7  2  0  0  0
  7  8  1  0  0  0
  8  9  2  0  0  0
  9 10  1  0  0  0
 10 11  1  0  0  0
 11 12  1  0  0  0
 12 13  1  0  0  0
 13  3  1  0  0  0
  3  1  1  0  0  0
  1  2  1  0  0  0
  1 16  1  0  0  0
 16 17  1  0  0  0
 17 18  1  0  0  0
 18 19  2  0  0  0
 19 20  1  0  0  0
 20 21  2  0  0  0
 21 22  1  0  0  0
 22 23  2  0  0  0
 22 24  1  0  0  0
 24 25  1  0  0  0
 25 27  1  0  0  0
 27 28  1  0  0  0
 27 29  2  0  0  0
 27 30  2  0  0  0
 25 26  1  0  0  0
  9  4  1  0  0  0
 23 18  1  0  0  0
 13  8  1  0  0  0
 26 21  1  0  0  0
M  END
> <minimizedAffinity>
-7.91160

> <CNNscore>
0.3590889573

> <CNNaffinity>
6.6989998817

> <CNN_VS>
2.4055368900

> <CNNaffinity_variance>
0.2434011698

$$$$
[H]c1c([H])c(OC([H])([H])[H])c2c(c1[H])[C@]([H])(C([H])([H])N(C([H])([H])[H])C([H])([H])C([H])([H])c1c([H])c([H])c3c(c1[H])C([H])([H])N(S(=O)(=O)C([H])([H])[H])C3([H])[H])C([H])([H])C([H])([H])C2([H])[H]


 30 33  0  0  0  0  0  0  0  0999 V2000
   -1.3496   22.4209  -26.4390 N   0  0  0  0  0  0  0  0  0  0  0  0
   -0.2456   22.5473  -27.2843 C   0  0  0  0  0  0  0  0  0  0  0  0
   -2.6471   22.4035  -26.9160 C   0  0  0  0  0  0  0  0  0  0  0  0
   -5.5777   25.0319  -29.8421 C   0  0  0  0  0  0  0  0  0  0  0  0
   -5.7783   23.9099  -30.6357 C   0  0  0  0  0  0  0  0  0  0  0  0
   -5.1374   22.7236  -30.2714 C   0  0  0  0  0  0  0  0  0  0  0  0
   -4.3182   22.6299  -29.1572 C   0  0  0  0  0  0  0  0  0  0  0  0
   -4.1191   23.7491  -28.3678 C   0  0  0  0  0  0  0  0  0  0  0  0
   -4.7581   24.9003  -28.7447 C   0  0  0  0  0  0  0  0  0  0  0  0
   -4.5149   26.0682  -27.8180 C   0  0  0  0  0  0  0  0  0  0  0  0
   -4.8158   25.5539  -26.4166 C   0  0  0  0  0  0  0  0  0  0  0  0
   -3.8691   24.4403  -26.0328 C   0  0  0  0  0  0  0  0  0  0  0  0
   -3.2363   23.7559  -27.1844 C   0  0  0  0  0  0  0  0  0  0  0  0
   -5.8003   27.0489  -31.2410 C   0  0  0  0  0  0  0  0  0  0  0  0
   -6.1762   26.2706  -30.1236 O   0  0  0  0  0  0  0  0  0  0  0  0
   -1.1384   22.4534  -25.0393 C   0  0  0  0  0  0  0  0  0  0  0  0
   -1.7935   21.3916  -24.2209 C   0  0  0  0  0  0  0  0  0  0  0  0
   -3.1620   21.8327  -23.7649 C   0  0  0  0  0  0  0  0  0  0  0  0
   -4.3111   21.1163  -23.9971 C   0  0  0  0  0  0  0  0  0  0  0  0
   -5.5503   21.5448  -23.5864 C   0  0  0  0  0  0  0  0  0  0  0  0
   -5.6994   22.7488  -22.9027 C   0  0  0  0  0  0  0  0  0  0  0  0
   -4.5661   23.4666  -22.6676 C   0  0  0  0  0  0  0  0  0  0  0  0
   -3.3025   23.0273  -23.0870 C   0  0  0  0  0  0  0  0  0  0  0  0
   -4.9212   24.7141  -21.9397 C   0  0  0  0  0  0  0  0  0  0  0  0
   -6.3031   24.5528  -21.6190 N   0  0  0  0  0  0  0  0  0  0  0  0
   -6.8610   23.4610  -22.3432 C   0  0  0  0  0  0  0  0  0  0  0  0
   -6.5574   24.2648  -19.9353 S   0  0  0  0  0  0  0  0  0  0  0  0
   -7.7654   22.9991  -19.6656 C   0  0  0  0  0  0  0  0  0  0  0  0
   -5.2330   23.8770  -19.3431 O   0  0  0  0  0  0  0  0  0  0  0  0
   -6.9507   25.5608  -19.2627 O   0  0  0  0  0  0  0  0  0  0  0  0
 14 15  1  0  0  0
 15  4  1  0  0  0
  4  5  2  0  0  0
  5  6  1  0  0  0
  6  7  2  0  0  0
  7  8  1  0  0  0
  8  9  2  0  0  0
  9 10  1  0  0  0
 10 11  1  0  0  0
 11 12  1  0  0  0
 12 13  1  0  0  0
 13  3  1  0  0  0
  3  1  1  0  0  0
  1  2  1  0  0  0
  1 16  1  0  0  0
 16 17  1  0  0  0
 17 18  1  0  0  0
 18 19  2  0  0  0
 19 20  1  0  0  0
 20 21  2  0  0  0
 21 22  1  0  0  0
 22 23  2  0  0  0
 22 24  1  0  0  0
 24 25  1  0  0  0
 25 27  1  0  0  0
 27 28  1  0  0  0
 27 29  2  0  0  0
 27 30  2  0  0  0
 25 26  1  0  0  0
  9  4  1  0  0  0
 23 18  1  0  0  0
 13  8  1  0  0  0
 26 21  1  0  0  0
M  END
> <minimizedAffinity>
-8.69051

> <CNNscore>
0.2214131653

> <CNNaffinity>
6.6473479271

> <CNN_VS>
1.4718103409

> <CNNaffinity_variance>
0.1095384955

$$$$
[H]c1c([H])c(OC([H])([H])[H])c2c(c1[H])[C@]([H])(C([H])([H])N(C([H])([H])[H])C([H])([H])C([H])([H])c1c([H])c([H])c3c(c1[H])C([H])([H])N(S(=O)(=O)C([H])([H])[H])C3([H])[H])C([H])([H])C([H])([H])C2([H])[H]


 30 33  0  0  0  0  0  0  0  0999 V2000
    0.1918   21.9923  -24.7996 N   0  0  0  0  0  0  0  0  0  0  0  0
    1.5173   21.7218  -24.4540 C   0  0  0  0  0  0  0  0  0  0  0  0
   -0.8763   21.4045  -24.1476 C   0  0  0  0  0  0  0  0  0  0  0  0
   -5.2215   22.6586  -22.2489 C   0  0  0  0  0  0  0  0  0  0  0  0
   -5.8437   21.7448  -23.0896 C   0  0  0  0  0  0  0  0  0  0  0  0
   -5.0433   21.0004  -23.9592 C   0  0  0  0  0  0  0  0  0  0  0  0
   -3.6653   21.1414  -24.0100 C   0  0  0  0  0  0  0  0  0  0  0  0
   -3.0471   22.0528  -23.1717 C   0  0  0  0  0  0  0  0  0  0  0  0
   -3.8524   22.7706  -22.3279 C   0  0  0  0  0  0  0  0  0  0  0  0
   -3.1019   23.7217  -21.4256 C   0  0  0  0  0  0  0  0  0  0  0  0
   -2.0039   22.8930  -20.7726 C   0  0  0  0  0  0  0  0  0  0  0  0
   -1.0388   22.3609  -21.8065 C   0  0  0  0  0  0  0  0  0  0  0  0
   -1.5914   22.2989  -23.1797 C   0  0  0  0  0  0  0  0  0  0  0  0
   -6.6052   22.9028  -20.2239 C   0  0  0  0  0  0  0  0  0  0  0  0
   -5.9370   23.4544  -21.3397 O   0  0  0  0  0  0  0  0  0  0  0  0
   -0.0614   22.7845  -25.9454 C   0  0  0  0  0  0  0  0  0  0  0  0
   -0.8215   22.1526  -27.0631 C   0  0  0  0  0  0  0  0  0  0  0  0
   -2.1213   22.8781  -27.3064 C   0  0  0  0  0  0  0  0  0  0  0  0
   -2.7900   22.8637  -28.5065 C   0  0  0  0  0  0  0  0  0  0  0  0
   -3.9654   23.5452  -28.7111 C   0  0  0  0  0  0  0  0  0  0  0  0
   -4.5427   24.2961  -27.6902 C   0  0  0  0  0  0  0  0  0  0  0  0
   -3.8874   24.3169  -26.4965 C   0  0  0  0  0  0  0  0  0  0  0  0
   -2.6885   23.6203  -26.2896 C   0  0  0  0  0  0  0  0  0  0  0  0
   -4.6435   25.1687  -25.5399 C   0  0  0  0  0  0  0  0  0  0  0  0
   -5.8614   25.4679  -26.2223 N   0  0  0  0  0  0  0  0  0  0  0  0
   -5.7644   25.1138  -27.5981 C   0  0  0  0  0  0  0  0  0  0  0  0
   -7.2143   24.6328  -25.5481 S   0  0  0  0  0  0  0  0  0  0  0  0
   -7.5365   25.1490  -23.8856 C   0  0  0  0  0  0  0  0  0  0  0  0
   -8.3958   24.9076  -26.4333 O   0  0  0  0  0  0  0  0  0  0  0  0
   -6.9705   23.1427  -25.6299 O   0  0  0  0  0  0  0  0  0  0  0  0
 14 15  1  0  0  0
 15  4  1  0  0  0
  4  5  2  0  0  0
  5  6  1  0  0  0
  6  7  2  0  0  0
  7  8  1  0  0  0
  8  9  2  0  0  0
  9 10  1  0  0  0
 10 11  1  0  0  0
 11 12  1  0  0  0
 12 13  1  0  0  0
 13  3  1  0  0  0
  3  1  1  0  0  0
  1  2  1  0  0  0
  1 16  1  0  0  0
 16 17  1  0  0  0
 17 18  1  0  0  0
 18 19  2  0  0  0
 19 20  1  0  0  0
 20 21  2  0  0  0
 21 22  1  0  0  0
 22 23  2  0  0  0
 22 24  1  0  0  0
 24 25  1  0  0  0
 25 27  1  0  0  0
 27 28  1  0  0  0
 27 29  2  0  0  0
 27 30  2  0  0  0
 25 26  1  0  0  0
  9  4  1  0  0  0
 23 18  1  0  0  0
 13  8  1  0  0  0
 26 21  1  0  0  0
M  END
> <minimizedAffinity>
-7.58523

> <CNNscore>
0.2166310847

> <CNNaffinity>
6.4163846970

> <CNN_VS>
1.3899884224

> <CNNaffinity_variance>
0.3175764680

$$$$
[H]c1c([H])c(OC([H])([H])[H])c2c(c1[H])[C@]([H])(C([H])([H])N(C([H])([H])[H])C([H])([H])C([H])([H])c1c([H])c([H])c3c(c1[H])C([H])([H])N(S(=O)(=O)C([H])([H])[H])C3([H])[H])C([H])([H])C([H])([H])C2([H])[H]


 30 33  0  0  0  0  0  0  0  0999 V2000
   -6.8165   24.6423  -25.2244 N   0  0  0  0  0  0  0  0  0  0  0  0
   -6.6438   25.9908  -25.5423 C   0  0  0  0  0  0  0  0  0  0  0  0
   -6.7283   23.6421  -26.1748 C   0  0  0  0  0  0  0  0  0  0  0  0
   -2.0651   22.2147  -26.7006 C   0  0  0  0  0  0  0  0  0  0  0  0
   -2.1331   21.5678  -25.4734 C   0  0  0  0  0  0  0  0  0  0  0  0
   -3.3370   21.6219  -24.7674 C   0  0  0  0  0  0  0  0  0  0  0  0
   -4.4528   22.2912  -25.2452 C   0  0  0  0  0  0  0  0  0  0  0  0
   -4.3830   22.9357  -26.4680 C   0  0  0  0  0  0  0  0  0  0  0  0
   -3.1926   22.8684  -27.1419 C   0  0  0  0  0  0  0  0  0  0  0  0
   -3.2047   23.5701  -28.4795 C   0  0  0  0  0  0  0  0  0  0  0  0
   -4.4296   23.0409  -29.2133 C   0  0  0  0  0  0  0  0  0  0  0  0
   -5.6998   23.4016  -28.4783 C   0  0  0  0  0  0  0  0  0  0  0  0
   -5.5059   23.7041  -27.0410 C   0  0  0  0  0  0  0  0  0  0  0  0
    0.3349   22.6932  -26.9935 C   0  0  0  0  0  0  0  0  0  0  0  0
   -0.9013   22.2194  -27.4863 O   0  0  0  0  0  0  0  0  0  0  0  0
   -7.2342   24.3030  -23.9148 C   0  0  0  0  0  0  0  0  0  0  0  0
   -6.6397   25.0727  -22.7831 C   0  0  0  0  0  0  0  0  0  0  0  0
   -5.2318   24.6111  -22.5007 C   0  0  0  0  0  0  0  0  0  0  0  0
   -4.1188   25.1427  -23.1060 C   0  0  0  0  0  0  0  0  0  0  0  0
   -2.8458   24.6960  -22.8455 C   0  0  0  0  0  0  0  0  0  0  0  0
   -2.6228   23.6637  -21.9379 C   0  0  0  0  0  0  0  0  0  0  0  0
   -3.7198   23.1298  -21.3324 C   0  0  0  0  0  0  0  0  0  0  0  0
   -5.0178   23.5874  -21.5992 C   0  0  0  0  0  0  0  0  0  0  0  0
   -3.2886   22.0448  -20.4110 C   0  0  0  0  0  0  0  0  0  0  0  0
   -1.8638   22.1367  -20.4019 N   0  0  0  0  0  0  0  0  0  0  0  0
   -1.4100   22.9820  -21.4542 C   0  0  0  0  0  0  0  0  0  0  0  0
   -1.2555   22.7624  -18.9117 S   0  0  0  0  0  0  0  0  0  0  0  0
   -0.2633   21.5688  -18.0602 C   0  0  0  0  0  0  0  0  0  0  0  0
   -0.4556   23.9912  -19.2361 O   0  0  0  0  0  0  0  0  0  0  0  0
   -2.4131   23.2320  -18.0597 O   0  0  0  0  0  0  0  0  0  0  0  0
 14 15  1  0  0  0
 15  4  1  0  0  0
  4  5  2  0  0  0
  5  6  1  0  0  0
  6  7  2  0  0  0
  7  8  1  0  0  0
  8  9  2  0  0  0
  9 10  1  0  0  0
 10 11  1  0  0  0
 11 12  1  0  0  0
 12 13  1  0  0  0
 13  3  1  0  0  0
  3  1  1  0  0  0
  1  2  1  0  0  0
  1 16  1  0  0  0
 16 17  1  0  0  0
 17 18  1  0  0  0
 18 19  2  0  0  0
 19 20  1  0  0  0
 20 21  2  0  0  0
 21 22  1  0  0  0
 22 23  2  0  0  0
 22 24  1  0  0  0
 24 25  1  0  0  0
 25 27  1  0  0  0
 27 28  1  0  0  0
 27 29  2  0  0  0
 27 30  2  0  0  0
 25 26  1  0  0  0
  9  4  1  0  0  0
 23 18  1  0  0  0
 13  8  1  0  0  0
 26 21  1  0  0  0
M  END
> <minimizedAffinity>
-8.76363

> <CNNscore>
0.2163420767

> <CNNaffinity>
6.2385597229

> <CNN_VS>
1.3496630192

> <CNNaffinity_variance>
0.3358871043

$$$$
[H]c1c([H])c(OC([H])([H])[H])c2c(c1[H])[C@]([H])(C([H])([H])N(C([H])([H])[H])C([H])([H])C([H])([H])c1c([H])c([H])c3c(c1[H])C([H])([H])N(S(=O)(=O)C([H])([H])[H])C3([H])[H])C([H])([H])C([H])([H])C2([H])[H]


 30 33  0  0  0  0  0  0  0  0999 V2000
   -6.8003   24.6473  -25.1438 N   0  0  0  0  0  0  0  0  0  0  0  0
   -6.5164   25.9981  -25.3542 C   0  0  0  0  0  0  0  0  0  0  0  0
   -6.7920   23.7220  -26.1710 C   0  0  0  0  0  0  0  0  0  0  0  0
   -2.1635   22.2669  -26.8912 C   0  0  0  0  0  0  0  0  0  0  0  0
   -2.1977   21.5859  -25.6812 C   0  0  0  0  0  0  0  0  0  0  0  0
   -3.3771   21.6311  -24.9344 C   0  0  0  0  0  0  0  0  0  0  0  0
   -4.5011   22.3241  -25.3559 C   0  0  0  0  0  0  0  0  0  0  0  0
   -4.4650   23.0025  -26.5616 C   0  0  0  0  0  0  0  0  0  0  0  0
   -3.2982   22.9434  -27.2763 C   0  0  0  0  0  0  0  0  0  0  0  0
   -3.3471   23.6830  -28.5925 C   0  0  0  0  0  0  0  0  0  0  0  0
   -4.6008   23.1863  -29.2998 C   0  0  0  0  0  0  0  0  0  0  0  0
   -5.8424   23.5377  -28.5132 C   0  0  0  0  0  0  0  0  0  0  0  0
   -5.5982   23.7973  -27.0752 C   0  0  0  0  0  0  0  0  0  0  0  0
    0.2017   22.8358  -27.2875 C   0  0  0  0  0  0  0  0  0  0  0  0
   -1.0262   22.2832  -27.7147 O   0  0  0  0  0  0  0  0  0  0  0  0
   -7.2481   24.2405  -23.8638 C   0  0  0  0  0  0  0  0  0  0  0  0
   -6.5779   24.8470  -22.6766 C   0  0  0  0  0  0  0  0  0  0  0  0
   -5.5428   23.9093  -22.1069 C   0  0  0  0  0  0  0  0  0  0  0  0
   -5.8370   22.6693  -21.5936 C   0  0  0  0  0  0  0  0  0  0  0  0
   -4.8800   21.8373  -21.0647 C   0  0  0  0  0  0  0  0  0  0  0  0
   -3.5423   22.2220  -21.0246 C   0  0  0  0  0  0  0  0  0  0  0  0
   -3.2402   23.4497  -21.5309 C   0  0  0  0  0  0  0  0  0  0  0  0
   -4.2181   24.2969  -22.0707 C   0  0  0  0  0  0  0  0  0  0  0  0
   -1.7781   23.6867  -21.3956 C   0  0  0  0  0  0  0  0  0  0  0  0
   -1.2581   22.4329  -20.9528 N   0  0  0  0  0  0  0  0  0  0  0  0
   -2.3135   21.5718  -20.5377 C   0  0  0  0  0  0  0  0  0  0  0  0
   -0.3586   21.6230  -22.1846 S   0  0  0  0  0  0  0  0  0  0  0  0
    1.2165   21.0768  -21.5892 C   0  0  0  0  0  0  0  0  0  0  0  0
   -1.1872   20.4613  -22.6525 O   0  0  0  0  0  0  0  0  0  0  0  0
   -0.2140   22.5391  -23.3790 O   0  0  0  0  0  0  0  0  0  0  0  0
 14 15  1  0  0  0
 15  4  1  0  0  0
  4  5  2  0  0  0
  5  6  1  0  0  0
  6  7  2  0  0  0
  7  8  1  0  0  0
  8  9  2  0  0  0
  9 10  1  0  0  0
 10 11  1  0  0  0
 11 12  1  0  0  0
 12 13  1  0  0  0
 13  3  1  0  0  0
  3  1  1  0  0  0
  1  2  1  0  0  0
  1 16  1  0  0  0
 16 17  1  0  0  0
 17 18  1  0  0  0
 18 19  2  0  0  0
 19 20  1  0  0  0
 20 21  2  0  0  0
 21 22  1  0  0  0
 22 23  2  0  0  0
 22 24  1  0  0  0
 24 25  1  0  0  0
 25 27  1  0  0  0
 27 28  1  0  0  0
 27 29  2  0  0  0
 27 30  2  0  0  0
 25 26  1  0  0  0
  9  4  1  0  0  0
 23 18  1  0  0  0
 13  8  1  0  0  0
 26 21  1  0  0  0
M  END
> <minimizedAffinity>
-7.76679

> <CNNscore>
0.2141667008

> <CNNaffinity>
6.4108657837

> <CNN_VS>
1.3729939461

> <CNNaffinity_variance>
0.1309250593

$$$$
[H]c1c([H])c(OC([H])([H])[H])c2c(c1[H])[C@]([H])(C([H])([H])N(C([H])([H])[H])C([H])([H])C([H])([H])c1c([H])c([H])c3c(c1[H])C([H])([H])N(S(=O)(=O)C([H])([H])[H])C3([H])[H])C([H])([H])C([H])([H])C2([H])[H]


 30 33  0  0  0  0  0  0  0  0999 V2000
   -0.0954   21.7759  -23.7785 N   0  0  0  0  0  0  0  0  0  0  0  0
    1.1794   21.4402  -23.3185 C   0  0  0  0  0  0  0  0  0  0  0  0
   -1.2338   21.1242  -23.3416 C   0  0  0  0  0  0  0  0  0  0  0  0
   -5.8863   22.4754  -22.5751 C   0  0  0  0  0  0  0  0  0  0  0  0
   -6.2817   21.6981  -23.6561 C   0  0  0  0  0  0  0  0  0  0  0  0
   -5.2984   20.9932  -24.3539 C   0  0  0  0  0  0  0  0  0  0  0  0
   -3.9572   21.0426  -24.0073 C   0  0  0  0  0  0  0  0  0  0  0  0
   -3.5649   21.8180  -22.9301 C   0  0  0  0  0  0  0  0  0  0  0  0
   -4.5467   22.4995  -22.2613 C   0  0  0  0  0  0  0  0  0  0  0  0
   -4.0441   23.2985  -21.0819 C   0  0  0  0  0  0  0  0  0  0  0  0
   -3.2059   22.3328  -20.2550 C   0  0  0  0  0  0  0  0  0  0  0  0
   -2.0104   21.8440  -21.0393 C   0  0  0  0  0  0  0  0  0  0  0  0
   -2.1572   21.9620  -22.5088 C   0  0  0  0  0  0  0  0  0  0  0  0
   -7.8466   22.6110  -21.0873 C   0  0  0  0  0  0  0  0  0  0  0  0
   -6.7974   23.2213  -21.8101 O   0  0  0  0  0  0  0  0  0  0  0  0
   -0.2102   22.7174  -24.8297 C   0  0  0  0  0  0  0  0  0  0  0  0
   -0.7030   22.2194  -26.1471 C   0  0  0  0  0  0  0  0  0  0  0  0
   -2.0313   22.8440  -26.4946 C   0  0  0  0  0  0  0  0  0  0  0  0
   -2.7070   23.7091  -25.6683 C   0  0  0  0  0  0  0  0  0  0  0  0
   -3.9243   24.2544  -25.9980 C   0  0  0  0  0  0  0  0  0  0  0  0
   -4.5395   23.9481  -27.2092 C   0  0  0  0  0  0  0  0  0  0  0  0
   -3.8778   23.0913  -28.0355 C   0  0  0  0  0  0  0  0  0  0  0  0
   -2.6355   22.5364  -27.6974 C   0  0  0  0  0  0  0  0  0  0  0  0
   -4.6855   22.8794  -29.2664 C   0  0  0  0  0  0  0  0  0  0  0  0
   -5.7520   23.8220  -29.1537 N   0  0  0  0  0  0  0  0  0  0  0  0
   -5.8065   24.3612  -27.8369 C   0  0  0  0  0  0  0  0  0  0  0  0
   -5.5887   25.1346  -30.2640 S   0  0  0  0  0  0  0  0  0  0  0  0
   -3.9087   25.6793  -30.3868 C   0  0  0  0  0  0  0  0  0  0  0  0
   -6.0972   24.6601  -31.5949 O   0  0  0  0  0  0  0  0  0  0  0  0
   -6.5081   26.2591  -29.8438 O   0  0  0  0  0  0  0  0  0  0  0  0
 14 15  1  0  0  0
 15  4  1  0  0  0
  4  5  2  0  0  0
  5  6  1  0  0  0
  6  7  2  0  0  0
  7  8  1  0  0  0
  8  9  2  0  0  0
  9 10  1  0  0  0
 10 11  1  0  0  0
 11 12  1  0  0  0
 12 13  1  0  0  0
 13  3  1  0  0  0
  3  1  1  0  0  0
  1  2  1  0  0  0
  1 16  1  0  0  0
 16 17  1  0  0  0
 17 18  1  0  0  0
 18 19  2  0  0  0
 19 20  1  0  0  0
 20 21  2  0  0  0
 21 22  1  0  0  0
 22 23  2  0  0  0
 22 24  1  0  0  0
 24 25  1  0  0  0
 25 27  1  0  0  0
 27 28  1  0  0  0
 27 29  2  0  0  0
 27 30  2  0  0  0
 25 26  1  0  0  0
  9  4  1  0  0  0
 23 18  1  0  0  0
 13  8  1  0  0  0
 26 21  1  0  0  0
M  END
> <minimizedAffinity>
-8.05978

> <CNNscore>
0.2072855532

> <CNNaffinity>
6.5457239151

> <CNN_VS>
1.3568340540

> <CNNaffinity_variance>
0.1652938426

$$$$
[H]c1c([H])c(OC([H])([H])[H])c2c(c1[H])[C@]([H])(C([H])([H])N(C([H])([H])[H])C([H])([H])C([H])([H])c1c([H])c([H])c3c(c1[H])C([H])([H])N(S(=O)(=O)C([H])([H])[H])C3([H])[H])C([H])([H])C([H])([H])C2([H])[H]


 30 33  0  0  0  0  0  0  0  0999 V2000
   -4.0960   25.0037  -28.7927 N   0  0  0  0  0  0  0  0  0  0  0  0
   -3.6677   25.6841  -29.9342 C   0  0  0  0  0  0  0  0  0  0  0  0
   -3.7449   23.6905  -28.5402 C   0  0  0  0  0  0  0  0  0  0  0  0
   -1.6147   21.8203  -24.5372 C   0  0  0  0  0  0  0  0  0  0  0  0
   -2.8546   21.3790  -24.0934 C   0  0  0  0  0  0  0  0  0  0  0  0
   -3.9702   21.6406  -24.8919 C   0  0  0  0  0  0  0  0  0  0  0  0
   -3.8820   22.3174  -26.0984 C   0  0  0  0  0  0  0  0  0  0  0  0
   -2.6458   22.7568  -26.5389 C   0  0  0  0  0  0  0  0  0  0  0  0
   -1.5668   22.4883  -25.7393 C   0  0  0  0  0  0  0  0  0  0  0  0
   -0.2512   22.9731  -26.3015 C   0  0  0  0  0  0  0  0  0  0  0  0
   -0.1883   22.4392  -27.7262 C   0  0  0  0  0  0  0  0  0  0  0  0
   -1.3033   23.0125  -28.5698 C   0  0  0  0  0  0  0  0  0  0  0  0
   -2.4580   23.5169  -27.7906 C   0  0  0  0  0  0  0  0  0  0  0  0
   -0.4498   21.1583  -22.4685 C   0  0  0  0  0  0  0  0  0  0  0  0
   -0.4339   21.6076  -23.8078 O   0  0  0  0  0  0  0  0  0  0  0  0
   -5.0336   25.6345  -27.9398 C   0  0  0  0  0  0  0  0  0  0  0  0
   -4.5796   25.9909  -26.5639 C   0  0  0  0  0  0  0  0  0  0  0  0
   -5.5395   25.4618  -25.5276 C   0  0  0  0  0  0  0  0  0  0  0  0
   -6.8602   25.1826  -25.7832 C   0  0  0  0  0  0  0  0  0  0  0  0
   -7.7217   24.7161  -24.8198 C   0  0  0  0  0  0  0  0  0  0  0  0
   -7.2852   24.5013  -23.5150 C   0  0  0  0  0  0  0  0  0  0  0  0
   -5.9774   24.7753  -23.2512 C   0  0  0  0  0  0  0  0  0  0  0  0
   -5.1000   25.2507  -24.2359 C   0  0  0  0  0  0  0  0  0  0  0  0
   -5.7000   24.4948  -21.8171 C   0  0  0  0  0  0  0  0  0  0  0  0
   -6.8923   23.8674  -21.3445 N   0  0  0  0  0  0  0  0  0  0  0  0
   -7.9460   24.0181  -22.2904 C   0  0  0  0  0  0  0  0  0  0  0  0
   -6.6740   22.1798  -21.0498 S   0  0  0  0  0  0  0  0  0  0  0  0
   -6.7023   21.8115  -19.3185 C   0  0  0  0  0  0  0  0  0  0  0  0
   -7.7736   21.4542  -21.7705 O   0  0  0  0  0  0  0  0  0  0  0  0
   -5.3834   21.7252  -21.6936 O   0  0  0  0  0  0  0  0  0  0  0  0
 14 15  1  0  0  0
 15  4  1  0  0  0
  4  5  2  0  0  0
  5  6  1  0  0  0
  6  7  2  0  0  0
  7  8  1  0  0  0
  8  9  2  0  0  0
  9 10  1  0  0  0
 10 11  1  0  0  0
 11 12  1  0  0  0
 12 13  1  0  0  0
 13  3  1  0  0  0
  3  1  1  0  0  0
  1  2  1  0  0  0
  1 16  1  0  0  0
 16 17  1  0  0  0
 17 18  1  0  0  0
 18 19  2  0  0  0
 19 20  1  0  0  0
 20 21  2  0  0  0
 21 22  1  0  0  0
 22 23  2  0  0  0
 22 24  1  0  0  0
 24 25  1  0  0  0
 25 27  1  0  0  0
 27 28  1  0  0  0
 27 29  2  0  0  0
 27 30  2  0  0  0
 25 26  1  0  0  0
  9  4  1  0  0  0
 23 18  1  0  0  0
 13  8  1  0  0  0
 26 21  1  0  0  0
M  END
> <minimizedAffinity>
-8.70542

> <CNNscore>
0.1902913749

> <CNNaffinity>
6.0862450600

> <CNN_VS>
1.1581599712

> <CNNaffinity_variance>
0.7250463963

$$$$
[H]c1c([H])c(OC([H])([H])[H])c2c(c1[H])[C@]([H])(C([H])([H])N(C([H])([H])[H])C([H])([H])C([H])([H])c1c([H])c([H])c3c(c1[H])C([H])([H])N(S(=O)(=O)C([H])([H])[H])C3([H])[H])C([H])([H])C([H])([H])C2([H])[H]


 30 33  0  0  0  0  0  0  0  0999 V2000
    0.8442   21.5194  -23.2424 N   0  0  0  0  0  0  0  0  0  0  0  0
    2.1742   21.1203  -23.3878 C   0  0  0  0  0  0  0  0  0  0  0  0
   -0.0117   20.9211  -22.3363 C   0  0  0  0  0  0  0  0  0  0  0  0
    1.2125   21.1485  -17.5920 C   0  0  0  0  0  0  0  0  0  0  0  0
    0.6475   22.4149  -17.5152 C   0  0  0  0  0  0  0  0  0  0  0  0
    0.0738   22.9503  -18.6706 C   0  0  0  0  0  0  0  0  0  0  0  0
    0.0494   22.2676  -19.8767 C   0  0  0  0  0  0  0  0  0  0  0  0
    0.6132   21.0059  -19.9515 C   0  0  0  0  0  0  0  0  0  0  0  0
    1.1692   20.5019  -18.8059 C   0  0  0  0  0  0  0  0  0  0  0  0
    1.7368   19.1105  -18.9604 C   0  0  0  0  0  0  0  0  0  0  0  0
    0.6307   18.2810  -19.5987 C   0  0  0  0  0  0  0  0  0  0  0  0
    0.2836   18.8057  -20.9727 C   0  0  0  0  0  0  0  0  0  0  0  0
    0.6677   20.2185  -21.1992 C   0  0  0  0  0  0  0  0  0  0  0  0
    1.0625   20.0737  -15.3790 C   0  0  0  0  0  0  0  0  0  0  0  0
    1.8138   20.5234  -16.4877 O   0  0  0  0  0  0  0  0  0  0  0  0
    0.3191   22.4706  -24.1501 C   0  0  0  0  0  0  0  0  0  0  0  0
   -0.1157   21.9756  -25.4889 C   0  0  0  0  0  0  0  0  0  0  0  0
   -1.5194   22.4316  -25.8002 C   0  0  0  0  0  0  0  0  0  0  0  0
   -2.4459   22.7586  -24.8399 C   0  0  0  0  0  0  0  0  0  0  0  0
   -3.7250   23.1566  -25.1455 C   0  0  0  0  0  0  0  0  0  0  0  0
   -4.1474   23.2481  -26.4693 C   0  0  0  0  0  0  0  0  0  0  0  0
   -3.2363   22.9259  -27.4290 C   0  0  0  0  0  0  0  0  0  0  0  0
   -1.9315   22.5206  -27.1150 C   0  0  0  0  0  0  0  0  0  0  0  0
   -3.8656   23.0749  -28.7685 C   0  0  0  0  0  0  0  0  0  0  0  0
   -5.1289   23.6826  -28.4979 N   0  0  0  0  0  0  0  0  0  0  0  0
   -5.4186   23.6360  -27.1045 C   0  0  0  0  0  0  0  0  0  0  0  0
   -5.1851   25.3333  -29.0021 S   0  0  0  0  0  0  0  0  0  0  0  0
   -3.7704   25.7665  -29.9742 C   0  0  0  0  0  0  0  0  0  0  0  0
   -6.4520   25.5181  -29.7869 O   0  0  0  0  0  0  0  0  0  0  0  0
   -5.3161   26.2212  -27.7851 O   0  0  0  0  0  0  0  0  0  0  0  0
 14 15  1  0  0  0
 15  4  1  0  0  0
  4  5  2  0  0  0
  5  6  1  0  0  0
  6  7  2  0  0  0
  7  8  1  0  0  0
  8  9  2  0  0  0
  9 10  1  0  0  0
 10 11  1  0  0  0
 11 12  1  0  0  0
 12 13  1  0  0  0
 13  3  1  0  0  0
  3  1  1  0  0  0
  1  2  1  0  0  0
  1 16  1  0  0  0
 16 17  1  0  0  0
 17 18  1  0  0  0
 18 19  2  0  0  0
 19 20  1  0  0  0
 20 21  2  0  0  0
 21 22  1  0  0  0
 22 23  2  0  0  0
 22 24  1  0  0  0
 24 25  1  0  0  0
 25 27  1  0  0  0
 27 28  1  0  0  0
 27 29  2  0  0  0
 27 30  2  0  0  0
 25 26  1  0  0  0
  9  4  1  0  0  0
 23 18  1  0  0  0
 13  8  1  0  0  0
 26 21  1  0  0  0
M  END
> <minimizedAffinity>
-7.39103

> <CNNscore>
0.1746383607

> <CNNaffinity>
5.8077378273

> <CNN_VS>
1.0142538548

> <CNNaffinity_variance>
0.0622909144

$$$$
[H]c1c([H])c(OC([H])([H])[H])c2c(c1[H])[C@]([H])(C([H])([H])N(C([H])([H])[H])C([H])([H])C([H])([H])c1c([H])c([H])c3c(c1[H])C([H])([H])N(S(=O)(=O)C([H])([H])[H])C3([H])[H])C([H])([H])C([H])([H])C2([H])[H]


 30 33  0  0  0  0  0  0  0  0999 V2000
   -4.7941   24.0243  -22.5562 N   0  0  0  0  0  0  0  0  0  0  0  0
   -5.3627   24.8773  -21.6083 C   0  0  0  0  0  0  0  0  0  0  0  0
   -3.8208   24.4481  -23.4419 C   0  0  0  0  0  0  0  0  0  0  0  0
   -4.0077   24.2193  -28.3380 C   0  0  0  0  0  0  0  0  0  0  0  0
   -3.1847   23.1009  -28.3092 C   0  0  0  0  0  0  0  0  0  0  0  0
   -2.7537   22.6335  -27.0656 C   0  0  0  0  0  0  0  0  0  0  0  0
   -3.1161   23.2411  -25.8736 C   0  0  0  0  0  0  0  0  0  0  0  0
   -3.9359   24.3557  -25.9043 C   0  0  0  0  0  0  0  0  0  0  0  0
   -4.3460   24.7951  -27.1349 C   0  0  0  0  0  0  0  0  0  0  0  0
   -5.2605   25.9963  -27.0837 C   0  0  0  0  0  0  0  0  0  0  0  0
   -6.3587   25.6382  -26.0915 C   0  0  0  0  0  0  0  0  0  0  0  0
   -5.7896   25.4175  -24.7091 C   0  0  0  0  0  0  0  0  0  0  0  0
   -4.3447   25.0911  -24.6911 C   0  0  0  0  0  0  0  0  0  0  0  0
   -5.4969   24.1291  -30.2999 C   0  0  0  0  0  0  0  0  0  0  0  0
   -4.4936   24.7664  -29.5364 O   0  0  0  0  0  0  0  0  0  0  0  0
   -5.3328   22.7236  -22.7068 C   0  0  0  0  0  0  0  0  0  0  0  0
   -6.8189   22.5958  -22.7457 C   0  0  0  0  0  0  0  0  0  0  0  0
   -7.3429   22.0248  -21.4516 C   0  0  0  0  0  0  0  0  0  0  0  0
   -8.6423   22.1633  -21.0275 C   0  0  0  0  0  0  0  0  0  0  0  0
   -9.0948   21.6484  -19.8367 C   0  0  0  0  0  0  0  0  0  0  0  0
   -8.2388   20.9491  -18.9897 C   0  0  0  0  0  0  0  0  0  0  0  0
   -6.9483   20.8065  -19.4010 C   0  0  0  0  0  0  0  0  0  0  0  0
   -6.4888   21.3321  -20.6167 C   0  0  0  0  0  0  0  0  0  0  0  0
   -6.1898   20.0457  -18.3723 C   0  0  0  0  0  0  0  0  0  0  0  0
   -7.1884   19.6112  -17.4490 N   0  0  0  0  0  0  0  0  0  0  0  0
   -8.4173   20.2912  -17.6839 C   0  0  0  0  0  0  0  0  0  0  0  0
   -7.4866   17.9135  -17.5547 S   0  0  0  0  0  0  0  0  0  0  0  0
   -9.1361   17.5089  -17.0553 C   0  0  0  0  0  0  0  0  0  0  0  0
   -7.2420   17.5045  -18.9788 O   0  0  0  0  0  0  0  0  0  0  0  0
   -6.4586   17.1752  -16.7271 O   0  0  0  0  0  0  0  0  0  0  0  0
 14 15  1  0  0  0
 15  4  1  0  0  0
  4  5  2  0  0  0
  5  6  1  0  0  0
  6  7  2  0  0  0
  7  8  1  0  0  0
  8  9  2  0  0  0
  9 10  1  0  0  0
 10 11  1  0  0  0
 11 12  1  0  0  0
 12 13  1  0  0  0
 13  3  1  0  0  0
  3  1  1  0  0  0
  1  2  1  0  0  0
  1 16  1  0  0  0
 16 17  1  0  0  0
 17 18  1  0  0  0
 18 19  2  0  0  0
 19 20  1  0  0  0
 20 21  2  0  0  0
 21 22  1  0  0  0
 22 23  2  0  0  0
 22 24  1  0  0  0
 24 25  1  0  0  0
 25 27  1  0  0  0
 27 28  1  0  0  0
 27 29  2  0  0  0
 27 30  2  0  0  0
 25 26  1  0  0  0
  9  4  1  0  0  0
 23 18  1  0  0  0
 13  8  1  0  0  0
 26 21  1  0  0  0
M  END
> <minimizedAffinity>
-7.27895

> <CNNscore>
0.1698874533

> <CNNaffinity>
5.7189583778

> <CNN_VS>
0.9715792537

> <CNNaffinity_variance>
0.0673010424

$$$$
[H]N=C(c1c([H])c([H])c(C([H])([H])N([H])C(=O)C2([H])N3C(=O)[C@](O[H])(C([H])([H])c4c([H])c([H])c([H])c([H])c4[H])C([H])([H])C([H])([H])[C@]3([H])C([H])([H])C2([H])[H])c([H])c1[H])N([H])[H]


 36 39  0  0  0  0  0  0  0  0999 V2000
   -6.4084   23.0063  -21.3078 C   0  0  0  0  0  0  0  0  0  0  0  0
   -6.4688   24.1662  -20.3366 C   0  0  0  0  0  0  0  0  0  0  0  0
   -5.6654   25.2153  -21.0900 C   0  0  0  0  0  0  0  0  0  0  0  0
   -6.2419   25.0811  -22.4808 C   0  0  0  0  0  0  0  0  0  0  0  0
   -5.2699   25.5231  -23.5423 C   0  0  0  0  0  0  0  0  0  0  0  0
   -5.7549   25.1907  -24.9149 C   0  0  0  0  0  0  0  0  0  0  0  0
   -6.9387   24.2651  -24.9496 C   0  0  0  0  0  0  0  0  0  0  0  0
   -8.1326   24.9583  -24.6875 O   0  0  0  0  0  0  0  0  0  0  0  0
   -6.7194   23.1888  -23.9479 C   0  0  0  0  0  0  0  0  0  0  0  0
   -6.7313   21.9687  -24.1947 O   0  0  0  0  0  0  0  0  0  0  0  0
   -6.4792   23.6345  -22.6052 N   0  0  0  0  0  0  0  0  0  0  0  0
   -7.9994   25.8624  -25.1015 H   0  0  0  0  0  0  0  0  0  0  0  0
   -4.3173   22.0379  -22.2517 N   0  0  0  0  0  0  0  0  0  0  0  0
   -5.0680   22.3535  -21.0902 C   0  0  0  0  0  0  0  0  0  0  0  0
   -4.6313   22.0992  -19.9600 O   0  0  0  0  0  0  0  0  0  0  0  0
   -4.6787   22.2484  -23.2259 H   0  0  0  0  0  0  0  0  0  0  0  0
   -3.0084   21.4092  -22.2102 C   0  0  0  0  0  0  0  0  0  0  0  0
   -0.8588   22.2480  -25.8012 C   0  0  0  0  0  0  0  0  0  0  0  0
   -2.2246   22.1972  -25.7791 C   0  0  0  0  0  0  0  0  0  0  0  0
   -2.9636   21.9296  -24.6319 C   0  0  0  0  0  0  0  0  0  0  0  0
   -2.2886   21.7054  -23.4654 C   0  0  0  0  0  0  0  0  0  0  0  0
   -0.9177   21.7501  -23.4573 C   0  0  0  0  0  0  0  0  0  0  0  0
   -0.1813   22.0175  -24.6034 C   0  0  0  0  0  0  0  0  0  0  0  0
    1.1657   22.4235  -27.1374 N   0  0  0  0  0  0  0  0  0  0  0  0
   -0.1033   22.5293  -27.0131 C   0  0  0  0  0  0  0  0  0  0  0  0
   -0.8008   22.9646  -28.1937 N   0  0  0  0  0  0  0  0  0  0  0  0
    1.7343   22.1166  -26.3338 H   0  0  0  0  0  0  0  0  0  0  0  0
   -1.4872   22.3400  -28.6670 H   0  0  0  0  0  0  0  0  0  0  0  0
   -0.6047   23.9188  -28.5657 H   0  0  0  0  0  0  0  0  0  0  0  0
   -7.0812   23.6943  -26.3409 C   0  0  0  0  0  0  0  0  0  0  0  0
   -6.0644   24.1748  -27.2738 C   0  0  0  0  0  0  0  0  0  0  0  0
   -6.0572   25.4517  -27.7998 C   0  0  0  0  0  0  0  0  0  0  0  0
   -5.0765   25.8700  -28.6851 C   0  0  0  0  0  0  0  0  0  0  0  0
   -4.0719   25.0078  -29.0659 C   0  0  0  0  0  0  0  0  0  0  0  0
   -4.0611   23.7423  -28.5578 C   0  0  0  0  0  0  0  0  0  0  0  0
   -5.0500   23.3289  -27.6685 C   0  0  0  0  0  0  0  0  0  0  0  0
 24 25  2  0  0  0
 25 26  1  0  0  0
 25 18  1  0  0  0
 18 19  2  0  0  0
 19 20  1  0  0  0
 20 21  2  0  0  0
 21 17  1  0  0  0
 17 13  1  0  0  0
 13 14  1  0  0  0
 14 15  2  0  0  0
 14  1  1  0  0  0
  1  2  1  0  0  0
  2  3  1  0  0  0
  3  4  1  0  0  0
  4  5  1  0  0  0
  5  6  1  0  0  0
  6  7  1  0  0  0
  7  8  1  0  0  0
  7 30  1  0  0  0
 30 31  1  0  0  0
 31 32  2  0  0  0
 32 33  1  0  0  0
 33 34  2  0  0  0
 34 35  1  0  0  0
 35 36  2  0  0  0
  7  9  1  0  0  0
  9 10  2  0  0  0
  9 11  1  0  0  0
 21 22  1  0  0  0
 22 23  2  0  0  0
 23 18  1  0  0  0
 11  1  1  0  0  0
 11  4  1  0  0  0
 36 31  1  0  0  0
 24 27  1  0  0  0
 26 28  1  0  0  0
 26 29  1  0  0  0
 13 16  1  0  0  0
  8 12  1  0  0  0
M  END
> <minimizedAffinity>
-8.87385

> <CNNscore>
0.2637036741

> <CNNaffinity>
6.3127794266

> <CNN_VS>
1.6647031307

> <CNNaffinity_variance>
0.0504505336

$$$$
[H]N=C(c1c([H])c([H])c(C([H])([H])N([H])C(=O)C2([H])N3C(=O)[C@](O[H])(C([H])([H])c4c([H])c([H])c([H])c([H])c4[H])C([H])([H])C([H])([H])[C@]3([H])C([H])([H])C2([H])[H])c([H])c1[H])N([H])[H]


 36 39  0  0  0  0  0  0  0  0999 V2000
   -7.2544   23.5022  -22.1762 C   0  0  0  0  0  0  0  0  0  0  0  0
   -6.9955   24.5974  -21.1635 C   0  0  0  0  0  0  0  0  0  0  0  0
   -5.7334   24.0774  -20.4923 C   0  0  0  0  0  0  0  0  0  0  0  0
   -4.9194   23.6508  -21.6924 C   0  0  0  0  0  0  0  0  0  0  0  0
   -3.9264   22.5723  -21.3495 C   0  0  0  0  0  0  0  0  0  0  0  0
   -3.2780   22.0040  -22.5686 C   0  0  0  0  0  0  0  0  0  0  0  0
   -3.9249   22.4085  -23.8636 C   0  0  0  0  0  0  0  0  0  0  0  0
   -3.5289   23.7012  -24.2465 O   0  0  0  0  0  0  0  0  0  0  0  0
   -5.3997   22.3347  -23.6919 C   0  0  0  0  0  0  0  0  0  0  0  0
   -6.1704   21.6662  -24.4054 O   0  0  0  0  0  0  0  0  0  0  0  0
   -5.9348   23.1089  -22.6087 N   0  0  0  0  0  0  0  0  0  0  0  0
   -2.5760   23.7773  -23.9419 H   0  0  0  0  0  0  0  0  0  0  0  0
   -8.7083   22.7684  -20.2922 N   0  0  0  0  0  0  0  0  0  0  0  0
   -7.9341   22.3908  -21.4193 C   0  0  0  0  0  0  0  0  0  0  0  0
   -7.8307   21.2030  -21.7528 O   0  0  0  0  0  0  0  0  0  0  0  0
   -8.8050   23.7811  -19.9937 H   0  0  0  0  0  0  0  0  0  0  0  0
   -9.4255   21.8172  -19.4610 C   0  0  0  0  0  0  0  0  0  0  0  0
   -6.8033   20.2943  -16.4570 C   0  0  0  0  0  0  0  0  0  0  0  0
   -7.1785   21.6084  -16.4811 C   0  0  0  0  0  0  0  0  0  0  0  0
   -8.0315   22.1449  -17.4395 C   0  0  0  0  0  0  0  0  0  0  0  0
   -8.5199   21.3144  -18.4081 C   0  0  0  0  0  0  0  0  0  0  0  0
   -8.1607   19.9907  -18.4090 C   0  0  0  0  0  0  0  0  0  0  0  0
   -7.3091   19.4565  -17.4515 C   0  0  0  0  0  0  0  0  0  0  0  0
   -4.6320   19.7188  -15.5246 N   0  0  0  0  0  0  0  0  0  0  0  0
   -5.9086   19.7518  -15.4452 C   0  0  0  0  0  0  0  0  0  0  0  0
   -6.4623   19.1969  -14.2388 N   0  0  0  0  0  0  0  0  0  0  0  0
   -4.1618   20.0982  -16.3602 H   0  0  0  0  0  0  0  0  0  0  0  0
   -6.9896   19.7970  -13.5702 H   0  0  0  0  0  0  0  0  0  0  0  0
   -6.3246   18.1810  -14.0479 H   0  0  0  0  0  0  0  0  0  0  0  0
   -3.4569   21.4832  -24.9620 C   0  0  0  0  0  0  0  0  0  0  0  0
   -2.1832   21.8829  -25.5561 C   0  0  0  0  0  0  0  0  0  0  0  0
   -0.9777   21.8195  -24.8853 C   0  0  0  0  0  0  0  0  0  0  0  0
    0.2103   22.2108  -25.4821 C   0  0  0  0  0  0  0  0  0  0  0  0
    0.2147   22.6791  -26.7776 C   0  0  0  0  0  0  0  0  0  0  0  0
   -0.9655   22.7496  -27.4574 C   0  0  0  0  0  0  0  0  0  0  0  0
   -2.1554   22.3546  -26.8511 C   0  0  0  0  0  0  0  0  0  0  0  0
 24 25  2  0  0  0
 25 26  1  0  0  0
 25 18  1  0  0  0
 18 19  2  0  0  0
 19 20  1  0  0  0
 20 21  2  0  0  0
 21 17  1  0  0  0
 17 13  1  0  0  0
 13 14  1  0  0  0
 14 15  2  0  0  0
 14  1  1  0  0  0
  1  2  1  0  0  0
  2  3  1  0  0  0
  3  4  1  0  0  0
  4  5  1  0  0  0
  5  6  1  0  0  0
  6  7  1  0  0  0
  7  8  1  0  0  0
  7 30  1  0  0  0
 30 31  1  0  0  0
 31 32  2  0  0  0
 32 33  1  0  0  0
 33 34  2  0  0  0
 34 35  1  0  0  0
 35 36  2  0  0  0
  7  9  1  0  0  0
  9 10  2  0  0  0
  9 11  1  0  0  0
 21 22  1  0  0  0
 22 23  2  0  0  0
 23 18  1  0  0  0
 11  1  1  0  0  0
 11  4  1  0  0  0
 36 31  1  0  0  0
 24 27  1  0  0  0
 26 28  1  0  0  0
 26 29  1  0  0  0
 13 16  1  0  0  0
  8 12  1  0  0  0
M  END
> <minimizedAffinity>
-7.43451

> <CNNscore>
0.2543351352

> <CNNaffinity>
5.2056608200

> <CNN_VS>
1.3239824772

> <CNNaffinity_variance>
0.1582089365

$$$$
[H]N=C(c1c([H])c([H])c(C([H])([H])N([H])C(=O)C2([H])N3C(=O)[C@](O[H])(C([H])([H])c4c([H])c([H])c([H])c([H])c4[H])C([H])([H])C([H])([H])[C@]3([H])C([H])([H])C2([H])[H])c([H])c1[H])N([H])[H]


 36 39  0  0  0  0  0  0  0  0999 V2000
   -7.1775   23.3448  -22.8771 C   0  0  0  0  0  0  0  0  0  0  0  0
   -7.9460   24.5322  -22.3372 C   0  0  0  0  0  0  0  0  0  0  0  0
   -6.9982   25.6706  -22.6827 C   0  0  0  0  0  0  0  0  0  0  0  0
   -6.6260   25.3189  -24.1048 C   0  0  0  0  0  0  0  0  0  0  0  0
   -5.2839   25.8789  -24.4945 C   0  0  0  0  0  0  0  0  0  0  0  0
   -4.8235   25.3546  -25.8147 C   0  0  0  0  0  0  0  0  0  0  0  0
   -5.6293   24.2002  -26.3413 C   0  0  0  0  0  0  0  0  0  0  0  0
   -6.8276   24.6430  -26.9265 O   0  0  0  0  0  0  0  0  0  0  0  0
   -5.9016   23.2687  -25.2152 C   0  0  0  0  0  0  0  0  0  0  0  0
   -5.6079   22.0590  -25.2005 O   0  0  0  0  0  0  0  0  0  0  0  0
   -6.5549   23.8497  -24.0773 N   0  0  0  0  0  0  0  0  0  0  0  0
   -6.5958   25.5229  -27.3491 H   0  0  0  0  0  0  0  0  0  0  0  0
   -4.9585   22.3827  -22.2842 N   0  0  0  0  0  0  0  0  0  0  0  0
   -6.1486   23.0065  -21.8297 C   0  0  0  0  0  0  0  0  0  0  0  0
   -6.3202   23.2546  -20.6290 O   0  0  0  0  0  0  0  0  0  0  0  0
   -4.7980   22.1629  -23.3088 H   0  0  0  0  0  0  0  0  0  0  0  0
   -3.8719   21.9964  -21.4009 C   0  0  0  0  0  0  0  0  0  0  0  0
   -0.2927   21.7793  -23.7164 C   0  0  0  0  0  0  0  0  0  0  0  0
   -0.3228   21.3911  -22.4062 C   0  0  0  0  0  0  0  0  0  0  0  0
   -1.4667   21.4434  -21.6171 C   0  0  0  0  0  0  0  0  0  0  0  0
   -2.6211   21.9076  -22.1814 C   0  0  0  0  0  0  0  0  0  0  0  0
   -2.6208   22.3041  -23.4944 C   0  0  0  0  0  0  0  0  0  0  0  0
   -1.4781   22.2513  -24.2810 C   0  0  0  0  0  0  0  0  0  0  0  0
    2.0793   21.4014  -24.0985 N   0  0  0  0  0  0  0  0  0  0  0  0
    0.9155   21.7174  -24.5258 C   0  0  0  0  0  0  0  0  0  0  0  0
    0.8411   22.0289  -25.9285 N   0  0  0  0  0  0  0  0  0  0  0  0
    2.2118   21.1650  -23.1036 H   0  0  0  0  0  0  0  0  0  0  0  0
    0.2774   21.4384  -26.5756 H   0  0  0  0  0  0  0  0  0  0  0  0
    1.3636   22.8584  -26.2837 H   0  0  0  0  0  0  0  0  0  0  0  0
   -4.8532   23.5143  -27.4408 C   0  0  0  0  0  0  0  0  0  0  0  0
   -4.9152   24.2155  -28.7212 C   0  0  0  0  0  0  0  0  0  0  0  0
   -4.2498   25.3991  -28.9734 C   0  0  0  0  0  0  0  0  0  0  0  0
   -4.3356   26.0365  -30.2010 C   0  0  0  0  0  0  0  0  0  0  0  0
   -5.0985   25.4951  -31.2121 C   0  0  0  0  0  0  0  0  0  0  0  0
   -5.7637   24.3267  -30.9833 C   0  0  0  0  0  0  0  0  0  0  0  0
   -5.6727   23.6918  -29.7471 C   0  0  0  0  0  0  0  0  0  0  0  0
 24 25  2  0  0  0
 25 26  1  0  0  0
 25 18  1  0  0  0
 18 19  2  0  0  0
 19 20  1  0  0  0
 20 21  2  0  0  0
 21 17  1  0  0  0
 17 13  1  0  0  0
 13 14  1  0  0  0
 14 15  2  0  0  0
 14  1  1  0  0  0
  1  2  1  0  0  0
  2  3  1  0  0  0
  3  4  1  0  0  0
  4  5  1  0  0  0
  5  6  1  0  0  0
  6  7  1  0  0  0
  7  8  1  0  0  0
  7 30  1  0  0  0
 30 31  1  0  0  0
 31 32  2  0  0  0
 32 33  1  0  0  0
 33 34  2  0  0  0
 34 35  1  0  0  0
 35 36  2  0  0  0
  7  9  1  0  0  0
  9 10  2  0  0  0
  9 11  1  0  0  0
 21 22  1  0  0  0
 22 23  2  0  0  0
 23 18  1  0  0  0
 11  1  1  0  0  0
 11  4  1  0  0  0
 36 31  1  0  0  0
 24 27  1  0  0  0
 26 28  1  0  0  0
 26 29  1  0  0  0
 13 16  1  0  0  0
  8 12  1  0  0  0
M  END
> <minimizedAffinity>
-9.61923

> <CNNscore>
0.2403587401

> <CNNaffinity>
6.5860533714

> <CNN_VS>
1.5830154419

> <CNNaffinity_variance>
0.0605669916

$$$$
[H]N=C(c1c([H])c([H])c(C([H])([H])N([H])C(=O)C2([H])N3C(=O)[C@](O[H])(C([H])([H])c4c([H])c([H])c([H])c([H])c4[H])C([H])([H])C([H])([H])[C@]3([H])C([H])([H])C2([H])[H])c([H])c1[H])N([H])[H]


 36 39  0  0  0  0  0  0  0  0999 V2000
   -5.6525   24.0253  -21.5475 C   0  0  0  0  0  0  0  0  0  0  0  0
   -6.7584   23.1030  -21.0800 C   0  0  0  0  0  0  0  0  0  0  0  0
   -6.8365   22.1312  -22.2476 C   0  0  0  0  0  0  0  0  0  0  0  0
   -5.3717   21.8477  -22.4897 C   0  0  0  0  0  0  0  0  0  0  0  0
   -5.1026   21.4301  -23.9110 C   0  0  0  0  0  0  0  0  0  0  0  0
   -3.6400   21.3597  -24.2035 C   0  0  0  0  0  0  0  0  0  0  0  0
   -2.7635   21.9684  -23.1450 C   0  0  0  0  0  0  0  0  0  0  0  0
   -2.5962   21.0923  -22.0592 O   0  0  0  0  0  0  0  0  0  0  0  0
   -3.3821   23.2464  -22.7047 C   0  0  0  0  0  0  0  0  0  0  0  0
   -2.8191   24.3566  -22.7210 O   0  0  0  0  0  0  0  0  0  0  0  0
   -4.7333   23.1478  -22.2316 N   0  0  0  0  0  0  0  0  0  0  0  0
   -2.5833   20.1767  -22.4692 H   0  0  0  0  0  0  0  0  0  0  0  0
   -5.5564   25.3292  -23.6670 N   0  0  0  0  0  0  0  0  0  0  0  0
   -6.2977   24.9931  -22.5052 C   0  0  0  0  0  0  0  0  0  0  0  0
   -7.4180   25.4788  -22.3009 O   0  0  0  0  0  0  0  0  0  0  0  0
   -4.5956   24.9225  -23.8547 H   0  0  0  0  0  0  0  0  0  0  0  0
   -6.0400   26.2448  -24.6857 C   0  0  0  0  0  0  0  0  0  0  0  0
   -5.6551   24.3621  -28.4971 C   0  0  0  0  0  0  0  0  0  0  0  0
   -5.2281   25.6430  -28.2845 C   0  0  0  0  0  0  0  0  0  0  0  0
   -5.3325   26.2928  -27.0595 C   0  0  0  0  0  0  0  0  0  0  0  0
   -5.8917   25.6148  -26.0133 C   0  0  0  0  0  0  0  0  0  0  0  0
   -6.3291   24.3279  -26.1972 C   0  0  0  0  0  0  0  0  0  0  0  0
   -6.2242   23.6805  -27.4208 C   0  0  0  0  0  0  0  0  0  0  0  0
   -5.1070   22.5090  -29.9739 N   0  0  0  0  0  0  0  0  0  0  0  0
   -5.5374   23.6994  -29.7877 C   0  0  0  0  0  0  0  0  0  0  0  0
   -5.9267   24.4041  -30.9802 N   0  0  0  0  0  0  0  0  0  0  0  0
   -4.8091   21.9411  -29.1665 H   0  0  0  0  0  0  0  0  0  0  0  0
   -6.9159   24.6961  -31.1267 H   0  0  0  0  0  0  0  0  0  0  0  0
   -5.1975   24.6164  -31.6947 H   0  0  0  0  0  0  0  0  0  0  0  0
   -1.3839   22.1985  -23.7155 C   0  0  0  0  0  0  0  0  0  0  0  0
   -1.3827   22.4360  -25.1572 C   0  0  0  0  0  0  0  0  0  0  0  0
   -2.4644   22.9511  -25.8442 C   0  0  0  0  0  0  0  0  0  0  0  0
   -2.4261   23.1597  -27.2137 C   0  0  0  0  0  0  0  0  0  0  0  0
   -1.2908   22.8528  -27.9309 C   0  0  0  0  0  0  0  0  0  0  0  0
   -0.2116   22.3429  -27.2712 C   0  0  0  0  0  0  0  0  0  0  0  0
   -0.2574   22.1360  -25.8947 C   0  0  0  0  0  0  0  0  0  0  0  0
 24 25  2  0  0  0
 25 26  1  0  0  0
 25 18  1  0  0  0
 18 19  2  0  0  0
 19 20  1  0  0  0
 20 21  2  0  0  0
 21 17  1  0  0  0
 17 13  1  0  0  0
 13 14  1  0  0  0
 14 15  2  0  0  0
 14  1  1  0  0  0
  1  2  1  0  0  0
  2  3  1  0  0  0
  3  4  1  0  0  0
  4  5  1  0  0  0
  5  6  1  0  0  0
  6  7  1  0  0  0
  7  8  1  0  0  0
  7 30  1  0  0  0
 30 31  1  0  0  0
 31 32  2  0  0  0
 32 33  1  0  0  0
 33 34  2  0  0  0
 34 35  1  0  0  0
 35 36  2  0  0  0
  7  9  1  0  0  0
  9 10  2  0  0  0
  9 11  1  0  0  0
 21 22  1  0  0  0
 22 23  2  0  0  0
 23 18  1  0  0  0
 11  1  1  0  0  0
 11  4  1  0  0  0
 36 31  1  0  0  0
 24 27  1  0  0  0
 26 28  1  0  0  0
 26 29  1  0  0  0
 13 16  1  0  0  0
  8 12  1  0  0  0
M  END
> <minimizedAffinity>
-9.88133

> <CNNscore>
0.2122332603

> <CNNaffinity>
6.3331489563

> <CNN_VS>
1.3441048861

> <CNNaffinity_variance>
0.1087709889

$$$$
[H]N=C(c1c([H])c([H])c(C([H])([H])N([H])C(=O)C2([H])N3C(=O)[C@](O[H])(C([H])([H])c4c([H])c([H])c([H])c([H])c4[H])C([H])([H])C([H])([H])[C@]3([H])C([H])([H])C2([H])[H])c([H])c1[H])N([H])[H]


 36 39  0  0  0  0  0  0  0  0999 V2000
   -7.3939   23.5457  -22.6216 C   0  0  0  0  0  0  0  0  0  0  0  0
   -7.3633   24.9368  -22.0247 C   0  0  0  0  0  0  0  0  0  0  0  0
   -5.9852   24.9441  -21.3810 C   0  0  0  0  0  0  0  0  0  0  0  0
   -5.1451   24.3406  -22.4831 C   0  0  0  0  0  0  0  0  0  0  0  0
   -3.9073   23.6697  -21.9496 C   0  0  0  0  0  0  0  0  0  0  0  0
   -3.1945   22.8935  -23.0075 C   0  0  0  0  0  0  0  0  0  0  0  0
   -3.9753   22.7116  -24.2788 C   0  0  0  0  0  0  0  0  0  0  0  0
   -3.9199   23.8661  -25.0779 O   0  0  0  0  0  0  0  0  0  0  0  0
   -5.3799   22.3813  -23.9209 C   0  0  0  0  0  0  0  0  0  0  0  0
   -5.9967   21.3699  -24.3035 O   0  0  0  0  0  0  0  0  0  0  0  0
   -6.0385   23.3280  -23.0670 N   0  0  0  0  0  0  0  0  0  0  0  0
   -3.0012   24.2391  -24.9247 H   0  0  0  0  0  0  0  0  0  0  0  0
   -8.3721   23.2041  -20.3571 N   0  0  0  0  0  0  0  0  0  0  0  0
   -7.7520   22.6175  -21.4901 C   0  0  0  0  0  0  0  0  0  0  0  0
   -7.5221   21.4018  -21.5333 O   0  0  0  0  0  0  0  0  0  0  0  0
   -8.5741   24.2435  -20.3052 H   0  0  0  0  0  0  0  0  0  0  0  0
   -8.7791   22.4453  -19.1872 C   0  0  0  0  0  0  0  0  0  0  0  0
   -5.7336   22.8215  -16.2203 C   0  0  0  0  0  0  0  0  0  0  0  0
   -6.5337   21.7154  -16.2893 C   0  0  0  0  0  0  0  0  0  0  0  0
   -7.5352   21.5515  -17.2401 C   0  0  0  0  0  0  0  0  0  0  0  0
   -7.7297   22.5491  -18.1531 C   0  0  0  0  0  0  0  0  0  0  0  0
   -6.9416   23.6709  -18.1081 C   0  0  0  0  0  0  0  0  0  0  0  0
   -5.9421   23.8330  -17.1584 C   0  0  0  0  0  0  0  0  0  0  0  0
   -3.5659   22.3642  -15.2166 N   0  0  0  0  0  0  0  0  0  0  0  0
   -4.6905   22.9743  -15.2166 C   0  0  0  0  0  0  0  0  0  0  0  0
   -4.8985   23.8767  -14.1155 N   0  0  0  0  0  0  0  0  0  0  0  0
   -3.3443   21.7007  -15.9742 H   0  0  0  0  0  0  0  0  0  0  0  0
   -5.0068   24.8998  -14.2791 H   0  0  0  0  0  0  0  0  0  0  0  0
   -4.9384   23.4848  -13.1500 H   0  0  0  0  0  0  0  0  0  0  0  0
   -3.3460   21.6062  -25.0935 C   0  0  0  0  0  0  0  0  0  0  0  0
   -2.1011   22.0024  -25.7481 C   0  0  0  0  0  0  0  0  0  0  0  0
   -0.8841   22.0585  -25.0977 C   0  0  0  0  0  0  0  0  0  0  0  0
    0.2755   22.4422  -25.7524 C   0  0  0  0  0  0  0  0  0  0  0  0
    0.2389   22.7815  -27.0870 C   0  0  0  0  0  0  0  0  0  0  0  0
   -0.9532   22.7327  -27.7476 C   0  0  0  0  0  0  0  0  0  0  0  0
   -2.1145   22.3460  -27.0830 C   0  0  0  0  0  0  0  0  0  0  0  0
 24 25  2  0  0  0
 25 26  1  0  0  0
 25 18  1  0  0  0
 18 19  2  0  0  0
 19 20  1  0  0  0
 20 21  2  0  0  0
 21 17  1  0  0  0
 17 13  1  0  0  0
 13 14  1  0  0  0
 14 15  2  0  0  0
 14  1  1  0  0  0
  1  2  1  0  0  0
  2  3  1  0  0  0
  3  4  1  0  0  0
  4  5  1  0  0  0
  5  6  1  0  0  0
  6  7  1  0  0  0
  7  8  1  0  0  0
  7 30  1  0  0  0
 30 31  1  0  0  0
 31 32  2  0  0  0
 32 33  1  0  0  0
 33 34  2  0  0  0
 34 35  1  0  0  0
 35 36  2  0  0  0
  7  9  1  0  0  0
  9 10  2  0  0  0
  9 11  1  0  0  0
 21 22  1  0  0  0
 22 23  2  0  0  0
 23 18  1  0  0  0
 11  1  1  0  0  0
 11  4  1  0  0  0
 36 31  1  0  0  0
 24 27  1  0  0  0
 26 28  1  0  0  0
 26 29  1  0  0  0
 13 16  1  0  0  0
  8 12  1  0  0  0
M  END
> <minimizedAffinity>
-8.09781

> <CNNscore>
0.2074621469

> <CNNaffinity>
5.1452383995

> <CNN_VS>
1.0674421787

> <CNNaffinity_variance>
0.2355922908

$$$$
[H]N=C(c1c([H])c([H])c(C([H])([H])N([H])C(=O)C2([H])N3C(=O)[C@](O[H])(C([H])([H])c4c([H])c([H])c([H])c([H])c4[H])C([H])([H])C([H])([H])[C@]3([H])C([H])([H])C2([H])[H])c([H])c1[H])N([H])[H]


 36 39  0  0  0  0  0  0  0  0999 V2000
   -8.2264   23.8072  -20.8553 C   0  0  0  0  0  0  0  0  0  0  0  0
   -8.3786   25.3044  -20.6901 C   0  0  0  0  0  0  0  0  0  0  0  0
   -6.9359   25.7601  -20.8467 C   0  0  0  0  0  0  0  0  0  0  0  0
   -6.5044   24.9538  -22.0503 C   0  0  0  0  0  0  0  0  0  0  0  0
   -5.0169   24.7224  -22.0737 C   0  0  0  0  0  0  0  0  0  0  0  0
   -4.6209   23.7517  -23.1371 C   0  0  0  0  0  0  0  0  0  0  0  0
   -5.7695   23.0123  -23.7640 C   0  0  0  0  0  0  0  0  0  0  0  0
   -6.4221   23.8068  -24.7218 O   0  0  0  0  0  0  0  0  0  0  0  0
   -6.7072   22.6050  -22.6848 C   0  0  0  0  0  0  0  0  0  0  0  0
   -7.0797   21.4379  -22.4635 O   0  0  0  0  0  0  0  0  0  0  0  0
   -7.1972   23.6704  -21.8578 N   0  0  0  0  0  0  0  0  0  0  0  0
   -5.6925   24.3536  -25.1403 H   0  0  0  0  0  0  0  0  0  0  0  0
   -6.7668   22.2755  -19.5418 N   0  0  0  0  0  0  0  0  0  0  0  0
   -7.7595   23.2886  -19.5199 C   0  0  0  0  0  0  0  0  0  0  0  0
   -8.2110   23.7160  -18.4493 O   0  0  0  0  0  0  0  0  0  0  0  0
   -6.3718   21.8988  -20.4506 H   0  0  0  0  0  0  0  0  0  0  0  0
   -6.2125   21.6745  -18.3411 C   0  0  0  0  0  0  0  0  0  0  0  0
   -8.6598   18.3730  -17.1881 C   0  0  0  0  0  0  0  0  0  0  0  0
   -8.6164   19.5239  -16.4521 C   0  0  0  0  0  0  0  0  0  0  0  0
   -7.8354   20.6229  -16.7926 C   0  0  0  0  0  0  0  0  0  0  0  0
   -7.0708   20.5479  -17.9225 C   0  0  0  0  0  0  0  0  0  0  0  0
   -7.0943   19.4053  -18.6809 C   0  0  0  0  0  0  0  0  0  0  0  0
   -7.8747   18.3090  -18.3397 C   0  0  0  0  0  0  0  0  0  0  0  0
   -9.9316   16.9944  -15.6397 N   0  0  0  0  0  0  0  0  0  0  0  0
   -9.4839   17.2329  -16.8144 C   0  0  0  0  0  0  0  0  0  0  0  0
   -9.8503   16.2688  -17.8175 N   0  0  0  0  0  0  0  0  0  0  0  0
   -9.7108   17.6411  -14.8675 H   0  0  0  0  0  0  0  0  0  0  0  0
  -10.4487   16.5424  -18.6252 H   0  0  0  0  0  0  0  0  0  0  0  0
   -9.5042   15.2901  -17.7189 H   0  0  0  0  0  0  0  0  0  0  0  0
   -5.2383   21.8095  -24.5075 C   0  0  0  0  0  0  0  0  0  0  0  0
   -4.0876   22.1114  -25.3559 C   0  0  0  0  0  0  0  0  0  0  0  0
   -2.7984   21.7160  -25.0581 C   0  0  0  0  0  0  0  0  0  0  0  0
   -1.7314   22.0243  -25.8870 C   0  0  0  0  0  0  0  0  0  0  0  0
   -1.9367   22.7433  -27.0440 C   0  0  0  0  0  0  0  0  0  0  0  0
   -3.2026   23.1433  -27.3562 C   0  0  0  0  0  0  0  0  0  0  0  0
   -4.2700   22.8297  -26.5183 C   0  0  0  0  0  0  0  0  0  0  0  0
 24 25  2  0  0  0
 25 26  1  0  0  0
 25 18  1  0  0  0
 18 19  2  0  0  0
 19 20  1  0  0  0
 20 21  2  0  0  0
 21 17  1  0  0  0
 17 13  1  0  0  0
 13 14  1  0  0  0
 14 15  2  0  0  0
 14  1  1  0  0  0
  1  2  1  0  0  0
  2  3  1  0  0  0
  3  4  1  0  0  0
  4  5  1  0  0  0
  5  6  1  0  0  0
  6  7  1  0  0  0
  7  8  1  0  0  0
  7 30  1  0  0  0
 30 31  1  0  0  0
 31 32  2  0  0  0
 32 33  1  0  0  0
 33 34  2  0  0  0
 34 35  1  0  0  0
 35 36  2  0  0  0
  7  9  1  0  0  0
  9 10  2  0  0  0
  9 11  1  0  0  0
 21 22  1  0  0  0
 22 23  2  0  0  0
 23 18  1  0  0  0
 11  1  1  0  0  0
 11  4  1  0  0  0
 36 31  1  0  0  0
 24 27  1  0  0  0
 26 28  1  0  0  0
 26 29  1  0  0  0
 13 16  1  0  0  0
  8 12  1  0  0  0
M  END
> <minimizedAffinity>
-7.43103

> <CNNscore>
0.1946818680

> <CNNaffinity>
5.2341384888

> <CNN_VS>
1.0189918280

> <CNNaffinity_variance>
0.0810766295

$$$$
[H]N=C(c1c([H])c([H])c(C([H])([H])N([H])C(=O)C2([H])N3C(=O)[C@](O[H])(C([H])([H])c4c([H])c([H])c([H])c([H])c4[H])C([H])([H])C([H])([H])[C@]3([H])C([H])([H])C2([H])[H])c([H])c1[H])N([H])[H]


 36 39  0  0  0  0  0  0  0  0999 V2000
   -2.1452   23.1599  -24.1453 C   0  0  0  0  0  0  0  0  0  0  0  0
   -2.3923   22.7684  -25.5867 C   0  0  0  0  0  0  0  0  0  0  0  0
   -3.4556   21.6942  -25.4157 C   0  0  0  0  0  0  0  0  0  0  0  0
   -4.3778   22.3532  -24.4157 C   0  0  0  0  0  0  0  0  0  0  0  0
   -5.1522   21.3451  -23.6089 C   0  0  0  0  0  0  0  0  0  0  0  0
   -5.8960   21.9852  -22.4834 C   0  0  0  0  0  0  0  0  0  0  0  0
   -5.5144   23.4147  -22.2185 C   0  0  0  0  0  0  0  0  0  0  0  0
   -6.1349   24.2832  -23.1324 O   0  0  0  0  0  0  0  0  0  0  0  0
   -4.0344   23.5261  -22.3021 C   0  0  0  0  0  0  0  0  0  0  0  0
   -3.2983   23.9685  -21.4009 O   0  0  0  0  0  0  0  0  0  0  0  0
   -3.4499   23.0783  -23.5338 N   0  0  0  0  0  0  0  0  0  0  0  0
   -7.0318   23.8698  -23.3094 H   0  0  0  0  0  0  0  0  0  0  0  0
   -1.4106   21.7476  -22.2303 N   0  0  0  0  0  0  0  0  0  0  0  0
   -1.2145   22.1153  -23.5862 C   0  0  0  0  0  0  0  0  0  0  0  0
   -0.3188   21.5956  -24.2647 O   0  0  0  0  0  0  0  0  0  0  0  0
   -2.1723   22.1848  -21.6365 H   0  0  0  0  0  0  0  0  0  0  0  0
   -0.5990   20.7558  -21.5464 C   0  0  0  0  0  0  0  0  0  0  0  0
    1.8646   22.7577  -18.6928 C   0  0  0  0  0  0  0  0  0  0  0  0
    2.3543   21.7576  -19.4855 C   0  0  0  0  0  0  0  0  0  0  0  0
    1.5876   21.0814  -20.4283 C   0  0  0  0  0  0  0  0  0  0  0  0
    0.2756   21.4354  -20.5693 C   0  0  0  0  0  0  0  0  0  0  0  0
   -0.2433   22.4358  -19.7874 C   0  0  0  0  0  0  0  0  0  0  0  0
    0.5233   23.1099  -18.8467 C   0  0  0  0  0  0  0  0  0  0  0  0
    3.0350   22.9856  -16.5731 N   0  0  0  0  0  0  0  0  0  0  0  0
    2.6836   23.4533  -17.7110 C   0  0  0  0  0  0  0  0  0  0  0  0
    3.1601   24.7791  -18.0026 N   0  0  0  0  0  0  0  0  0  0  0  0
    2.7317   22.0408  -16.2930 H   0  0  0  0  0  0  0  0  0  0  0  0
    3.8180   24.9463  -18.7928 H   0  0  0  0  0  0  0  0  0  0  0  0
    2.8329   25.5693  -17.4061 H   0  0  0  0  0  0  0  0  0  0  0  0
   -6.0151   23.8163  -20.8511 C   0  0  0  0  0  0  0  0  0  0  0  0
   -7.3125   24.4878  -20.8807 C   0  0  0  0  0  0  0  0  0  0  0  0
   -8.4951   23.8446  -21.1884 C   0  0  0  0  0  0  0  0  0  0  0  0
   -9.7068   24.5169  -21.2090 C   0  0  0  0  0  0  0  0  0  0  0  0
   -9.7588   25.8624  -20.9187 C   0  0  0  0  0  0  0  0  0  0  0  0
   -8.6019   26.5163  -20.6122 C   0  0  0  0  0  0  0  0  0  0  0  0
   -7.3879   25.8340  -20.5935 C   0  0  0  0  0  0  0  0  0  0  0  0
 24 25  2  0  0  0
 25 26  1  0  0  0
 25 18  1  0  0  0
 18 19  2  0  0  0
 19 20  1  0  0  0
 20 21  2  0  0  0
 21 17  1  0  0  0
 17 13  1  0  0  0
 13 14  1  0  0  0
 14 15  2  0  0  0
 14  1  1  0  0  0
  1  2  1  0  0  0
  2  3  1  0  0  0
  3  4  1  0  0  0
  4  5  1  0  0  0
  5  6  1  0  0  0
  6  7  1  0  0  0
  7  8  1  0  0  0
  7 30  1  0  0  0
 30 31  1  0  0  0
 31 32  2  0  0  0
 32 33  1  0  0  0
 33 34  2  0  0  0
 34 35  1  0  0  0
 35 36  2  0  0  0
  7  9  1  0  0  0
  9 10  2  0  0  0
  9 11  1  0  0  0
 21 22  1  0  0  0
 22 23  2  0  0  0
 23 18  1  0  0  0
 11  1  1  0  0  0
 11  4  1  0  0  0
 36 31  1  0  0  0
 24 27  1  0  0  0
 26 28  1  0  0  0
 26 29  1  0  0  0
 13 16  1  0  0  0
  8 12  1  0  0  0
M  END
> <minimizedAffinity>
-7.49549

> <CNNscore>
0.1896509826

> <CNNaffinity>
5.3188948631

> <CNN_VS>
1.0087336302

> <CNNaffinity_variance>
0.1829119027

$$$$
[H]N=C(c1c([H])c([H])c(C([H])([H])N([H])C(=O)C2([H])N3C(=O)[C@](O[H])(C([H])([H])c4c([H])c([H])c([H])c([H])c4[H])C([H])([H])C([H])([H])[C@]3([H])C([H])([H])C2([H])[H])c([H])c1[H])N([H])[H]


 36 39  0  0  0  0  0  0  0  0999 V2000
   -7.0778   23.5290  -22.9227 C   0  0  0  0  0  0  0  0  0  0  0  0
   -8.1484   24.5173  -22.5113 C   0  0  0  0  0  0  0  0  0  0  0  0
   -7.4999   25.8314  -22.9189 C   0  0  0  0  0  0  0  0  0  0  0  0
   -6.9743   25.4836  -24.2928 C   0  0  0  0  0  0  0  0  0  0  0  0
   -5.7969   26.3375  -24.6821 C   0  0  0  0  0  0  0  0  0  0  0  0
   -5.1483   25.8532  -25.9368 C   0  0  0  0  0  0  0  0  0  0  0  0
   -5.6080   24.4963  -26.3916 C   0  0  0  0  0  0  0  0  0  0  0  0
   -6.8454   24.5751  -27.0527 O   0  0  0  0  0  0  0  0  0  0  0  0
   -5.6983   23.6107  -25.2010 C   0  0  0  0  0  0  0  0  0  0  0  0
   -5.1111   22.5203  -25.0744 O   0  0  0  0  0  0  0  0  0  0  0  0
   -6.5377   24.0872  -24.1391 N   0  0  0  0  0  0  0  0  0  0  0  0
   -6.8196   25.4519  -27.5397 H   0  0  0  0  0  0  0  0  0  0  0  0
   -6.5266   23.2469  -20.5106 N   0  0  0  0  0  0  0  0  0  0  0  0
   -6.0556   23.5414  -21.8159 C   0  0  0  0  0  0  0  0  0  0  0  0
   -4.8612   23.7945  -22.0208 O   0  0  0  0  0  0  0  0  0  0  0  0
   -7.5465   23.0296  -20.3196 H   0  0  0  0  0  0  0  0  0  0  0  0
   -5.6677   23.2171  -19.3395 C   0  0  0  0  0  0  0  0  0  0  0  0
   -4.6850   19.1823  -18.3522 C   0  0  0  0  0  0  0  0  0  0  0  0
   -5.9673   19.5571  -18.6414 C   0  0  0  0  0  0  0  0  0  0  0  0
   -6.3303   20.8587  -18.9697 C   0  0  0  0  0  0  0  0  0  0  0  0
   -5.3534   21.8133  -19.0047 C   0  0  0  0  0  0  0  0  0  0  0  0
   -4.0575   21.4663  -18.7191 C   0  0  0  0  0  0  0  0  0  0  0  0
   -3.6967   20.1664  -18.3916 C   0  0  0  0  0  0  0  0  0  0  0  0
   -3.5241   17.0695  -18.6741 N   0  0  0  0  0  0  0  0  0  0  0  0
   -4.3253   17.8140  -18.0102 C   0  0  0  0  0  0  0  0  0  0  0  0
   -4.8939   17.2082  -16.8356 N   0  0  0  0  0  0  0  0  0  0  0  0
   -3.0770   17.4343  -19.5286 H   0  0  0  0  0  0  0  0  0  0  0  0
   -4.6870   17.5878  -15.8878 H   0  0  0  0  0  0  0  0  0  0  0  0
   -5.5177   16.3809  -16.9532 H   0  0  0  0  0  0  0  0  0  0  0  0
   -4.6256   23.9528  -27.4022 C   0  0  0  0  0  0  0  0  0  0  0  0
   -4.8789   24.4133  -28.7656 C   0  0  0  0  0  0  0  0  0  0  0  0
   -5.5965   23.6846  -29.6936 C   0  0  0  0  0  0  0  0  0  0  0  0
   -5.8134   24.1539  -30.9794 C   0  0  0  0  0  0  0  0  0  0  0  0
   -5.3100   25.3765  -31.3659 C   0  0  0  0  0  0  0  0  0  0  0  0
   -4.5984   26.1118  -30.4643 C   0  0  0  0  0  0  0  0  0  0  0  0
   -4.3845   25.6336  -29.1738 C   0  0  0  0  0  0  0  0  0  0  0  0
 24 25  2  0  0  0
 25 26  1  0  0  0
 25 18  1  0  0  0
 18 19  2  0  0  0
 19 20  1  0  0  0
 20 21  2  0  0  0
 21 17  1  0  0  0
 17 13  1  0  0  0
 13 14  1  0  0  0
 14 15  2  0  0  0
 14  1  1  0  0  0
  1  2  1  0  0  0
  2  3  1  0  0  0
  3  4  1  0  0  0
  4  5  1  0  0  0
  5  6  1  0  0  0
  6  7  1  0  0  0
  7  8  1  0  0  0
  7 30  1  0  0  0
 30 31  1  0  0  0
 31 32  2  0  0  0
 32 33  1  0  0  0
 33 34  2  0  0  0
 34 35  1  0  0  0
 35 36  2  0  0  0
  7  9  1  0  0  0
  9 10  2  0  0  0
  9 11  1  0  0  0
 21 22  1  0  0  0
 22 23  2  0  0  0
 23 18  1  0  0  0
 11  1  1  0  0  0
 11  4  1  0  0  0
 36 31  1  0  0  0
 24 27  1  0  0  0
 26 28  1  0  0  0
 26 29  1  0  0  0
 13 16  1  0  0  0
  8 12  1  0  0  0
M  END
> <minimizedAffinity>
-7.96685

> <CNNscore>
0.1865880191

> <CNNaffinity>
5.6395683289

> <CNN_VS>
1.0522758961

> <CNNaffinity_variance>
0.0411024466

$$$$
[H]N=C(c1c([H])c([H])c(C([H])([H])N([H])C(=O)C2([H])N3C(=O)[C@](O[H])(C([H])([H])c4c([H])c([H])c([H])c([H])c4[H])C([H])([H])C([H])([H])[C@]3([H])C([H])([H])C2([H])[H])c([H])c1[H])N([H])[H]


 36 39  0  0  0  0  0  0  0  0999 V2000
   -5.2330   22.0741  -22.5870 C   0  0  0  0  0  0  0  0  0  0  0  0
   -6.5661   22.4575  -21.9804 C   0  0  0  0  0  0  0  0  0  0  0  0
   -6.6021   23.9480  -22.2816 C   0  0  0  0  0  0  0  0  0  0  0  0
   -6.1493   23.9653  -23.7237 C   0  0  0  0  0  0  0  0  0  0  0  0
   -5.5119   25.2758  -24.1019 C   0  0  0  0  0  0  0  0  0  0  0  0
   -4.8758   25.2167  -25.4516 C   0  0  0  0  0  0  0  0  0  0  0  0
   -4.7575   23.8320  -26.0240 C   0  0  0  0  0  0  0  0  0  0  0  0
   -5.9783   23.4036  -26.5722 O   0  0  0  0  0  0  0  0  0  0  0  0
   -4.3118   22.9158  -24.9414 C   0  0  0  0  0  0  0  0  0  0  0  0
   -3.3015   22.1900  -24.9893 O   0  0  0  0  0  0  0  0  0  0  0  0
   -5.1385   22.8974  -23.7686 N   0  0  0  0  0  0  0  0  0  0  0  0
   -6.3923   24.2338  -26.9542 H   0  0  0  0  0  0  0  0  0  0  0  0
   -3.2192   21.4737  -21.2506 N   0  0  0  0  0  0  0  0  0  0  0  0
   -4.1897   22.4579  -21.5699 C   0  0  0  0  0  0  0  0  0  0  0  0
   -4.1686   23.5725  -21.0317 O   0  0  0  0  0  0  0  0  0  0  0  0
   -3.2253   20.5146  -21.7022 H   0  0  0  0  0  0  0  0  0  0  0  0
   -2.1486   21.6892  -20.2928 C   0  0  0  0  0  0  0  0  0  0  0  0
    1.5644   20.8080  -22.2050 C   0  0  0  0  0  0  0  0  0  0  0  0
    1.3606   20.5431  -20.8796 C   0  0  0  0  0  0  0  0  0  0  0  0
    0.1672   20.8122  -20.2185 C   0  0  0  0  0  0  0  0  0  0  0  0
   -0.8555   21.3710  -20.9316 C   0  0  0  0  0  0  0  0  0  0  0  0
   -0.6798   21.6477  -22.2635 C   0  0  0  0  0  0  0  0  0  0  0  0
    0.5122   21.3785  -22.9221 C   0  0  0  0  0  0  0  0  0  0  0  0
    3.4273   21.3044  -23.6877 N   0  0  0  0  0  0  0  0  0  0  0  0
    2.8218   20.5193  -22.8789 C   0  0  0  0  0  0  0  0  0  0  0  0
    3.4737   19.2583  -22.6451 N   0  0  0  0  0  0  0  0  0  0  0  0
    3.0211   22.2269  -23.9051 H   0  0  0  0  0  0  0  0  0  0  0  0
    3.8286   19.0103  -21.6975 H   0  0  0  0  0  0  0  0  0  0  0  0
    3.5835   18.5976  -23.4444 H   0  0  0  0  0  0  0  0  0  0  0  0
   -3.7678   23.8499  -27.1650 C   0  0  0  0  0  0  0  0  0  0  0  0
   -4.3726   24.1758  -28.4546 C   0  0  0  0  0  0  0  0  0  0  0  0
   -4.9701   23.2379  -29.2734 C   0  0  0  0  0  0  0  0  0  0  0  0
   -5.5309   23.5855  -30.4921 C   0  0  0  0  0  0  0  0  0  0  0  0
   -5.5039   24.8945  -30.9202 C   0  0  0  0  0  0  0  0  0  0  0  0
   -4.9184   25.8362  -30.1263 C   0  0  0  0  0  0  0  0  0  0  0  0
   -4.3569   25.4794  -28.9027 C   0  0  0  0  0  0  0  0  0  0  0  0
 24 25  2  0  0  0
 25 26  1  0  0  0
 25 18  1  0  0  0
 18 19  2  0  0  0
 19 20  1  0  0  0
 20 21  2  0  0  0
 21 17  1  0  0  0
 17 13  1  0  0  0
 13 14  1  0  0  0
 14 15  2  0  0  0
 14  1  1  0  0  0
  1  2  1  0  0  0
  2  3  1  0  0  0
  3  4  1  0  0  0
  4  5  1  0  0  0
  5  6  1  0  0  0
  6  7  1  0  0  0
  7  8  1  0  0  0
  7 30  1  0  0  0
 30 31  1  0  0  0
 31 32  2  0  0  0
 32 33  1  0  0  0
 33 34  2  0  0  0
 34 35  1  0  0  0
 35 36  2  0  0  0
  7  9  1  0  0  0
  9 10  2  0  0  0
  9 11  1  0  0  0
 21 22  1  0  0  0
 22 23  2  0  0  0
 23 18  1  0  0  0
 11  1  1  0  0  0
 11  4  1  0  0  0
 36 31  1  0  0  0
 24 27  1  0  0  0
 26 28  1  0  0  0
 26 29  1  0  0  0
 13 16  1  0  0  0
  8 12  1  0  0  0
M  END
> <minimizedAffinity>
-9.21805

> <CNNscore>
0.1833494008

> <CNNaffinity>
6.0100374222

> <CNN_VS>
1.1019368172

> <CNNaffinity_variance>
0.0195165053

$$$$
[H]c1c(OC([H])([H])[H])c(C([H])([H])N(C([H])([H])[H])C([H])([H])[H])c([H])c(OC([H])([H])[H])c1-c1c([H])n(C([H])([H])[H])c(=O)c2c([H])c([H])c([H])c([H])c12


 26 28  0  0  0  0  0  0  0  0999 V2000
   -3.6387   22.2144  -25.3048 C   0  0  0  0  0  0  0  0  0  0  0  0
   -2.4835   21.9368  -24.5339 C   0  0  0  0  0  0  0  0  0  0  0  0
   -1.1269   22.2229  -25.0297 C   0  0  0  0  0  0  0  0  0  0  0  0
   -1.0067   22.7311  -26.2320 C   0  0  0  0  0  0  0  0  0  0  0  0
   -2.1257   22.9732  -27.0693 C   0  0  0  0  0  0  0  0  0  0  0  0
   -3.3126   22.7169  -26.5905 C   0  0  0  0  0  0  0  0  0  0  0  0
   -0.1896   22.2135  -23.9048 C   0  0  0  0  0  0  0  0  0  0  0  0
    1.0604   21.4990  -24.0612 C   0  0  0  0  0  0  0  0  0  0  0  0
    1.7495   20.9915  -22.9808 N   0  0  0  0  0  0  0  0  0  0  0  0
    2.9352   20.2398  -23.0398 C   0  0  0  0  0  0  0  0  0  0  0  0
    1.0918   21.2687  -21.8909 C   0  0  0  0  0  0  0  0  0  0  0  0
    1.8648   20.7156  -20.8253 O   0  0  0  0  0  0  0  0  0  0  0  0
    0.0558   21.8200  -21.4508 C   0  0  0  0  0  0  0  0  0  0  0  0
   -0.3849   21.9338  -20.1178 C   0  0  0  0  0  0  0  0  0  0  0  0
   -1.6762   22.7106  -20.1299 C   0  0  0  0  0  0  0  0  0  0  0  0
   -2.2412   23.1473  -21.0517 C   0  0  0  0  0  0  0  0  0  0  0  0
   -1.8318   23.0451  -22.4361 C   0  0  0  0  0  0  0  0  0  0  0  0
   -0.7092   22.3900  -22.5972 C   0  0  0  0  0  0  0  0  0  0  0  0
   -6.1078   22.0824  -24.6504 C   0  0  0  0  0  0  0  0  0  0  0  0
   -4.8933   22.1179  -25.0155 O   0  0  0  0  0  0  0  0  0  0  0  0
    0.2491   23.1082  -26.7785 O   0  0  0  0  0  0  0  0  0  0  0  0
    0.1923   22.9937  -28.2038 C   0  0  0  0  0  0  0  0  0  0  0  0
   -4.5591   23.0478  -27.3510 C   0  0  0  0  0  0  0  0  0  0  0  0
   -4.9606   24.3019  -27.7042 N   0  0  0  0  0  0  0  0  0  0  0  0
   -4.9498   24.4467  -29.1444 C   0  0  0  0  0  0  0  0  0  0  0  0
   -5.1199   25.4656  -27.0304 C   0  0  0  0  0  0  0  0  0  0  0  0
 19 20  1  0  0  0
 20  1  1  0  0  0
  1  2  2  0  0  0
  2  3  1  0  0  0
  3  7  1  0  0  0
  7  8  2  0  0  0
  8  9  1  0  0  0
  9 10  1  0  0  0
  9 11  1  0  0  0
 11 12  2  0  0  0
 11 13  1  0  0  0
 13 14  2  0  0  0
 14 15  1  0  0  0
 15 16  2  0  0  0
 16 17  1  0  0  0
 17 18  2  0  0  0
  3  4  2  0  0  0
  4 21  1  0  0  0
 21 22  1  0  0  0
  4  5  1  0  0  0
  5  6  2  0  0  0
  6 23  1  0  0  0
 23 24  1  0  0  0
 24 25  1  0  0  0
 24 26  1  0  0  0
  6  1  1  0  0  0
 18  7  1  0  0  0
 18 13  1  0  0  0
M  END
> <minimizedAffinity>
-6.92370

> <CNNscore>
0.4878712595

> <CNNaffinity>
6.0919737816

> <CNN_VS>
2.9720988274

> <CNNaffinity_variance>
0.1290496141

$$$$
[H]c1c(OC([H])([H])[H])c(C([H])([H])N(C([H])([H])[H])C([H])([H])[H])c([H])c(OC([H])([H])[H])c1-c1c([H])n(C([H])([H])[H])c(=O)c2c([H])c([H])c([H])c([H])c12


 26 28  0  0  0  0  0  0  0  0999 V2000
   -1.0168   22.7097  -22.7659 C   0  0  0  0  0  0  0  0  0  0  0  0
   -1.9621   23.0840  -23.7517 C   0  0  0  0  0  0  0  0  0  0  0  0
   -1.7878   22.7372  -25.1720 C   0  0  0  0  0  0  0  0  0  0  0  0
   -0.7074   22.0790  -25.5155 C   0  0  0  0  0  0  0  0  0  0  0  0
    0.2997   21.7314  -24.5791 C   0  0  0  0  0  0  0  0  0  0  0  0
    0.1041   22.0466  -23.3278 C   0  0  0  0  0  0  0  0  0  0  0  0
   -3.0672   22.8909  -25.8674 C   0  0  0  0  0  0  0  0  0  0  0  0
   -3.1968   23.9618  -26.8337 C   0  0  0  0  0  0  0  0  0  0  0  0
   -4.4189   24.5174  -27.1458 N   0  0  0  0  0  0  0  0  0  0  0  0
   -4.6344   25.5922  -28.0247 C   0  0  0  0  0  0  0  0  0  0  0  0
   -5.3445   23.9245  -26.4466 C   0  0  0  0  0  0  0  0  0  0  0  0
   -6.5710   24.5502  -26.8250 O   0  0  0  0  0  0  0  0  0  0  0  0
   -5.5440   23.0377  -25.5836 C   0  0  0  0  0  0  0  0  0  0  0  0
   -6.7596   22.6349  -24.9969 C   0  0  0  0  0  0  0  0  0  0  0  0
   -6.4530   21.5132  -24.0385 C   0  0  0  0  0  0  0  0  0  0  0  0
   -5.4144   21.0425  -23.7948 C   0  0  0  0  0  0  0  0  0  0  0  0
   -4.1417   21.4312  -24.3641 C   0  0  0  0  0  0  0  0  0  0  0  0
   -4.2388   22.4081  -25.2309 C   0  0  0  0  0  0  0  0  0  0  0  0
   -1.0641   23.0724  -20.2344 C   0  0  0  0  0  0  0  0  0  0  0  0
   -1.0349   22.8422  -21.4816 O   0  0  0  0  0  0  0  0  0  0  0  0
   -0.4750   21.6354  -26.8448 O   0  0  0  0  0  0  0  0  0  0  0  0
    0.3126   22.6121  -27.5329 C   0  0  0  0  0  0  0  0  0  0  0  0
    1.0509   21.6207  -22.2489 C   0  0  0  0  0  0  0  0  0  0  0  0
    1.0480   20.4070  -21.6280 N   0  0  0  0  0  0  0  0  0  0  0  0
    2.3711   19.8209  -21.6626 C   0  0  0  0  0  0  0  0  0  0  0  0
    0.0744   19.5564  -21.2250 C   0  0  0  0  0  0  0  0  0  0  0  0
 19 20  1  0  0  0
 20  1  1  0  0  0
  1  2  2  0  0  0
  2  3  1  0  0  0
  3  7  1  0  0  0
  7  8  2  0  0  0
  8  9  1  0  0  0
  9 10  1  0  0  0
  9 11  1  0  0  0
 11 12  2  0  0  0
 11 13  1  0  0  0
 13 14  2  0  0  0
 14 15  1  0  0  0
 15 16  2  0  0  0
 16 17  1  0  0  0
 17 18  2  0  0  0
  3  4  2  0  0  0
  4 21  1  0  0  0
 21 22  1  0  0  0
  4  5  1  0  0  0
  5  6  2  0  0  0
  6 23  1  0  0  0
 23 24  1  0  0  0
 24 25  1  0  0  0
 24 26  1  0  0  0
  6  1  1  0  0  0
 18  7  1  0  0  0
 18 13  1  0  0  0
M  END
> <minimizedAffinity>
-6.69567

> <CNNscore>
0.3501817584

> <CNNaffinity>
5.9176688194

> <CNN_VS>
2.0722596645

> <CNNaffinity_variance>
0.0746173710

$$$$
[H]c1c(OC([H])([H])[H])c(C([H])([H])N(C([H])([H])[H])C([H])([H])[H])c([H])c(OC([H])([H])[H])c1-c1c([H])n(C([H])([H])[H])c(=O)c2c([H])c([H])c([H])c([H])c12


 26 28  0  0  0  0  0  0  0  0999 V2000
   -0.7425   21.9068  -23.9352 C   0  0  0  0  0  0  0  0  0  0  0  0
   -1.4807   22.6458  -24.8916 C   0  0  0  0  0  0  0  0  0  0  0  0
   -2.9363   22.8364  -24.7769 C   0  0  0  0  0  0  0  0  0  0  0  0
   -3.5505   22.2795  -23.7615 C   0  0  0  0  0  0  0  0  0  0  0  0
   -2.8698   21.4800  -22.8079 C   0  0  0  0  0  0  0  0  0  0  0  0
   -1.5782   21.3433  -22.9373 C   0  0  0  0  0  0  0  0  0  0  0  0
   -3.3493   23.9382  -25.6482 C   0  0  0  0  0  0  0  0  0  0  0  0
   -3.8636   25.1432  -25.0311 C   0  0  0  0  0  0  0  0  0  0  0  0
   -4.7268   25.9895  -25.6932 N   0  0  0  0  0  0  0  0  0  0  0  0
   -5.3184   27.1460  -25.1577 C   0  0  0  0  0  0  0  0  0  0  0  0
   -4.9575   25.5126  -26.8833 C   0  0  0  0  0  0  0  0  0  0  0  0
   -5.8513   26.4391  -27.5012 O   0  0  0  0  0  0  0  0  0  0  0  0
   -4.6953   24.5622  -27.6572 C   0  0  0  0  0  0  0  0  0  0  0  0
   -5.1614   24.3365  -28.9672 C   0  0  0  0  0  0  0  0  0  0  0  0
   -4.5241   23.0648  -29.4645 C   0  0  0  0  0  0  0  0  0  0  0  0
   -3.7829   22.3654  -28.8978 C   0  0  0  0  0  0  0  0  0  0  0  0
   -3.2870   22.5522  -27.5509 C   0  0  0  0  0  0  0  0  0  0  0  0
   -3.7526   23.6311  -26.9727 C   0  0  0  0  0  0  0  0  0  0  0  0
    1.7731   21.4667  -23.7938 C   0  0  0  0  0  0  0  0  0  0  0  0
    0.5274   21.7055  -23.8169 O   0  0  0  0  0  0  0  0  0  0  0  0
   -4.9387   22.4581  -23.5189 O   0  0  0  0  0  0  0  0  0  0  0  0
   -5.6655   21.4093  -24.1667 C   0  0  0  0  0  0  0  0  0  0  0  0
   -0.7551   20.6180  -21.9184 C   0  0  0  0  0  0  0  0  0  0  0  0
   -0.4264   21.0932  -20.6836 N   0  0  0  0  0  0  0  0  0  0  0  0
   -0.3272   20.0041  -19.7354 C   0  0  0  0  0  0  0  0  0  0  0  0
   -0.4176   22.3238  -20.1186 C   0  0  0  0  0  0  0  0  0  0  0  0
 19 20  1  0  0  0
 20  1  1  0  0  0
  1  2  2  0  0  0
  2  3  1  0  0  0
  3  7  1  0  0  0
  7  8  2  0  0  0
  8  9  1  0  0  0
  9 10  1  0  0  0
  9 11  1  0  0  0
 11 12  2  0  0  0
 11 13  1  0  0  0
 13 14  2  0  0  0
 14 15  1  0  0  0
 15 16  2  0  0  0
 16 17  1  0  0  0
 17 18  2  0  0  0
  3  4  2  0  0  0
  4 21  1  0  0  0
 21 22  1  0  0  0
  4  5  1  0  0  0
  5  6  2  0  0  0
  6 23  1  0  0  0
 23 24  1  0  0  0
 24 25  1  0  0  0
 24 26  1  0  0  0
  6  1  1  0  0  0
 18  7  1  0  0  0
 18 13  1  0  0  0
M  END
> <minimizedAffinity>
-7.06274

> <CNNscore>
0.3406089544

> <CNNaffinity>
6.1015658379

> <CNN_VS>
2.0782480240

> <CNNaffinity_variance>
0.0977514610

$$$$
[H]c1c(OC([H])([H])[H])c(C([H])([H])N(C([H])([H])[H])C([H])([H])[H])c([H])c(OC([H])([H])[H])c1-c1c([H])n(C([H])([H])[H])c(=O)c2c([H])c([H])c([H])c([H])c12


 26 28  0  0  0  0  0  0  0  0999 V2000
   -2.3723   22.0414  -22.6127 C   0  0  0  0  0  0  0  0  0  0  0  0
   -3.1056   22.7905  -23.5650 C   0  0  0  0  0  0  0  0  0  0  0  0
   -2.6392   22.9608  -24.9512 C   0  0  0  0  0  0  0  0  0  0  0  0
   -1.4977   22.4107  -25.2872 C   0  0  0  0  0  0  0  0  0  0  0  0
   -0.6945   21.7008  -24.3583 C   0  0  0  0  0  0  0  0  0  0  0  0
   -1.1467   21.5620  -23.1419 C   0  0  0  0  0  0  0  0  0  0  0  0
   -3.7537   23.4187  -25.7831 C   0  0  0  0  0  0  0  0  0  0  0  0
   -4.0215   22.7119  -27.0184 C   0  0  0  0  0  0  0  0  0  0  0  0
   -4.6512   23.3191  -28.0834 N   0  0  0  0  0  0  0  0  0  0  0  0
   -4.9018   22.7324  -29.3353 C   0  0  0  0  0  0  0  0  0  0  0  0
   -4.9264   24.5522  -27.7656 C   0  0  0  0  0  0  0  0  0  0  0  0
   -5.5736   25.1081  -28.9106 O   0  0  0  0  0  0  0  0  0  0  0  0
   -4.8262   25.4046  -26.8522 C   0  0  0  0  0  0  0  0  0  0  0  0
   -5.2515   26.7474  -26.8479 C   0  0  0  0  0  0  0  0  0  0  0  0
   -4.9166   27.3268  -25.4977 C   0  0  0  0  0  0  0  0  0  0  0  0
   -4.3959   26.7962  -24.5993 C   0  0  0  0  0  0  0  0  0  0  0  0
   -3.9339   25.4251  -24.5635 C   0  0  0  0  0  0  0  0  0  0  0  0
   -4.1563   24.7744  -25.6781 C   0  0  0  0  0  0  0  0  0  0  0  0
   -2.9789   21.4748  -20.1934 C   0  0  0  0  0  0  0  0  0  0  0  0
   -2.6535   21.7108  -21.3966 O   0  0  0  0  0  0  0  0  0  0  0  0
   -0.9909   22.4553  -26.6135 O   0  0  0  0  0  0  0  0  0  0  0  0
    0.4171   22.7071  -26.5679 C   0  0  0  0  0  0  0  0  0  0  0  0
   -0.4297   20.7317  -22.1229 C   0  0  0  0  0  0  0  0  0  0  0  0
    0.6135   21.1521  -21.3525 N   0  0  0  0  0  0  0  0  0  0  0  0
    1.8721   20.7893  -21.9684 C   0  0  0  0  0  0  0  0  0  0  0  0
    0.7261   21.5923  -20.0768 C   0  0  0  0  0  0  0  0  0  0  0  0
 19 20  1  0  0  0
 20  1  1  0  0  0
  1  2  2  0  0  0
  2  3  1  0  0  0
  3  7  1  0  0  0
  7  8  2  0  0  0
  8  9  1  0  0  0
  9 10  1  0  0  0
  9 11  1  0  0  0
 11 12  2  0  0  0
 11 13  1  0  0  0
 13 14  2  0  0  0
 14 15  1  0  0  0
 15 16  2  0  0  0
 16 17  1  0  0  0
 17 18  2  0  0  0
  3  4  2  0  0  0
  4 21  1  0  0  0
 21 22  1  0  0  0
  4  5  1  0  0  0
  5  6  2  0  0  0
  6 23  1  0  0  0
 23 24  1  0  0  0
 24 25  1  0  0  0
 24 26  1  0  0  0
  6  1  1  0  0  0
 18  7  1  0  0  0
 18 13  1  0  0  0
M  END
> <minimizedAffinity>
-7.37867

> <CNNscore>
0.2866436541

> <CNNaffinity>
6.0465779305

> <CNN_VS>
1.7332131863

> <CNNaffinity_variance>
0.0616361871

$$$$
[H]c1c(OC([H])([H])[H])c(C([H])([H])N(C([H])([H])[H])C([H])([H])[H])c([H])c(OC([H])([H])[H])c1-c1c([H])n(C([H])([H])[H])c(=O)c2c([H])c([H])c([H])c([H])c12


 26 28  0  0  0  0  0  0  0  0999 V2000
   -1.5913   21.8899  -24.5485 C   0  0  0  0  0  0  0  0  0  0  0  0
   -2.6023   22.4246  -25.3839 C   0  0  0  0  0  0  0  0  0  0  0  0
   -4.0095   22.4986  -24.9569 C   0  0  0  0  0  0  0  0  0  0  0  0
   -4.3171   22.0312  -23.7715 C   0  0  0  0  0  0  0  0  0  0  0  0
   -3.3554   21.4313  -22.9189 C   0  0  0  0  0  0  0  0  0  0  0  0
   -2.1165   21.3938  -23.3279 C   0  0  0  0  0  0  0  0  0  0  0  0
   -4.7294   23.4319  -25.8257 C   0  0  0  0  0  0  0  0  0  0  0  0
   -5.0705   22.9968  -27.1642 C   0  0  0  0  0  0  0  0  0  0  0  0
   -5.2577   23.8917  -28.1956 N   0  0  0  0  0  0  0  0  0  0  0  0
   -5.5343   23.5607  -29.5329 C   0  0  0  0  0  0  0  0  0  0  0  0
   -5.0770   25.1007  -27.7452 C   0  0  0  0  0  0  0  0  0  0  0  0
   -5.2885   25.9624  -28.8640 O   0  0  0  0  0  0  0  0  0  0  0  0
   -4.7863   25.7625  -26.7213 C   0  0  0  0  0  0  0  0  0  0  0  0
   -4.6553   27.1579  -26.5802 C   0  0  0  0  0  0  0  0  0  0  0  0
   -4.3187   27.4402  -25.1387 C   0  0  0  0  0  0  0  0  0  0  0  0
   -4.1775   26.6728  -24.2722 C   0  0  0  0  0  0  0  0  0  0  0  0
   -4.2917   25.2336  -24.3739 C   0  0  0  0  0  0  0  0  0  0  0  0
   -4.5870   24.8216  -25.5815 C   0  0  0  0  0  0  0  0  0  0  0  0
    0.9347   21.8108  -24.9427 C   0  0  0  0  0  0  0  0  0  0  0  0
   -0.3116   21.8201  -24.7060 O   0  0  0  0  0  0  0  0  0  0  0  0
   -5.6298   22.1167  -23.2353 O   0  0  0  0  0  0  0  0  0  0  0  0
   -5.5466   22.4479  -21.8456 C   0  0  0  0  0  0  0  0  0  0  0  0
   -1.0112   20.8886  -22.4534 C   0  0  0  0  0  0  0  0  0  0  0  0
   -0.4160   21.5895  -21.4469 N   0  0  0  0  0  0  0  0  0  0  0  0
    0.8385   20.9699  -21.0758 C   0  0  0  0  0  0  0  0  0  0  0  0
   -0.8373   22.5479  -20.5881 C   0  0  0  0  0  0  0  0  0  0  0  0
 19 20  1  0  0  0
 20  1  1  0  0  0
  1  2  2  0  0  0
  2  3  1  0  0  0
  3  7  1  0  0  0
  7  8  2  0  0  0
  8  9  1  0  0  0
  9 10  1  0  0  0
  9 11  1  0  0  0
 11 12  2  0  0  0
 11 13  1  0  0  0
 13 14  2  0  0  0
 14 15  1  0  0  0
 15 16  2  0  0  0
 16 17  1  0  0  0
 17 18  2  0  0  0
  3  4  2  0  0  0
  4 21  1  0  0  0
 21 22  1  0  0  0
  4  5  1  0  0  0
  5  6  2  0  0  0
  6 23  1  0  0  0
 23 24  1  0  0  0
 24 25  1  0  0  0
 24 26  1  0  0  0
  6  1  1  0  0  0
 18  7  1  0  0  0
 18 13  1  0  0  0
M  END
> <minimizedAffinity>
-7.01296

> <CNNscore>
0.2263331115

> <CNNaffinity>
5.9185781479

> <CNN_VS>
1.3395701647

> <CNNaffinity_variance>
0.0507439077

$$$$
[H]c1c(OC([H])([H])[H])c(C([H])([H])N(C([H])([H])[H])C([H])([H])[H])c([H])c(OC([H])([H])[H])c1-c1c([H])n(C([H])([H])[H])c(=O)c2c([H])c([H])c([H])c([H])c12


 26 28  0  0  0  0  0  0  0  0999 V2000
   -2.4517   22.3338  -22.6950 C   0  0  0  0  0  0  0  0  0  0  0  0
   -3.0324   23.2991  -23.5535 C   0  0  0  0  0  0  0  0  0  0  0  0
   -2.5381   23.5247  -24.9220 C   0  0  0  0  0  0  0  0  0  0  0  0
   -1.5155   22.8136  -25.3308 C   0  0  0  0  0  0  0  0  0  0  0  0
   -0.8589   21.8764  -24.4927 C   0  0  0  0  0  0  0  0  0  0  0  0
   -1.3329   21.6966  -23.2900 C   0  0  0  0  0  0  0  0  0  0  0  0
   -3.5472   24.2622  -25.6846 C   0  0  0  0  0  0  0  0  0  0  0  0
   -4.4550   25.1278  -24.9607 C   0  0  0  0  0  0  0  0  0  0  0  0
   -5.7050   25.4435  -25.4481 N   0  0  0  0  0  0  0  0  0  0  0  0
   -6.6707   26.2259  -24.7929 C   0  0  0  0  0  0  0  0  0  0  0  0
   -5.8751   24.8482  -26.5943 C   0  0  0  0  0  0  0  0  0  0  0  0
   -7.1819   25.2234  -27.0311 O   0  0  0  0  0  0  0  0  0  0  0  0
   -5.3300   24.0835  -27.4244 C   0  0  0  0  0  0  0  0  0  0  0  0
   -5.8408   23.5959  -28.6431 C   0  0  0  0  0  0  0  0  0  0  0  0
   -4.7758   22.7345  -29.2712 C   0  0  0  0  0  0  0  0  0  0  0  0
   -3.7154   22.4874  -28.8537 C   0  0  0  0  0  0  0  0  0  0  0  0
   -3.1547   22.9565  -27.6045 C   0  0  0  0  0  0  0  0  0  0  0  0
   -3.9679   23.7305  -26.9302 C   0  0  0  0  0  0  0  0  0  0  0  0
   -3.1927   21.6224  -20.3525 C   0  0  0  0  0  0  0  0  0  0  0  0
   -2.7927   21.9354  -21.5151 O   0  0  0  0  0  0  0  0  0  0  0  0
   -1.0047   22.9028  -26.6533 O   0  0  0  0  0  0  0  0  0  0  0  0
    0.4254   22.9111  -26.6027 C   0  0  0  0  0  0  0  0  0  0  0  0
   -0.7834   20.6480  -22.3734 C   0  0  0  0  0  0  0  0  0  0  0  0
    0.4510   20.6712  -21.7953 N   0  0  0  0  0  0  0  0  0  0  0  0
    0.3307   20.7265  -20.3539 C   0  0  0  0  0  0  0  0  0  0  0  0
    1.7042   20.8956  -22.2568 C   0  0  0  0  0  0  0  0  0  0  0  0
 19 20  1  0  0  0
 20  1  1  0  0  0
  1  2  2  0  0  0
  2  3  1  0  0  0
  3  7  1  0  0  0
  7  8  2  0  0  0
  8  9  1  0  0  0
  9 10  1  0  0  0
  9 11  1  0  0  0
 11 12  2  0  0  0
 11 13  1  0  0  0
 13 14  2  0  0  0
 14 15  1  0  0  0
 15 16  2  0  0  0
 16 17  1  0  0  0
 17 18  2  0  0  0
  3  4  2  0  0  0
  4 21  1  0  0  0
 21 22  1  0  0  0
  4  5  1  0  0  0
  5  6  2  0  0  0
  6 23  1  0  0  0
 23 24  1  0  0  0
 24 25  1  0  0  0
 24 26  1  0  0  0
  6  1  1  0  0  0
 18  7  1  0  0  0
 18 13  1  0  0  0
M  END
> <minimizedAffinity>
-7.34692

> <CNNscore>
0.2228881866

> <CNNaffinity>
5.9378991127

> <CNN_VS>
1.3234875202

> <CNNaffinity_variance>
0.1300450265

$$$$
[H]c1c(OC([H])([H])[H])c(C([H])([H])N(C([H])([H])[H])C([H])([H])[H])c([H])c(OC([H])([H])[H])c1-c1c([H])n(C([H])([H])[H])c(=O)c2c([H])c([H])c([H])c([H])c12


 26 28  0  0  0  0  0  0  0  0999 V2000
   -7.1139   23.0978  -22.4719 C   0  0  0  0  0  0  0  0  0  0  0  0
   -6.3337   22.7056  -23.5869 C   0  0  0  0  0  0  0  0  0  0  0  0
   -5.4867   23.6600  -24.3215 C   0  0  0  0  0  0  0  0  0  0  0  0
   -5.4854   24.9101  -23.9271 C   0  0  0  0  0  0  0  0  0  0  0  0
   -6.2928   25.3688  -22.8549 C   0  0  0  0  0  0  0  0  0  0  0  0
   -7.0218   24.4909  -22.2214 C   0  0  0  0  0  0  0  0  0  0  0  0
   -4.5209   22.9206  -25.1368 C   0  0  0  0  0  0  0  0  0  0  0  0
   -3.2671   22.5296  -24.5265 C   0  0  0  0  0  0  0  0  0  0  0  0
   -2.1285   22.3167  -25.2734 N   0  0  0  0  0  0  0  0  0  0  0  0
   -0.8595   21.9913  -24.7654 C   0  0  0  0  0  0  0  0  0  0  0  0
   -2.4013   22.5252  -26.5301 C   0  0  0  0  0  0  0  0  0  0  0  0
   -1.1816   22.2847  -27.2324 O   0  0  0  0  0  0  0  0  0  0  0  0
   -3.3140   22.8574  -27.3223 C   0  0  0  0  0  0  0  0  0  0  0  0
   -3.2566   23.0076  -28.7216 C   0  0  0  0  0  0  0  0  0  0  0  0
   -4.6335   23.3960  -29.1949 C   0  0  0  0  0  0  0  0  0  0  0  0
   -5.5928   23.5587  -28.5522 C   0  0  0  0  0  0  0  0  0  0  0  0
   -5.6948   23.4262  -27.1146 C   0  0  0  0  0  0  0  0  0  0  0  0
   -4.5660   23.0857  -26.5445 C   0  0  0  0  0  0  0  0  0  0  0  0
   -8.4984   21.6403  -20.8904 C   0  0  0  0  0  0  0  0  0  0  0  0
   -7.8388   22.4040  -21.6593 O   0  0  0  0  0  0  0  0  0  0  0  0
   -4.6531   25.8962  -24.5210 O   0  0  0  0  0  0  0  0  0  0  0  0
   -5.4658   26.8033  -25.2723 C   0  0  0  0  0  0  0  0  0  0  0  0
   -7.8159   24.8541  -21.0052 C   0  0  0  0  0  0  0  0  0  0  0  0
   -9.0524   25.4284  -21.0105 N   0  0  0  0  0  0  0  0  0  0  0  0
   -8.9749   26.7940  -20.5369 C   0  0  0  0  0  0  0  0  0  0  0  0
  -10.3142   24.9490  -21.1184 C   0  0  0  0  0  0  0  0  0  0  0  0
 19 20  1  0  0  0
 20  1  1  0  0  0
  1  2  2  0  0  0
  2  3  1  0  0  0
  3  7  1  0  0  0
  7  8  2  0  0  0
  8  9  1  0  0  0
  9 10  1  0  0  0
  9 11  1  0  0  0
 11 12  2  0  0  0
 11 13  1  0  0  0
 13 14  2  0  0  0
 14 15  1  0  0  0
 15 16  2  0  0  0
 16 17  1  0  0  0
 17 18  2  0  0  0
  3  4  2  0  0  0
  4 21  1  0  0  0
 21 22  1  0  0  0
  4  5  1  0  0  0
  5  6  2  0  0  0
  6 23  1  0  0  0
 23 24  1  0  0  0
 24 25  1  0  0  0
 24 26  1  0  0  0
  6  1  1  0  0  0
 18  7  1  0  0  0
 18 13  1  0  0  0
M  END
> <minimizedAffinity>
-7.79629

> <CNNscore>
0.1920198500

> <CNNaffinity>
5.6149883270

> <CNN_VS>
1.0781892538

> <CNNaffinity_variance>
0.1447214782

$$$$
[H]c1c(OC([H])([H])[H])c(C([H])([H])N(C([H])([H])[H])C([H])([H])[H])c([H])c(OC([H])([H])[H])c1-c1c([H])n(C([H])([H])[H])c(=O)c2c([H])c([H])c([H])c([H])c12


 26 28  0  0  0  0  0  0  0  0999 V2000
   -1.0525   22.2550  -25.2151 C   0  0  0  0  0  0  0  0  0  0  0  0
   -2.4205   22.6198  -25.1818 C   0  0  0  0  0  0  0  0  0  0  0  0
   -3.1213   22.9071  -23.9192 C   0  0  0  0  0  0  0  0  0  0  0  0
   -2.4446   22.7962  -22.8020 C   0  0  0  0  0  0  0  0  0  0  0  0
   -1.0899   22.3770  -22.7734 C   0  0  0  0  0  0  0  0  0  0  0  0
   -0.4999   22.1418  -23.9136 C   0  0  0  0  0  0  0  0  0  0  0  0
   -4.3643   23.6249  -24.2091 C   0  0  0  0  0  0  0  0  0  0  0  0
   -4.2712   24.9462  -24.7944 C   0  0  0  0  0  0  0  0  0  0  0  0
   -5.2673   25.8854  -24.6351 N   0  0  0  0  0  0  0  0  0  0  0  0
   -5.2394   27.2051  -25.1167 C   0  0  0  0  0  0  0  0  0  0  0  0
   -6.2207   25.3726  -23.9105 C   0  0  0  0  0  0  0  0  0  0  0  0
   -7.2074   26.3981  -23.7933 O   0  0  0  0  0  0  0  0  0  0  0  0
   -6.5734   24.3416  -23.2910 C   0  0  0  0  0  0  0  0  0  0  0  0
   -7.7494   24.1169  -22.5490 C   0  0  0  0  0  0  0  0  0  0  0  0
   -7.6963   22.7039  -22.0283 C   0  0  0  0  0  0  0  0  0  0  0  0
   -6.8525   21.9142  -22.1833 C   0  0  0  0  0  0  0  0  0  0  0  0
   -5.6256   22.1047  -22.9270 C   0  0  0  0  0  0  0  0  0  0  0  0
   -5.5188   23.2995  -23.4526 C   0  0  0  0  0  0  0  0  0  0  0  0
    0.4835   21.9302  -27.2344 C   0  0  0  0  0  0  0  0  0  0  0  0
   -0.2538   22.0528  -26.2092 O   0  0  0  0  0  0  0  0  0  0  0  0
   -3.0043   23.1168  -21.5364 O   0  0  0  0  0  0  0  0  0  0  0  0
   -2.0229   22.8900  -20.5199 C   0  0  0  0  0  0  0  0  0  0  0  0
    0.9576   21.8089  -23.9946 C   0  0  0  0  0  0  0  0  0  0  0  0
    1.6954   21.2406  -22.9991 N   0  0  0  0  0  0  0  0  0  0  0  0
    3.0372   20.9606  -23.4643 C   0  0  0  0  0  0  0  0  0  0  0  0
    1.3930   20.6775  -21.8052 C   0  0  0  0  0  0  0  0  0  0  0  0
 19 20  1  0  0  0
 20  1  1  0  0  0
  1  2  2  0  0  0
  2  3  1  0  0  0
  3  7  1  0  0  0
  7  8  2  0  0  0
  8  9  1  0  0  0
  9 10  1  0  0  0
  9 11  1  0  0  0
 11 12  2  0  0  0
 11 13  1  0  0  0
 13 14  2  0  0  0
 14 15  1  0  0  0
 15 16  2  0  0  0
 16 17  1  0  0  0
 17 18  2  0  0  0
  3  4  2  0  0  0
  4 21  1  0  0  0
 21 22  1  0  0  0
  4  5  1  0  0  0
  5  6  2  0  0  0
  6 23  1  0  0  0
 23 24  1  0  0  0
 24 25  1  0  0  0
 24 26  1  0  0  0
  6  1  1  0  0  0
 18  7  1  0  0  0
 18 13  1  0  0  0
M  END
> <minimizedAffinity>
-7.09454

> <CNNscore>
0.1919084042

> <CNNaffinity>
5.6080718040

> <CNN_VS>
1.0762361288

> <CNNaffinity_variance>
0.2075839788

$$$$
[H]c1c(OC([H])([H])[H])c(C([H])([H])N(C([H])([H])[H])C([H])([H])[H])c([H])c(OC([H])([H])[H])c1-c1c([H])n(C([H])([H])[H])c(=O)c2c([H])c([H])c([H])c([H])c12


 26 28  0  0  0  0  0  0  0  0999 V2000
   -1.0765   22.6610  -20.9007 C   0  0  0  0  0  0  0  0  0  0  0  0
   -0.5015   22.8705  -19.6235 C   0  0  0  0  0  0  0  0  0  0  0  0
    0.6797   22.1197  -19.1665 C   0  0  0  0  0  0  0  0  0  0  0  0
    1.1863   21.2203  -19.9745 C   0  0  0  0  0  0  0  0  0  0  0  0
    0.6149   20.9282  -21.2394 C   0  0  0  0  0  0  0  0  0  0  0  0
   -0.4251   21.6222  -21.6138 C   0  0  0  0  0  0  0  0  0  0  0  0
    1.2741   22.8065  -18.0180 C   0  0  0  0  0  0  0  0  0  0  0  0
    2.4189   23.6627  -18.2496 C   0  0  0  0  0  0  0  0  0  0  0  0
    3.3422   23.9278  -17.2612 N   0  0  0  0  0  0  0  0  0  0  0  0
    4.5084   24.6974  -17.4090 C   0  0  0  0  0  0  0  0  0  0  0  0
    2.9927   23.2982  -16.1755 C   0  0  0  0  0  0  0  0  0  0  0  0
    3.9901   23.6223  -15.2063 O   0  0  0  0  0  0  0  0  0  0  0  0
    2.1311   22.5291  -15.6887 C   0  0  0  0  0  0  0  0  0  0  0  0
    2.0596   21.9949  -14.3873 C   0  0  0  0  0  0  0  0  0  0  0  0
    0.8142   21.1501  -14.3096 C   0  0  0  0  0  0  0  0  0  0  0  0
    0.0329   20.9461  -15.1509 C   0  0  0  0  0  0  0  0  0  0  0  0
    0.0722   21.4640  -16.5018 C   0  0  0  0  0  0  0  0  0  0  0  0
    1.1089   22.2303  -16.7328 C   0  0  0  0  0  0  0  0  0  0  0  0
   -3.0527   23.8034  -22.0547 C   0  0  0  0  0  0  0  0  0  0  0  0
   -2.0411   23.2701  -21.5055 O   0  0  0  0  0  0  0  0  0  0  0  0
    2.3640   20.4905  -19.6609 O   0  0  0  0  0  0  0  0  0  0  0  0
    3.4126   20.8909  -20.5484 C   0  0  0  0  0  0  0  0  0  0  0  0
   -1.0270   21.4701  -22.9763 C   0  0  0  0  0  0  0  0  0  0  0  0
   -0.4580   21.8864  -24.1431 N   0  0  0  0  0  0  0  0  0  0  0  0
   -1.4813   22.2440  -25.1024 C   0  0  0  0  0  0  0  0  0  0  0  0
    0.7889   21.8063  -24.6653 C   0  0  0  0  0  0  0  0  0  0  0  0
 19 20  1  0  0  0
 20  1  1  0  0  0
  1  2  2  0  0  0
  2  3  1  0  0  0
  3  7  1  0  0  0
  7  8  2  0  0  0
  8  9  1  0  0  0
  9 10  1  0  0  0
  9 11  1  0  0  0
 11 12  2  0  0  0
 11 13  1  0  0  0
 13 14  2  0  0  0
 14 15  1  0  0  0
 15 16  2  0  0  0
 16 17  1  0  0  0
 17 18  2  0  0  0
  3  4  2  0  0  0
  4 21  1  0  0  0
 21 22  1  0  0  0
  4  5  1  0  0  0
  5  6  2  0  0  0
  6 23  1  0  0  0
 23 24  1  0  0  0
 24 25  1  0  0  0
 24 26  1  0  0  0
  6  1  1  0  0  0
 18  7  1  0  0  0
 18 13  1  0  0  0
M  END
> <minimizedAffinity>
-5.67390

> <CNNscore>
0.1863808781

> <CNNaffinity>
4.3794007301

> <CNN_VS>
0.8162365556

> <CNNaffinity_variance>
0.7916125059

$$$$
[H]c1nc([H])c(N([H])C(=O)c2nn(-c3c([H])c([H])c([H])c([H])c3Cl)c(-c3c([H])c([H])c(Cl)c([H])c3[H])c2C([H])([H])C(=O)N([H])[H])c(C([H])([H])[H])c1[H]


 36 39  0  0  0  0  0  0  0  0999 V2000
   -1.8350   22.5652  -25.0268 C   0  0  0  0  0  0  0  0  0  0  0  0
   -2.8735   23.2135  -24.4774 N   0  0  0  0  0  0  0  0  0  0  0  0
   -3.7181   23.6594  -25.4157 N   0  0  0  0  0  0  0  0  0  0  0  0
   -3.2477   23.3077  -26.6529 C   0  0  0  0  0  0  0  0  0  0  0  0
   -2.0768   22.6245  -26.3991 C   0  0  0  0  0  0  0  0  0  0  0  0
   -4.8632   24.3998  -25.0496 C   0  0  0  0  0  0  0  0  0  0  0  0
   -4.8298   25.7747  -25.0634 C   0  0  0  0  0  0  0  0  0  0  0  0
   -5.9455   26.5277  -24.6780 C   0  0  0  0  0  0  0  0  0  0  0  0
   -7.1109   25.8996  -24.2732 C   0  0  0  0  0  0  0  0  0  0  0  0
   -7.1396   24.5268  -24.2611 C   0  0  0  0  0  0  0  0  0  0  0  0
   -6.0436   23.7869  -24.6395 C   0  0  0  0  0  0  0  0  0  0  0  0
   -6.0659   22.0380  -24.6292 Cl  0  0  0  0  0  0  0  0  0  0  0  0
   -3.8179   23.7444  -27.9177 C   0  0  0  0  0  0  0  0  0  0  0  0
   -4.7521   23.0483  -28.6420 C   0  0  0  0  0  0  0  0  0  0  0  0
   -5.3739   23.5197  -29.7912 C   0  0  0  0  0  0  0  0  0  0  0  0
   -5.0495   24.7667  -30.2615 C   0  0  0  0  0  0  0  0  0  0  0  0
   -5.8456   25.3366  -31.7091 Cl  0  0  0  0  0  0  0  0  0  0  0  0
   -4.1280   25.5026  -29.5853 C   0  0  0  0  0  0  0  0  0  0  0  0
   -3.5133   25.0117  -28.4284 C   0  0  0  0  0  0  0  0  0  0  0  0
   -0.8075   21.8456  -22.9055 N   0  0  0  0  0  0  0  0  0  0  0  0
   -0.7145   21.9521  -24.3087 C   0  0  0  0  0  0  0  0  0  0  0  0
    0.2716   21.5460  -24.9203 O   0  0  0  0  0  0  0  0  0  0  0  0
   -1.7219   22.2374  -22.4928 H   0  0  0  0  0  0  0  0  0  0  0  0
   -1.6996   21.3783  -20.3167 C   0  0  0  0  0  0  0  0  0  0  0  0
   -0.3112   21.0511  -20.6876 C   0  0  0  0  0  0  0  0  0  0  0  0
    0.5389   20.5106  -19.7438 C   0  0  0  0  0  0  0  0  0  0  0  0
    1.8398   20.1962  -20.0483 C   0  0  0  0  0  0  0  0  0  0  0  0
    2.2400   20.4386  -21.2990 N   0  0  0  0  0  0  0  0  0  0  0  0
    1.4213   20.9741  -22.2595 C   0  0  0  0  0  0  0  0  0  0  0  0
    0.1171   21.3035  -22.0027 C   0  0  0  0  0  0  0  0  0  0  0  0
   -1.1835   21.9294  -27.3778 C   0  0  0  0  0  0  0  0  0  0  0  0
   -0.2633   22.9927  -27.9398 C   0  0  0  0  0  0  0  0  0  0  0  0
   -0.4741   23.3935  -29.2702 N   0  0  0  0  0  0  0  0  0  0  0  0
    0.6392   23.4910  -27.2573 O   0  0  0  0  0  0  0  0  0  0  0  0
   -0.4967   22.7200  -30.0897 H   0  0  0  0  0  0  0  0  0  0  0  0
   -0.6275   24.4061  -29.5575 H   0  0  0  0  0  0  0  0  0  0  0  0
 24 25  1  0  0  0
 25 26  2  0  0  0
 26 27  1  0  0  0
 27 28  2  0  0  0
 28 29  1  0  0  0
 29 30  2  0  0  0
 30 20  1  0  0  0
 20 21  1  0  0  0
 21 22  2  0  0  0
 21  1  1  0  0  0
  1  2  2  0  0  0
  2  3  1  0  0  0
  3  6  1  0  0  0
  6  7  2  0  0  0
  7  8  1  0  0  0
  8  9  2  0  0  0
  9 10  1  0  0  0
 10 11  2  0  0  0
 11 12  1  0  0  0
  3  4  1  0  0  0
  4 13  1  0  0  0
 13 14  2  0  0  0
 14 15  1  0  0  0
 15 16  2  0  0  0
 16 17  1  0  0  0
 16 18  1  0  0  0
 18 19  2  0  0  0
  4  5  2  0  0  0
  5 31  1  0  0  0
 31 32  1  0  0  0
 32 33  1  0  0  0
 32 34  2  0  0  0
 30 25  1  0  0  0
  5  1  1  0  0  0
 11  6  1  0  0  0
 19 13  1  0  0  0
 20 23  1  0  0  0
 33 35  1  0  0  0
 33 36  1  0  0  0
M  END
> <minimizedAffinity>
-9.77086

> <CNNscore>
0.7746286988

> <CNNaffinity>
7.8113608360

> <CNN_VS>
6.0509042740

> <CNNaffinity_variance>
0.1057529673

$$$$
[H]c1nc([H])c(N([H])C(=O)c2nn(-c3c([H])c([H])c([H])c([H])c3Cl)c(-c3c([H])c([H])c(Cl)c([H])c3[H])c2C([H])([H])C(=O)N([H])[H])c(C([H])([H])[H])c1[H]


 36 39  0  0  0  0  0  0  0  0999 V2000
   -2.3555   22.6046  -23.0811 C   0  0  0  0  0  0  0  0  0  0  0  0
   -3.4650   23.2909  -22.7668 N   0  0  0  0  0  0  0  0  0  0  0  0
   -4.2375   23.4832  -23.8433 N   0  0  0  0  0  0  0  0  0  0  0  0
   -3.6423   22.9112  -24.9361 C   0  0  0  0  0  0  0  0  0  0  0  0
   -2.4732   22.3646  -24.4499 C   0  0  0  0  0  0  0  0  0  0  0  0
   -5.4399   24.2154  -23.7356 C   0  0  0  0  0  0  0  0  0  0  0  0
   -6.5760   23.6098  -23.2519 C   0  0  0  0  0  0  0  0  0  0  0  0
   -7.7851   24.3101  -23.1625 C   0  0  0  0  0  0  0  0  0  0  0  0
   -7.8612   25.6335  -23.5617 C   0  0  0  0  0  0  0  0  0  0  0  0
   -6.7244   26.2340  -24.0440 C   0  0  0  0  0  0  0  0  0  0  0  0
   -5.5366   25.5460  -24.1319 C   0  0  0  0  0  0  0  0  0  0  0  0
   -4.0808   26.2981  -24.7440 Cl  0  0  0  0  0  0  0  0  0  0  0  0
   -4.1116   23.0430  -26.3065 C   0  0  0  0  0  0  0  0  0  0  0  0
   -5.4288   23.1028  -26.6851 C   0  0  0  0  0  0  0  0  0  0  0  0
   -5.8694   23.3388  -27.9811 C   0  0  0  0  0  0  0  0  0  0  0  0
   -4.9444   23.5273  -28.9762 C   0  0  0  0  0  0  0  0  0  0  0  0
   -5.5244   23.8223  -30.5981 Cl  0  0  0  0  0  0  0  0  0  0  0  0
   -3.6232   23.4774  -28.6604 C   0  0  0  0  0  0  0  0  0  0  0  0
   -3.1982   23.2401  -27.3488 C   0  0  0  0  0  0  0  0  0  0  0  0
   -1.2502   20.8861  -21.7032 N   0  0  0  0  0  0  0  0  0  0  0  0
   -1.2817   22.2195  -22.1614 C   0  0  0  0  0  0  0  0  0  0  0  0
   -0.4390   23.0412  -21.8068 O   0  0  0  0  0  0  0  0  0  0  0  0
   -2.0432   20.2679  -22.0892 H   0  0  0  0  0  0  0  0  0  0  0  0
   -1.9825   20.7108  -19.0295 C   0  0  0  0  0  0  0  0  0  0  0  0
   -0.6854   20.1707  -19.4748 C   0  0  0  0  0  0  0  0  0  0  0  0
    0.1587   19.5772  -18.5578 C   0  0  0  0  0  0  0  0  0  0  0  0
    1.3764   19.0661  -18.9317 C   0  0  0  0  0  0  0  0  0  0  0  0
    1.7020   19.1715  -20.2225 N   0  0  0  0  0  0  0  0  0  0  0  0
    0.8868   19.7547  -21.1580 C   0  0  0  0  0  0  0  0  0  0  0  0
   -0.3361   20.2780  -20.8323 C   0  0  0  0  0  0  0  0  0  0  0  0
   -1.4671   21.5354  -25.1842 C   0  0  0  0  0  0  0  0  0  0  0  0
   -0.2605   22.4252  -25.3977 C   0  0  0  0  0  0  0  0  0  0  0  0
    0.8669   22.1910  -24.5919 N   0  0  0  0  0  0  0  0  0  0  0  0
   -0.2637   23.3236  -26.2471 O   0  0  0  0  0  0  0  0  0  0  0  0
    0.8374   22.1748  -23.5315 H   0  0  0  0  0  0  0  0  0  0  0  0
    1.8386   22.0117  -24.9854 H   0  0  0  0  0  0  0  0  0  0  0  0
 24 25  1  0  0  0
 25 26  2  0  0  0
 26 27  1  0  0  0
 27 28  2  0  0  0
 28 29  1  0  0  0
 29 30  2  0  0  0
 30 20  1  0  0  0
 20 21  1  0  0  0
 21 22  2  0  0  0
 21  1  1  0  0  0
  1  2  2  0  0  0
  2  3  1  0  0  0
  3  6  1  0  0  0
  6  7  2  0  0  0
  7  8  1  0  0  0
  8  9  2  0  0  0
  9 10  1  0  0  0
 10 11  2  0  0  0
 11 12  1  0  0  0
  3  4  1  0  0  0
  4 13  1  0  0  0
 13 14  2  0  0  0
 14 15  1  0  0  0
 15 16  2  0  0  0
 16 17  1  0  0  0
 16 18  1  0  0  0
 18 19  2  0  0  0
  4  5  2  0  0  0
  5 31  1  0  0  0
 31 32  1  0  0  0
 32 33  1  0  0  0
 32 34  2  0  0  0
 30 25  1  0  0  0
  5  1  1  0  0  0
 11  6  1  0  0  0
 19 13  1  0  0  0
 20 23  1  0  0  0
 33 35  1  0  0  0
 33 36  1  0  0  0
M  END
> <minimizedAffinity>
-8.01267

> <CNNscore>
0.4823579788

> <CNNaffinity>
7.3040695190

> <CNN_VS>
3.5231761932

> <CNNaffinity_variance>
0.4339541793

$$$$
[H]c1nc([H])c(N([H])C(=O)c2nn(-c3c([H])c([H])c([H])c([H])c3Cl)c(-c3c([H])c([H])c(Cl)c([H])c3[H])c2C([H])([H])C(=O)N([H])[H])c(C([H])([H])[H])c1[H]


 36 39  0  0  0  0  0  0  0  0999 V2000
   -2.6153   22.3342  -24.0735 C   0  0  0  0  0  0  0  0  0  0  0  0
   -3.6894   23.0311  -23.6720 N   0  0  0  0  0  0  0  0  0  0  0  0
   -4.3609   23.5317  -24.7165 N   0  0  0  0  0  0  0  0  0  0  0  0
   -3.7302   23.1688  -25.8768 C   0  0  0  0  0  0  0  0  0  0  0  0
   -2.6468   22.4212  -25.4652 C   0  0  0  0  0  0  0  0  0  0  0  0
   -5.5082   24.3284  -24.5103 C   0  0  0  0  0  0  0  0  0  0  0  0
   -6.7584   23.7556  -24.5265 C   0  0  0  0  0  0  0  0  0  0  0  0
   -7.9104   24.5318  -24.3512 C   0  0  0  0  0  0  0  0  0  0  0  0
   -7.8130   25.8991  -24.1570 C   0  0  0  0  0  0  0  0  0  0  0  0
   -6.5628   26.4666  -24.1416 C   0  0  0  0  0  0  0  0  0  0  0  0
   -5.4310   25.7041  -24.3139 C   0  0  0  0  0  0  0  0  0  0  0  0
   -3.8322   26.4133  -24.2964 Cl  0  0  0  0  0  0  0  0  0  0  0  0
   -4.0826   23.6490  -27.2037 C   0  0  0  0  0  0  0  0  0  0  0  0
   -4.6506   22.8857  -28.1919 C   0  0  0  0  0  0  0  0  0  0  0  0
   -5.0857   23.3744  -29.4173 C   0  0  0  0  0  0  0  0  0  0  0  0
   -4.9488   24.7118  -29.6887 C   0  0  0  0  0  0  0  0  0  0  0  0
   -5.5038   25.3015  -31.2374 Cl  0  0  0  0  0  0  0  0  0  0  0  0
   -4.3909   25.5177  -28.7469 C   0  0  0  0  0  0  0  0  0  0  0  0
   -3.9599   25.0078  -27.5174 C   0  0  0  0  0  0  0  0  0  0  0  0
   -0.3027   22.0770  -23.2616 N   0  0  0  0  0  0  0  0  0  0  0  0
   -1.6472   21.6542  -23.2090 C   0  0  0  0  0  0  0  0  0  0  0  0
   -2.0063   20.7446  -22.4642 O   0  0  0  0  0  0  0  0  0  0  0  0
   -0.1201   22.8823  -23.9530 H   0  0  0  0  0  0  0  0  0  0  0  0
    1.8665   21.1650  -24.7376 C   0  0  0  0  0  0  0  0  0  0  0  0
    1.9122   21.1333  -23.2647 C   0  0  0  0  0  0  0  0  0  0  0  0
    3.0372   20.6513  -22.6263 C   0  0  0  0  0  0  0  0  0  0  0  0
    3.1172   20.6013  -21.2570 C   0  0  0  0  0  0  0  0  0  0  0  0
    2.0558   21.0408  -20.5762 N   0  0  0  0  0  0  0  0  0  0  0  0
    0.9241   21.5254  -21.1796 C   0  0  0  0  0  0  0  0  0  0  0  0
    0.7984   21.5946  -22.5415 C   0  0  0  0  0  0  0  0  0  0  0  0
   -1.6546   21.6899  -26.3135 C   0  0  0  0  0  0  0  0  0  0  0  0
   -0.7112   22.7401  -26.8615 C   0  0  0  0  0  0  0  0  0  0  0  0
   -0.7985   23.0364  -28.2325 N   0  0  0  0  0  0  0  0  0  0  0  0
    0.1054   23.3164  -26.1336 O   0  0  0  0  0  0  0  0  0  0  0  0
   -0.7214   22.3051  -28.9972 H   0  0  0  0  0  0  0  0  0  0  0  0
   -0.9489   24.0198  -28.6088 H   0  0  0  0  0  0  0  0  0  0  0  0
 24 25  1  0  0  0
 25 26  2  0  0  0
 26 27  1  0  0  0
 27 28  2  0  0  0
 28 29  1  0  0  0
 29 30  2  0  0  0
 30 20  1  0  0  0
 20 21  1  0  0  0
 21 22  2  0  0  0
 21  1  1  0  0  0
  1  2  2  0  0  0
  2  3  1  0  0  0
  3  6  1  0  0  0
  6  7  2  0  0  0
  7  8  1  0  0  0
  8  9  2  0  0  0
  9 10  1  0  0  0
 10 11  2  0  0  0
 11 12  1  0  0  0
  3  4  1  0  0  0
  4 13  1  0  0  0
 13 14  2  0  0  0
 14 15  1  0  0  0
 15 16  2  0  0  0
 16 17  1  0  0  0
 16 18  1  0  0  0
 18 19  2  0  0  0
  4  5  2  0  0  0
  5 31  1  0  0  0
 31 32  1  0  0  0
 32 33  1  0  0  0
 32 34  2  0  0  0
 30 25  1  0  0  0
  5  1  1  0  0  0
 11  6  1  0  0  0
 19 13  1  0  0  0
 20 23  1  0  0  0
 33 35  1  0  0  0
 33 36  1  0  0  0
M  END
> <minimizedAffinity>
-7.36639

> <CNNscore>
0.4256770313

> <CNNaffinity>
7.4019937515

> <CNN_VS>
3.1508586407

> <CNNaffinity_variance>
0.2647574842

$$$$
[H]c1nc([H])c(N([H])C(=O)c2nn(-c3c([H])c([H])c([H])c([H])c3Cl)c(-c3c([H])c([H])c(Cl)c([H])c3[H])c2C([H])([H])C(=O)N([H])[H])c(C([H])([H])[H])c1[H]


 36 39  0  0  0  0  0  0  0  0999 V2000
   -3.4471   23.3113  -21.8899 C   0  0  0  0  0  0  0  0  0  0  0  0
   -4.6301   23.9378  -21.9826 N   0  0  0  0  0  0  0  0  0  0  0  0
   -5.4082   23.6633  -20.9282 N   0  0  0  0  0  0  0  0  0  0  0  0
   -4.7410   22.8201  -20.0799 C   0  0  0  0  0  0  0  0  0  0  0  0
   -3.5204   22.6099  -20.6866 C   0  0  0  0  0  0  0  0  0  0  0  0
   -6.7125   24.1978  -20.8470 C   0  0  0  0  0  0  0  0  0  0  0  0
   -6.9144   25.4466  -20.3073 C   0  0  0  0  0  0  0  0  0  0  0  0
   -8.2023   25.9837  -20.1926 C   0  0  0  0  0  0  0  0  0  0  0  0
   -9.3041   25.2642  -20.6226 C   0  0  0  0  0  0  0  0  0  0  0  0
   -9.0977   24.0179  -21.1607 C   0  0  0  0  0  0  0  0  0  0  0  0
   -7.8325   23.4901  -21.2733 C   0  0  0  0  0  0  0  0  0  0  0  0
   -7.5546   21.9042  -21.9568 Cl  0  0  0  0  0  0  0  0  0  0  0  0
   -5.3205   22.1878  -18.9053 C   0  0  0  0  0  0  0  0  0  0  0  0
   -5.5314   22.8088  -17.7004 C   0  0  0  0  0  0  0  0  0  0  0  0
   -6.1847   22.2338  -16.6178 C   0  0  0  0  0  0  0  0  0  0  0  0
   -6.6627   20.9532  -16.7305 C   0  0  0  0  0  0  0  0  0  0  0  0
   -7.4807   20.2526  -15.3543 Cl  0  0  0  0  0  0  0  0  0  0  0  0
   -6.4814   20.2870  -17.9015 C   0  0  0  0  0  0  0  0  0  0  0  0
   -5.8222   20.8832  -18.9819 C   0  0  0  0  0  0  0  0  0  0  0  0
   -2.4184   22.5235  -23.9862 N   0  0  0  0  0  0  0  0  0  0  0  0
   -2.3524   23.3724  -22.8619 C   0  0  0  0  0  0  0  0  0  0  0  0
   -1.4102   24.1438  -22.6933 O   0  0  0  0  0  0  0  0  0  0  0  0
   -3.2948   21.8983  -24.0162 H   0  0  0  0  0  0  0  0  0  0  0  0
   -3.3403   23.1840  -26.5219 C   0  0  0  0  0  0  0  0  0  0  0  0
   -1.9496   22.7315  -26.3385 C   0  0  0  0  0  0  0  0  0  0  0  0
   -1.1109   22.6409  -27.4312 C   0  0  0  0  0  0  0  0  0  0  0  0
    0.1892   22.2199  -27.3030 C   0  0  0  0  0  0  0  0  0  0  0  0
    0.6001   21.9036  -26.0724 N   0  0  0  0  0  0  0  0  0  0  0  0
   -0.2071   21.9827  -24.9670 C   0  0  0  0  0  0  0  0  0  0  0  0
   -1.5100   22.3970  -25.0457 C   0  0  0  0  0  0  0  0  0  0  0  0
   -2.3494   21.8405  -20.1614 C   0  0  0  0  0  0  0  0  0  0  0  0
   -1.6671   22.7432  -19.1551 C   0  0  0  0  0  0  0  0  0  0  0  0
   -1.8570   22.4539  -17.7930 N   0  0  0  0  0  0  0  0  0  0  0  0
   -0.9693   23.6985  -19.5146 O   0  0  0  0  0  0  0  0  0  0  0  0
   -2.8119   22.3640  -17.3395 H   0  0  0  0  0  0  0  0  0  0  0  0
   -1.0549   22.3026  -17.1110 H   0  0  0  0  0  0  0  0  0  0  0  0
 24 25  1  0  0  0
 25 26  2  0  0  0
 26 27  1  0  0  0
 27 28  2  0  0  0
 28 29  1  0  0  0
 29 30  2  0  0  0
 30 20  1  0  0  0
 20 21  1  0  0  0
 21 22  2  0  0  0
 21  1  1  0  0  0
  1  2  2  0  0  0
  2  3  1  0  0  0
  3  6  1  0  0  0
  6  7  2  0  0  0
  7  8  1  0  0  0
  8  9  2  0  0  0
  9 10  1  0  0  0
 10 11  2  0  0  0
 11 12  1  0  0  0
  3  4  1  0  0  0
  4 13  1  0  0  0
 13 14  2  0  0  0
 14 15  1  0  0  0
 15 16  2  0  0  0
 16 17  1  0  0  0
 16 18  1  0  0  0
 18 19  2  0  0  0
  4  5  2  0  0  0
  5 31  1  0  0  0
 31 32  1  0  0  0
 32 33  1  0  0  0
 32 34  2  0  0  0
 30 25  1  0  0  0
  5  1  1  0  0  0
 11  6  1  0  0  0
 19 13  1  0  0  0
 20 23  1  0  0  0
 33 35  1  0  0  0
 33 36  1  0  0  0
M  END
> <minimizedAffinity>
-7.79696

> <CNNscore>
0.1710410118

> <CNNaffinity>
6.1776685715

> <CNN_VS>
1.0566346645

> <CNNaffinity_variance>
0.1714566052

$$$$
[H]c1nc([H])c(N([H])C(=O)c2nn(-c3c([H])c([H])c([H])c([H])c3Cl)c(-c3c([H])c([H])c(Cl)c([H])c3[H])c2C([H])([H])C(=O)N([H])[H])c(C([H])([H])[H])c1[H]


 36 39  0  0  0  0  0  0  0  0999 V2000
   -5.1384   23.2302  -23.6888 C   0  0  0  0  0  0  0  0  0  0  0  0
   -3.8902   22.8722  -24.0272 N   0  0  0  0  0  0  0  0  0  0  0  0
   -3.6144   23.2120  -25.2925 N   0  0  0  0  0  0  0  0  0  0  0  0
   -4.7074   23.8245  -25.8457 C   0  0  0  0  0  0  0  0  0  0  0  0
   -5.6490   23.8333  -24.8380 C   0  0  0  0  0  0  0  0  0  0  0  0
   -2.3607   22.8936  -25.8586 C   0  0  0  0  0  0  0  0  0  0  0  0
   -2.2158   22.8323  -27.2249 C   0  0  0  0  0  0  0  0  0  0  0  0
   -0.9883   22.4919  -27.8060 C   0  0  0  0  0  0  0  0  0  0  0  0
    0.1099   22.2085  -27.0121 C   0  0  0  0  0  0  0  0  0  0  0  0
   -0.0395   22.2710  -25.6486 C   0  0  0  0  0  0  0  0  0  0  0  0
   -1.2454   22.6053  -25.0776 C   0  0  0  0  0  0  0  0  0  0  0  0
   -1.4502   22.6889  -23.3425 Cl  0  0  0  0  0  0  0  0  0  0  0  0
   -4.8350   24.1986  -27.2454 C   0  0  0  0  0  0  0  0  0  0  0  0
   -5.3399   23.3915  -28.2330 C   0  0  0  0  0  0  0  0  0  0  0  0
   -5.5615   23.7910  -29.5449 C   0  0  0  0  0  0  0  0  0  0  0  0
   -5.2615   25.0787  -29.9098 C   0  0  0  0  0  0  0  0  0  0  0  0
   -5.5494   25.5564  -31.5660 Cl  0  0  0  0  0  0  0  0  0  0  0  0
   -4.7564   25.9243  -28.9729 C   0  0  0  0  0  0  0  0  0  0  0  0
   -4.5414   25.5044  -27.6558 C   0  0  0  0  0  0  0  0  0  0  0  0
   -5.2529   23.6780  -21.2681 N   0  0  0  0  0  0  0  0  0  0  0  0
   -5.7841   23.0115  -22.3917 C   0  0  0  0  0  0  0  0  0  0  0  0
   -6.7586   22.2682  -22.2970 O   0  0  0  0  0  0  0  0  0  0  0  0
   -4.4008   24.2997  -21.4857 H   0  0  0  0  0  0  0  0  0  0  0  0
   -3.7602   22.1368  -19.5038 C   0  0  0  0  0  0  0  0  0  0  0  0
   -4.9449   22.8692  -19.0214 C   0  0  0  0  0  0  0  0  0  0  0  0
   -5.3046   22.7861  -17.6913 C   0  0  0  0  0  0  0  0  0  0  0  0
   -6.4030   23.4494  -17.2039 C   0  0  0  0  0  0  0  0  0  0  0  0
   -7.1033   24.1764  -18.0781 N   0  0  0  0  0  0  0  0  0  0  0  0
   -6.7728   24.2798  -19.4047 C   0  0  0  0  0  0  0  0  0  0  0  0
   -5.6868   23.6367  -19.9362 C   0  0  0  0  0  0  0  0  0  0  0  0
   -7.0072   24.4609  -24.8500 C   0  0  0  0  0  0  0  0  0  0  0  0
   -6.8834   25.7521  -24.0685 C   0  0  0  0  0  0  0  0  0  0  0  0
   -5.9283   26.6850  -24.5072 N   0  0  0  0  0  0  0  0  0  0  0  0
   -7.5936   25.9798  -23.0823 O   0  0  0  0  0  0  0  0  0  0  0  0
   -4.9016   26.4545  -24.6426 H   0  0  0  0  0  0  0  0  0  0  0  0
   -6.1631   27.6965  -24.7374 H   0  0  0  0  0  0  0  0  0  0  0  0
 24 25  1  0  0  0
 25 26  2  0  0  0
 26 27  1  0  0  0
 27 28  2  0  0  0
 28 29  1  0  0  0
 29 30  2  0  0  0
 30 20  1  0  0  0
 20 21  1  0  0  0
 21 22  2  0  0  0
 21  1  1  0  0  0
  1  2  2  0  0  0
  2  3  1  0  0  0
  3  6  1  0  0  0
  6  7  2  0  0  0
  7  8  1  0  0  0
  8  9  2  0  0  0
  9 10  1  0  0  0
 10 11  2  0  0  0
 11 12  1  0  0  0
  3  4  1  0  0  0
  4 13  1  0  0  0
 13 14  2  0  0  0
 14 15  1  0  0  0
 15 16  2  0  0  0
 16 17  1  0  0  0
 16 18  1  0  0  0
 18 19  2  0  0  0
  4  5  2  0  0  0
  5 31  1  0  0  0
 31 32  1  0  0  0
 32 33  1  0  0  0
 32 34  2  0  0  0
 30 25  1  0  0  0
  5  1  1  0  0  0
 11  6  1  0  0  0
 19 13  1  0  0  0
 20 23  1  0  0  0
 33 35  1  0  0  0
 33 36  1  0  0  0
M  END
> <minimizedAffinity>
-9.94331

> <CNNscore>
0.1665807366

> <CNNaffinity>
6.5709123611

> <CNN_VS>
1.0945874453

> <CNNaffinity_variance>
0.4856237471

$$$$
[H]c1nc([H])c(N([H])C(=O)c2nn(-c3c([H])c([H])c([H])c([H])c3Cl)c(-c3c([H])c([H])c(Cl)c([H])c3[H])c2C([H])([H])C(=O)N([H])[H])c(C([H])([H])[H])c1[H]


 36 39  0  0  0  0  0  0  0  0999 V2000
   -0.6431   20.7113  -21.2914 C   0  0  0  0  0  0  0  0  0  0  0  0
   -0.3994   20.8143  -22.6070 N   0  0  0  0  0  0  0  0  0  0  0  0
   -1.1726   21.7502  -23.1716 N   0  0  0  0  0  0  0  0  0  0  0  0
   -1.9762   22.3116  -22.2152 C   0  0  0  0  0  0  0  0  0  0  0  0
   -1.6363   21.6598  -21.0482 C   0  0  0  0  0  0  0  0  0  0  0  0
   -1.0970   21.9940  -24.5603 C   0  0  0  0  0  0  0  0  0  0  0  0
    0.0244   22.5812  -25.0981 C   0  0  0  0  0  0  0  0  0  0  0  0
    0.1084   22.8563  -26.4683 C   0  0  0  0  0  0  0  0  0  0  0  0
   -0.9416   22.5409  -27.3136 C   0  0  0  0  0  0  0  0  0  0  0  0
   -2.0591   21.9548  -26.7722 C   0  0  0  0  0  0  0  0  0  0  0  0
   -2.1418   21.6845  -25.4261 C   0  0  0  0  0  0  0  0  0  0  0  0
   -3.5588   20.9382  -24.7228 Cl  0  0  0  0  0  0  0  0  0  0  0  0
   -3.0499   23.2570  -22.4773 C   0  0  0  0  0  0  0  0  0  0  0  0
   -2.8847   24.5035  -23.0256 C   0  0  0  0  0  0  0  0  0  0  0  0
   -3.9228   25.3579  -23.3751 C   0  0  0  0  0  0  0  0  0  0  0  0
   -5.2172   24.9549  -23.1668 C   0  0  0  0  0  0  0  0  0  0  0  0
   -6.5050   26.0480  -23.6149 Cl  0  0  0  0  0  0  0  0  0  0  0  0
   -5.4424   23.7290  -22.6243 C   0  0  0  0  0  0  0  0  0  0  0  0
   -4.3840   22.8814  -22.2800 C   0  0  0  0  0  0  0  0  0  0  0  0
   -0.4577   18.4591  -20.3083 N   0  0  0  0  0  0  0  0  0  0  0  0
    0.0074   19.7897  -20.3562 C   0  0  0  0  0  0  0  0  0  0  0  0
    0.9295   20.1746  -19.6402 O   0  0  0  0  0  0  0  0  0  0  0  0
   -1.2682   18.2502  -20.9860 H   0  0  0  0  0  0  0  0  0  0  0  0
    1.6366   16.9334  -21.3093 C   0  0  0  0  0  0  0  0  0  0  0  0
    1.0579   16.6154  -19.9916 C   0  0  0  0  0  0  0  0  0  0  0  0
    1.5635   15.5595  -19.2601 C   0  0  0  0  0  0  0  0  0  0  0  0
    1.0495   15.2286  -18.0312 C   0  0  0  0  0  0  0  0  0  0  0  0
    0.0394   15.9769  -17.5807 N   0  0  0  0  0  0  0  0  0  0  0  0
   -0.4854   17.0318  -18.2819 C   0  0  0  0  0  0  0  0  0  0  0  0
   -0.0057   17.3990  -19.5109 C   0  0  0  0  0  0  0  0  0  0  0  0
   -2.1329   21.9292  -19.6627 C   0  0  0  0  0  0  0  0  0  0  0  0
   -1.1008   22.8248  -19.0100 C   0  0  0  0  0  0  0  0  0  0  0  0
   -0.4913   22.3585  -17.8327 N   0  0  0  0  0  0  0  0  0  0  0  0
   -0.8035   23.9240  -19.4918 O   0  0  0  0  0  0  0  0  0  0  0  0
   -1.0326   22.0484  -16.9745 H   0  0  0  0  0  0  0  0  0  0  0  0
    0.5626   22.2810  -17.7121 H   0  0  0  0  0  0  0  0  0  0  0  0
 24 25  1  0  0  0
 25 26  2  0  0  0
 26 27  1  0  0  0
 27 28  2  0  0  0
 28 29  1  0  0  0
 29 30  2  0  0  0
 30 20  1  0  0  0
 20 21  1  0  0  0
 21 22  2  0  0  0
 21  1  1  0  0  0
  1  2  2  0  0  0
  2  3  1  0  0  0
  3  6  1  0  0  0
  6  7  2  0  0  0
  7  8  1  0  0  0
  8  9  2  0  0  0
  9 10  1  0  0  0
 10 11  2  0  0  0
 11 12  1  0  0  0
  3  4  1  0  0  0
  4 13  1  0  0  0
 13 14  2  0  0  0
 14 15  1  0  0  0
 15 16  2  0  0  0
 16 17  1  0  0  0
 16 18  1  0  0  0
 18 19  2  0  0  0
  4  5  2  0  0  0
  5 31  1  0  0  0
 31 32  1  0  0  0
 32 33  1  0  0  0
 32 34  2  0  0  0
 30 25  1  0  0  0
  5  1  1  0  0  0
 11  6  1  0  0  0
 19 13  1  0  0  0
 20 23  1  0  0  0
 33 35  1  0  0  0
 33 36  1  0  0  0
M  END
> <minimizedAffinity>
-7.68105

> <CNNscore>
0.1445100605

> <CNNaffinity>
6.1152482033

> <CNN_VS>
0.8837149143

> <CNNaffinity_variance>
0.2351632416

$$$$
[H]c1nc([H])c(N([H])C(=O)c2nn(-c3c([H])c([H])c([H])c([H])c3Cl)c(-c3c([H])c([H])c(Cl)c([H])c3[H])c2C([H])([H])C(=O)N([H])[H])c(C([H])([H])[H])c1[H]


 36 39  0  0  0  0  0  0  0  0999 V2000
   -4.2513   24.1565  -23.7340 C   0  0  0  0  0  0  0  0  0  0  0  0
   -3.1362   23.6259  -24.2590 N   0  0  0  0  0  0  0  0  0  0  0  0
   -3.1233   23.7461  -25.5924 N   0  0  0  0  0  0  0  0  0  0  0  0
   -4.2663   24.3802  -26.0013 C   0  0  0  0  0  0  0  0  0  0  0  0
   -4.9598   24.6338  -24.8365 C   0  0  0  0  0  0  0  0  0  0  0  0
   -2.0503   23.2205  -26.3447 C   0  0  0  0  0  0  0  0  0  0  0  0
   -1.9741   23.4576  -27.6973 C   0  0  0  0  0  0  0  0  0  0  0  0
   -0.9334   22.9231  -28.4663 C   0  0  0  0  0  0  0  0  0  0  0  0
    0.0451   22.1409  -27.8770 C   0  0  0  0  0  0  0  0  0  0  0  0
   -0.0351   21.9069  -26.5263 C   0  0  0  0  0  0  0  0  0  0  0  0
   -1.0576   22.4319  -25.7708 C   0  0  0  0  0  0  0  0  0  0  0  0
   -1.1723   22.1422  -24.0496 Cl  0  0  0  0  0  0  0  0  0  0  0  0
   -4.6731   24.5561  -27.3867 C   0  0  0  0  0  0  0  0  0  0  0  0
   -4.4380   25.6784  -28.1396 C   0  0  0  0  0  0  0  0  0  0  0  0
   -4.7304   25.7990  -29.4922 C   0  0  0  0  0  0  0  0  0  0  0  0
   -5.2975   24.7371  -30.1494 C   0  0  0  0  0  0  0  0  0  0  0  0
   -5.6557   24.9142  -31.8507 Cl  0  0  0  0  0  0  0  0  0  0  0  0
   -5.5550   23.5979  -29.4537 C   0  0  0  0  0  0  0  0  0  0  0  0
   -5.2521   23.4943  -28.0918 C   0  0  0  0  0  0  0  0  0  0  0  0
   -5.3959   23.1473  -21.7988 N   0  0  0  0  0  0  0  0  0  0  0  0
   -4.6089   24.1983  -22.3136 C   0  0  0  0  0  0  0  0  0  0  0  0
   -4.2291   25.1254  -21.6013 O   0  0  0  0  0  0  0  0  0  0  0  0
   -5.6609   22.3977  -22.5253 H   0  0  0  0  0  0  0  0  0  0  0  0
   -8.0944   23.6224  -21.3422 C   0  0  0  0  0  0  0  0  0  0  0  0
   -7.2256   23.1858  -20.2344 C   0  0  0  0  0  0  0  0  0  0  0  0
   -7.7607   23.0131  -18.9737 C   0  0  0  0  0  0  0  0  0  0  0  0
   -6.9845   22.6119  -17.9152 C   0  0  0  0  0  0  0  0  0  0  0  0
   -5.6904   22.3979  -18.1657 N   0  0  0  0  0  0  0  0  0  0  0  0
   -5.1281   22.5602  -19.4056 C   0  0  0  0  0  0  0  0  0  0  0  0
   -5.8621   22.9586  -20.4908 C   0  0  0  0  0  0  0  0  0  0  0  0
   -6.2405   25.3896  -24.6712 C   0  0  0  0  0  0  0  0  0  0  0  0
   -7.3543   24.3924  -24.9122 C   0  0  0  0  0  0  0  0  0  0  0  0
   -8.6698   24.8861  -24.9422 N   0  0  0  0  0  0  0  0  0  0  0  0
   -7.1189   23.1898  -25.0767 O   0  0  0  0  0  0  0  0  0  0  0  0
   -9.1012   25.4554  -24.1578 H   0  0  0  0  0  0  0  0  0  0  0  0
   -9.3350   24.7259  -25.7565 H   0  0  0  0  0  0  0  0  0  0  0  0
 24 25  1  0  0  0
 25 26  2  0  0  0
 26 27  1  0  0  0
 27 28  2  0  0  0
 28 29  1  0  0  0
 29 30  2  0  0  0
 30 20  1  0  0  0
 20 21  1  0  0  0
 21 22  2  0  0  0
 21  1  1  0  0  0
  1  2  2  0  0  0
  2  3  1  0  0  0
  3  6  1  0  0  0
  6  7  2  0  0  0
  7  8  1  0  0  0
  8  9  2  0  0  0
  9 10  1  0  0  0
 10 11  2  0  0  0
 11 12  1  0  0  0
  3  4  1  0  0  0
  4 13  1  0  0  0
 13 14  2  0  0  0
 14 15  1  0  0  0
 15 16  2  0  0  0
 16 17  1  0  0  0
 16 18  1  0  0  0
 18 19  2  0  0  0
  4  5  2  0  0  0
  5 31  1  0  0  0
 31 32  1  0  0  0
 32 33  1  0  0  0
 32 34  2  0  0  0
 30 25  1  0  0  0
  5  1  1  0  0  0
 11  6  1  0  0  0
 19 13  1  0  0  0
 20 23  1  0  0  0
 33 35  1  0  0  0
 33 36  1  0  0  0
M  END
> <minimizedAffinity>
-8.68019

> <CNNscore>
0.1361509115

> <CNNaffinity>
6.8065719604

> <CNN_VS>
0.9267209768

> <CNNaffinity_variance>
0.2841357589

$$$$
[H]c1nc([H])c(N([H])C(=O)c2nn(-c3c([H])c([H])c([H])c([H])c3Cl)c(-c3c([H])c([H])c(Cl)c([H])c3[H])c2C([H])([H])C(=O)N([H])[H])c(C([H])([H])[H])c1[H]


 36 39  0  0  0  0  0  0  0  0999 V2000
   -1.1542   21.5644  -22.4921 C   0  0  0  0  0  0  0  0  0  0  0  0
   -0.0907   20.7514  -22.5852 N   0  0  0  0  0  0  0  0  0  0  0  0
    0.6221   20.7538  -21.4519 N   0  0  0  0  0  0  0  0  0  0  0  0
    0.0319   21.5955  -20.5470 C   0  0  0  0  0  0  0  0  0  0  0  0
   -1.0745   22.0923  -21.2037 C   0  0  0  0  0  0  0  0  0  0  0  0
    1.8043   19.9881  -21.3521 C   0  0  0  0  0  0  0  0  0  0  0  0
    3.0142   20.5367  -21.7078 C   0  0  0  0  0  0  0  0  0  0  0  0
    4.1943   19.7861  -21.6422 C   0  0  0  0  0  0  0  0  0  0  0  0
    4.1662   18.4694  -21.2156 C   0  0  0  0  0  0  0  0  0  0  0  0
    2.9560   17.9259  -20.8614 C   0  0  0  0  0  0  0  0  0  0  0  0
    1.7966   18.6632  -20.9260 C   0  0  0  0  0  0  0  0  0  0  0  0
    0.2482   17.9841  -20.4780 Cl  0  0  0  0  0  0  0  0  0  0  0  0
    0.5993   21.9686  -19.2608 C   0  0  0  0  0  0  0  0  0  0  0  0
    0.3579   21.3203  -18.0762 C   0  0  0  0  0  0  0  0  0  0  0  0
    0.9867   21.6120  -16.8724 C   0  0  0  0  0  0  0  0  0  0  0  0
    1.9194   22.6169  -16.8334 C   0  0  0  0  0  0  0  0  0  0  0  0
    2.6961   22.9643  -15.3069 Cl  0  0  0  0  0  0  0  0  0  0  0  0
    2.1990   23.2960  -17.9773 C   0  0  0  0  0  0  0  0  0  0  0  0
    1.5565   22.9870  -19.1810 C   0  0  0  0  0  0  0  0  0  0  0  0
   -1.7491   22.5655  -24.6641 N   0  0  0  0  0  0  0  0  0  0  0  0
   -2.1493   21.8173  -23.5376 C   0  0  0  0  0  0  0  0  0  0  0  0
   -3.2950   21.3857  -23.4264 O   0  0  0  0  0  0  0  0  0  0  0  0
   -0.7204   22.8835  -24.6399 H   0  0  0  0  0  0  0  0  0  0  0  0
   -0.5511   22.2434  -27.1495 C   0  0  0  0  0  0  0  0  0  0  0  0
   -1.9224   22.7758  -27.0562 C   0  0  0  0  0  0  0  0  0  0  0  0
   -2.6054   23.1097  -28.2084 C   0  0  0  0  0  0  0  0  0  0  0  0
   -3.8819   23.6124  -28.1637 C   0  0  0  0  0  0  0  0  0  0  0  0
   -4.4275   23.7614  -26.9541 N   0  0  0  0  0  0  0  0  0  0  0  0
   -3.7764   23.4394  -25.7912 C   0  0  0  0  0  0  0  0  0  0  0  0
   -2.5031   22.9353  -25.7859 C   0  0  0  0  0  0  0  0  0  0  0  0
   -2.1418   22.9910  -20.6632 C   0  0  0  0  0  0  0  0  0  0  0  0
   -3.0081   22.1288  -19.7692 C   0  0  0  0  0  0  0  0  0  0  0  0
   -3.8132   21.1581  -20.3894 N   0  0  0  0  0  0  0  0  0  0  0  0
   -3.0094   22.2708  -18.5410 O   0  0  0  0  0  0  0  0  0  0  0  0
   -4.5081   21.3772  -21.1606 H   0  0  0  0  0  0  0  0  0  0  0  0
   -3.7869   20.1265  -20.1317 H   0  0  0  0  0  0  0  0  0  0  0  0
 24 25  1  0  0  0
 25 26  2  0  0  0
 26 27  1  0  0  0
 27 28  2  0  0  0
 28 29  1  0  0  0
 29 30  2  0  0  0
 30 20  1  0  0  0
 20 21  1  0  0  0
 21 22  2  0  0  0
 21  1  1  0  0  0
  1  2  2  0  0  0
  2  3  1  0  0  0
  3  6  1  0  0  0
  6  7  2  0  0  0
  7  8  1  0  0  0
  8  9  2  0  0  0
  9 10  1  0  0  0
 10 11  2  0  0  0
 11 12  1  0  0  0
  3  4  1  0  0  0
  4 13  1  0  0  0
 13 14  2  0  0  0
 14 15  1  0  0  0
 15 16  2  0  0  0
 16 17  1  0  0  0
 16 18  1  0  0  0
 18 19  2  0  0  0
  4  5  2  0  0  0
  5 31  1  0  0  0
 31 32  1  0  0  0
 32 33  1  0  0  0
 32 34  2  0  0  0
 30 25  1  0  0  0
  5  1  1  0  0  0
 11  6  1  0  0  0
 19 13  1  0  0  0
 20 23  1  0  0  0
 33 35  1  0  0  0
 33 36  1  0  0  0
M  END
> <minimizedAffinity>
-7.22843

> <CNNscore>
0.1235133335

> <CNNaffinity>
6.4262495041

> <CNN_VS>
0.7937275171

> <CNNaffinity_variance>
0.1164484397

$$$$
[H]c1nc([H])c(N([H])C(=O)c2nn(-c3c([H])c([H])c([H])c([H])c3Cl)c(-c3c([H])c([H])c(Cl)c([H])c3[H])c2C([H])([H])C(=O)N([H])[H])c(C([H])([H])[H])c1[H]


 36 39  0  0  0  0  0  0  0  0999 V2000
   -3.3117   23.1332  -21.6724 C   0  0  0  0  0  0  0  0  0  0  0  0
   -4.6524   23.1658  -21.7170 N   0  0  0  0  0  0  0  0  0  0  0  0
   -5.1845   22.8720  -20.5240 N   0  0  0  0  0  0  0  0  0  0  0  0
   -4.1788   22.6287  -19.6267 C   0  0  0  0  0  0  0  0  0  0  0  0
   -3.0174   22.7970  -20.3512 C   0  0  0  0  0  0  0  0  0  0  0  0
   -6.5862   22.8183  -20.3629 C   0  0  0  0  0  0  0  0  0  0  0  0
   -7.2806   21.6896  -20.7308 C   0  0  0  0  0  0  0  0  0  0  0  0
   -8.6735   21.6260  -20.6046 C   0  0  0  0  0  0  0  0  0  0  0  0
   -9.3833   22.7041  -20.1041 C   0  0  0  0  0  0  0  0  0  0  0  0
   -8.6858   23.8288  -19.7381 C   0  0  0  0  0  0  0  0  0  0  0  0
   -7.3174   23.8915  -19.8621 C   0  0  0  0  0  0  0  0  0  0  0  0
   -6.4159   25.3173  -19.3998 Cl  0  0  0  0  0  0  0  0  0  0  0  0
   -4.3703   22.1356  -18.2719 C   0  0  0  0  0  0  0  0  0  0  0  0
   -4.5848   20.8232  -17.9350 C   0  0  0  0  0  0  0  0  0  0  0  0
   -4.6573   20.3423  -16.6338 C   0  0  0  0  0  0  0  0  0  0  0  0
   -4.5098   21.2191  -15.5894 C   0  0  0  0  0  0  0  0  0  0  0  0
   -4.6052   20.5891  -13.9621 Cl  0  0  0  0  0  0  0  0  0  0  0  0
   -4.2964   22.5335  -15.8626 C   0  0  0  0  0  0  0  0  0  0  0  0
   -4.2248   22.9993  -17.1799 C   0  0  0  0  0  0  0  0  0  0  0  0
   -2.3459   22.4478  -23.8337 N   0  0  0  0  0  0  0  0  0  0  0  0
   -2.3982   23.3930  -22.7883 C   0  0  0  0  0  0  0  0  0  0  0  0
   -1.7033   24.4069  -22.8031 O   0  0  0  0  0  0  0  0  0  0  0  0
   -3.0043   21.6059  -23.7008 H   0  0  0  0  0  0  0  0  0  0  0  0
    0.2838   21.5832  -23.6037 C   0  0  0  0  0  0  0  0  0  0  0  0
   -0.2334   22.0290  -24.9100 C   0  0  0  0  0  0  0  0  0  0  0  0
    0.5944   22.0117  -26.0145 C   0  0  0  0  0  0  0  0  0  0  0  0
    0.1521   22.4228  -27.2472 C   0  0  0  0  0  0  0  0  0  0  0  0
   -1.1146   22.8386  -27.3236 N   0  0  0  0  0  0  0  0  0  0  0  0
   -1.9621   22.8680  -26.2462 C   0  0  0  0  0  0  0  0  0  0  0  0
   -1.5660   22.4680  -24.9978 C   0  0  0  0  0  0  0  0  0  0  0  0
   -1.6060   22.7448  -19.8571 C   0  0  0  0  0  0  0  0  0  0  0  0
   -1.2927   21.2815  -19.6256 C   0  0  0  0  0  0  0  0  0  0  0  0
   -1.2974   20.4334  -20.7462 N   0  0  0  0  0  0  0  0  0  0  0  0
   -1.0420   20.8464  -18.4957 O   0  0  0  0  0  0  0  0  0  0  0  0
   -2.1205   20.3411  -21.4091 H   0  0  0  0  0  0  0  0  0  0  0  0
   -0.4731   19.8176  -21.0158 H   0  0  0  0  0  0  0  0  0  0  0  0
 24 25  1  0  0  0
 25 26  2  0  0  0
 26 27  1  0  0  0
 27 28  2  0  0  0
 28 29  1  0  0  0
 29 30  2  0  0  0
 30 20  1  0  0  0
 20 21  1  0  0  0
 21 22  2  0  0  0
 21  1  1  0  0  0
  1  2  2  0  0  0
  2  3  1  0  0  0
  3  6  1  0  0  0
  6  7  2  0  0  0
  7  8  1  0  0  0
  8  9  2  0  0  0
  9 10  1  0  0  0
 10 11  2  0  0  0
 11 12  1  0  0  0
  3  4  1  0  0  0
  4 13  1  0  0  0
 13 14  2  0  0  0
 14 15  1  0  0  0
 15 16  2  0  0  0
 16 17  1  0  0  0
 16 18  1  0  0  0
 18 19  2  0  0  0
  4  5  2  0  0  0
  5 31  1  0  0  0
 31 32  1  0  0  0
 32 33  1  0  0  0
 32 34  2  0  0  0
 30 25  1  0  0  0
  5  1  1  0  0  0
 11  6  1  0  0  0
 19 13  1  0  0  0
 20 23  1  0  0  0
 33 35  1  0  0  0
 33 36  1  0  0  0
M  END
> <minimizedAffinity>
-7.05782

> <CNNscore>
0.1112149134

> <CNNaffinity>
6.0234017372

> <CNN_VS>
0.6698921323

> <CNNaffinity_variance>
0.1123790964

$$$$
[H]OC([H])([H])C([H])([H])n1c(C2([H])C([H])([H])C([H])([H])N(c3nc([H])nc(N([H])[H])c3C#N)C([H])([H])C2([H])[H])nc(-c2c([H])c([H])c(F)c(C([H])([H])[H])c2[H])c1[H]


 34 37  0  0  0  0  0  0  0  0999 V2000
   -6.5102   23.6733  -19.5722 C   0  0  0  0  0  0  0  0  0  0  0  0
   -7.6150   24.0367  -20.3057 C   0  0  0  0  0  0  0  0  0  0  0  0
   -7.2619   23.9479  -21.6272 N   0  0  0  0  0  0  0  0  0  0  0  0
   -5.9912   23.5465  -21.7121 C   0  0  0  0  0  0  0  0  0  0  0  0
   -5.5554   23.3859  -20.4521 N   0  0  0  0  0  0  0  0  0  0  0  0
   -7.7330   21.6566  -15.1623 C   0  0  0  0  0  0  0  0  0  0  0  0
   -7.0215   22.6707  -15.9786 C   0  0  0  0  0  0  0  0  0  0  0  0
   -7.1046   22.6879  -17.3713 C   0  0  0  0  0  0  0  0  0  0  0  0
   -6.4450   23.6269  -18.1172 C   0  0  0  0  0  0  0  0  0  0  0  0
   -5.6816   24.5766  -17.4751 C   0  0  0  0  0  0  0  0  0  0  0  0
   -5.5806   24.5847  -16.0982 C   0  0  0  0  0  0  0  0  0  0  0  0
   -6.2532   23.6281  -15.3501 C   0  0  0  0  0  0  0  0  0  0  0  0
   -6.1243   23.6745  -13.9890 F   0  0  0  0  0  0  0  0  0  0  0  0
   -5.2030   23.3224  -22.9216 C   0  0  0  0  0  0  0  0  0  0  0  0
   -4.1189   22.2857  -22.6976 C   0  0  0  0  0  0  0  0  0  0  0  0
   -3.7171   21.8435  -24.0824 C   0  0  0  0  0  0  0  0  0  0  0  0
   -3.1451   23.0042  -24.8028 N   0  0  0  0  0  0  0  0  0  0  0  0
   -3.8265   24.2506  -24.7423 C   0  0  0  0  0  0  0  0  0  0  0  0
   -4.4536   24.5586  -23.3719 C   0  0  0  0  0  0  0  0  0  0  0  0
   -1.9225   22.7218  -25.4619 C   0  0  0  0  0  0  0  0  0  0  0  0
   -0.8455   22.2479  -24.7585 N   0  0  0  0  0  0  0  0  0  0  0  0
    0.3314   22.0082  -25.3420 C   0  0  0  0  0  0  0  0  0  0  0  0
    0.5222   22.2178  -26.6454 N   0  0  0  0  0  0  0  0  0  0  0  0
   -0.4845   22.6796  -27.3990 C   0  0  0  0  0  0  0  0  0  0  0  0
   -0.3334   22.9218  -28.8006 N   0  0  0  0  0  0  0  0  0  0  0  0
   -1.7283   22.9330  -26.7855 C   0  0  0  0  0  0  0  0  0  0  0  0
    0.2838   23.7168  -29.1258 H   0  0  0  0  0  0  0  0  0  0  0  0
   -0.8023   22.3531  -29.5318 H   0  0  0  0  0  0  0  0  0  0  0  0
   -2.7940   23.3877  -27.6459 C   0  0  0  0  0  0  0  0  0  0  0  0
   -3.6314   23.7525  -28.3619 N   0  0  0  0  0  0  0  0  0  0  0  0
   -8.1883   24.2535  -22.6766 C   0  0  0  0  0  0  0  0  0  0  0  0
   -8.3230   25.7417  -22.8034 C   0  0  0  0  0  0  0  0  0  0  0  0
   -7.5638   26.3204  -23.7873 O   0  0  0  0  0  0  0  0  0  0  0  0
   -8.0746   26.9808  -24.3436 H   0  0  0  0  0  0  0  0  0  0  0  0
  6  7  1  0  0  0
  7  8  2  0  0  0
  8  9  1  0  0  0
  9  1  1  0  0  0
  1  2  2  0  0  0
  2  3  1  0  0  0
  3 31  1  0  0  0
 31 32  1  0  0  0
 32 33  1  0  0  0
  3  4  1  0  0  0
  4 14  1  0  0  0
 14 15  1  0  0  0
 15 16  1  0  0  0
 16 17  1  0  0  0
 17 20  1  0  0  0
 20 21  2  0  0  0
 21 22  1  0  0  0
 22 23  2  0  0  0
 23 24  1  0  0  0
 24 25  1  0  0  0
 24 26  2  0  0  0
 26 29  1  0  0  0
 29 30  3  0  0  0
 17 18  1  0  0  0
 18 19  1  0  0  0
  4  5  2  0  0  0
  9 10  2  0  0  0
 10 11  1  0  0  0
 11 12  2  0  0  0
 12 13  1  0  0  0
 12  7  1  0  0  0
  5  1  1  0  0  0
 19 14  1  0  0  0
 26 20  1  0  0  0
 33 34  1  0  0  0
 25 27  1  0  0  0
 25 28  1  0  0  0
M  END
> <minimizedAffinity>
-7.01011

> <CNNscore>
0.3972704411

> <CNNaffinity>
6.6321244240

> <CNN_VS>
2.6347470284

> <CNNaffinity_variance>
0.4418151379

$$$$
[H]OC([H])([H])C([H])([H])n1c(C2([H])C([H])([H])C([H])([H])N(c3nc([H])nc(N([H])[H])c3C#N)C([H])([H])C2([H])[H])nc(-c2c([H])c([H])c(F)c(C([H])([H])[H])c2[H])c1[H]


 34 37  0  0  0  0  0  0  0  0999 V2000
   -0.1161   21.8456  -24.0775 C   0  0  0  0  0  0  0  0  0  0  0  0
    1.1530   21.4280  -23.7526 C   0  0  0  0  0  0  0  0  0  0  0  0
    1.1567   21.1777  -22.4049 N   0  0  0  0  0  0  0  0  0  0  0  0
   -0.0587   21.4291  -21.9123 C   0  0  0  0  0  0  0  0  0  0  0  0
   -0.8147   21.8331  -22.9459 N   0  0  0  0  0  0  0  0  0  0  0  0
   -3.6956   23.0193  -27.3668 C   0  0  0  0  0  0  0  0  0  0  0  0
   -2.2725   22.7869  -27.0176 C   0  0  0  0  0  0  0  0  0  0  0  0
   -1.8776   22.4308  -25.7276 C   0  0  0  0  0  0  0  0  0  0  0  0
   -0.5625   22.2182  -25.4136 C   0  0  0  0  0  0  0  0  0  0  0  0
    0.3919   22.3598  -26.3965 C   0  0  0  0  0  0  0  0  0  0  0  0
    0.0311   22.7112  -27.6820 C   0  0  0  0  0  0  0  0  0  0  0  0
   -1.3053   22.9248  -27.9909 C   0  0  0  0  0  0  0  0  0  0  0  0
   -1.6164   23.2713  -29.2773 F   0  0  0  0  0  0  0  0  0  0  0  0
   -0.5057   21.3037  -20.5271 C   0  0  0  0  0  0  0  0  0  0  0  0
   -0.0634   22.4872  -19.6882 C   0  0  0  0  0  0  0  0  0  0  0  0
   -0.9497   22.4472  -18.4685 C   0  0  0  0  0  0  0  0  0  0  0  0
   -0.6805   21.1929  -17.7285 N   0  0  0  0  0  0  0  0  0  0  0  0
   -0.6002   19.9735  -18.4552 C   0  0  0  0  0  0  0  0  0  0  0  0
    0.0889   20.1016  -19.8243 C   0  0  0  0  0  0  0  0  0  0  0  0
   -0.4970   21.3795  -16.3355 C   0  0  0  0  0  0  0  0  0  0  0  0
   -1.5607   21.2932  -15.4752 N   0  0  0  0  0  0  0  0  0  0  0  0
   -1.4287   21.5013  -14.1628 C   0  0  0  0  0  0  0  0  0  0  0  0
   -0.2501   21.8052  -13.6172 N   0  0  0  0  0  0  0  0  0  0  0  0
    0.8362   21.9065  -14.3946 C   0  0  0  0  0  0  0  0  0  0  0  0
    2.1231   22.2299  -13.8608 N   0  0  0  0  0  0  0  0  0  0  0  0
    0.6997   21.6867  -15.7805 C   0  0  0  0  0  0  0  0  0  0  0  0
    2.2972   23.2010  -13.4795 H   0  0  0  0  0  0  0  0  0  0  0  0
    2.9119   21.5557  -13.8247 H   0  0  0  0  0  0  0  0  0  0  0  0
    1.9052   21.7639  -16.5701 C   0  0  0  0  0  0  0  0  0  0  0  0
    2.8761   21.7949  -17.2051 N   0  0  0  0  0  0  0  0  0  0  0  0
    2.3315   20.7149  -21.7280 C   0  0  0  0  0  0  0  0  0  0  0  0
    3.1560   19.8895  -22.6704 C   0  0  0  0  0  0  0  0  0  0  0  0
    4.5136   19.9911  -22.5095 O   0  0  0  0  0  0  0  0  0  0  0  0
    4.9797   19.1028  -22.5144 H   0  0  0  0  0  0  0  0  0  0  0  0
  6  7  1  0  0  0
  7  8  2  0  0  0
  8  9  1  0  0  0
  9  1  1  0  0  0
  1  2  2  0  0  0
  2  3  1  0  0  0
  3 31  1  0  0  0
 31 32  1  0  0  0
 32 33  1  0  0  0
  3  4  1  0  0  0
  4 14  1  0  0  0
 14 15  1  0  0  0
 15 16  1  0  0  0
 16 17  1  0  0  0
 17 20  1  0  0  0
 20 21  2  0  0  0
 21 22  1  0  0  0
 22 23  2  0  0  0
 23 24  1  0  0  0
 24 25  1  0  0  0
 24 26  2  0  0  0
 26 29  1  0  0  0
 29 30  3  0  0  0
 17 18  1  0  0  0
 18 19  1  0  0  0
  4  5  2  0  0  0
  9 10  2  0  0  0
 10 11  1  0  0  0
 11 12  2  0  0  0
 12 13  1  0  0  0
 12  7  1  0  0  0
  5  1  1  0  0  0
 19 14  1  0  0  0
 26 20  1  0  0  0
 33 34  1  0  0  0
 25 27  1  0  0  0
 25 28  1  0  0  0
M  END
> <minimizedAffinity>
-7.39360

> <CNNscore>
0.1932803839

> <CNNaffinity>
5.6930818558

> <CNN_VS>
1.1003609896

> <CNNaffinity_variance>
0.0931221545

$$$$
[H]OC([H])([H])C([H])([H])n1c(C2([H])C([H])([H])C([H])([H])N(c3nc([H])nc(N([H])[H])c3C#N)C([H])([H])C2([H])[H])nc(-c2c([H])c([H])c(F)c(C([H])([H])[H])c2[H])c1[H]


 34 37  0  0  0  0  0  0  0  0999 V2000
    0.0887   21.6431  -23.6902 C   0  0  0  0  0  0  0  0  0  0  0  0
    1.4223   21.3241  -23.5895 C   0  0  0  0  0  0  0  0  0  0  0  0
    1.6799   21.1056  -22.2610 N   0  0  0  0  0  0  0  0  0  0  0  0
    0.5541   21.2815  -21.5648 C   0  0  0  0  0  0  0  0  0  0  0  0
   -0.3986   21.6071  -22.4533 N   0  0  0  0  0  0  0  0  0  0  0  0
    0.0234   23.1008  -28.4735 C   0  0  0  0  0  0  0  0  0  0  0  0
   -0.6661   22.6535  -27.2384 C   0  0  0  0  0  0  0  0  0  0  0  0
    0.0330   22.3649  -26.0659 C   0  0  0  0  0  0  0  0  0  0  0  0
   -0.6106   21.9526  -24.9306 C   0  0  0  0  0  0  0  0  0  0  0  0
   -1.9814   21.8203  -24.9487 C   0  0  0  0  0  0  0  0  0  0  0  0
   -2.7000   22.0988  -26.0941 C   0  0  0  0  0  0  0  0  0  0  0  0
   -2.0383   22.5163  -27.2409 C   0  0  0  0  0  0  0  0  0  0  0  0
   -2.7908   22.7810  -28.3523 F   0  0  0  0  0  0  0  0  0  0  0  0
    0.3665   21.1563  -20.1213 C   0  0  0  0  0  0  0  0  0  0  0  0
   -1.0002   20.5927  -19.7827 C   0  0  0  0  0  0  0  0  0  0  0  0
   -0.8749   20.1080  -18.3599 C   0  0  0  0  0  0  0  0  0  0  0  0
   -0.5932   21.2705  -17.4868 N   0  0  0  0  0  0  0  0  0  0  0  0
    0.3955   22.2079  -17.8932 C   0  0  0  0  0  0  0  0  0  0  0  0
    0.4111   22.4896  -19.4053 C   0  0  0  0  0  0  0  0  0  0  0  0
   -1.4018   21.3209  -16.3238 C   0  0  0  0  0  0  0  0  0  0  0  0
   -0.9747   20.7494  -15.1533 N   0  0  0  0  0  0  0  0  0  0  0  0
   -1.7281   20.7459  -14.0508 C   0  0  0  0  0  0  0  0  0  0  0  0
   -2.9409   21.3006  -14.0299 N   0  0  0  0  0  0  0  0  0  0  0  0
   -3.4265   21.8796  -15.1361 C   0  0  0  0  0  0  0  0  0  0  0  0
   -4.7204   22.4883  -15.1678 N   0  0  0  0  0  0  0  0  0  0  0  0
   -2.6329   21.8852  -16.3013 C   0  0  0  0  0  0  0  0  0  0  0  0
   -5.5821   21.8787  -15.1005 H   0  0  0  0  0  0  0  0  0  0  0  0
   -4.8673   23.5125  -15.2547 H   0  0  0  0  0  0  0  0  0  0  0  0
   -3.1804   22.5586  -17.4544 C   0  0  0  0  0  0  0  0  0  0  0  0
   -3.6370   23.1184  -18.3627 N   0  0  0  0  0  0  0  0  0  0  0  0
    2.9858   20.7428  -21.7967 C   0  0  0  0  0  0  0  0  0  0  0  0
    3.1143   19.2486  -21.7908 C   0  0  0  0  0  0  0  0  0  0  0  0
    3.8054   18.7124  -22.8463 O   0  0  0  0  0  0  0  0  0  0  0  0
    4.4763   18.0201  -22.5687 H   0  0  0  0  0  0  0  0  0  0  0  0
  6  7  1  0  0  0
  7  8  2  0  0  0
  8  9  1  0  0  0
  9  1  1  0  0  0
  1  2  2  0  0  0
  2  3  1  0  0  0
  3 31  1  0  0  0
 31 32  1  0  0  0
 32 33  1  0  0  0
  3  4  1  0  0  0
  4 14  1  0  0  0
 14 15  1  0  0  0
 15 16  1  0  0  0
 16 17  1  0  0  0
 17 20  1  0  0  0
 20 21  2  0  0  0
 21 22  1  0  0  0
 22 23  2  0  0  0
 23 24  1  0  0  0
 24 25  1  0  0  0
 24 26  2  0  0  0
 26 29  1  0  0  0
 29 30  3  0  0  0
 17 18  1  0  0  0
 18 19  1  0  0  0
  4  5  2  0  0  0
  9 10  2  0  0  0
 10 11  1  0  0  0
 11 12  2  0  0  0
 12 13  1  0  0  0
 12  7  1  0  0  0
  5  1  1  0  0  0
 19 14  1  0  0  0
 26 20  1  0  0  0
 33 34  1  0  0  0
 25 27  1  0  0  0
 25 28  1  0  0  0
M  END
> <minimizedAffinity>
-7.10318

> <CNNscore>
0.1474818885

> <CNNaffinity>
5.5830969810

> <CNN_VS>
0.8234056830

> <CNNaffinity_variance>
0.0996388495

$$$$
[H]OC([H])([H])C([H])([H])n1c(C2([H])C([H])([H])C([H])([H])N(c3nc([H])nc(N([H])[H])c3C#N)C([H])([H])C2([H])[H])nc(-c2c([H])c([H])c(F)c(C([H])([H])[H])c2[H])c1[H]


 34 37  0  0  0  0  0  0  0  0999 V2000
   -1.8962   22.0221  -23.6310 C   0  0  0  0  0  0  0  0  0  0  0  0
   -3.2124   21.9711  -23.2363 C   0  0  0  0  0  0  0  0  0  0  0  0
   -3.2139   21.7397  -21.8852 N   0  0  0  0  0  0  0  0  0  0  0  0
   -1.9521   21.6503  -21.4577 C   0  0  0  0  0  0  0  0  0  0  0  0
   -1.1695   21.8250  -22.5348 N   0  0  0  0  0  0  0  0  0  0  0  0
   -2.7283   22.9869  -28.4669 C   0  0  0  0  0  0  0  0  0  0  0  0
   -1.8131   22.7146  -27.3315 C   0  0  0  0  0  0  0  0  0  0  0  0
   -2.2865   22.5005  -26.0366 C   0  0  0  0  0  0  0  0  0  0  0  0
   -1.4354   22.2500  -24.9944 C   0  0  0  0  0  0  0  0  0  0  0  0
   -0.0794   22.2087  -25.2325 C   0  0  0  0  0  0  0  0  0  0  0  0
    0.4184   22.4168  -26.5033 C   0  0  0  0  0  0  0  0  0  0  0  0
   -0.4528   22.6703  -27.5540 C   0  0  0  0  0  0  0  0  0  0  0  0
    0.0850   22.8703  -28.7959 F   0  0  0  0  0  0  0  0  0  0  0  0
   -1.4847   21.4063  -20.0951 C   0  0  0  0  0  0  0  0  0  0  0  0
   -1.3979   22.6923  -19.2959 C   0  0  0  0  0  0  0  0  0  0  0  0
   -1.3564   22.2481  -17.8551 C   0  0  0  0  0  0  0  0  0  0  0  0
   -0.1260   21.4524  -17.6402 N   0  0  0  0  0  0  0  0  0  0  0  0
    0.2158   20.4508  -18.5896 C   0  0  0  0  0  0  0  0  0  0  0  0
   -0.0817   20.8390  -20.0479 C   0  0  0  0  0  0  0  0  0  0  0  0
    0.6028   21.8283  -16.4841 C   0  0  0  0  0  0  0  0  0  0  0  0
    0.1735   21.4528  -15.2376 N   0  0  0  0  0  0  0  0  0  0  0  0
    0.8153   21.8222  -14.1265 C   0  0  0  0  0  0  0  0  0  0  0  0
    1.9128   22.5791  -14.1707 N   0  0  0  0  0  0  0  0  0  0  0  0
    2.3935   22.9848  -15.3535 C   0  0  0  0  0  0  0  0  0  0  0  0
    3.5660   23.7974  -15.4572 N   0  0  0  0  0  0  0  0  0  0  0  0
    1.7180   22.5956  -16.5282 C   0  0  0  0  0  0  0  0  0  0  0  0
    3.5342   24.7990  -15.1190 H   0  0  0  0  0  0  0  0  0  0  0  0
    4.4636   23.4564  -15.8522 H   0  0  0  0  0  0  0  0  0  0  0  0
    2.2981   23.0202  -17.7796 C   0  0  0  0  0  0  0  0  0  0  0  0
    2.7361   23.3640  -18.7979 N   0  0  0  0  0  0  0  0  0  0  0  0
   -4.4333   21.6341  -21.1405 C   0  0  0  0  0  0  0  0  0  0  0  0
   -5.1050   22.9742  -21.0934 C   0  0  0  0  0  0  0  0  0  0  0  0
   -4.8215   23.7369  -19.9901 O   0  0  0  0  0  0  0  0  0  0  0  0
   -4.6052   24.6906  -20.2139 H   0  0  0  0  0  0  0  0  0  0  0  0
  6  7  1  0  0  0
  7  8  2  0  0  0
  8  9  1  0  0  0
  9  1  1  0  0  0
  1  2  2  0  0  0
  2  3  1  0  0  0
  3 31  1  0  0  0
 31 32  1  0  0  0
 32 33  1  0  0  0
  3  4  1  0  0  0
  4 14  1  0  0  0
 14 15  1  0  0  0
 15 16  1  0  0  0
 16 17  1  0  0  0
 17 20  1  0  0  0
 20 21  2  0  0  0
 21 22  1  0  0  0
 22 23  2  0  0  0
 23 24  1  0  0  0
 24 25  1  0  0  0
 24 26  2  0  0  0
 26 29  1  0  0  0
 29 30  3  0  0  0
 17 18  1  0  0  0
 18 19  1  0  0  0
  4  5  2  0  0  0
  9 10  2  0  0  0
 10 11  1  0  0  0
 11 12  2  0  0  0
 12 13  1  0  0  0
 12  7  1  0  0  0
  5  1  1  0  0  0
 19 14  1  0  0  0
 26 20  1  0  0  0
 33 34  1  0  0  0
 25 27  1  0  0  0
 25 28  1  0  0  0
M  END
> <minimizedAffinity>
-7.61265

> <CNNscore>
0.1358006746

> <CNNaffinity>
5.6918764114

> <CNN_VS>
0.7729606628

> <CNNaffinity_variance>
0.0846123770

$$$$
[H]OC([H])([H])C([H])([H])n1c(C2([H])C([H])([H])C([H])([H])N(c3nc([H])nc(N([H])[H])c3C#N)C([H])([H])C2([H])[H])nc(-c2c([H])c([H])c(F)c(C([H])([H])[H])c2[H])c1[H]


 34 37  0  0  0  0  0  0  0  0999 V2000
   -1.4944   22.0699  -23.4186 C   0  0  0  0  0  0  0  0  0  0  0  0
   -0.6206   21.5362  -22.5008 C   0  0  0  0  0  0  0  0  0  0  0  0
   -1.2805   21.4960  -21.3000 N   0  0  0  0  0  0  0  0  0  0  0  0
   -2.5124   21.9842  -21.4639 C   0  0  0  0  0  0  0  0  0  0  0  0
   -2.6198   22.3262  -22.7580 N   0  0  0  0  0  0  0  0  0  0  0  0
   -2.9066   22.9469  -28.1352 C   0  0  0  0  0  0  0  0  0  0  0  0
   -1.8589   22.7154  -27.1106 C   0  0  0  0  0  0  0  0  0  0  0  0
   -2.1734   22.5053  -25.7676 C   0  0  0  0  0  0  0  0  0  0  0  0
   -1.2008   22.2926  -24.8284 C   0  0  0  0  0  0  0  0  0  0  0  0
    0.1193   22.2862  -25.2212 C   0  0  0  0  0  0  0  0  0  0  0  0
    0.4609   22.4913  -26.5431 C   0  0  0  0  0  0  0  0  0  0  0  0
   -0.5326   22.7063  -27.4885 C   0  0  0  0  0  0  0  0  0  0  0  0
   -0.1478   22.9048  -28.7862 F   0  0  0  0  0  0  0  0  0  0  0  0
   -3.5569   22.1339  -20.4534 C   0  0  0  0  0  0  0  0  0  0  0  0
   -3.7658   20.8510  -19.6720 C   0  0  0  0  0  0  0  0  0  0  0  0
   -4.5001   21.2752  -18.4247 C   0  0  0  0  0  0  0  0  0  0  0  0
   -5.8156   21.8316  -18.8158 N   0  0  0  0  0  0  0  0  0  0  0  0
   -5.8741   22.7571  -19.8935 C   0  0  0  0  0  0  0  0  0  0  0  0
   -4.9147   22.4348  -21.0518 C   0  0  0  0  0  0  0  0  0  0  0  0
   -6.8992   21.3248  -18.0555 C   0  0  0  0  0  0  0  0  0  0  0  0
   -7.4727   20.1218  -18.3765 N   0  0  0  0  0  0  0  0  0  0  0  0
   -8.5188   19.6344  -17.7048 C   0  0  0  0  0  0  0  0  0  0  0  0
   -9.0633   20.2947  -16.6817 N   0  0  0  0  0  0  0  0  0  0  0  0
   -8.5567   21.4774  -16.3086 C   0  0  0  0  0  0  0  0  0  0  0  0
   -9.1025   22.2265  -15.2192 N   0  0  0  0  0  0  0  0  0  0  0  0
   -7.4518   21.9940  -17.0157 C   0  0  0  0  0  0  0  0  0  0  0  0
  -10.0618   22.6609  -15.3178 H   0  0  0  0  0  0  0  0  0  0  0  0
   -8.6039   22.3722  -14.3202 H   0  0  0  0  0  0  0  0  0  0  0  0
   -6.9141   23.2495  -16.5494 C   0  0  0  0  0  0  0  0  0  0  0  0
   -6.4583   24.2561  -16.1945 N   0  0  0  0  0  0  0  0  0  0  0  0
   -0.6580   20.9845  -20.1152 C   0  0  0  0  0  0  0  0  0  0  0  0
    0.8253   20.9125  -20.3242 C   0  0  0  0  0  0  0  0  0  0  0  0
    1.5583   21.8766  -19.6818 O   0  0  0  0  0  0  0  0  0  0  0  0
    2.3638   21.5108  -19.2085 H   0  0  0  0  0  0  0  0  0  0  0  0
  6  7  1  0  0  0
  7  8  2  0  0  0
  8  9  1  0  0  0
  9  1  1  0  0  0
  1  2  2  0  0  0
  2  3  1  0  0  0
  3 31  1  0  0  0
 31 32  1  0  0  0
 32 33  1  0  0  0
  3  4  1  0  0  0
  4 14  1  0  0  0
 14 15  1  0  0  0
 15 16  1  0  0  0
 16 17  1  0  0  0
 17 20  1  0  0  0
 20 21  2  0  0  0
 21 22  1  0  0  0
 22 23  2  0  0  0
 23 24  1  0  0  0
 24 25  1  0  0  0
 24 26  2  0  0  0
 26 29  1  0  0  0
 29 30  3  0  0  0
 17 18  1  0  0  0
 18 19  1  0  0  0
  4  5  2  0  0  0
  9 10  2  0  0  0
 10 11  1  0  0  0
 11 12  2  0  0  0
 12 13  1  0  0  0
 12  7  1  0  0  0
  5  1  1  0  0  0
 19 14  1  0  0  0
 26 20  1  0  0  0
 33 34  1  0  0  0
 25 27  1  0  0  0
 25 28  1  0  0  0
M  END
> <minimizedAffinity>
-6.90767

> <CNNscore>
0.1272599995

> <CNNaffinity>
5.7798805237

> <CNN_VS>
0.7355476022

> <CNNaffinity_variance>
0.0516234525

$$$$
[H]OC([H])([H])C([H])([H])n1c(C2([H])C([H])([H])C([H])([H])N(c3nc([H])nc(N([H])[H])c3C#N)C([H])([H])C2([H])[H])nc(-c2c([H])c([H])c(F)c(C([H])([H])[H])c2[H])c1[H]


 34 37  0  0  0  0  0  0  0  0999 V2000
   -0.4857   22.0309  -24.0764 C   0  0  0  0  0  0  0  0  0  0  0  0
    0.6643   21.4335  -23.6168 C   0  0  0  0  0  0  0  0  0  0  0  0
    0.5199   21.2820  -22.2621 N   0  0  0  0  0  0  0  0  0  0  0  0
   -0.6695   21.7649  -21.8946 C   0  0  0  0  0  0  0  0  0  0  0  0
   -1.2625   22.2141  -23.0126 N   0  0  0  0  0  0  0  0  0  0  0  0
   -3.6114   23.1292  -27.8224 C   0  0  0  0  0  0  0  0  0  0  0  0
   -2.2451   22.9087  -27.2880 C   0  0  0  0  0  0  0  0  0  0  0  0
   -2.0198   22.5784  -25.9512 C   0  0  0  0  0  0  0  0  0  0  0  0
   -0.7561   22.3767  -25.4659 C   0  0  0  0  0  0  0  0  0  0  0  0
    0.3172   22.5034  -26.3197 C   0  0  0  0  0  0  0  0  0  0  0  0
    0.1251   22.8292  -27.6475 C   0  0  0  0  0  0  0  0  0  0  0  0
   -1.1604   23.0320  -28.1306 C   0  0  0  0  0  0  0  0  0  0  0  0
   -1.3030   23.3530  -29.4527 F   0  0  0  0  0  0  0  0  0  0  0  0
   -1.2384   21.8134  -20.5498 C   0  0  0  0  0  0  0  0  0  0  0  0
   -2.7516   21.9084  -20.5866 C   0  0  0  0  0  0  0  0  0  0  0  0
   -3.1968   21.4974  -19.2054 C   0  0  0  0  0  0  0  0  0  0  0  0
   -2.6672   22.4748  -18.2269 N   0  0  0  0  0  0  0  0  0  0  0  0
   -1.3065   22.8747  -18.3272 C   0  0  0  0  0  0  0  0  0  0  0  0
   -0.8037   23.0374  -19.7717 C   0  0  0  0  0  0  0  0  0  0  0  0
   -3.6330   22.9314  -17.2954 C   0  0  0  0  0  0  0  0  0  0  0  0
   -4.5756   23.8552  -17.6660 N   0  0  0  0  0  0  0  0  0  0  0  0
   -5.4751   24.3343  -16.8032 C   0  0  0  0  0  0  0  0  0  0  0  0
   -5.5044   23.9377  -15.5300 N   0  0  0  0  0  0  0  0  0  0  0  0
   -4.6147   23.0361  -15.0937 C   0  0  0  0  0  0  0  0  0  0  0  0
   -4.6020   22.5773  -13.7390 N   0  0  0  0  0  0  0  0  0  0  0  0
   -3.6644   22.5282  -16.0028 C   0  0  0  0  0  0  0  0  0  0  0  0
   -4.3152   23.2431  -12.9688 H   0  0  0  0  0  0  0  0  0  0  0  0
   -4.8625   21.6115  -13.4611 H   0  0  0  0  0  0  0  0  0  0  0  0
   -2.7554   21.5275  -15.4977 C   0  0  0  0  0  0  0  0  0  0  0  0
   -2.0244   20.7373  -15.0640 N   0  0  0  0  0  0  0  0  0  0  0  0
    1.5420   20.6805  -21.4582 C   0  0  0  0  0  0  0  0  0  0  0  0
    2.8412   20.7029  -22.2069 C   0  0  0  0  0  0  0  0  0  0  0  0
    3.8332   21.4627  -21.6429 O   0  0  0  0  0  0  0  0  0  0  0  0
    4.7209   20.9962  -21.6152 H   0  0  0  0  0  0  0  0  0  0  0  0
  6  7  1  0  0  0
  7  8  2  0  0  0
  8  9  1  0  0  0
  9  1  1  0  0  0
  1  2  2  0  0  0
  2  3  1  0  0  0
  3 31  1  0  0  0
 31 32  1  0  0  0
 32 33  1  0  0  0
  3  4  1  0  0  0
  4 14  1  0  0  0
 14 15  1  0  0  0
 15 16  1  0  0  0
 16 17  1  0  0  0
 17 20  1  0  0  0
 20 21  2  0  0  0
 21 22  1  0  0  0
 22 23  2  0  0  0
 23 24  1  0  0  0
 24 25  1  0  0  0
 24 26  2  0  0  0
 26 29  1  0  0  0
 29 30  3  0  0  0
 17 18  1  0  0  0
 18 19  1  0  0  0
  4  5  2  0  0  0
  9 10  2  0  0  0
 10 11  1  0  0  0
 11 12  2  0  0  0
 12 13  1  0  0  0
 12  7  1  0  0  0
  5  1  1  0  0  0
 19 14  1  0  0  0
 26 20  1  0  0  0
 33 34  1  0  0  0
 25 27  1  0  0  0
 25 28  1  0  0  0
M  END
> <minimizedAffinity>
-7.93411

> <CNNscore>
0.1227639765

> <CNNaffinity>
5.6365494728

> <CNN_VS>
0.6919652224

> <CNNaffinity_variance>
0.0820912495

$$$$
[H]OC([H])([H])C([H])([H])n1c(C2([H])C([H])([H])C([H])([H])N(c3nc([H])nc(N([H])[H])c3C#N)C([H])([H])C2([H])[H])nc(-c2c([H])c([H])c(F)c(C([H])([H])[H])c2[H])c1[H]


 34 37  0  0  0  0  0  0  0  0999 V2000
   -0.6604   22.0393  -23.8246 C   0  0  0  0  0  0  0  0  0  0  0  0
   -1.4225   22.5733  -22.8124 C   0  0  0  0  0  0  0  0  0  0  0  0
   -0.9621   22.0326  -21.6400 N   0  0  0  0  0  0  0  0  0  0  0  0
    0.0438   21.1974  -21.9115 C   0  0  0  0  0  0  0  0  0  0  0  0
    0.2093   21.2176  -23.2439 N   0  0  0  0  0  0  0  0  0  0  0  0
   -3.4583   22.9950  -27.8579 C   0  0  0  0  0  0  0  0  0  0  0  0
   -2.1417   22.8066  -27.2006 C   0  0  0  0  0  0  0  0  0  0  0  0
   -2.0306   22.5158  -25.8405 C   0  0  0  0  0  0  0  0  0  0  0  0
   -0.8120   22.3436  -25.2415 C   0  0  0  0  0  0  0  0  0  0  0  0
    0.3303   22.4606  -26.0020 C   0  0  0  0  0  0  0  0  0  0  0  0
    0.2516   22.7476  -27.3502 C   0  0  0  0  0  0  0  0  0  0  0  0
   -0.9889   22.9207  -27.9488 C   0  0  0  0  0  0  0  0  0  0  0  0
   -1.0188   23.2037  -29.2869 F   0  0  0  0  0  0  0  0  0  0  0  0
    0.8251   20.4016  -20.9676 C   0  0  0  0  0  0  0  0  0  0  0  0
    2.2652   20.2541  -21.4197 C   0  0  0  0  0  0  0  0  0  0  0  0
    3.0161   19.8326  -20.1814 C   0  0  0  0  0  0  0  0  0  0  0  0
    2.5022   18.5151  -19.7415 N   0  0  0  0  0  0  0  0  0  0  0  0
    1.0960   18.3110  -19.6921 C   0  0  0  0  0  0  0  0  0  0  0  0
    0.3229   18.9788  -20.8420 C   0  0  0  0  0  0  0  0  0  0  0  0
    3.5203   17.5749  -19.4443 C   0  0  0  0  0  0  0  0  0  0  0  0
    4.2538   17.6838  -18.2913 N   0  0  0  0  0  0  0  0  0  0  0  0
    5.2449   16.8377  -18.0000 C   0  0  0  0  0  0  0  0  0  0  0  0
    5.5750   15.8376  -18.8185 N   0  0  0  0  0  0  0  0  0  0  0  0
    4.9024   15.6667  -19.9645 C   0  0  0  0  0  0  0  0  0  0  0  0
    5.2157   14.6111  -20.8774 N   0  0  0  0  0  0  0  0  0  0  0  0
    3.8552   16.5583  -20.2742 C   0  0  0  0  0  0  0  0  0  0  0  0
    6.1291   14.6402  -21.4100 H   0  0  0  0  0  0  0  0  0  0  0  0
    4.5882   13.8026  -21.0521 H   0  0  0  0  0  0  0  0  0  0  0  0
    3.1319   16.3076  -21.4976 C   0  0  0  0  0  0  0  0  0  0  0  0
    2.5737   16.0881  -22.4912 N   0  0  0  0  0  0  0  0  0  0  0  0
   -1.5349   22.3808  -20.3737 C   0  0  0  0  0  0  0  0  0  0  0  0
   -2.7413   21.5263  -20.1217 C   0  0  0  0  0  0  0  0  0  0  0  0
   -2.5283   20.4232  -19.3361 O   0  0  0  0  0  0  0  0  0  0  0  0
   -3.2256   20.3041  -18.6246 H   0  0  0  0  0  0  0  0  0  0  0  0
  6  7  1  0  0  0
  7  8  2  0  0  0
  8  9  1  0  0  0
  9  1  1  0  0  0
  1  2  2  0  0  0
  2  3  1  0  0  0
  3 31  1  0  0  0
 31 32  1  0  0  0
 32 33  1  0  0  0
  3  4  1  0  0  0
  4 14  1  0  0  0
 14 15  1  0  0  0
 15 16  1  0  0  0
 16 17  1  0  0  0
 17 20  1  0  0  0
 20 21  2  0  0  0
 21 22  1  0  0  0
 22 23  2  0  0  0
 23 24  1  0  0  0
 24 25  1  0  0  0
 24 26  2  0  0  0
 26 29  1  0  0  0
 29 30  3  0  0  0
 17 18  1  0  0  0
 18 19  1  0  0  0
  4  5  2  0  0  0
  9 10  2  0  0  0
 10 11  1  0  0  0
 11 12  2  0  0  0
 12 13  1  0  0  0
 12  7  1  0  0  0
  5  1  1  0  0  0
 19 14  1  0  0  0
 26 20  1  0  0  0
 33 34  1  0  0  0
 25 27  1  0  0  0
 25 28  1  0  0  0
M  END
> <minimizedAffinity>
-6.77085

> <CNNscore>
0.1176315844

> <CNNaffinity>
5.5714821815

> <CNN_VS>
0.6553822756

> <CNNaffinity_variance>
0.0902585983

$$$$
[H]OC([H])([H])C([H])([H])n1c(C2([H])C([H])([H])C([H])([H])N(c3nc([H])nc(N([H])[H])c3C#N)C([H])([H])C2([H])[H])nc(-c2c([H])c([H])c(F)c(C([H])([H])[H])c2[H])c1[H]


 34 37  0  0  0  0  0  0  0  0999 V2000
   -2.7429   22.7153  -23.6121 C   0  0  0  0  0  0  0  0  0  0  0  0
   -4.0562   23.1203  -23.5695 C   0  0  0  0  0  0  0  0  0  0  0  0
   -4.4401   23.0875  -22.2540 N   0  0  0  0  0  0  0  0  0  0  0  0
   -3.4093   22.6792  -21.5100 C   0  0  0  0  0  0  0  0  0  0  0  0
   -2.3899   22.4592  -22.3558 N   0  0  0  0  0  0  0  0  0  0  0  0
   -2.1377   23.0784  -28.5630 C   0  0  0  0  0  0  0  0  0  0  0  0
   -1.6213   22.7717  -27.2065 C   0  0  0  0  0  0  0  0  0  0  0  0
   -2.4202   22.8886  -26.0686 C   0  0  0  0  0  0  0  0  0  0  0  0
   -1.9362   22.6038  -24.8205 C   0  0  0  0  0  0  0  0  0  0  0  0
   -0.6286   22.1921  -24.6874 C   0  0  0  0  0  0  0  0  0  0  0  0
    0.1858   22.0671  -25.7952 C   0  0  0  0  0  0  0  0  0  0  0  0
   -0.3141   22.3583  -27.0571 C   0  0  0  0  0  0  0  0  0  0  0  0
    0.5287   22.2204  -28.1258 F   0  0  0  0  0  0  0  0  0  0  0  0
   -3.3699   22.4940  -20.0613 C   0  0  0  0  0  0  0  0  0  0  0  0
   -1.9453   22.4276  -19.5454 C   0  0  0  0  0  0  0  0  0  0  0  0
   -2.0592   22.6931  -18.0650 C   0  0  0  0  0  0  0  0  0  0  0  0
   -2.8555   21.6070  -17.4491 N   0  0  0  0  0  0  0  0  0  0  0  0
   -4.0611   21.1987  -18.0825 C   0  0  0  0  0  0  0  0  0  0  0  0
   -3.9911   21.1860  -19.6190 C   0  0  0  0  0  0  0  0  0  0  0  0
   -2.2737   21.0673  -16.2747 C   0  0  0  0  0  0  0  0  0  0  0  0
   -2.4886   21.6578  -15.0564 N   0  0  0  0  0  0  0  0  0  0  0  0
   -1.9247   21.1973  -13.9370 C   0  0  0  0  0  0  0  0  0  0  0  0
   -1.1193   20.1341  -13.9449 N   0  0  0  0  0  0  0  0  0  0  0  0
   -0.8623   19.5032  -15.0984 C   0  0  0  0  0  0  0  0  0  0  0  0
   -0.0061   18.3592  -15.1627 N   0  0  0  0  0  0  0  0  0  0  0  0
   -1.4569   19.9869  -16.2817 C   0  0  0  0  0  0  0  0  0  0  0  0
    1.0305   18.4769  -14.9884 H   0  0  0  0  0  0  0  0  0  0  0  0
   -0.3476   17.4019  -15.3744 H   0  0  0  0  0  0  0  0  0  0  0  0
   -1.1853   19.2485  -17.4915 C   0  0  0  0  0  0  0  0  0  0  0  0
   -0.9884   18.6717  -18.4792 N   0  0  0  0  0  0  0  0  0  0  0  0
   -5.7621   23.4596  -21.8457 C   0  0  0  0  0  0  0  0  0  0  0  0
   -5.9121   24.9486  -21.9431 C   0  0  0  0  0  0  0  0  0  0  0  0
   -5.5359   25.6529  -20.8287 O   0  0  0  0  0  0  0  0  0  0  0  0
   -4.9648   26.4504  -21.0394 H   0  0  0  0  0  0  0  0  0  0  0  0
  6  7  1  0  0  0
  7  8  2  0  0  0
  8  9  1  0  0  0
  9  1  1  0  0  0
  1  2  2  0  0  0
  2  3  1  0  0  0
  3 31  1  0  0  0
 31 32  1  0  0  0
 32 33  1  0  0  0
  3  4  1  0  0  0
  4 14  1  0  0  0
 14 15  1  0  0  0
 15 16  1  0  0  0
 16 17  1  0  0  0
 17 20  1  0  0  0
 20 21  2  0  0  0
 21 22  1  0  0  0
 22 23  2  0  0  0
 23 24  1  0  0  0
 24 25  1  0  0  0
 24 26  2  0  0  0
 26 29  1  0  0  0
 29 30  3  0  0  0
 17 18  1  0  0  0
 18 19  1  0  0  0
  4  5  2  0  0  0
  9 10  2  0  0  0
 10 11  1  0  0  0
 11 12  2  0  0  0
 12 13  1  0  0  0
 12  7  1  0  0  0
  5  1  1  0  0  0
 19 14  1  0  0  0
 26 20  1  0  0  0
 33 34  1  0  0  0
 25 27  1  0  0  0
 25 28  1  0  0  0
M  END
> <minimizedAffinity>
-6.59491

> <CNNscore>
0.1121280938

> <CNNaffinity>
5.5404920578

> <CNN_VS>
0.6212447882

> <CNNaffinity_variance>
0.0680399016

$$$$
[H]OC([H])([H])C([H])([H])n1c(C2([H])C([H])([H])C([H])([H])N(c3nc([H])nc(N([H])[H])c3C#N)C([H])([H])C2([H])[H])nc(-c2c([H])c([H])c(F)c(C([H])([H])[H])c2[H])c1[H]


 34 37  0  0  0  0  0  0  0  0999 V2000
   -0.2928   21.8987  -23.9056 C   0  0  0  0  0  0  0  0  0  0  0  0
    0.8771   21.2684  -23.5522 C   0  0  0  0  0  0  0  0  0  0  0  0
    0.8459   21.1054  -22.1916 N   0  0  0  0  0  0  0  0  0  0  0  0
   -0.2950   21.6130  -21.7186 C   0  0  0  0  0  0  0  0  0  0  0  0
   -0.9703   22.0889  -22.7772 N   0  0  0  0  0  0  0  0  0  0  0  0
   -3.7028   23.0915  -27.3636 C   0  0  0  0  0  0  0  0  0  0  0  0
   -2.3003   22.8439  -26.9481 C   0  0  0  0  0  0  0  0  0  0  0  0
   -1.9694   22.4931  -25.6388 C   0  0  0  0  0  0  0  0  0  0  0  0
   -0.6728   22.2664  -25.2634 C   0  0  0  0  0  0  0  0  0  0  0  0
    0.3272   22.3882  -26.2026 C   0  0  0  0  0  0  0  0  0  0  0  0
    0.0301   22.7340  -27.5058 C   0  0  0  0  0  0  0  0  0  0  0  0
   -1.2880   22.9620  -27.8771 C   0  0  0  0  0  0  0  0  0  0  0  0
   -1.5355   23.3022  -29.1788 F   0  0  0  0  0  0  0  0  0  0  0  0
   -0.7447   21.6603  -20.3293 C   0  0  0  0  0  0  0  0  0  0  0  0
   -2.1376   21.0809  -20.1732 C   0  0  0  0  0  0  0  0  0  0  0  0
   -2.2680   20.7836  -18.7003 C   0  0  0  0  0  0  0  0  0  0  0  0
   -2.1794   22.0577  -17.9505 N   0  0  0  0  0  0  0  0  0  0  0  0
   -1.1536   22.9817  -18.2902 C   0  0  0  0  0  0  0  0  0  0  0  0
   -0.8637   23.0731  -19.7980 C   0  0  0  0  0  0  0  0  0  0  0  0
   -3.1910   22.2153  -16.9703 C   0  0  0  0  0  0  0  0  0  0  0  0
   -2.9559   21.8687  -15.6650 N   0  0  0  0  0  0  0  0  0  0  0  0
   -3.8989   21.9688  -14.7249 C   0  0  0  0  0  0  0  0  0  0  0  0
   -5.1245   22.4132  -15.0072 N   0  0  0  0  0  0  0  0  0  0  0  0
   -5.4293   22.7719  -16.2614 C   0  0  0  0  0  0  0  0  0  0  0  0
   -6.7277   23.2545  -16.6179 N   0  0  0  0  0  0  0  0  0  0  0  0
   -4.4352   22.6678  -17.2557 C   0  0  0  0  0  0  0  0  0  0  0  0
   -7.5505   22.5900  -16.6008 H   0  0  0  0  0  0  0  0  0  0  0  0
   -6.9145   24.2366  -16.8978 H   0  0  0  0  0  0  0  0  0  0  0  0
   -4.7975   23.1069  -18.5819 C   0  0  0  0  0  0  0  0  0  0  0  0
   -5.0961   23.4307  -19.6556 N   0  0  0  0  0  0  0  0  0  0  0  0
    1.9178   20.4703  -21.4842 C   0  0  0  0  0  0  0  0  0  0  0  0
    3.2161   20.7756  -22.1700 C   0  0  0  0  0  0  0  0  0  0  0  0
    4.0939   21.5470  -21.4532 O   0  0  0  0  0  0  0  0  0  0  0  0
    5.0331   21.1947  -21.4684 H   0  0  0  0  0  0  0  0  0  0  0  0
  6  7  1  0  0  0
  7  8  2  0  0  0
  8  9  1  0  0  0
  9  1  1  0  0  0
  1  2  2  0  0  0
  2  3  1  0  0  0
  3 31  1  0  0  0
 31 32  1  0  0  0
 32 33  1  0  0  0
  3  4  1  0  0  0
  4 14  1  0  0  0
 14 15  1  0  0  0
 15 16  1  0  0  0
 16 17  1  0  0  0
 17 20  1  0  0  0
 20 21  2  0  0  0
 21 22  1  0  0  0
 22 23  2  0  0  0
 23 24  1  0  0  0
 24 25  1  0  0  0
 24 26  2  0  0  0
 26 29  1  0  0  0
 29 30  3  0  0  0
 17 18  1  0  0  0
 18 19  1  0  0  0
  4  5  2  0  0  0
  9 10  2  0  0  0
 10 11  1  0  0  0
 11 12  2  0  0  0
 12 13  1  0  0  0
 12  7  1  0  0  0
  5  1  1  0  0  0
 19 14  1  0  0  0
 26 20  1  0  0  0
 33 34  1  0  0  0
 25 27  1  0  0  0
 25 28  1  0  0  0
M  END
> <minimizedAffinity>
-7.46329

> <CNNscore>
0.1065263674

> <CNNaffinity>
5.7508997917

> <CNN_VS>
0.6126224399

> <CNNaffinity_variance>
0.0337659679

$$$$
[H]Cl.[H]O[C@]([H])(C(=O)N([H])[C@]([H])(C(=O)OC([H])([H])n1c([H])c(F)c(=O)n([H])c1=O)C([H])([H])C([H])(C([H])([H])[H])C([H])([H])[H])[C@]([H])(N([H])[H])C([H])([H])c1c([H])c([H])c([H])c([H])c1[H]


 37 38  0  0  0  0  0  0  0  0999 V2000
   -4.1663   23.2333  -22.0492 C   0  0  0  0  0  0  0  0  0  0  0  0
   -4.2820   23.9390  -23.3316 N   0  0  0  0  0  0  0  0  0  0  0  0
   -5.2907   24.9159  -23.5540 C   0  0  0  0  0  0  0  0  0  0  0  0
   -6.0852   25.1602  -22.6183 O   0  0  0  0  0  0  0  0  0  0  0  0
   -3.6263   23.7441  -24.1194 H   0  0  0  0  0  0  0  0  0  0  0  0
   -5.4246   25.6407  -24.8419 C   0  0  0  0  0  0  0  0  0  0  0  0
   -4.1846   26.1394  -25.2166 O   0  0  0  0  0  0  0  0  0  0  0  0
   -3.6873   25.4470  -25.7116 H   0  0  0  0  0  0  0  0  0  0  0  0
   -5.9297   24.7311  -25.9531 C   0  0  0  0  0  0  0  0  0  0  0  0
   -6.5406   23.5452  -25.4416 N   0  0  0  0  0  0  0  0  0  0  0  0
   -7.3973   23.2521  -25.9479 H   0  0  0  0  0  0  0  0  0  0  0  0
   -5.9102   22.7777  -25.1958 H   0  0  0  0  0  0  0  0  0  0  0  0
   -4.7472   24.4095  -26.8257 C   0  0  0  0  0  0  0  0  0  0  0  0
   -5.0362   24.5122  -28.2708 C   0  0  0  0  0  0  0  0  0  0  0  0
   -5.3871   23.4186  -29.0450 C   0  0  0  0  0  0  0  0  0  0  0  0
   -5.6576   23.5186  -30.3988 C   0  0  0  0  0  0  0  0  0  0  0  0
   -5.5806   24.7346  -31.0116 C   0  0  0  0  0  0  0  0  0  0  0  0
   -5.2367   25.8462  -30.2849 C   0  0  0  0  0  0  0  0  0  0  0  0
   -4.9710   25.7350  -28.9451 C   0  0  0  0  0  0  0  0  0  0  0  0
   -2.7403   23.1824  -21.6428 C   0  0  0  0  0  0  0  0  0  0  0  0
   -2.4986   23.2937  -20.3895 O   0  0  0  0  0  0  0  0  0  0  0  0
   -1.6580   23.0301  -22.4377 O   0  0  0  0  0  0  0  0  0  0  0  0
   -1.1615   21.9581  -23.1379 C   0  0  0  0  0  0  0  0  0  0  0  0
   -0.8265   22.1508  -24.5115 N   0  0  0  0  0  0  0  0  0  0  0  0
   -1.6709   22.4435  -25.5112 C   0  0  0  0  0  0  0  0  0  0  0  0
   -1.2371   22.5952  -26.8343 C   0  0  0  0  0  0  0  0  0  0  0  0
   -2.1060   22.8901  -27.8218 F   0  0  0  0  0  0  0  0  0  0  0  0
    0.0890   22.4428  -27.1341 C   0  0  0  0  0  0  0  0  0  0  0  0
    0.5823   22.5560  -28.2779 O   0  0  0  0  0  0  0  0  0  0  0  0
    0.9218   22.1468  -26.1061 N   0  0  0  0  0  0  0  0  0  0  0  0
    0.4778   22.0093  -24.8592 C   0  0  0  0  0  0  0  0  0  0  0  0
    1.3475   21.7296  -23.9638 O   0  0  0  0  0  0  0  0  0  0  0  0
    1.9507   22.0241  -26.3134 H   0  0  0  0  0  0  0  0  0  0  0  0
   -4.8647   21.9225  -22.1020 C   0  0  0  0  0  0  0  0  0  0  0  0
   -6.0018   22.9523  -20.1249 C   0  0  0  0  0  0  0  0  0  0  0  0
   -6.0289   21.8339  -21.1725 C   0  0  0  0  0  0  0  0  0  0  0  0
   -7.3441   21.9380  -21.9662 C   0  0  0  0  0  0  0  0  0  0  0  0
 35 36  1  0  0  0
 36 37  1  0  0  0
 36 34  1  0  0  0
 34  1  1  0  0  0
  1  2  1  0  0  0
  2  3  1  0  0  0
  3  4  2  0  0  0
  3  6  1  0  0  0
  6  7  1  0  0  0
  6  9  1  0  0  0
  9 10  1  0  0  0
  9 13  1  0  0  0
 13 14  1  0  0  0
 14 15  2  0  0  0
 15 16  1  0  0  0
 16 17  2  0  0  0
 17 18  1  0  0  0
 18 19  2  0  0  0
  1 20  1  0  0  0
 20 21  2  0  0  0
 20 22  1  0  0  0
 22 23  1  0  0  0
 23 24  1  0  0  0
 24 25  1  0  0  0
 25 26  2  0  0  0
 26 27  1  0  0  0
 26 28  1  0  0  0
 28 29  2  0  0  0
 28 30  1  0  0  0
 30 31  1  0  0  0
 31 32  2  0  0  0
 19 14  1  0  0  0
 31 24  1  0  0  0
  2  5  1  0  0  0
  7  8  1  0  0  0
 10 11  1  0  0  0
 10 12  1  0  0  0
 30 33  1  0  0  0
M  END
> <minimizedAffinity>
-8.20082

> <CNNscore>
0.8247403502

> <CNNaffinity>
7.3705163002

> <CNN_VS>
6.0787620544

> <CNNaffinity_variance>
0.4133943915

$$$$
[H]Cl.[H]O[C@]([H])(C(=O)N([H])[C@]([H])(C(=O)OC([H])([H])n1c([H])c(F)c(=O)n([H])c1=O)C([H])([H])C([H])(C([H])([H])[H])C([H])([H])[H])[C@]([H])(N([H])[H])C([H])([H])c1c([H])c([H])c([H])c([H])c1[H]


 37 38  0  0  0  0  0  0  0  0999 V2000
   -3.7893   22.7933  -20.5554 C   0  0  0  0  0  0  0  0  0  0  0  0
   -4.9340   23.3202  -21.3090 N   0  0  0  0  0  0  0  0  0  0  0  0
   -5.7891   24.3157  -20.7621 C   0  0  0  0  0  0  0  0  0  0  0  0
   -5.5376   24.7345  -19.6099 O   0  0  0  0  0  0  0  0  0  0  0  0
   -5.1545   22.9791  -22.2700 H   0  0  0  0  0  0  0  0  0  0  0  0
   -6.9506   24.8619  -21.5069 C   0  0  0  0  0  0  0  0  0  0  0  0
   -7.0907   26.2105  -21.2096 O   0  0  0  0  0  0  0  0  0  0  0  0
   -6.5161   26.7412  -21.8094 H   0  0  0  0  0  0  0  0  0  0  0  0
   -6.7748   24.7200  -23.0123 C   0  0  0  0  0  0  0  0  0  0  0  0
   -6.8923   23.3625  -23.4421 N   0  0  0  0  0  0  0  0  0  0  0  0
   -7.4148   23.2379  -24.3296 H   0  0  0  0  0  0  0  0  0  0  0  0
   -6.0520   22.7845  -23.3603 H   0  0  0  0  0  0  0  0  0  0  0  0
   -5.4241   25.2900  -23.3500 C   0  0  0  0  0  0  0  0  0  0  0  0
   -5.1533   25.3431  -24.8013 C   0  0  0  0  0  0  0  0  0  0  0  0
   -4.1883   24.5604  -25.4132 C   0  0  0  0  0  0  0  0  0  0  0  0
   -3.9374   24.6124  -26.7735 C   0  0  0  0  0  0  0  0  0  0  0  0
   -4.6597   25.4626  -27.5580 C   0  0  0  0  0  0  0  0  0  0  0  0
   -5.6262   26.2575  -26.9959 C   0  0  0  0  0  0  0  0  0  0  0  0
   -5.8657   26.1973  -25.6480 C   0  0  0  0  0  0  0  0  0  0  0  0
   -2.5849   22.8004  -21.4218 C   0  0  0  0  0  0  0  0  0  0  0  0
   -1.6923   23.6793  -21.1528 O   0  0  0  0  0  0  0  0  0  0  0  0
   -2.3112   21.9868  -22.4656 O   0  0  0  0  0  0  0  0  0  0  0  0
   -1.1408   21.4551  -22.9488 C   0  0  0  0  0  0  0  0  0  0  0  0
   -0.7761   21.7495  -24.2966 N   0  0  0  0  0  0  0  0  0  0  0  0
   -1.6079   21.9377  -25.3314 C   0  0  0  0  0  0  0  0  0  0  0  0
   -1.1416   22.2059  -26.6246 C   0  0  0  0  0  0  0  0  0  0  0  0
   -1.9985   22.3918  -27.6485 F   0  0  0  0  0  0  0  0  0  0  0  0
    0.2045   22.2815  -26.8572 C   0  0  0  0  0  0  0  0  0  0  0  0
    0.7271   22.5148  -27.9694 O   0  0  0  0  0  0  0  0  0  0  0  0
    1.0239   22.0871  -25.7949 N   0  0  0  0  0  0  0  0  0  0  0  0
    0.5489   21.8341  -24.5779 C   0  0  0  0  0  0  0  0  0  0  0  0
    1.4085   21.6666  -23.6455 O   0  0  0  0  0  0  0  0  0  0  0  0
    2.0679   22.1405  -25.9502 H   0  0  0  0  0  0  0  0  0  0  0  0
   -4.1228   21.4857  -19.9326 C   0  0  0  0  0  0  0  0  0  0  0  0
   -4.2281   20.1817  -17.7994 C   0  0  0  0  0  0  0  0  0  0  0  0
   -4.3111   21.5648  -18.4543 C   0  0  0  0  0  0  0  0  0  0  0  0
   -3.2278   22.4662  -17.8341 C   0  0  0  0  0  0  0  0  0  0  0  0
 35 36  1  0  0  0
 36 37  1  0  0  0
 36 34  1  0  0  0
 34  1  1  0  0  0
  1  2  1  0  0  0
  2  3  1  0  0  0
  3  4  2  0  0  0
  3  6  1  0  0  0
  6  7  1  0  0  0
  6  9  1  0  0  0
  9 10  1  0  0  0
  9 13  1  0  0  0
 13 14  1  0  0  0
 14 15  2  0  0  0
 15 16  1  0  0  0
 16 17  2  0  0  0
 17 18  1  0  0  0
 18 19  2  0  0  0
  1 20  1  0  0  0
 20 21  2  0  0  0
 20 22  1  0  0  0
 22 23  1  0  0  0
 23 24  1  0  0  0
 24 25  1  0  0  0
 25 26  2  0  0  0
 26 27  1  0  0  0
 26 28  1  0  0  0
 28 29  2  0  0  0
 28 30  1  0  0  0
 30 31  1  0  0  0
 31 32  2  0  0  0
 19 14  1  0  0  0
 31 24  1  0  0  0
  2  5  1  0  0  0
  7  8  1  0  0  0
 10 11  1  0  0  0
 10 12  1  0  0  0
 30 33  1  0  0  0
M  END
> <minimizedAffinity>
-7.35959

> <CNNscore>
0.8170714378

> <CNNaffinity>
6.9097642899

> <CNN_VS>
5.6457710266

> <CNNaffinity_variance>
0.1694080979

$$$$
[H]Cl.[H]O[C@]([H])(C(=O)N([H])[C@]([H])(C(=O)OC([H])([H])n1c([H])c(F)c(=O)n([H])c1=O)C([H])([H])C([H])(C([H])([H])[H])C([H])([H])[H])[C@]([H])(N([H])[H])C([H])([H])c1c([H])c([H])c([H])c([H])c1[H]


 37 38  0  0  0  0  0  0  0  0999 V2000
   -0.5938   22.0334  -21.1336 C   0  0  0  0  0  0  0  0  0  0  0  0
   -2.0522   22.0343  -21.3043 N   0  0  0  0  0  0  0  0  0  0  0  0
   -2.7573   23.2140  -21.6679 C   0  0  0  0  0  0  0  0  0  0  0  0
   -2.0951   24.2620  -21.8400 O   0  0  0  0  0  0  0  0  0  0  0  0
   -2.6156   21.1675  -21.1634 H   0  0  0  0  0  0  0  0  0  0  0  0
   -4.2303   23.2362  -21.8460 C   0  0  0  0  0  0  0  0  0  0  0  0
   -4.8416   22.9639  -20.6298 O   0  0  0  0  0  0  0  0  0  0  0  0
   -4.9381   23.7993  -20.1156 H   0  0  0  0  0  0  0  0  0  0  0  0
   -4.7208   24.5919  -22.3346 C   0  0  0  0  0  0  0  0  0  0  0  0
   -5.0893   25.4518  -21.2547 N   0  0  0  0  0  0  0  0  0  0  0  0
   -4.8035   26.4414  -21.3785 H   0  0  0  0  0  0  0  0  0  0  0  0
   -6.0307   25.3271  -20.8740 H   0  0  0  0  0  0  0  0  0  0  0  0
   -5.8836   24.3308  -23.2527 C   0  0  0  0  0  0  0  0  0  0  0  0
   -5.7135   24.9143  -24.5992 C   0  0  0  0  0  0  0  0  0  0  0  0
   -6.6876   24.8325  -25.5805 C   0  0  0  0  0  0  0  0  0  0  0  0
   -6.5250   25.3807  -26.8410 C   0  0  0  0  0  0  0  0  0  0  0  0
   -5.3658   26.0311  -27.1466 C   0  0  0  0  0  0  0  0  0  0  0  0
   -4.3725   26.1370  -26.2063 C   0  0  0  0  0  0  0  0  0  0  0  0
   -4.5448   25.5902  -24.9616 C   0  0  0  0  0  0  0  0  0  0  0  0
    0.0403   21.4155  -22.3241 C   0  0  0  0  0  0  0  0  0  0  0  0
    1.1531   20.8110  -22.1302 O   0  0  0  0  0  0  0  0  0  0  0  0
   -0.4161   21.4104  -23.5961 O   0  0  0  0  0  0  0  0  0  0  0  0
   -0.0309   22.0903  -24.7255 C   0  0  0  0  0  0  0  0  0  0  0  0
   -1.0217   22.3625  -25.7156 N   0  0  0  0  0  0  0  0  0  0  0  0
   -2.3518   22.2853  -25.5639 C   0  0  0  0  0  0  0  0  0  0  0  0
   -3.2396   22.5588  -26.6121 C   0  0  0  0  0  0  0  0  0  0  0  0
   -4.5732   22.4746  -26.4342 F   0  0  0  0  0  0  0  0  0  0  0  0
   -2.7501   22.9176  -27.8383 C   0  0  0  0  0  0  0  0  0  0  0  0
   -3.4512   23.1827  -28.8397 O   0  0  0  0  0  0  0  0  0  0  0  0
   -1.4023   22.9880  -27.9657 N   0  0  0  0  0  0  0  0  0  0  0  0
   -0.5855   22.7219  -26.9495 C   0  0  0  0  0  0  0  0  0  0  0  0
    0.6697   22.8181  -27.1767 O   0  0  0  0  0  0  0  0  0  0  0  0
   -1.0008   23.2630  -28.9037 H   0  0  0  0  0  0  0  0  0  0  0  0
   -0.2148   21.4397  -19.8250 C   0  0  0  0  0  0  0  0  0  0  0  0
   -1.3290   19.6019  -18.5430 C   0  0  0  0  0  0  0  0  0  0  0  0
   -1.3883   21.0695  -18.9806 C   0  0  0  0  0  0  0  0  0  0  0  0
   -1.4298   21.9546  -17.7215 C   0  0  0  0  0  0  0  0  0  0  0  0
 35 36  1  0  0  0
 36 37  1  0  0  0
 36 34  1  0  0  0
 34  1  1  0  0  0
  1  2  1  0  0  0
  2  3  1  0  0  0
  3  4  2  0  0  0
  3  6  1  0  0  0
  6  7  1  0  0  0
  6  9  1  0  0  0
  9 10  1  0  0  0
  9 13  1  0  0  0
 13 14  1  0  0  0
 14 15  2  0  0  0
 15 16  1  0  0  0
 16 17  2  0  0  0
 17 18  1  0  0  0
 18 19  2  0  0  0
  1 20  1  0  0  0
 20 21  2  0  0  0
 20 22  1  0  0  0
 22 23  1  0  0  0
 23 24  1  0  0  0
 24 25  1  0  0  0
 25 26  2  0  0  0
 26 27  1  0  0  0
 26 28  1  0  0  0
 28 29  2  0  0  0
 28 30  1  0  0  0
 30 31  1  0  0  0
 31 32  2  0  0  0
 19 14  1  0  0  0
 31 24  1  0  0  0
  2  5  1  0  0  0
  7  8  1  0  0  0
 10 11  1  0  0  0
 10 12  1  0  0  0
 30 33  1  0  0  0
M  END
> <minimizedAffinity>
-7.33100

> <CNNscore>
0.7912715077

> <CNNaffinity>
6.8931579590

> <CNN_VS>
5.4543595314

> <CNNaffinity_variance>
0.1212282628

$$$$
[H]Cl.[H]O[C@]([H])(C(=O)N([H])[C@]([H])(C(=O)OC([H])([H])n1c([H])c(F)c(=O)n([H])c1=O)C([H])([H])C([H])(C([H])([H])[H])C([H])([H])[H])[C@]([H])(N([H])[H])C([H])([H])c1c([H])c([H])c([H])c([H])c1[H]


 37 38  0  0  0  0  0  0  0  0999 V2000
   -6.3547   23.2975  -22.9658 C   0  0  0  0  0  0  0  0  0  0  0  0
   -6.1867   22.8164  -21.5888 N   0  0  0  0  0  0  0  0  0  0  0  0
   -7.0000   21.7771  -21.0601 C   0  0  0  0  0  0  0  0  0  0  0  0
   -7.8718   21.2788  -21.8072 O   0  0  0  0  0  0  0  0  0  0  0  0
   -5.4640   23.2237  -20.9560 H   0  0  0  0  0  0  0  0  0  0  0  0
   -6.8462   21.2761  -19.6718 C   0  0  0  0  0  0  0  0  0  0  0  0
   -7.6744   20.1773  -19.4883 O   0  0  0  0  0  0  0  0  0  0  0  0
   -7.2083   19.3609  -19.7848 H   0  0  0  0  0  0  0  0  0  0  0  0
   -5.4144   20.8497  -19.3796 C   0  0  0  0  0  0  0  0  0  0  0  0
   -5.3526   19.5696  -18.7482 N   0  0  0  0  0  0  0  0  0  0  0  0
   -4.5832   18.9617  -19.0868 H   0  0  0  0  0  0  0  0  0  0  0  0
   -5.4895   19.5547  -17.7344 H   0  0  0  0  0  0  0  0  0  0  0  0
   -4.8076   21.9207  -18.5147 C   0  0  0  0  0  0  0  0  0  0  0  0
   -3.4456   22.3129  -18.9314 C   0  0  0  0  0  0  0  0  0  0  0  0
   -2.4149   22.5173  -18.0290 C   0  0  0  0  0  0  0  0  0  0  0  0
   -1.1398   22.8844  -18.4231 C   0  0  0  0  0  0  0  0  0  0  0  0
   -0.8694   23.0561  -19.7487 C   0  0  0  0  0  0  0  0  0  0  0  0
   -1.8591   22.8648  -20.6792 C   0  0  0  0  0  0  0  0  0  0  0  0
   -3.1178   22.5015  -20.2772 C   0  0  0  0  0  0  0  0  0  0  0  0
   -5.3758   22.6157  -23.8479 C   0  0  0  0  0  0  0  0  0  0  0  0
   -5.8586   21.9430  -24.8255 O   0  0  0  0  0  0  0  0  0  0  0  0
   -4.0281   22.6189  -23.7469 O   0  0  0  0  0  0  0  0  0  0  0  0
   -3.0690   21.6896  -24.0673 C   0  0  0  0  0  0  0  0  0  0  0  0
   -2.1517   22.0054  -25.1137 N   0  0  0  0  0  0  0  0  0  0  0  0
   -2.4573   22.3901  -26.3613 C   0  0  0  0  0  0  0  0  0  0  0  0
   -1.4736   22.6603  -27.3211 C   0  0  0  0  0  0  0  0  0  0  0  0
   -1.8066   23.0462  -28.5690 F   0  0  0  0  0  0  0  0  0  0  0  0
   -0.1521   22.5319  -26.9913 C   0  0  0  0  0  0  0  0  0  0  0  0
    0.8042   22.7472  -27.7683 O   0  0  0  0  0  0  0  0  0  0  0  0
    0.1304   22.1414  -25.7242 N   0  0  0  0  0  0  0  0  0  0  0  0
   -0.8281   21.8924  -24.8354 C   0  0  0  0  0  0  0  0  0  0  0  0
   -0.4530   21.5299  -23.6674 O   0  0  0  0  0  0  0  0  0  0  0  0
    1.1444   22.0351  -25.4463 H   0  0  0  0  0  0  0  0  0  0  0  0
   -6.3341   24.7828  -23.0133 C   0  0  0  0  0  0  0  0  0  0  0  0
   -7.7684   24.8537  -25.0627 C   0  0  0  0  0  0  0  0  0  0  0  0
   -7.5553   25.3724  -23.6364 C   0  0  0  0  0  0  0  0  0  0  0  0
   -8.7964   25.0195  -22.7963 C   0  0  0  0  0  0  0  0  0  0  0  0
 35 36  1  0  0  0
 36 37  1  0  0  0
 36 34  1  0  0  0
 34  1  1  0  0  0
  1  2  1  0  0  0
  2  3  1  0  0  0
  3  4  2  0  0  0
  3  6  1  0  0  0
  6  7  1  0  0  0
  6  9  1  0  0  0
  9 10  1  0  0  0
  9 13  1  0  0  0
 13 14  1  0  0  0
 14 15  2  0  0  0
 15 16  1  0  0  0
 16 17  2  0  0  0
 17 18  1  0  0  0
 18 19  2  0  0  0
  1 20  1  0  0  0
 20 21  2  0  0  0
 20 22  1  0  0  0
 22 23  1  0  0  0
 23 24  1  0  0  0
 24 25  1  0  0  0
 25 26  2  0  0  0
 26 27  1  0  0  0
 26 28  1  0  0  0
 28 29  2  0  0  0
 28 30  1  0  0  0
 30 31  1  0  0  0
 31 32  2  0  0  0
 19 14  1  0  0  0
 31 24  1  0  0  0
  2  5  1  0  0  0
  7  8  1  0  0  0
 10 11  1  0  0  0
 10 12  1  0  0  0
 30 33  1  0  0  0
M  END
> <minimizedAffinity>
-6.91058

> <CNNscore>
0.6371462941

> <CNNaffinity>
6.2494411469

> <CNN_VS>
3.9818081856

> <CNNaffinity_variance>
0.0866193548

$$$$
[H]Cl.[H]O[C@]([H])(C(=O)N([H])[C@]([H])(C(=O)OC([H])([H])n1c([H])c(F)c(=O)n([H])c1=O)C([H])([H])C([H])(C([H])([H])[H])C([H])([H])[H])[C@]([H])(N([H])[H])C([H])([H])c1c([H])c([H])c([H])c([H])c1[H]


 37 38  0  0  0  0  0  0  0  0999 V2000
   -5.6371   23.0052  -22.8082 C   0  0  0  0  0  0  0  0  0  0  0  0
   -5.9750   24.1905  -23.6062 N   0  0  0  0  0  0  0  0  0  0  0  0
   -5.0317   25.2308  -23.8280 C   0  0  0  0  0  0  0  0  0  0  0  0
   -3.8947   25.1080  -23.3195 O   0  0  0  0  0  0  0  0  0  0  0  0
   -6.9192   24.3050  -24.0350 H   0  0  0  0  0  0  0  0  0  0  0  0
   -5.3527   26.4364  -24.6315 C   0  0  0  0  0  0  0  0  0  0  0  0
   -4.2241   27.2395  -24.7211 O   0  0  0  0  0  0  0  0  0  0  0  0
   -3.6670   26.9410  -25.4776 H   0  0  0  0  0  0  0  0  0  0  0  0
   -5.7953   26.0746  -26.0424 C   0  0  0  0  0  0  0  0  0  0  0  0
   -7.0244   25.3464  -26.0505 N   0  0  0  0  0  0  0  0  0  0  0  0
   -7.6778   25.6173  -26.8094 H   0  0  0  0  0  0  0  0  0  0  0  0
   -6.9577   24.3384  -25.8885 H   0  0  0  0  0  0  0  0  0  0  0  0
   -4.6785   25.2777  -26.6596 C   0  0  0  0  0  0  0  0  0  0  0  0
   -4.9758   24.8096  -28.0289 C   0  0  0  0  0  0  0  0  0  0  0  0
   -5.1473   23.4717  -28.3434 C   0  0  0  0  0  0  0  0  0  0  0  0
   -5.4262   23.0366  -29.6275 C   0  0  0  0  0  0  0  0  0  0  0  0
   -5.5403   23.9478  -30.6358 C   0  0  0  0  0  0  0  0  0  0  0  0
   -5.3783   25.2842  -30.3718 C   0  0  0  0  0  0  0  0  0  0  0  0
   -5.1024   25.7031  -29.0965 C   0  0  0  0  0  0  0  0  0  0  0  0
   -5.2753   21.8884  -23.7154 C   0  0  0  0  0  0  0  0  0  0  0  0
   -6.2234   21.3958  -24.4224 O   0  0  0  0  0  0  0  0  0  0  0  0
   -4.0595   21.3246  -23.8900 O   0  0  0  0  0  0  0  0  0  0  0  0
   -2.7827   21.7789  -23.6679 C   0  0  0  0  0  0  0  0  0  0  0  0
   -1.9617   22.0545  -24.8021 N   0  0  0  0  0  0  0  0  0  0  0  0
   -2.3726   22.4635  -26.0112 C   0  0  0  0  0  0  0  0  0  0  0  0
   -1.4793   22.6894  -27.0660 C   0  0  0  0  0  0  0  0  0  0  0  0
   -1.9174   23.1011  -28.2726 F   0  0  0  0  0  0  0  0  0  0  0  0
   -0.1395   22.4905  -26.8735 C   0  0  0  0  0  0  0  0  0  0  0  0
    0.7423   22.6617  -27.7439 O   0  0  0  0  0  0  0  0  0  0  0  0
    0.2500   22.0767  -25.6427 N   0  0  0  0  0  0  0  0  0  0  0  0
   -0.6244   21.8711  -24.6610 C   0  0  0  0  0  0  0  0  0  0  0  0
   -0.1514   21.4813  -23.5382 O   0  0  0  0  0  0  0  0  0  0  0  0
    1.2802   21.9161  -25.4701 H   0  0  0  0  0  0  0  0  0  0  0  0
   -6.7088   22.7083  -21.8223 C   0  0  0  0  0  0  0  0  0  0  0  0
   -8.8468   23.6217  -20.8965 C   0  0  0  0  0  0  0  0  0  0  0  0
   -7.4063   23.9284  -21.3203 C   0  0  0  0  0  0  0  0  0  0  0  0
   -6.6512   24.5041  -20.1083 C   0  0  0  0  0  0  0  0  0  0  0  0
 35 36  1  0  0  0
 36 37  1  0  0  0
 36 34  1  0  0  0
 34  1  1  0  0  0
  1  2  1  0  0  0
  2  3  1  0  0  0
  3  4  2  0  0  0
  3  6  1  0  0  0
  6  7  1  0  0  0
  6  9  1  0  0  0
  9 10  1  0  0  0
  9 13  1  0  0  0
 13 14  1  0  0  0
 14 15  2  0  0  0
 15 16  1  0  0  0
 16 17  2  0  0  0
 17 18  1  0  0  0
 18 19  2  0  0  0
  1 20  1  0  0  0
 20 21  2  0  0  0
 20 22  1  0  0  0
 22 23  1  0  0  0
 23 24  1  0  0  0
 24 25  1  0  0  0
 25 26  2  0  0  0
 26 27  1  0  0  0
 26 28  1  0  0  0
 28 29  2  0  0  0
 28 30  1  0  0  0
 30 31  1  0  0  0
 31 32  2  0  0  0
 19 14  1  0  0  0
 31 24  1  0  0  0
  2  5  1  0  0  0
  7  8  1  0  0  0
 10 11  1  0  0  0
 10 12  1  0  0  0
 30 33  1  0  0  0
M  END
> <minimizedAffinity>
-8.23676

> <CNNscore>
0.5891962051

> <CNNaffinity>
6.9551496506

> <CNN_VS>
4.0979475975

> <CNNaffinity_variance>
0.1781653464

$$$$
[H]Cl.[H]O[C@]([H])(C(=O)N([H])[C@]([H])(C(=O)OC([H])([H])n1c([H])c(F)c(=O)n([H])c1=O)C([H])([H])C([H])(C([H])([H])[H])C([H])([H])[H])[C@]([H])(N([H])[H])C([H])([H])c1c([H])c([H])c([H])c([H])c1[H]


 37 38  0  0  0  0  0  0  0  0999 V2000
   -3.2632   22.9245  -24.2340 C   0  0  0  0  0  0  0  0  0  0  0  0
   -3.4454   22.2399  -22.9479 N   0  0  0  0  0  0  0  0  0  0  0  0
   -2.9991   22.8183  -21.7282 C   0  0  0  0  0  0  0  0  0  0  0  0
   -2.4411   23.9373  -21.7809 O   0  0  0  0  0  0  0  0  0  0  0  0
   -3.9086   21.3068  -22.8906 H   0  0  0  0  0  0  0  0  0  0  0  0
   -3.1739   22.1436  -20.4182 C   0  0  0  0  0  0  0  0  0  0  0  0
   -3.9689   21.0182  -20.5863 O   0  0  0  0  0  0  0  0  0  0  0  0
   -3.4057   20.2541  -20.8520 H   0  0  0  0  0  0  0  0  0  0  0  0
   -1.8422   21.7040  -19.8261 C   0  0  0  0  0  0  0  0  0  0  0  0
   -1.8084   20.3005  -19.5612 N   0  0  0  0  0  0  0  0  0  0  0  0
   -0.9079   19.8419  -19.7958 H   0  0  0  0  0  0  0  0  0  0  0  0
   -2.2226   19.9936  -18.6774 H   0  0  0  0  0  0  0  0  0  0  0  0
   -1.6360   22.5069  -18.5707 C   0  0  0  0  0  0  0  0  0  0  0  0
   -0.2321   22.5323  -18.1116 C   0  0  0  0  0  0  0  0  0  0  0  0
    0.7635   23.2244  -18.7811 C   0  0  0  0  0  0  0  0  0  0  0  0
    2.0779   23.2463  -18.3478 C   0  0  0  0  0  0  0  0  0  0  0  0
    2.4247   22.5649  -17.2184 C   0  0  0  0  0  0  0  0  0  0  0  0
    1.4722   21.8649  -16.5222 C   0  0  0  0  0  0  0  0  0  0  0  0
    0.1740   21.8505  -16.9608 C   0  0  0  0  0  0  0  0  0  0  0  0
   -4.5752   23.4209  -24.7171 C   0  0  0  0  0  0  0  0  0  0  0  0
   -5.2535   24.1349  -23.8976 O   0  0  0  0  0  0  0  0  0  0  0  0
   -5.1455   23.2125  -25.9245 O   0  0  0  0  0  0  0  0  0  0  0  0
   -6.1392   23.8676  -26.6096 C   0  0  0  0  0  0  0  0  0  0  0  0
   -5.8887   24.2370  -27.9649 N   0  0  0  0  0  0  0  0  0  0  0  0
   -5.8493   23.4189  -29.0266 C   0  0  0  0  0  0  0  0  0  0  0  0
   -5.5761   23.8855  -30.3187 C   0  0  0  0  0  0  0  0  0  0  0  0
   -5.5426   23.0427  -31.3702 F   0  0  0  0  0  0  0  0  0  0  0  0
   -5.3388   25.2175  -30.5218 C   0  0  0  0  0  0  0  0  0  0  0  0
   -5.0857   25.7390  -31.6302 O   0  0  0  0  0  0  0  0  0  0  0  0
   -5.3840   26.0232  -29.4324 N   0  0  0  0  0  0  0  0  0  0  0  0
   -5.6466   25.5483  -28.2175 C   0  0  0  0  0  0  0  0  0  0  0  0
   -5.6654   26.3943  -27.2581 O   0  0  0  0  0  0  0  0  0  0  0  0
   -5.2037   27.0561  -29.5646 H   0  0  0  0  0  0  0  0  0  0  0  0
   -2.5118   22.0673  -25.1876 C   0  0  0  0  0  0  0  0  0  0  0  0
   -0.1214   21.7426  -24.5222 C   0  0  0  0  0  0  0  0  0  0  0  0
   -1.1055   22.5165  -25.4062 C   0  0  0  0  0  0  0  0  0  0  0  0
   -0.7099   22.3067  -26.8793 C   0  0  0  0  0  0  0  0  0  0  0  0
 35 36  1  0  0  0
 36 37  1  0  0  0
 36 34  1  0  0  0
 34  1  1  0  0  0
  1  2  1  0  0  0
  2  3  1  0  0  0
  3  4  2  0  0  0
  3  6  1  0  0  0
  6  7  1  0  0  0
  6  9  1  0  0  0
  9 10  1  0  0  0
  9 13  1  0  0  0
 13 14  1  0  0  0
 14 15  2  0  0  0
 15 16  1  0  0  0
 16 17  2  0  0  0
 17 18  1  0  0  0
 18 19  2  0  0  0
  1 20  1  0  0  0
 20 21  2  0  0  0
 20 22  1  0  0  0
 22 23  1  0  0  0
 23 24  1  0  0  0
 24 25  1  0  0  0
 25 26  2  0  0  0
 26 27  1  0  0  0
 26 28  1  0  0  0
 28 29  2  0  0  0
 28 30  1  0  0  0
 30 31  1  0  0  0
 31 32  2  0  0  0
 19 14  1  0  0  0
 31 24  1  0  0  0
  2  5  1  0  0  0
  7  8  1  0  0  0
 10 11  1  0  0  0
 10 12  1  0  0  0
 30 33  1  0  0  0
M  END
> <minimizedAffinity>
-7.48383

> <CNNscore>
0.3542193770

> <CNNaffinity>
5.8362159729

> <CNN_VS>
2.0673007965

> <CNNaffinity_variance>
0.2055515349

$$$$
[H]Cl.[H]O[C@]([H])(C(=O)N([H])[C@]([H])(C(=O)OC([H])([H])n1c([H])c(F)c(=O)n([H])c1=O)C([H])([H])C([H])(C([H])([H])[H])C([H])([H])[H])[C@]([H])(N([H])[H])C([H])([H])c1c([H])c([H])c([H])c([H])c1[H]


 37 38  0  0  0  0  0  0  0  0999 V2000
   -2.4026   22.5263  -24.2434 C   0  0  0  0  0  0  0  0  0  0  0  0
   -2.1358   22.1513  -22.8492 N   0  0  0  0  0  0  0  0  0  0  0  0
   -2.3260   23.0716  -21.7824 C   0  0  0  0  0  0  0  0  0  0  0  0
   -2.7306   24.2214  -22.0666 O   0  0  0  0  0  0  0  0  0  0  0  0
   -1.7979   21.1963  -22.5992 H   0  0  0  0  0  0  0  0  0  0  0  0
   -2.0628   22.7127  -20.3668 C   0  0  0  0  0  0  0  0  0  0  0  0
   -1.1986   23.6465  -19.8118 O   0  0  0  0  0  0  0  0  0  0  0  0
   -1.7167   24.4132  -19.4722 H   0  0  0  0  0  0  0  0  0  0  0  0
   -3.3413   22.6941  -19.5407 C   0  0  0  0  0  0  0  0  0  0  0  0
   -3.0854   22.8913  -18.1490 N   0  0  0  0  0  0  0  0  0  0  0  0
   -3.7717   23.5042  -17.6700 H   0  0  0  0  0  0  0  0  0  0  0  0
   -2.8113   22.0631  -17.6145 H   0  0  0  0  0  0  0  0  0  0  0  0
   -4.0073   21.3697  -19.7964 C   0  0  0  0  0  0  0  0  0  0  0  0
   -5.4021   21.4929  -20.2674 C   0  0  0  0  0  0  0  0  0  0  0  0
   -5.7295   21.9768  -21.5232 C   0  0  0  0  0  0  0  0  0  0  0  0
   -7.0376   22.0906  -21.9614 C   0  0  0  0  0  0  0  0  0  0  0  0
   -8.0575   21.7160  -21.1372 C   0  0  0  0  0  0  0  0  0  0  0  0
   -7.7813   21.2309  -19.8841 C   0  0  0  0  0  0  0  0  0  0  0  0
   -6.4823   21.1228  -19.4611 C   0  0  0  0  0  0  0  0  0  0  0  0
   -3.8334   22.2843  -24.5526 C   0  0  0  0  0  0  0  0  0  0  0  0
   -4.2025   21.0599  -24.6303 O   0  0  0  0  0  0  0  0  0  0  0  0
   -4.8019   23.2034  -24.7618 O   0  0  0  0  0  0  0  0  0  0  0  0
   -5.9119   23.2176  -25.5704 C   0  0  0  0  0  0  0  0  0  0  0  0
   -5.8293   23.9176  -26.8111 N   0  0  0  0  0  0  0  0  0  0  0  0
   -5.5856   23.3873  -28.0183 C   0  0  0  0  0  0  0  0  0  0  0  0
   -5.5080   24.1716  -29.1762 C   0  0  0  0  0  0  0  0  0  0  0  0
   -5.2622   23.6144  -30.3788 F   0  0  0  0  0  0  0  0  0  0  0  0
   -5.6840   25.5256  -29.0903 C   0  0  0  0  0  0  0  0  0  0  0  0
   -5.6357   26.3170  -30.0577 O   0  0  0  0  0  0  0  0  0  0  0  0
   -5.9287   26.0369  -27.8588 N   0  0  0  0  0  0  0  0  0  0  0  0
   -5.9964   25.2641  -26.7777 C   0  0  0  0  0  0  0  0  0  0  0  0
   -6.2323   25.8477  -25.6641 O   0  0  0  0  0  0  0  0  0  0  0  0
   -6.0679   27.0805  -27.7675 H   0  0  0  0  0  0  0  0  0  0  0  0
   -1.4302   21.8775  -25.1611 C   0  0  0  0  0  0  0  0  0  0  0  0
    0.3382   22.4649  -26.8314 C   0  0  0  0  0  0  0  0  0  0  0  0
   -1.0983   22.7080  -26.3557 C   0  0  0  0  0  0  0  0  0  0  0  0
   -2.0598   22.3746  -27.5110 C   0  0  0  0  0  0  0  0  0  0  0  0
 35 36  1  0  0  0
 36 37  1  0  0  0
 36 34  1  0  0  0
 34  1  1  0  0  0
  1  2  1  0  0  0
  2  3  1  0  0  0
  3  4  2  0  0  0
  3  6  1  0  0  0
  6  7  1  0  0  0
  6  9  1  0  0  0
  9 10  1  0  0  0
  9 13  1  0  0  0
 13 14  1  0  0  0
 14 15  2  0  0  0
 15 16  1  0  0  0
 16 17  2  0  0  0
 17 18  1  0  0  0
 18 19  2  0  0  0
  1 20  1  0  0  0
 20 21  2  0  0  0
 20 22  1  0  0  0
 22 23  1  0  0  0
 23 24  1  0  0  0
 24 25  1  0  0  0
 25 26  2  0  0  0
 26 27  1  0  0  0
 26 28  1  0  0  0
 28 29  2  0  0  0
 28 30  1  0  0  0
 30 31  1  0  0  0
 31 32  2  0  0  0
 19 14  1  0  0  0
 31 24  1  0  0  0
  2  5  1  0  0  0
  7  8  1  0  0  0
 10 11  1  0  0  0
 10 12  1  0  0  0
 30 33  1  0  0  0
M  END
> <minimizedAffinity>
-7.46498

> <CNNscore>
0.3315908015

> <CNNaffinity>
6.1255192757

> <CNN_VS>
2.0311658382

> <CNNaffinity_variance>
0.2873377800

$$$$
[H]Cl.[H]O[C@]([H])(C(=O)N([H])[C@]([H])(C(=O)OC([H])([H])n1c([H])c(F)c(=O)n([H])c1=O)C([H])([H])C([H])(C([H])([H])[H])C([H])([H])[H])[C@]([H])(N([H])[H])C([H])([H])c1c([H])c([H])c([H])c([H])c1[H]


 37 38  0  0  0  0  0  0  0  0999 V2000
   -1.6357   22.3093  -22.7493 C   0  0  0  0  0  0  0  0  0  0  0  0
   -3.0372   22.3804  -22.3170 N   0  0  0  0  0  0  0  0  0  0  0  0
   -3.4079   23.0117  -21.0983 C   0  0  0  0  0  0  0  0  0  0  0  0
   -2.4988   23.5096  -20.3969 O   0  0  0  0  0  0  0  0  0  0  0  0
   -3.8041   21.9691  -22.8924 H   0  0  0  0  0  0  0  0  0  0  0  0
   -4.8180   23.0950  -20.6436 C   0  0  0  0  0  0  0  0  0  0  0  0
   -4.8457   23.2169  -19.2611 O   0  0  0  0  0  0  0  0  0  0  0  0
   -4.7586   24.1669  -19.0128 H   0  0  0  0  0  0  0  0  0  0  0  0
   -5.5361   24.2955  -21.2439 C   0  0  0  0  0  0  0  0  0  0  0  0
   -4.6312   25.2035  -21.8748 N   0  0  0  0  0  0  0  0  0  0  0  0
   -4.9768   25.6009  -22.7685 H   0  0  0  0  0  0  0  0  0  0  0  0
   -4.1628   25.8777  -21.2641 H   0  0  0  0  0  0  0  0  0  0  0  0
   -6.2903   24.9584  -20.1236 C   0  0  0  0  0  0  0  0  0  0  0  0
   -7.7393   25.0845  -20.3827 C   0  0  0  0  0  0  0  0  0  0  0  0
   -8.3927   26.3054  -20.4107 C   0  0  0  0  0  0  0  0  0  0  0  0
   -9.7505   26.4198  -20.6541 C   0  0  0  0  0  0  0  0  0  0  0  0
  -10.4902   25.2960  -20.8775 C   0  0  0  0  0  0  0  0  0  0  0  0
   -9.8861   24.0645  -20.8594 C   0  0  0  0  0  0  0  0  0  0  0  0
   -8.5410   23.9636  -20.6172 C   0  0  0  0  0  0  0  0  0  0  0  0
   -1.5540   22.5977  -24.2023 C   0  0  0  0  0  0  0  0  0  0  0  0
   -0.4027   22.4628  -24.7482 O   0  0  0  0  0  0  0  0  0  0  0  0
   -2.5521   22.9861  -25.0265 O   0  0  0  0  0  0  0  0  0  0  0  0
   -2.7558   22.8355  -26.3763 C   0  0  0  0  0  0  0  0  0  0  0  0
   -3.5371   23.8205  -27.0511 N   0  0  0  0  0  0  0  0  0  0  0  0
   -4.1151   24.9002  -26.5050 C   0  0  0  0  0  0  0  0  0  0  0  0
   -4.8798   25.7992  -27.2593 C   0  0  0  0  0  0  0  0  0  0  0  0
   -5.4505   26.8780  -26.6868 F   0  0  0  0  0  0  0  0  0  0  0  0
   -5.0532   25.5831  -28.5990 C   0  0  0  0  0  0  0  0  0  0  0  0
   -5.7143   26.3199  -29.3637 O   0  0  0  0  0  0  0  0  0  0  0  0
   -4.4591   24.4846  -29.1266 N   0  0  0  0  0  0  0  0  0  0  0  0
   -3.7384   23.6496  -28.3824 C   0  0  0  0  0  0  0  0  0  0  0  0
   -3.2209   22.6435  -28.9793 O   0  0  0  0  0  0  0  0  0  0  0  0
   -4.5791   24.2967  -30.1596 H   0  0  0  0  0  0  0  0  0  0  0  0
   -1.0120   21.0327  -22.3134 C   0  0  0  0  0  0  0  0  0  0  0  0
   -0.1449   20.4246  -20.0461 C   0  0  0  0  0  0  0  0  0  0  0  0
    0.0977   21.2201  -21.3334 C   0  0  0  0  0  0  0  0  0  0  0  0
    1.4291   20.7562  -21.9521 C   0  0  0  0  0  0  0  0  0  0  0  0
 35 36  1  0  0  0
 36 37  1  0  0  0
 36 34  1  0  0  0
 34  1  1  0  0  0
  1  2  1  0  0  0
  2  3  1  0  0  0
  3  4  2  0  0  0
  3  6  1  0  0  0
  6  7  1  0  0  0
  6  9  1  0  0  0
  9 10  1  0  0  0
  9 13  1  0  0  0
 13 14  1  0  0  0
 14 15  2  0  0  0
 15 16  1  0  0  0
 16 17  2  0  0  0
 17 18  1  0  0  0
 18 19  2  0  0  0
  1 20  1  0  0  0
 20 21  2  0  0  0
 20 22  1  0  0  0
 22 23  1  0  0  0
 23 24  1  0  0  0
 24 25  1  0  0  0
 25 26  2  0  0  0
 26 27  1  0  0  0
 26 28  1  0  0  0
 28 29  2  0  0  0
 28 30  1  0  0  0
 30 31  1  0  0  0
 31 32  2  0  0  0
 19 14  1  0  0  0
 31 24  1  0  0  0
  2  5  1  0  0  0
  7  8  1  0  0  0
 10 11  1  0  0  0
 10 12  1  0  0  0
 30 33  1  0  0  0
M  END
> <minimizedAffinity>
-7.03158

> <CNNscore>
0.3298629522

> <CNNaffinity>
6.1256651878

> <CNN_VS>
2.0206301212

> <CNNaffinity_variance>
0.1206597686

$$$$
[H]Cl.[H]O[C@]([H])(C(=O)N([H])[C@]([H])(C(=O)OC([H])([H])n1c([H])c(F)c(=O)n([H])c1=O)C([H])([H])C([H])(C([H])([H])[H])C([H])([H])[H])[C@]([H])(N([H])[H])C([H])([H])c1c([H])c([H])c([H])c([H])c1[H]


 37 38  0  0  0  0  0  0  0  0999 V2000
   -2.5444   22.8146  -24.2827 C   0  0  0  0  0  0  0  0  0  0  0  0
   -2.6379   22.1318  -22.9862 N   0  0  0  0  0  0  0  0  0  0  0  0
   -1.9849   22.6396  -21.8299 C   0  0  0  0  0  0  0  0  0  0  0  0
   -1.3215   23.6943  -21.9482 O   0  0  0  0  0  0  0  0  0  0  0  0
   -3.1873   21.2519  -22.8746 H   0  0  0  0  0  0  0  0  0  0  0  0
   -2.0670   21.9655  -20.5105 C   0  0  0  0  0  0  0  0  0  0  0  0
   -3.0439   20.9805  -20.5608 O   0  0  0  0  0  0  0  0  0  0  0  0
   -2.6522   20.1462  -20.9103 H   0  0  0  0  0  0  0  0  0  0  0  0
   -0.7474   21.3109  -20.1266 C   0  0  0  0  0  0  0  0  0  0  0  0
    0.2208   22.2670  -19.6912 N   0  0  0  0  0  0  0  0  0  0  0  0
    0.7891   21.9616  -18.8789 H   0  0  0  0  0  0  0  0  0  0  0  0
    0.7515   22.7440  -20.4244 H   0  0  0  0  0  0  0  0  0  0  0  0
   -0.2685   20.5523  -21.3342 C   0  0  0  0  0  0  0  0  0  0  0  0
    0.6515   19.4437  -21.0068 C   0  0  0  0  0  0  0  0  0  0  0  0
    0.2126   18.2243  -20.5182 C   0  0  0  0  0  0  0  0  0  0  0  0
    1.0775   17.1877  -20.2129 C   0  0  0  0  0  0  0  0  0  0  0  0
    2.4188   17.3559  -20.3940 C   0  0  0  0  0  0  0  0  0  0  0  0
    2.8998   18.5469  -20.8757 C   0  0  0  0  0  0  0  0  0  0  0  0
    2.0339   19.5662  -21.1746 C   0  0  0  0  0  0  0  0  0  0  0  0
   -3.9026   23.2122  -24.7282 C   0  0  0  0  0  0  0  0  0  0  0  0
   -4.6167   23.8557  -23.8812 O   0  0  0  0  0  0  0  0  0  0  0  0
   -4.4819   22.9789  -25.9267 O   0  0  0  0  0  0  0  0  0  0  0  0
   -5.5970   23.4978  -26.5377 C   0  0  0  0  0  0  0  0  0  0  0  0
   -5.4598   24.0079  -27.8633 N   0  0  0  0  0  0  0  0  0  0  0  0
   -5.6846   23.3447  -29.0068 C   0  0  0  0  0  0  0  0  0  0  0  0
   -5.5015   23.9383  -30.2622 C   0  0  0  0  0  0  0  0  0  0  0  0
   -5.7348   23.2503  -31.3977 F   0  0  0  0  0  0  0  0  0  0  0  0
   -5.0793   25.2372  -30.3423 C   0  0  0  0  0  0  0  0  0  0  0  0
   -4.8844   25.8625  -31.4079 O   0  0  0  0  0  0  0  0  0  0  0  0
   -4.8588   25.8853  -29.1722 N   0  0  0  0  0  0  0  0  0  0  0  0
   -5.0423   25.2926  -27.9951 C   0  0  0  0  0  0  0  0  0  0  0  0
   -4.8055   25.9940  -26.9518 O   0  0  0  0  0  0  0  0  0  0  0  0
   -4.5319   26.8896  -29.2089 H   0  0  0  0  0  0  0  0  0  0  0  0
   -1.7639   22.0031  -25.2527 C   0  0  0  0  0  0  0  0  0  0  0  0
    0.6613   21.7972  -24.6712 C   0  0  0  0  0  0  0  0  0  0  0  0
   -0.3927   22.5364  -25.5027 C   0  0  0  0  0  0  0  0  0  0  0  0
   -0.0343   22.3868  -26.9926 C   0  0  0  0  0  0  0  0  0  0  0  0
 35 36  1  0  0  0
 36 37  1  0  0  0
 36 34  1  0  0  0
 34  1  1  0  0  0
  1  2  1  0  0  0
  2  3  1  0  0  0
  3  4  2  0  0  0
  3  6  1  0  0  0
  6  7  1  0  0  0
  6  9  1  0  0  0
  9 10  1  0  0  0
  9 13  1  0  0  0
 13 14  1  0  0  0
 14 15  2  0  0  0
 15 16  1  0  0  0
 16 17  2  0  0  0
 17 18  1  0  0  0
 18 19  2  0  0  0
  1 20  1  0  0  0
 20 21  2  0  0  0
 20 22  1  0  0  0
 22 23  1  0  0  0
 23 24  1  0  0  0
 24 25  1  0  0  0
 25 26  2  0  0  0
 26 27  1  0  0  0
 26 28  1  0  0  0
 28 29  2  0  0  0
 28 30  1  0  0  0
 30 31  1  0  0  0
 31 32  2  0  0  0
 19 14  1  0  0  0
 31 24  1  0  0  0
  2  5  1  0  0  0
  7  8  1  0  0  0
 10 11  1  0  0  0
 10 12  1  0  0  0
 30 33  1  0  0  0
M  END
> <minimizedAffinity>
-7.31063

> <CNNscore>
0.3206812143

> <CNNaffinity>
5.7470045090

> <CNN_VS>
1.8429564238

> <CNNaffinity_variance>
0.3454034925

$$$$
