[H]OC1([H])C([H])([H])C([H])([H])N(C(=O)c2c(C([H])([H])OC([H])([H])C([H])([H])[H])c(-c3sc4c(OC([H])([H])[H])c([H])c(C([H])([H])[H])c([H])c4c3[H])c3c(N([H])[H])nc([H])nn23)C([H])([H])C1([H])[H]


 38 42  0  0  0  0  0  0  0  0999 V2000
   -2.6517   22.3656  -22.9728 C   0  0  0  0  0  0  0  0  0  0  0  0
   -1.2798   22.0507  -23.0034 C   0  0  0  0  0  0  0  0  0  0  0  0
   -0.9033   22.1683  -24.3168 C   0  0  0  0  0  0  0  0  0  0  0  0
    0.2845   22.0493  -24.9964 C   0  0  0  0  0  0  0  0  0  0  0  0
    1.4686   21.6402  -24.3297 N   0  0  0  0  0  0  0  0  0  0  0  0
    0.4266   22.2732  -26.3532 N   0  0  0  0  0  0  0  0  0  0  0  0
   -0.7042   22.6233  -26.9721 C   0  0  0  0  0  0  0  0  0  0  0  0
   -1.8515   22.7341  -26.3254 N   0  0  0  0  0  0  0  0  0  0  0  0
   -2.0126   22.5225  -25.0493 N   0  0  0  0  0  0  0  0  0  0  0  0
   -3.0977   22.6342  -24.2320 C   0  0  0  0  0  0  0  0  0  0  0  0
    2.1782   22.2905  -23.9486 H   0  0  0  0  0  0  0  0  0  0  0  0
    1.6062   20.6013  -24.2331 H   0  0  0  0  0  0  0  0  0  0  0  0
   -0.5743   21.3806  -21.9004 C   0  0  0  0  0  0  0  0  0  0  0  0
   -0.1657   20.1567  -21.5860 C   0  0  0  0  0  0  0  0  0  0  0  0
    0.4007   19.9197  -20.3681 C   0  0  0  0  0  0  0  0  0  0  0  0
    0.8030   18.6894  -19.8016 C   0  0  0  0  0  0  0  0  0  0  0  0
    1.2735   18.5766  -18.5256 C   0  0  0  0  0  0  0  0  0  0  0  0
    1.6039   17.2048  -17.9783 C   0  0  0  0  0  0  0  0  0  0  0  0
    1.3900   19.6777  -17.7044 C   0  0  0  0  0  0  0  0  0  0  0  0
    1.0084   20.8876  -18.2192 C   0  0  0  0  0  0  0  0  0  0  0  0
    0.5186   20.9994  -19.5367 C   0  0  0  0  0  0  0  0  0  0  0  0
   -0.1369   22.2737  -20.4393 S   0  0  0  0  0  0  0  0  0  0  0  0
    1.0455   22.0936  -17.5424 O   0  0  0  0  0  0  0  0  0  0  0  0
    2.2662   22.7492  -17.3248 C   0  0  0  0  0  0  0  0  0  0  0  0
   -4.4650   22.9046  -24.6847 C   0  0  0  0  0  0  0  0  0  0  0  0
   -5.2763   21.8949  -24.7424 O   0  0  0  0  0  0  0  0  0  0  0  0
   -5.0245   24.1313  -25.1070 N   0  0  0  0  0  0  0  0  0  0  0  0
   -4.4657   25.4397  -25.2794 C   0  0  0  0  0  0  0  0  0  0  0  0
   -5.2280   26.1302  -26.4522 C   0  0  0  0  0  0  0  0  0  0  0  0
   -5.5824   25.1481  -27.5259 C   0  0  0  0  0  0  0  0  0  0  0  0
   -6.1902   25.8510  -28.5510 O   0  0  0  0  0  0  0  0  0  0  0  0
   -6.5163   24.0816  -27.0318 C   0  0  0  0  0  0  0  0  0  0  0  0
   -6.4612   24.0846  -25.5024 C   0  0  0  0  0  0  0  0  0  0  0  0
   -5.6865   26.6452  -28.8254 H   0  0  0  0  0  0  0  0  0  0  0  0
   -3.3807   22.3474  -21.6667 C   0  0  0  0  0  0  0  0  0  0  0  0
   -3.9186   23.5422  -21.3595 O   0  0  0  0  0  0  0  0  0  0  0  0
   -5.8822   24.9744  -21.6490 C   0  0  0  0  0  0  0  0  0  0  0  0
   -5.1742   23.7937  -21.0754 C   0  0  0  0  0  0  0  0  0  0  0  0
 37 38  1  0  0  0
 38 36  1  0  0  0
 36 35  1  0  0  0
 35  1  1  0  0  0
  1  2  1  0  0  0
  2 13  1  0  0  0
 13 14  2  0  0  0
 14 15  1  0  0  0
 15 16  2  0  0  0
 16 17  1  0  0  0
 17 18  1  0  0  0
 17 19  2  0  0  0
 19 20  1  0  0  0
 20 23  1  0  0  0
 23 24  1  0  0  0
 20 21  2  0  0  0
 21 22  1  0  0  0
  2  3  2  0  0  0
  3  4  1  0  0  0
  4  5  1  0  0  0
  4  6  2  0  0  0
  6  7  1  0  0  0
  7  8  2  0  0  0
  8  9  1  0  0  0
  9 10  1  0  0  0
 10 25  1  0  0  0
 25 26  2  0  0  0
 25 27  1  0  0  0
 27 28  1  0  0  0
 28 29  1  0  0  0
 29 30  1  0  0  0
 30 31  1  0  0  0
 30 32  1  0  0  0
 32 33  1  0  0  0
 10  1  2  0  0  0
 33 27  1  0  0  0
 22 13  1  0  0  0
  9  3  1  0  0  0
 21 15  1  0  0  0
  5 11  1  0  0  0
  5 12  1  0  0  0
 31 34  1  0  0  0
M  END
> <minimizedAffinity>
-7.95614

> <CNNscore>
0.5771360993

> <CNNaffinity>
7.0472478867

> <CNN_VS>
4.0672211647

> <CNNaffinity_variance>
0.0996720344

$$$$
[H]OC1([H])C([H])([H])C([H])([H])N(C(=O)c2c(C([H])([H])OC([H])([H])C([H])([H])[H])c(-c3sc4c(OC([H])([H])[H])c([H])c(C([H])([H])[H])c([H])c4c3[H])c3c(N([H])[H])nc([H])nn23)C([H])([H])C1([H])[H]


 38 42  0  0  0  0  0  0  0  0999 V2000
   -2.7341   22.8725  -23.0959 C   0  0  0  0  0  0  0  0  0  0  0  0
   -1.3715   22.5358  -22.9852 C   0  0  0  0  0  0  0  0  0  0  0  0
   -0.9216   22.3893  -24.2723 C   0  0  0  0  0  0  0  0  0  0  0  0
    0.2975   22.1211  -24.8457 C   0  0  0  0  0  0  0  0  0  0  0  0
    1.4324   21.8308  -24.0447 N   0  0  0  0  0  0  0  0  0  0  0  0
    0.5186   22.0742  -26.2096 N   0  0  0  0  0  0  0  0  0  0  0  0
   -0.5674   22.3150  -26.9492 C   0  0  0  0  0  0  0  0  0  0  0  0
   -1.7445   22.5680  -26.4042 N   0  0  0  0  0  0  0  0  0  0  0  0
   -1.9798   22.6116  -25.1228 N   0  0  0  0  0  0  0  0  0  0  0  0
   -3.1041   22.8978  -24.4071 C   0  0  0  0  0  0  0  0  0  0  0  0
    2.1376   22.5315  -23.7560 H   0  0  0  0  0  0  0  0  0  0  0  0
    1.5364   20.8286  -23.7410 H   0  0  0  0  0  0  0  0  0  0  0  0
   -0.7449   22.0822  -21.7342 C   0  0  0  0  0  0  0  0  0  0  0  0
   -0.2924   22.6142  -20.6046 C   0  0  0  0  0  0  0  0  0  0  0  0
    0.3320   21.8263  -19.6829 C   0  0  0  0  0  0  0  0  0  0  0  0
    0.9700   22.2040  -18.4802 C   0  0  0  0  0  0  0  0  0  0  0  0
    1.6446   21.3217  -17.6871 C   0  0  0  0  0  0  0  0  0  0  0  0
    2.3655   21.8338  -16.4589 C   0  0  0  0  0  0  0  0  0  0  0  0
    1.7384   19.9869  -18.0182 C   0  0  0  0  0  0  0  0  0  0  0  0
    1.1328   19.5840  -19.1782 C   0  0  0  0  0  0  0  0  0  0  0  0
    0.4405   20.4995  -19.9972 C   0  0  0  0  0  0  0  0  0  0  0  0
   -0.3047   20.3846  -21.5137 S   0  0  0  0  0  0  0  0  0  0  0  0
    1.1304   18.2924  -19.6737 O   0  0  0  0  0  0  0  0  0  0  0  0
    2.2143   17.8182  -20.4271 C   0  0  0  0  0  0  0  0  0  0  0  0
   -4.4371   23.0966  -24.9824 C   0  0  0  0  0  0  0  0  0  0  0  0
   -5.1795   22.0432  -25.1253 O   0  0  0  0  0  0  0  0  0  0  0  0
   -5.0257   24.2957  -25.4426 N   0  0  0  0  0  0  0  0  0  0  0  0
   -4.5305   25.6363  -25.5494 C   0  0  0  0  0  0  0  0  0  0  0  0
   -5.2202   26.3001  -26.7810 C   0  0  0  0  0  0  0  0  0  0  0  0
   -5.4162   25.3159  -27.8927 C   0  0  0  0  0  0  0  0  0  0  0  0
   -5.9666   25.9986  -28.9629 O   0  0  0  0  0  0  0  0  0  0  0  0
   -6.3281   24.1905  -27.4983 C   0  0  0  0  0  0  0  0  0  0  0  0
   -6.4146   24.1732  -25.9704 C   0  0  0  0  0  0  0  0  0  0  0  0
   -5.4868   26.8243  -29.1814 H   0  0  0  0  0  0  0  0  0  0  0  0
   -3.5327   23.1207  -21.8557 C   0  0  0  0  0  0  0  0  0  0  0  0
   -3.9615   24.3932  -21.7644 O   0  0  0  0  0  0  0  0  0  0  0  0
   -6.3415   23.8656  -21.9832 C   0  0  0  0  0  0  0  0  0  0  0  0
   -5.2032   24.8134  -21.8089 C   0  0  0  0  0  0  0  0  0  0  0  0
 37 38  1  0  0  0
 38 36  1  0  0  0
 36 35  1  0  0  0
 35  1  1  0  0  0
  1  2  1  0  0  0
  2 13  1  0  0  0
 13 14  2  0  0  0
 14 15  1  0  0  0
 15 16  2  0  0  0
 16 17  1  0  0  0
 17 18  1  0  0  0
 17 19  2  0  0  0
 19 20  1  0  0  0
 20 23  1  0  0  0
 23 24  1  0  0  0
 20 21  2  0  0  0
 21 22  1  0  0  0
  2  3  2  0  0  0
  3  4  1  0  0  0
  4  5  1  0  0  0
  4  6  2  0  0  0
  6  7  1  0  0  0
  7  8  2  0  0  0
  8  9  1  0  0  0
  9 10  1  0  0  0
 10 25  1  0  0  0
 25 26  2  0  0  0
 25 27  1  0  0  0
 27 28  1  0  0  0
 28 29  1  0  0  0
 29 30  1  0  0  0
 30 31  1  0  0  0
 30 32  1  0  0  0
 32 33  1  0  0  0
 10  1  2  0  0  0
 33 27  1  0  0  0
 22 13  1  0  0  0
  9  3  1  0  0  0
 21 15  1  0  0  0
  5 11  1  0  0  0
  5 12  1  0  0  0
 31 34  1  0  0  0
M  END
> <minimizedAffinity>
-7.88734

> <CNNscore>
0.5378201008

> <CNNaffinity>
7.0883049965

> <CNN_VS>
3.8122329712

> <CNNaffinity_variance>
0.1592207104

$$$$
[H]OC1([H])C([H])([H])C([H])([H])N(C(=O)c2c(C([H])([H])OC([H])([H])C([H])([H])[H])c(-c3sc4c(OC([H])([H])[H])c([H])c(C([H])([H])[H])c([H])c4c3[H])c3c(N([H])[H])nc([H])nn23)C([H])([H])C1([H])[H]


 38 42  0  0  0  0  0  0  0  0999 V2000
   -2.0512   21.9726  -22.2263 C   0  0  0  0  0  0  0  0  0  0  0  0
   -0.6824   21.7323  -22.4520 C   0  0  0  0  0  0  0  0  0  0  0  0
   -0.5013   21.8710  -23.8043 C   0  0  0  0  0  0  0  0  0  0  0  0
    0.5836   21.8168  -24.6450 C   0  0  0  0  0  0  0  0  0  0  0  0
    1.8699   21.4718  -24.1548 N   0  0  0  0  0  0  0  0  0  0  0  0
    0.5211   22.0490  -26.0065 N   0  0  0  0  0  0  0  0  0  0  0  0
   -0.7026   22.3379  -26.4573 C   0  0  0  0  0  0  0  0  0  0  0  0
   -1.7517   22.3862  -25.6550 N   0  0  0  0  0  0  0  0  0  0  0  0
   -1.7200   22.1653  -24.3706 N   0  0  0  0  0  0  0  0  0  0  0  0
   -2.6837   22.2177  -23.4081 C   0  0  0  0  0  0  0  0  0  0  0  0
    2.5903   22.1592  -23.8718 H   0  0  0  0  0  0  0  0  0  0  0  0
    2.0749   20.4417  -24.0871 H   0  0  0  0  0  0  0  0  0  0  0  0
    0.2062   21.1005  -21.4648 C   0  0  0  0  0  0  0  0  0  0  0  0
    1.2128   21.4509  -20.6725 C   0  0  0  0  0  0  0  0  0  0  0  0
    1.8620   20.5035  -19.9368 C   0  0  0  0  0  0  0  0  0  0  0  0
    3.0079   20.6447  -19.1223 C   0  0  0  0  0  0  0  0  0  0  0  0
    3.6192   19.5899  -18.5091 C   0  0  0  0  0  0  0  0  0  0  0  0
    4.8894   19.8277  -17.7215 C   0  0  0  0  0  0  0  0  0  0  0  0
    3.1410   18.3045  -18.6481 C   0  0  0  0  0  0  0  0  0  0  0  0
    2.0320   18.1287  -19.4315 C   0  0  0  0  0  0  0  0  0  0  0  0
    1.4058   19.2206  -20.0669 C   0  0  0  0  0  0  0  0  0  0  0  0
    0.1280   19.3596  -21.1698 S   0  0  0  0  0  0  0  0  0  0  0  0
    1.4199   16.9159  -19.6927 O   0  0  0  0  0  0  0  0  0  0  0  0
    1.9630   16.0351  -20.6395 C   0  0  0  0  0  0  0  0  0  0  0  0
   -4.1135   22.4141  -23.6619 C   0  0  0  0  0  0  0  0  0  0  0  0
   -4.8795   21.3741  -23.5492 O   0  0  0  0  0  0  0  0  0  0  0  0
   -4.7825   23.5957  -24.0522 N   0  0  0  0  0  0  0  0  0  0  0  0
   -4.3132   24.9124  -24.3682 C   0  0  0  0  0  0  0  0  0  0  0  0
   -5.2708   25.5118  -25.4439 C   0  0  0  0  0  0  0  0  0  0  0  0
   -5.7376   24.4620  -26.4046 C   0  0  0  0  0  0  0  0  0  0  0  0
   -6.5211   25.0872  -27.3583 O   0  0  0  0  0  0  0  0  0  0  0  0
   -6.5403   23.3902  -25.7259 C   0  0  0  0  0  0  0  0  0  0  0  0
   -6.2587   23.4762  -24.2241 C   0  0  0  0  0  0  0  0  0  0  0  0
   -6.0989   25.8834  -27.7425 H   0  0  0  0  0  0  0  0  0  0  0  0
   -2.5870   21.9141  -20.8309 C   0  0  0  0  0  0  0  0  0  0  0  0
   -2.1631   22.9417  -20.0721 O   0  0  0  0  0  0  0  0  0  0  0  0
   -1.5172   21.5767  -18.1460 C   0  0  0  0  0  0  0  0  0  0  0  0
   -1.7062   22.8810  -18.8441 C   0  0  0  0  0  0  0  0  0  0  0  0
 37 38  1  0  0  0
 38 36  1  0  0  0
 36 35  1  0  0  0
 35  1  1  0  0  0
  1  2  1  0  0  0
  2 13  1  0  0  0
 13 14  2  0  0  0
 14 15  1  0  0  0
 15 16  2  0  0  0
 16 17  1  0  0  0
 17 18  1  0  0  0
 17 19  2  0  0  0
 19 20  1  0  0  0
 20 23  1  0  0  0
 23 24  1  0  0  0
 20 21  2  0  0  0
 21 22  1  0  0  0
  2  3  2  0  0  0
  3  4  1  0  0  0
  4  5  1  0  0  0
  4  6  2  0  0  0
  6  7  1  0  0  0
  7  8  2  0  0  0
  8  9  1  0  0  0
  9 10  1  0  0  0
 10 25  1  0  0  0
 25 26  2  0  0  0
 25 27  1  0  0  0
 27 28  1  0  0  0
 28 29  1  0  0  0
 29 30  1  0  0  0
 30 31  1  0  0  0
 30 32  1  0  0  0
 32 33  1  0  0  0
 10  1  2  0  0  0
 33 27  1  0  0  0
 22 13  1  0  0  0
  9  3  1  0  0  0
 21 15  1  0  0  0
  5 11  1  0  0  0
  5 12  1  0  0  0
 31 34  1  0  0  0
M  END
> <minimizedAffinity>
-7.05681

> <CNNscore>
0.4632145464

> <CNNaffinity>
6.8475861549

> <CNN_VS>
3.1719014645

> <CNNaffinity_variance>
0.0752721950

$$$$
[H]OC1([H])C([H])([H])C([H])([H])N(C(=O)c2c(C([H])([H])OC([H])([H])C([H])([H])[H])c(-c3sc4c(OC([H])([H])[H])c([H])c(C([H])([H])[H])c([H])c4c3[H])c3c(N([H])[H])nc([H])nn23)C([H])([H])C1([H])[H]


 38 42  0  0  0  0  0  0  0  0999 V2000
   -2.1916   22.6960  -22.5950 C   0  0  0  0  0  0  0  0  0  0  0  0
   -0.9109   22.1383  -22.7711 C   0  0  0  0  0  0  0  0  0  0  0  0
   -0.6623   22.2025  -24.1182 C   0  0  0  0  0  0  0  0  0  0  0  0
    0.4044   21.8789  -24.9210 C   0  0  0  0  0  0  0  0  0  0  0  0
    1.5591   21.2537  -24.3829 N   0  0  0  0  0  0  0  0  0  0  0  0
    0.4384   22.0907  -26.2867 N   0  0  0  0  0  0  0  0  0  0  0  0
   -0.6699   22.6476  -26.7825 C   0  0  0  0  0  0  0  0  0  0  0  0
   -1.7020   22.9561  -26.0168 N   0  0  0  0  0  0  0  0  0  0  0  0
   -1.7610   22.7610  -24.7293 N   0  0  0  0  0  0  0  0  0  0  0  0
   -2.7139   23.0570  -23.8007 C   0  0  0  0  0  0  0  0  0  0  0  0
    2.4116   21.7599  -24.0850 H   0  0  0  0  0  0  0  0  0  0  0  0
    1.5155   20.2059  -24.2945 H   0  0  0  0  0  0  0  0  0  0  0  0
   -0.2245   21.3375  -21.7459 C   0  0  0  0  0  0  0  0  0  0  0  0
   -0.0620   20.0564  -21.4359 C   0  0  0  0  0  0  0  0  0  0  0  0
    0.6045   19.7104  -20.2973 C   0  0  0  0  0  0  0  0  0  0  0  0
    0.7954   18.4277  -19.7366 C   0  0  0  0  0  0  0  0  0  0  0  0
    1.4059   18.2253  -18.5330 C   0  0  0  0  0  0  0  0  0  0  0  0
    1.4929   16.8211  -17.9753 C   0  0  0  0  0  0  0  0  0  0  0  0
    1.8842   19.2801  -17.7854 C   0  0  0  0  0  0  0  0  0  0  0  0
    1.7160   20.5390  -18.2968 C   0  0  0  0  0  0  0  0  0  0  0  0
    1.0807   20.7442  -19.5388 C   0  0  0  0  0  0  0  0  0  0  0  0
    0.6076   22.1240  -20.3994 S   0  0  0  0  0  0  0  0  0  0  0  0
    2.1208   21.7123  -17.6859 O   0  0  0  0  0  0  0  0  0  0  0  0
    1.4776   22.1681  -16.5258 C   0  0  0  0  0  0  0  0  0  0  0  0
   -4.0499   23.5762  -24.1053 C   0  0  0  0  0  0  0  0  0  0  0  0
   -4.1203   24.7869  -24.5640 O   0  0  0  0  0  0  0  0  0  0  0  0
   -5.2999   22.9402  -23.9344 N   0  0  0  0  0  0  0  0  0  0  0  0
   -5.6703   21.6688  -23.3866 C   0  0  0  0  0  0  0  0  0  0  0  0
   -7.0760   21.8270  -22.7290 C   0  0  0  0  0  0  0  0  0  0  0  0
   -7.2287   23.1701  -22.0843 C   0  0  0  0  0  0  0  0  0  0  0  0
   -8.4684   23.2004  -21.4707 O   0  0  0  0  0  0  0  0  0  0  0  0
   -7.1390   24.2897  -23.0804 C   0  0  0  0  0  0  0  0  0  0  0  0
   -6.4914   23.7338  -24.3507 C   0  0  0  0  0  0  0  0  0  0  0  0
   -8.6394   22.4168  -20.9082 H   0  0  0  0  0  0  0  0  0  0  0  0
   -2.7675   22.7934  -21.2179 C   0  0  0  0  0  0  0  0  0  0  0  0
   -3.5020   21.7149  -20.8885 O   0  0  0  0  0  0  0  0  0  0  0  0
   -2.6440   20.8165  -18.7796 C   0  0  0  0  0  0  0  0  0  0  0  0
   -3.7449   21.2633  -19.6812 C   0  0  0  0  0  0  0  0  0  0  0  0
 37 38  1  0  0  0
 38 36  1  0  0  0
 36 35  1  0  0  0
 35  1  1  0  0  0
  1  2  1  0  0  0
  2 13  1  0  0  0
 13 14  2  0  0  0
 14 15  1  0  0  0
 15 16  2  0  0  0
 16 17  1  0  0  0
 17 18  1  0  0  0
 17 19  2  0  0  0
 19 20  1  0  0  0
 20 23  1  0  0  0
 23 24  1  0  0  0
 20 21  2  0  0  0
 21 22  1  0  0  0
  2  3  2  0  0  0
  3  4  1  0  0  0
  4  5  1  0  0  0
  4  6  2  0  0  0
  6  7  1  0  0  0
  7  8  2  0  0  0
  8  9  1  0  0  0
  9 10  1  0  0  0
 10 25  1  0  0  0
 25 26  2  0  0  0
 25 27  1  0  0  0
 27 28  1  0  0  0
 28 29  1  0  0  0
 29 30  1  0  0  0
 30 31  1  0  0  0
 30 32  1  0  0  0
 32 33  1  0  0  0
 10  1  2  0  0  0
 33 27  1  0  0  0
 22 13  1  0  0  0
  9  3  1  0  0  0
 21 15  1  0  0  0
  5 11  1  0  0  0
  5 12  1  0  0  0
 31 34  1  0  0  0
M  END
> <minimizedAffinity>
-6.69833

> <CNNscore>
0.4219798446

> <CNNaffinity>
6.6729760170

> <CNN_VS>
2.8158614635

> <CNNaffinity_variance>
0.1124977320

$$$$
[H]OC1([H])C([H])([H])C([H])([H])N(C(=O)c2c(C([H])([H])OC([H])([H])C([H])([H])[H])c(-c3sc4c(OC([H])([H])[H])c([H])c(C([H])([H])[H])c([H])c4c3[H])c3c(N([H])[H])nc([H])nn23)C([H])([H])C1([H])[H]


 38 42  0  0  0  0  0  0  0  0999 V2000
   -1.4751   22.6115  -21.7950 C   0  0  0  0  0  0  0  0  0  0  0  0
   -0.3086   22.0386  -22.3364 C   0  0  0  0  0  0  0  0  0  0  0  0
   -0.4346   22.1599  -23.6966 C   0  0  0  0  0  0  0  0  0  0  0  0
    0.3625   21.8536  -24.7725 C   0  0  0  0  0  0  0  0  0  0  0  0
    1.6005   21.1829  -24.5958 N   0  0  0  0  0  0  0  0  0  0  0  0
    0.0295   22.1272  -26.0862 N   0  0  0  0  0  0  0  0  0  0  0  0
   -1.1545   22.7269  -26.2377 C   0  0  0  0  0  0  0  0  0  0  0  0
   -1.9289   23.0192  -25.2074 N   0  0  0  0  0  0  0  0  0  0  0  0
   -1.6407   22.7663  -23.9615 N   0  0  0  0  0  0  0  0  0  0  0  0
   -2.2949   23.0371  -22.7967 C   0  0  0  0  0  0  0  0  0  0  0  0
    2.5170   21.6588  -24.5229 H   0  0  0  0  0  0  0  0  0  0  0  0
    1.5507   20.1331  -24.5398 H   0  0  0  0  0  0  0  0  0  0  0  0
    0.6065   21.1788  -21.5702 C   0  0  0  0  0  0  0  0  0  0  0  0
    1.8799   21.1774  -21.1934 C   0  0  0  0  0  0  0  0  0  0  0  0
    2.3943   20.0989  -20.5357 C   0  0  0  0  0  0  0  0  0  0  0  0
    3.7294   19.8533  -20.1437 C   0  0  0  0  0  0  0  0  0  0  0  0
    4.1329   18.6824  -19.5705 C   0  0  0  0  0  0  0  0  0  0  0  0
    5.5998   18.4794  -19.2583 C   0  0  0  0  0  0  0  0  0  0  0  0
    3.2432   17.6568  -19.3325 C   0  0  0  0  0  0  0  0  0  0  0  0
    1.9399   17.8584  -19.7004 C   0  0  0  0  0  0  0  0  0  0  0  0
    1.5278   19.0680  -20.2964 C   0  0  0  0  0  0  0  0  0  0  0  0
    0.0690   19.6067  -20.9673 S   0  0  0  0  0  0  0  0  0  0  0  0
    0.9140   16.9428  -19.5490 O   0  0  0  0  0  0  0  0  0  0  0  0
    0.9293   15.7342  -20.2607 C   0  0  0  0  0  0  0  0  0  0  0  0
   -3.6469   23.5947  -22.7037 C   0  0  0  0  0  0  0  0  0  0  0  0
   -3.7792   24.7137  -22.0622 O   0  0  0  0  0  0  0  0  0  0  0  0
   -4.8558   23.0552  -23.1973 N   0  0  0  0  0  0  0  0  0  0  0  0
   -5.1630   21.8267  -23.8682 C   0  0  0  0  0  0  0  0  0  0  0  0
   -6.6084   21.4095  -23.4557 C   0  0  0  0  0  0  0  0  0  0  0  0
   -6.8889   21.7551  -22.0258 C   0  0  0  0  0  0  0  0  0  0  0  0
   -8.1576   21.2921  -21.7252 O   0  0  0  0  0  0  0  0  0  0  0  0
   -6.8275   23.2345  -21.7784 C   0  0  0  0  0  0  0  0  0  0  0  0
   -6.0775   23.8731  -22.9497 C   0  0  0  0  0  0  0  0  0  0  0  0
   -8.3014   20.3607  -21.9925 H   0  0  0  0  0  0  0  0  0  0  0  0
   -1.6507   22.6563  -20.3102 C   0  0  0  0  0  0  0  0  0  0  0  0
   -0.9569   23.6582  -19.7388 O   0  0  0  0  0  0  0  0  0  0  0  0
    0.1976   22.3450  -18.0262 C   0  0  0  0  0  0  0  0  0  0  0  0
    0.0412   23.5471  -18.8951 C   0  0  0  0  0  0  0  0  0  0  0  0
 37 38  1  0  0  0
 38 36  1  0  0  0
 36 35  1  0  0  0
 35  1  1  0  0  0
  1  2  1  0  0  0
  2 13  1  0  0  0
 13 14  2  0  0  0
 14 15  1  0  0  0
 15 16  2  0  0  0
 16 17  1  0  0  0
 17 18  1  0  0  0
 17 19  2  0  0  0
 19 20  1  0  0  0
 20 23  1  0  0  0
 23 24  1  0  0  0
 20 21  2  0  0  0
 21 22  1  0  0  0
  2  3  2  0  0  0
  3  4  1  0  0  0
  4  5  1  0  0  0
  4  6  2  0  0  0
  6  7  1  0  0  0
  7  8  2  0  0  0
  8  9  1  0  0  0
  9 10  1  0  0  0
 10 25  1  0  0  0
 25 26  2  0  0  0
 25 27  1  0  0  0
 27 28  1  0  0  0
 28 29  1  0  0  0
 29 30  1  0  0  0
 30 31  1  0  0  0
 30 32  1  0  0  0
 32 33  1  0  0  0
 10  1  2  0  0  0
 33 27  1  0  0  0
 22 13  1  0  0  0
  9  3  1  0  0  0
 21 15  1  0  0  0
  5 11  1  0  0  0
  5 12  1  0  0  0
 31 34  1  0  0  0
M  END
> <minimizedAffinity>
-7.23401

> <CNNscore>
0.3989480138

> <CNNaffinity>
6.5704336166

> <CNN_VS>
2.6212613583

> <CNNaffinity_variance>
0.1021482721

$$$$
[H]OC1([H])C([H])([H])C([H])([H])N(C(=O)c2c(C([H])([H])OC([H])([H])C([H])([H])[H])c(-c3sc4c(OC([H])([H])[H])c([H])c(C([H])([H])[H])c([H])c4c3[H])c3c(N([H])[H])nc([H])nn23)C([H])([H])C1([H])[H]


 38 42  0  0  0  0  0  0  0  0999 V2000
   -2.1193   21.3038  -22.3914 C   0  0  0  0  0  0  0  0  0  0  0  0
   -1.6587   21.6638  -23.6722 C   0  0  0  0  0  0  0  0  0  0  0  0
   -0.2920   21.5675  -23.6136 C   0  0  0  0  0  0  0  0  0  0  0  0
    0.7284   21.7302  -24.5187 C   0  0  0  0  0  0  0  0  0  0  0  0
    0.4667   22.1734  -25.8412 N   0  0  0  0  0  0  0  0  0  0  0  0
    2.0634   21.5202  -24.2272 N   0  0  0  0  0  0  0  0  0  0  0  0
    2.2957   21.1374  -22.9687 C   0  0  0  0  0  0  0  0  0  0  0  0
    1.3193   20.9846  -22.0912 N   0  0  0  0  0  0  0  0  0  0  0  0
    0.0549   21.1821  -22.3394 N   0  0  0  0  0  0  0  0  0  0  0  0
   -1.0634   21.0292  -21.5752 C   0  0  0  0  0  0  0  0  0  0  0  0
    0.3424   21.5442  -26.6538 H   0  0  0  0  0  0  0  0  0  0  0  0
    0.4014   23.2156  -25.9722 H   0  0  0  0  0  0  0  0  0  0  0  0
   -2.4907   22.3493  -24.6729 C   0  0  0  0  0  0  0  0  0  0  0  0
   -3.0273   22.0888  -25.8595 C   0  0  0  0  0  0  0  0  0  0  0  0
   -3.6892   23.0696  -26.5378 C   0  0  0  0  0  0  0  0  0  0  0  0
   -4.2361   23.0330  -27.8400 C   0  0  0  0  0  0  0  0  0  0  0  0
   -4.7952   24.1222  -28.4428 C   0  0  0  0  0  0  0  0  0  0  0  0
   -5.2822   24.0077  -29.8712 C   0  0  0  0  0  0  0  0  0  0  0  0
   -4.8641   25.3403  -27.8011 C   0  0  0  0  0  0  0  0  0  0  0  0
   -4.3429   25.4141  -26.5372 C   0  0  0  0  0  0  0  0  0  0  0  0
   -3.7620   24.2875  -25.9195 C   0  0  0  0  0  0  0  0  0  0  0  0
   -2.9380   24.0459  -24.4597 S   0  0  0  0  0  0  0  0  0  0  0  0
   -4.3141   26.5498  -25.7478 O   0  0  0  0  0  0  0  0  0  0  0  0
   -5.4619   26.9637  -25.0560 C   0  0  0  0  0  0  0  0  0  0  0  0
   -1.0652   20.7172  -20.1434 C   0  0  0  0  0  0  0  0  0  0  0  0
   -0.6562   19.5363  -19.7979 O   0  0  0  0  0  0  0  0  0  0  0  0
   -1.4900   21.5287  -19.0677 N   0  0  0  0  0  0  0  0  0  0  0  0
   -2.0801   22.8336  -19.0160 C   0  0  0  0  0  0  0  0  0  0  0  0
   -3.0291   22.8763  -17.7787 C   0  0  0  0  0  0  0  0  0  0  0  0
   -3.7177   21.5623  -17.5735 C   0  0  0  0  0  0  0  0  0  0  0  0
   -4.5854   21.7076  -16.5057 O   0  0  0  0  0  0  0  0  0  0  0  0
   -2.7478   20.4548  -17.2794 C   0  0  0  0  0  0  0  0  0  0  0  0
   -1.3569   20.9254  -17.7108 C   0  0  0  0  0  0  0  0  0  0  0  0
   -5.1562   22.5005  -16.5779 H   0  0  0  0  0  0  0  0  0  0  0  0
   -3.5897   21.2893  -22.1167 C   0  0  0  0  0  0  0  0  0  0  0  0
   -4.0240   22.4407  -21.5717 O   0  0  0  0  0  0  0  0  0  0  0  0
   -5.6170   23.8277  -20.3352 C   0  0  0  0  0  0  0  0  0  0  0  0
   -5.2685   22.7876  -21.3457 C   0  0  0  0  0  0  0  0  0  0  0  0
 37 38  1  0  0  0
 38 36  1  0  0  0
 36 35  1  0  0  0
 35  1  1  0  0  0
  1  2  1  0  0  0
  2 13  1  0  0  0
 13 14  2  0  0  0
 14 15  1  0  0  0
 15 16  2  0  0  0
 16 17  1  0  0  0
 17 18  1  0  0  0
 17 19  2  0  0  0
 19 20  1  0  0  0
 20 23  1  0  0  0
 23 24  1  0  0  0
 20 21  2  0  0  0
 21 22  1  0  0  0
  2  3  2  0  0  0
  3  4  1  0  0  0
  4  5  1  0  0  0
  4  6  2  0  0  0
  6  7  1  0  0  0
  7  8  2  0  0  0
  8  9  1  0  0  0
  9 10  1  0  0  0
 10 25  1  0  0  0
 25 26  2  0  0  0
 25 27  1  0  0  0
 27 28  1  0  0  0
 28 29  1  0  0  0
 29 30  1  0  0  0
 30 31  1  0  0  0
 30 32  1  0  0  0
 32 33  1  0  0  0
 10  1  2  0  0  0
 33 27  1  0  0  0
 22 13  1  0  0  0
  9  3  1  0  0  0
 21 15  1  0  0  0
  5 11  1  0  0  0
  5 12  1  0  0  0
 31 34  1  0  0  0
M  END
> <minimizedAffinity>
-7.40260

> <CNNscore>
0.3620135784

> <CNNaffinity>
6.9860281944

> <CNN_VS>
2.5290369987

> <CNNaffinity_variance>
0.5835304260

$$$$
[H]OC1([H])C([H])([H])C([H])([H])N(C(=O)c2c(C([H])([H])OC([H])([H])C([H])([H])[H])c(-c3sc4c(OC([H])([H])[H])c([H])c(C([H])([H])[H])c([H])c4c3[H])c3c(N([H])[H])nc([H])nn23)C([H])([H])C1([H])[H]


 38 42  0  0  0  0  0  0  0  0999 V2000
   -2.7465   21.8863  -22.0766 C   0  0  0  0  0  0  0  0  0  0  0  0
   -2.2321   21.9964  -23.3826 C   0  0  0  0  0  0  0  0  0  0  0  0
   -0.8824   21.7834  -23.2670 C   0  0  0  0  0  0  0  0  0  0  0  0
    0.1637   21.7061  -24.1540 C   0  0  0  0  0  0  0  0  0  0  0  0
   -0.0320   21.9588  -25.5366 N   0  0  0  0  0  0  0  0  0  0  0  0
    1.4671   21.4207  -23.7918 N   0  0  0  0  0  0  0  0  0  0  0  0
    1.6404   21.2201  -22.4826 C   0  0  0  0  0  0  0  0  0  0  0  0
    0.6396   21.2986  -21.6231 N   0  0  0  0  0  0  0  0  0  0  0  0
   -0.5954   21.5719  -21.9383 N   0  0  0  0  0  0  0  0  0  0  0  0
   -1.7357   21.6459  -21.1951 C   0  0  0  0  0  0  0  0  0  0  0  0
   -0.2034   21.2244  -26.2457 H   0  0  0  0  0  0  0  0  0  0  0  0
    0.0063   22.9691  -25.8291 H   0  0  0  0  0  0  0  0  0  0  0  0
   -2.9771   22.5910  -24.5028 C   0  0  0  0  0  0  0  0  0  0  0  0
   -3.4628   22.2129  -25.6796 C   0  0  0  0  0  0  0  0  0  0  0  0
   -4.0409   23.1321  -26.5049 C   0  0  0  0  0  0  0  0  0  0  0  0
   -4.5202   22.9627  -27.8232 C   0  0  0  0  0  0  0  0  0  0  0  0
   -4.9946   23.9941  -28.5805 C   0  0  0  0  0  0  0  0  0  0  0  0
   -5.4113   23.7299  -30.0113 C   0  0  0  0  0  0  0  0  0  0  0  0
   -5.0387   25.2819  -28.0908 C   0  0  0  0  0  0  0  0  0  0  0  0
   -4.5812   25.4847  -26.8164 C   0  0  0  0  0  0  0  0  0  0  0  0
   -4.0877   24.4171  -26.0387 C   0  0  0  0  0  0  0  0  0  0  0  0
   -3.3536   24.3179  -24.5157 S   0  0  0  0  0  0  0  0  0  0  0  0
   -4.5396   26.7044  -26.1650 O   0  0  0  0  0  0  0  0  0  0  0  0
   -5.5786   27.0859  -25.3035 C   0  0  0  0  0  0  0  0  0  0  0  0
   -1.7912   21.5638  -19.7330 C   0  0  0  0  0  0  0  0  0  0  0  0
   -2.2311   22.6072  -19.1014 O   0  0  0  0  0  0  0  0  0  0  0  0
   -1.3934   20.4966  -18.8970 N   0  0  0  0  0  0  0  0  0  0  0  0
   -0.7850   19.2286  -19.1723 C   0  0  0  0  0  0  0  0  0  0  0  0
    0.1186   18.8618  -17.9548 C   0  0  0  0  0  0  0  0  0  0  0  0
    0.7784   20.0768  -17.3793 C   0  0  0  0  0  0  0  0  0  0  0  0
    1.6087   19.6561  -16.3556 O   0  0  0  0  0  0  0  0  0  0  0  0
   -0.2190   21.0602  -16.8388 C   0  0  0  0  0  0  0  0  0  0  0  0
   -1.5855   20.7145  -17.4347 C   0  0  0  0  0  0  0  0  0  0  0  0
    2.1941   18.9144  -16.6142 H   0  0  0  0  0  0  0  0  0  0  0  0
   -4.2156   22.0523  -21.8492 C   0  0  0  0  0  0  0  0  0  0  0  0
   -4.5239   23.2529  -21.3248 O   0  0  0  0  0  0  0  0  0  0  0  0
   -6.5775   23.6519  -22.5952 C   0  0  0  0  0  0  0  0  0  0  0  0
   -5.6574   23.9012  -21.4482 C   0  0  0  0  0  0  0  0  0  0  0  0
 37 38  1  0  0  0
 38 36  1  0  0  0
 36 35  1  0  0  0
 35  1  1  0  0  0
  1  2  1  0  0  0
  2 13  1  0  0  0
 13 14  2  0  0  0
 14 15  1  0  0  0
 15 16  2  0  0  0
 16 17  1  0  0  0
 17 18  1  0  0  0
 17 19  2  0  0  0
 19 20  1  0  0  0
 20 23  1  0  0  0
 23 24  1  0  0  0
 20 21  2  0  0  0
 21 22  1  0  0  0
  2  3  2  0  0  0
  3  4  1  0  0  0
  4  5  1  0  0  0
  4  6  2  0  0  0
  6  7  1  0  0  0
  7  8  2  0  0  0
  8  9  1  0  0  0
  9 10  1  0  0  0
 10 25  1  0  0  0
 25 26  2  0  0  0
 25 27  1  0  0  0
 27 28  1  0  0  0
 28 29  1  0  0  0
 29 30  1  0  0  0
 30 31  1  0  0  0
 30 32  1  0  0  0
 32 33  1  0  0  0
 10  1  2  0  0  0
 33 27  1  0  0  0
 22 13  1  0  0  0
  9  3  1  0  0  0
 21 15  1  0  0  0
  5 11  1  0  0  0
  5 12  1  0  0  0
 31 34  1  0  0  0
M  END
> <minimizedAffinity>
-7.63980

> <CNNscore>
0.2547504306

> <CNNaffinity>
6.8783926964

> <CNN_VS>
1.7522735596

> <CNNaffinity_variance>
0.4586680830

$$$$
[H]OC1([H])C([H])([H])C([H])([H])N(C(=O)c2c(C([H])([H])OC([H])([H])C([H])([H])[H])c(-c3sc4c(OC([H])([H])[H])c([H])c(C([H])([H])[H])c([H])c4c3[H])c3c(N([H])[H])nc([H])nn23)C([H])([H])C1([H])[H]


 38 42  0  0  0  0  0  0  0  0999 V2000
   -3.6162   23.7988  -23.6455 C   0  0  0  0  0  0  0  0  0  0  0  0
   -2.3891   23.2471  -23.2307 C   0  0  0  0  0  0  0  0  0  0  0  0
   -1.7724   22.8148  -24.3768 C   0  0  0  0  0  0  0  0  0  0  0  0
   -0.5566   22.2437  -24.6641 C   0  0  0  0  0  0  0  0  0  0  0  0
    0.3464   21.8902  -23.6279 N   0  0  0  0  0  0  0  0  0  0  0  0
   -0.1276   21.9364  -25.9419 N   0  0  0  0  0  0  0  0  0  0  0  0
   -1.0036   22.2432  -26.9025 C   0  0  0  0  0  0  0  0  0  0  0  0
   -2.1773   22.7875  -26.6327 N   0  0  0  0  0  0  0  0  0  0  0  0
   -2.6071   23.0807  -25.4375 N   0  0  0  0  0  0  0  0  0  0  0  0
   -3.7513   23.6756  -24.9958 C   0  0  0  0  0  0  0  0  0  0  0  0
    1.1227   22.4913  -23.3001 H   0  0  0  0  0  0  0  0  0  0  0  0
    0.1910   20.9486  -23.1843 H   0  0  0  0  0  0  0  0  0  0  0  0
   -2.0842   22.8991  -21.8345 C   0  0  0  0  0  0  0  0  0  0  0  0
   -1.1950   23.2276  -20.9045 C   0  0  0  0  0  0  0  0  0  0  0  0
   -1.1951   22.5812  -19.7035 C   0  0  0  0  0  0  0  0  0  0  0  0
   -0.2835   22.7028  -18.6309 C   0  0  0  0  0  0  0  0  0  0  0  0
   -0.3427   21.9234  -17.5123 C   0  0  0  0  0  0  0  0  0  0  0  0
    0.7263   22.0709  -16.4512 C   0  0  0  0  0  0  0  0  0  0  0  0
   -1.3166   20.9596  -17.3608 C   0  0  0  0  0  0  0  0  0  0  0  0
   -2.2176   20.8121  -18.3811 C   0  0  0  0  0  0  0  0  0  0  0  0
   -2.1504   21.6165  -19.5372 C   0  0  0  0  0  0  0  0  0  0  0  0
   -2.9965   21.6332  -21.0042 S   0  0  0  0  0  0  0  0  0  0  0  0
   -3.2526   19.8946  -18.4093 O   0  0  0  0  0  0  0  0  0  0  0  0
   -3.1085   18.6416  -17.7956 C   0  0  0  0  0  0  0  0  0  0  0  0
   -4.9014   24.0125  -25.8390 C   0  0  0  0  0  0  0  0  0  0  0  0
   -6.0135   23.3931  -25.5924 O   0  0  0  0  0  0  0  0  0  0  0  0
   -4.9601   24.9125  -26.9266 N   0  0  0  0  0  0  0  0  0  0  0  0
   -3.9628   25.7133  -27.5730 C   0  0  0  0  0  0  0  0  0  0  0  0
   -4.3540   25.8342  -29.0782 C   0  0  0  0  0  0  0  0  0  0  0  0
   -4.9659   24.5654  -29.5866 C   0  0  0  0  0  0  0  0  0  0  0  0
   -5.2179   24.7346  -30.9365 O   0  0  0  0  0  0  0  0  0  0  0  0
   -6.2473   24.2318  -28.8792 C   0  0  0  0  0  0  0  0  0  0  0  0
   -6.2914   25.0461  -27.5841 C   0  0  0  0  0  0  0  0  0  0  0  0
   -4.4484   25.0849  -31.4313 H   0  0  0  0  0  0  0  0  0  0  0  0
   -4.5406   24.3843  -22.6256 C   0  0  0  0  0  0  0  0  0  0  0  0
   -5.5955   23.5890  -22.3688 O   0  0  0  0  0  0  0  0  0  0  0  0
   -6.4142   24.7935  -20.4017 C   0  0  0  0  0  0  0  0  0  0  0  0
   -6.3535   23.6033  -21.2985 C   0  0  0  0  0  0  0  0  0  0  0  0
 37 38  1  0  0  0
 38 36  1  0  0  0
 36 35  1  0  0  0
 35  1  1  0  0  0
  1  2  1  0  0  0
  2 13  1  0  0  0
 13 14  2  0  0  0
 14 15  1  0  0  0
 15 16  2  0  0  0
 16 17  1  0  0  0
 17 18  1  0  0  0
 17 19  2  0  0  0
 19 20  1  0  0  0
 20 23  1  0  0  0
 23 24  1  0  0  0
 20 21  2  0  0  0
 21 22  1  0  0  0
  2  3  2  0  0  0
  3  4  1  0  0  0
  4  5  1  0  0  0
  4  6  2  0  0  0
  6  7  1  0  0  0
  7  8  2  0  0  0
  8  9  1  0  0  0
  9 10  1  0  0  0
 10 25  1  0  0  0
 25 26  2  0  0  0
 25 27  1  0  0  0
 27 28  1  0  0  0
 28 29  1  0  0  0
 29 30  1  0  0  0
 30 31  1  0  0  0
 30 32  1  0  0  0
 32 33  1  0  0  0
 10  1  2  0  0  0
 33 27  1  0  0  0
 22 13  1  0  0  0
  9  3  1  0  0  0
 21 15  1  0  0  0
  5 11  1  0  0  0
  5 12  1  0  0  0
 31 34  1  0  0  0
M  END
> <minimizedAffinity>
-6.85029

> <CNNscore>
0.1851078272

> <CNNaffinity>
6.6857719421

> <CNN_VS>
1.2375887632

> <CNNaffinity_variance>
0.6000597477

$$$$
[H]OC1([H])C([H])([H])C([H])([H])N(C(=O)c2c(C([H])([H])OC([H])([H])C([H])([H])[H])c(-c3sc4c(OC([H])([H])[H])c([H])c(C([H])([H])[H])c([H])c4c3[H])c3c(N([H])[H])nc([H])nn23)C([H])([H])C1([H])[H]


 38 42  0  0  0  0  0  0  0  0999 V2000
   -6.8770   21.6990  -20.2894 C   0  0  0  0  0  0  0  0  0  0  0  0
   -7.3557   22.7360  -21.1126 C   0  0  0  0  0  0  0  0  0  0  0  0
   -8.6247   23.0047  -20.6676 C   0  0  0  0  0  0  0  0  0  0  0  0
   -9.5931   23.9196  -21.0024 C   0  0  0  0  0  0  0  0  0  0  0  0
   -9.4106   24.8091  -22.0930 N   0  0  0  0  0  0  0  0  0  0  0  0
  -10.8094   24.0323  -20.3548 N   0  0  0  0  0  0  0  0  0  0  0  0
  -10.9793   23.1647  -19.3535 C   0  0  0  0  0  0  0  0  0  0  0  0
  -10.0542   22.2781  -19.0298 N   0  0  0  0  0  0  0  0  0  0  0  0
   -8.9034   22.1477  -19.6282 N   0  0  0  0  0  0  0  0  0  0  0  0
   -7.8374   21.3307  -19.3957 C   0  0  0  0  0  0  0  0  0  0  0  0
   -9.0511   25.7757  -22.0039 H   0  0  0  0  0  0  0  0  0  0  0  0
   -9.6675   24.4322  -23.0414 H   0  0  0  0  0  0  0  0  0  0  0  0
   -6.7259   23.1210  -22.3849 C   0  0  0  0  0  0  0  0  0  0  0  0
   -6.5344   22.6003  -23.5915 C   0  0  0  0  0  0  0  0  0  0  0  0
   -5.7856   23.2724  -24.5123 C   0  0  0  0  0  0  0  0  0  0  0  0
   -5.3785   22.8550  -25.7993 C   0  0  0  0  0  0  0  0  0  0  0  0
   -4.5447   23.5905  -26.5907 C   0  0  0  0  0  0  0  0  0  0  0  0
   -4.0988   23.0243  -27.9215 C   0  0  0  0  0  0  0  0  0  0  0  0
   -4.0482   24.8068  -26.1733 C   0  0  0  0  0  0  0  0  0  0  0  0
   -4.4205   25.2435  -24.9303 C   0  0  0  0  0  0  0  0  0  0  0  0
   -5.2786   24.4786  -24.1138 C   0  0  0  0  0  0  0  0  0  0  0  0
   -5.8383   24.6431  -22.5238 S   0  0  0  0  0  0  0  0  0  0  0  0
   -4.0152   26.4288  -24.3431 O   0  0  0  0  0  0  0  0  0  0  0  0
   -3.9955   27.6191  -25.0848 C   0  0  0  0  0  0  0  0  0  0  0  0
   -7.8171   20.2334  -18.4246 C   0  0  0  0  0  0  0  0  0  0  0  0
   -7.7729   19.0278  -18.8997 O   0  0  0  0  0  0  0  0  0  0  0  0
   -7.8734   20.3065  -17.0148 N   0  0  0  0  0  0  0  0  0  0  0  0
   -8.0167   21.4080  -16.1093 C   0  0  0  0  0  0  0  0  0  0  0  0
   -8.7968   20.8959  -14.8592 C   0  0  0  0  0  0  0  0  0  0  0  0
   -9.8439   19.8958  -15.2415 C   0  0  0  0  0  0  0  0  0  0  0  0
  -10.5291   19.5478  -14.0910 O   0  0  0  0  0  0  0  0  0  0  0  0
   -9.2504   18.6629  -15.8592 C   0  0  0  0  0  0  0  0  0  0  0  0
   -7.8234   19.0006  -16.2972 C   0  0  0  0  0  0  0  0  0  0  0  0
  -10.8255   20.3225  -13.5696 H   0  0  0  0  0  0  0  0  0  0  0  0
   -5.4934   21.1715  -20.5019 C   0  0  0  0  0  0  0  0  0  0  0  0
   -4.7481   21.2128  -19.3820 O   0  0  0  0  0  0  0  0  0  0  0  0
   -2.7777   22.4204  -18.5759 C   0  0  0  0  0  0  0  0  0  0  0  0
   -4.2442   22.2787  -18.8073 C   0  0  0  0  0  0  0  0  0  0  0  0
 37 38  1  0  0  0
 38 36  1  0  0  0
 36 35  1  0  0  0
 35  1  1  0  0  0
  1  2  1  0  0  0
  2 13  1  0  0  0
 13 14  2  0  0  0
 14 15  1  0  0  0
 15 16  2  0  0  0
 16 17  1  0  0  0
 17 18  1  0  0  0
 17 19  2  0  0  0
 19 20  1  0  0  0
 20 23  1  0  0  0
 23 24  1  0  0  0
 20 21  2  0  0  0
 21 22  1  0  0  0
  2  3  2  0  0  0
  3  4  1  0  0  0
  4  5  1  0  0  0
  4  6  2  0  0  0
  6  7  1  0  0  0
  7  8  2  0  0  0
  8  9  1  0  0  0
  9 10  1  0  0  0
 10 25  1  0  0  0
 25 26  2  0  0  0
 25 27  1  0  0  0
 27 28  1  0  0  0
 28 29  1  0  0  0
 29 30  1  0  0  0
 30 31  1  0  0  0
 30 32  1  0  0  0
 32 33  1  0  0  0
 10  1  2  0  0  0
 33 27  1  0  0  0
 22 13  1  0  0  0
  9  3  1  0  0  0
 21 15  1  0  0  0
  5 11  1  0  0  0
  5 12  1  0  0  0
 31 34  1  0  0  0
M  END
> <minimizedAffinity>
-6.94032

> <CNNscore>
0.0652728677

> <CNNaffinity>
5.7217478752

> <CNN_VS>
0.3734748960

> <CNNaffinity_variance>
0.0966989249

$$$$
[H]C([H])=C([H])C(=O)N1C([H])([H])C([H])([H])C([H])(c2onc(C([H])([H])N3C(=O)N(c4c(F)c(OC([H])([H])[H])c([H])c(OC([H])([H])[H])c4F)C([H])([H])c4c([H])nc(-c5c(C([H])([H])[H])nn(C([H])([H])[H])c5[H])c([H])c43)c2[H])C([H])([H])C1([H])[H]


 46 51  0  0  0  0  0  0  0  0999 V2000
   -1.9409   22.6182  -23.9865 N   0  0  0  0  0  0  0  0  0  0  0  0
   -0.6797   22.3542  -24.6468 C   0  0  0  0  0  0  0  0  0  0  0  0
    0.3485   21.7661  -23.7736 C   0  0  0  0  0  0  0  0  0  0  0  0
    1.5909   21.5711  -24.3622 C   0  0  0  0  0  0  0  0  0  0  0  0
    2.5720   21.0319  -23.6453 N   0  0  0  0  0  0  0  0  0  0  0  0
    2.4033   20.6556  -22.3295 C   0  0  0  0  0  0  0  0  0  0  0  0
    1.2021   20.8341  -21.7285 C   0  0  0  0  0  0  0  0  0  0  0  0
    0.1415   21.4009  -22.4540 C   0  0  0  0  0  0  0  0  0  0  0  0
   -1.1378   21.6458  -21.8931 N   0  0  0  0  0  0  0  0  0  0  0  0
   -2.1925   22.2508  -22.6389 C   0  0  0  0  0  0  0  0  0  0  0  0
   -3.3356   22.4621  -22.1223 O   0  0  0  0  0  0  0  0  0  0  0  0
   -4.3692   25.1648  -25.0800 C   0  0  0  0  0  0  0  0  0  0  0  0
   -4.8428   24.5809  -26.2368 C   0  0  0  0  0  0  0  0  0  0  0  0
   -4.3813   23.3615  -26.6700 C   0  0  0  0  0  0  0  0  0  0  0  0
   -3.4072   22.7100  -25.9070 C   0  0  0  0  0  0  0  0  0  0  0  0
   -2.9905   21.5156  -26.3857 F   0  0  0  0  0  0  0  0  0  0  0  0
   -2.9247   23.2751  -24.7542 C   0  0  0  0  0  0  0  0  0  0  0  0
   -3.4063   24.4887  -24.3535 C   0  0  0  0  0  0  0  0  0  0  0  0
   -2.9488   25.0731  -23.2180 F   0  0  0  0  0  0  0  0  0  0  0  0
   -6.2113   26.6771  -24.7421 C   0  0  0  0  0  0  0  0  0  0  0  0
   -4.8223   26.3781  -24.6412 O   0  0  0  0  0  0  0  0  0  0  0  0
   -4.8919   22.8286  -27.8319 O   0  0  0  0  0  0  0  0  0  0  0  0
   -4.9139   23.4840  -29.0618 C   0  0  0  0  0  0  0  0  0  0  0  0
    3.5474   20.0785  -21.6489 C   0  0  0  0  0  0  0  0  0  0  0  0
    4.0750   18.8283  -22.0388 C   0  0  0  0  0  0  0  0  0  0  0  0
    5.1189   18.5480  -21.2440 N   0  0  0  0  0  0  0  0  0  0  0  0
    5.9285   17.3313  -21.3420 C   0  0  0  0  0  0  0  0  0  0  0  0
    5.2611   19.5299  -20.4071 N   0  0  0  0  0  0  0  0  0  0  0  0
    4.3215   20.4962  -20.6129 C   0  0  0  0  0  0  0  0  0  0  0  0
    4.1938   21.7533  -19.8371 C   0  0  0  0  0  0  0  0  0  0  0  0
   -1.4128   21.2876  -20.5340 C   0  0  0  0  0  0  0  0  0  0  0  0
   -0.5073   21.9942  -19.5708 C   0  0  0  0  0  0  0  0  0  0  0  0
    0.2441   21.3907  -18.5866 C   0  0  0  0  0  0  0  0  0  0  0  0
    0.9250   22.3838  -17.9232 C   0  0  0  0  0  0  0  0  0  0  0  0
    0.5804   23.5108  -18.5010 O   0  0  0  0  0  0  0  0  0  0  0  0
   -0.2572   23.3041  -19.4679 N   0  0  0  0  0  0  0  0  0  0  0  0
    1.8717   22.2366  -16.7753 C   0  0  0  0  0  0  0  0  0  0  0  0
    2.6611   23.4864  -16.5386 C   0  0  0  0  0  0  0  0  0  0  0  0
    3.7403   23.1547  -15.4844 C   0  0  0  0  0  0  0  0  0  0  0  0
    3.0926   22.6722  -14.3018 N   0  0  0  0  0  0  0  0  0  0  0  0
    1.6185   22.6681  -14.3250 C   0  0  0  0  0  0  0  0  0  0  0  0
    1.1186   21.8841  -15.5076 C   0  0  0  0  0  0  0  0  0  0  0  0
    3.7215   22.2137  -13.1488 C   0  0  0  0  0  0  0  0  0  0  0  0
    2.9327   21.8174  -12.1707 O   0  0  0  0  0  0  0  0  0  0  0  0
    5.1125   22.1110  -12.8730 C   0  0  0  0  0  0  0  0  0  0  0  0
    5.7475   22.4942  -11.8235 C   0  0  0  0  0  0  0  0  0  0  0  0
 20 21  1  0  0  0
 21 12  1  0  0  0
 12 13  2  0  0  0
 13 14  1  0  0  0
 14 22  1  0  0  0
 22 23  1  0  0  0
 14 15  2  0  0  0
 15 16  1  0  0  0
 15 17  1  0  0  0
 17  1  1  0  0  0
  1  2  1  0  0  0
  2  3  1  0  0  0
  3  4  2  0  0  0
  4  5  1  0  0  0
  5  6  2  0  0  0
  6  7  1  0  0  0
  7  8  2  0  0  0
  8  9  1  0  0  0
  9 31  1  0  0  0
 31 32  1  0  0  0
 32 33  1  0  0  0
 33 34  2  0  0  0
 34 35  1  0  0  0
 35 36  1  0  0  0
 34 37  1  0  0  0
 37 38  1  0  0  0
 38 39  1  0  0  0
 39 40  1  0  0  0
 40 41  1  0  0  0
 41 42  1  0  0  0
 40 43  1  0  0  0
 43 44  2  0  0  0
 43 45  1  0  0  0
 45 46  2  0  0  0
  9 10  1  0  0  0
 10 11  2  0  0  0
  6 24  1  0  0  0
 24 25  2  0  0  0
 25 26  1  0  0  0
 26 27  1  0  0  0
 26 28  1  0  0  0
 28 29  2  0  0  0
 29 30  1  0  0  0
 17 18  2  0  0  0
 18 19  1  0  0  0
 18 12  1  0  0  0
 10  1  1  0  0  0
 29 24  1  0  0  0
  8  3  1  0  0  0
 36 32  2  0  0  0
 42 37  1  0  0  0
M  END
> <minimizedAffinity>
-8.30662

> <CNNscore>
0.1545367092

> <CNNaffinity>
6.9341444969

> <CNN_VS>
1.0715798140

> <CNNaffinity_variance>
0.3264741302

$$$$
[H]C([H])=C([H])C(=O)N1C([H])([H])C([H])([H])C([H])(c2onc(C([H])([H])N3C(=O)N(c4c(F)c(OC([H])([H])[H])c([H])c(OC([H])([H])[H])c4F)C([H])([H])c4c([H])nc(-c5c(C([H])([H])[H])nn(C([H])([H])[H])c5[H])c([H])c43)c2[H])C([H])([H])C1([H])[H]


 46 51  0  0  0  0  0  0  0  0999 V2000
   -2.0873   22.6535  -23.7955 N   0  0  0  0  0  0  0  0  0  0  0  0
   -0.8610   22.3644  -24.5088 C   0  0  0  0  0  0  0  0  0  0  0  0
    0.1967   21.7691  -23.6764 C   0  0  0  0  0  0  0  0  0  0  0  0
    1.4084   21.5500  -24.3180 C   0  0  0  0  0  0  0  0  0  0  0  0
    2.4127   21.0030  -23.6403 N   0  0  0  0  0  0  0  0  0  0  0  0
    2.2977   20.6417  -22.3145 C   0  0  0  0  0  0  0  0  0  0  0  0
    1.1274   20.8438  -21.6622 C   0  0  0  0  0  0  0  0  0  0  0  0
    0.0437   21.4195  -22.3453 C   0  0  0  0  0  0  0  0  0  0  0  0
   -1.2055   21.6889  -21.7303 N   0  0  0  0  0  0  0  0  0  0  0  0
   -2.2836   22.3026  -22.4344 C   0  0  0  0  0  0  0  0  0  0  0  0
   -3.3992   22.5359  -21.8694 O   0  0  0  0  0  0  0  0  0  0  0  0
   -4.6353   23.3434  -26.3664 C   0  0  0  0  0  0  0  0  0  0  0  0
   -5.0667   24.5909  -25.9651 C   0  0  0  0  0  0  0  0  0  0  0  0
   -4.5370   25.2167  -24.8626 C   0  0  0  0  0  0  0  0  0  0  0  0
   -3.5365   24.5581  -24.1410 C   0  0  0  0  0  0  0  0  0  0  0  0
   -3.0569   25.2225  -23.0649 F   0  0  0  0  0  0  0  0  0  0  0  0
   -3.0949   23.3177  -24.5251 C   0  0  0  0  0  0  0  0  0  0  0  0
   -3.6440   22.7253  -25.6264 C   0  0  0  0  0  0  0  0  0  0  0  0
   -3.2284   21.4991  -26.0312 F   0  0  0  0  0  0  0  0  0  0  0  0
   -4.6674   23.0532  -28.7558 C   0  0  0  0  0  0  0  0  0  0  0  0
   -5.1566   22.7127  -27.4620 O   0  0  0  0  0  0  0  0  0  0  0  0
   -5.0074   26.4616  -24.5110 O   0  0  0  0  0  0  0  0  0  0  0  0
   -5.1532   27.5317  -25.3921 C   0  0  0  0  0  0  0  0  0  0  0  0
    3.4627   20.0540  -21.6799 C   0  0  0  0  0  0  0  0  0  0  0  0
    3.9380   18.7806  -22.0618 C   0  0  0  0  0  0  0  0  0  0  0  0
    5.0162   18.4950  -21.3163 N   0  0  0  0  0  0  0  0  0  0  0  0
    5.7897   17.2557  -21.4228 C   0  0  0  0  0  0  0  0  0  0  0  0
    5.2272   19.4952  -20.5163 N   0  0  0  0  0  0  0  0  0  0  0  0
    4.3016   20.4794  -20.6989 C   0  0  0  0  0  0  0  0  0  0  0  0
    4.2465   21.7599  -19.9534 C   0  0  0  0  0  0  0  0  0  0  0  0
   -1.4245   21.3478  -20.3567 C   0  0  0  0  0  0  0  0  0  0  0  0
   -0.4831   22.0692  -19.4400 C   0  0  0  0  0  0  0  0  0  0  0  0
    0.3273   21.4782  -18.4959 C   0  0  0  0  0  0  0  0  0  0  0  0
    1.0243   22.4824  -17.8668 C   0  0  0  0  0  0  0  0  0  0  0  0
    0.6319   23.6036  -18.4252 O   0  0  0  0  0  0  0  0  0  0  0  0
   -0.2501   23.3831  -19.3485 N   0  0  0  0  0  0  0  0  0  0  0  0
    2.0304   22.3508  -16.7686 C   0  0  0  0  0  0  0  0  0  0  0  0
    2.9148   23.5549  -16.6742 C   0  0  0  0  0  0  0  0  0  0  0  0
    4.0345   23.2237  -15.6631 C   0  0  0  0  0  0  0  0  0  0  0  0
    3.4329   22.8744  -14.4112 N   0  0  0  0  0  0  0  0  0  0  0  0
    1.9634   22.9736  -14.3475 C   0  0  0  0  0  0  0  0  0  0  0  0
    1.3379   22.1444  -15.4358 C   0  0  0  0  0  0  0  0  0  0  0  0
    4.1022   22.4561  -13.2658 C   0  0  0  0  0  0  0  0  0  0  0  0
    3.3528   22.1881  -12.2157 O   0  0  0  0  0  0  0  0  0  0  0  0
    5.4981   22.2747  -13.0651 C   0  0  0  0  0  0  0  0  0  0  0  0
    6.2115   21.2364  -13.3185 C   0  0  0  0  0  0  0  0  0  0  0  0
 20 21  1  0  0  0
 21 12  1  0  0  0
 12 13  2  0  0  0
 13 14  1  0  0  0
 14 22  1  0  0  0
 22 23  1  0  0  0
 14 15  2  0  0  0
 15 16  1  0  0  0
 15 17  1  0  0  0
 17  1  1  0  0  0
  1  2  1  0  0  0
  2  3  1  0  0  0
  3  4  2  0  0  0
  4  5  1  0  0  0
  5  6  2  0  0  0
  6  7  1  0  0  0
  7  8  2  0  0  0
  8  9  1  0  0  0
  9 31  1  0  0  0
 31 32  1  0  0  0
 32 33  1  0  0  0
 33 34  2  0  0  0
 34 35  1  0  0  0
 35 36  1  0  0  0
 34 37  1  0  0  0
 37 38  1  0  0  0
 38 39  1  0  0  0
 39 40  1  0  0  0
 40 41  1  0  0  0
 41 42  1  0  0  0
 40 43  1  0  0  0
 43 44  2  0  0  0
 43 45  1  0  0  0
 45 46  2  0  0  0
  9 10  1  0  0  0
 10 11  2  0  0  0
  6 24  1  0  0  0
 24 25  2  0  0  0
 25 26  1  0  0  0
 26 27  1  0  0  0
 26 28  1  0  0  0
 28 29  2  0  0  0
 29 30  1  0  0  0
 17 18  2  0  0  0
 18 19  1  0  0  0
 18 12  1  0  0  0
 10  1  1  0  0  0
 29 24  1  0  0  0
  8  3  1  0  0  0
 36 32  2  0  0  0
 42 37  1  0  0  0
M  END
> <minimizedAffinity>
-8.24062

> <CNNscore>
0.1458793133

> <CNNaffinity>
6.8692727089

> <CNN_VS>
1.0020847321

> <CNNaffinity_variance>
0.4260438085

$$$$
[H]C([H])=C([H])C(=O)N1C([H])([H])C([H])([H])C([H])(c2onc(C([H])([H])N3C(=O)N(c4c(F)c(OC([H])([H])[H])c([H])c(OC([H])([H])[H])c4F)C([H])([H])c4c([H])nc(-c5c(C([H])([H])[H])nn(C([H])([H])[H])c5[H])c([H])c43)c2[H])C([H])([H])C1([H])[H]


 46 51  0  0  0  0  0  0  0  0999 V2000
   -0.6925   21.4437  -19.9513 N   0  0  0  0  0  0  0  0  0  0  0  0
   -1.1316   22.4774  -20.8651 C   0  0  0  0  0  0  0  0  0  0  0  0
   -2.5664   22.7923  -20.7775 C   0  0  0  0  0  0  0  0  0  0  0  0
   -3.0290   23.7276  -21.6935 C   0  0  0  0  0  0  0  0  0  0  0  0
   -4.3112   24.0780  -21.6729 N   0  0  0  0  0  0  0  0  0  0  0  0
   -5.2073   23.5449  -20.7705 C   0  0  0  0  0  0  0  0  0  0  0  0
   -4.7846   22.6299  -19.8649 C   0  0  0  0  0  0  0  0  0  0  0  0
   -3.4369   22.2348  -19.8560 C   0  0  0  0  0  0  0  0  0  0  0  0
   -2.9192   21.2650  -18.9601 N   0  0  0  0  0  0  0  0  0  0  0  0
   -1.5532   20.8556  -18.9882 C   0  0  0  0  0  0  0  0  0  0  0  0
   -1.1032   19.9858  -18.1764 O   0  0  0  0  0  0  0  0  0  0  0  0
    2.9753   21.4181  -19.5985 C   0  0  0  0  0  0  0  0  0  0  0  0
    3.2853   20.2565  -20.2753 C   0  0  0  0  0  0  0  0  0  0  0  0
    2.3121   19.4753  -20.8500 C   0  0  0  0  0  0  0  0  0  0  0  0
    0.9793   19.8829  -20.7362 C   0  0  0  0  0  0  0  0  0  0  0  0
    0.0672   19.0719  -21.3192 F   0  0  0  0  0  0  0  0  0  0  0  0
    0.6521   21.0346  -20.0673 C   0  0  0  0  0  0  0  0  0  0  0  0
    1.6456   21.7869  -19.5083 C   0  0  0  0  0  0  0  0  0  0  0  0
    1.3537   22.9309  -18.8403 F   0  0  0  0  0  0  0  0  0  0  0  0
    5.2872   22.0738  -19.4583 C   0  0  0  0  0  0  0  0  0  0  0  0
    3.9369   22.2018  -19.0231 O   0  0  0  0  0  0  0  0  0  0  0  0
    2.6824   18.3274  -21.5130 O   0  0  0  0  0  0  0  0  0  0  0  0
    3.9537   18.0862  -22.0310 C   0  0  0  0  0  0  0  0  0  0  0  0
   -6.5817   24.0038  -20.8450 C   0  0  0  0  0  0  0  0  0  0  0  0
   -6.9174   25.3501  -20.5840 C   0  0  0  0  0  0  0  0  0  0  0  0
   -8.2444   25.4862  -20.7268 N   0  0  0  0  0  0  0  0  0  0  0  0
   -8.9711   26.7438  -20.5376 C   0  0  0  0  0  0  0  0  0  0  0  0
   -8.7337   24.3289  -21.0528 N   0  0  0  0  0  0  0  0  0  0  0  0
   -7.7548   23.3838  -21.1390 C   0  0  0  0  0  0  0  0  0  0  0  0
   -7.9619   21.9579  -21.4891 C   0  0  0  0  0  0  0  0  0  0  0  0
   -3.7704   20.6548  -17.9832 C   0  0  0  0  0  0  0  0  0  0  0  0
   -3.8531   21.4638  -16.7240 C   0  0  0  0  0  0  0  0  0  0  0  0
   -4.9822   22.0931  -16.2480 C   0  0  0  0  0  0  0  0  0  0  0  0
   -4.6360   22.7281  -15.0788 C   0  0  0  0  0  0  0  0  0  0  0  0
   -3.3620   22.4749  -14.8898 O   0  0  0  0  0  0  0  0  0  0  0  0
   -2.8854   21.7362  -15.8418 N   0  0  0  0  0  0  0  0  0  0  0  0
   -5.5130   23.5457  -14.1855 C   0  0  0  0  0  0  0  0  0  0  0  0
   -6.0585   24.7497  -14.8882 C   0  0  0  0  0  0  0  0  0  0  0  0
   -6.7652   25.6201  -13.8257 C   0  0  0  0  0  0  0  0  0  0  0  0
   -7.7826   24.8352  -13.1934 N   0  0  0  0  0  0  0  0  0  0  0  0
   -7.9685   23.4699  -13.7175 C   0  0  0  0  0  0  0  0  0  0  0  0
   -6.6696   22.7124  -13.6693 C   0  0  0  0  0  0  0  0  0  0  0  0
   -8.6001   25.2407  -12.1434 C   0  0  0  0  0  0  0  0  0  0  0  0
   -9.4784   24.3584  -11.7119 O   0  0  0  0  0  0  0  0  0  0  0  0
   -8.6224   26.4882  -11.4616 C   0  0  0  0  0  0  0  0  0  0  0  0
   -9.1551   26.7663  -10.3257 C   0  0  0  0  0  0  0  0  0  0  0  0
 20 21  1  0  0  0
 21 12  1  0  0  0
 12 13  2  0  0  0
 13 14  1  0  0  0
 14 22  1  0  0  0
 22 23  1  0  0  0
 14 15  2  0  0  0
 15 16  1  0  0  0
 15 17  1  0  0  0
 17  1  1  0  0  0
  1  2  1  0  0  0
  2  3  1  0  0  0
  3  4  2  0  0  0
  4  5  1  0  0  0
  5  6  2  0  0  0
  6  7  1  0  0  0
  7  8  2  0  0  0
  8  9  1  0  0  0
  9 31  1  0  0  0
 31 32  1  0  0  0
 32 33  1  0  0  0
 33 34  2  0  0  0
 34 35  1  0  0  0
 35 36  1  0  0  0
 34 37  1  0  0  0
 37 38  1  0  0  0
 38 39  1  0  0  0
 39 40  1  0  0  0
 40 41  1  0  0  0
 41 42  1  0  0  0
 40 43  1  0  0  0
 43 44  2  0  0  0
 43 45  1  0  0  0
 45 46  2  0  0  0
  9 10  1  0  0  0
 10 11  2  0  0  0
  6 24  1  0  0  0
 24 25  2  0  0  0
 25 26  1  0  0  0
 26 27  1  0  0  0
 26 28  1  0  0  0
 28 29  2  0  0  0
 29 30  1  0  0  0
 17 18  2  0  0  0
 18 19  1  0  0  0
 18 12  1  0  0  0
 10  1  1  0  0  0
 29 24  1  0  0  0
  8  3  1  0  0  0
 36 32  2  0  0  0
 42 37  1  0  0  0
M  END
> <minimizedAffinity>
-6.81098

> <CNNscore>
0.1454189420

> <CNNaffinity>
6.2650747299

> <CNN_VS>
0.9110605121

> <CNNaffinity_variance>
0.0557152331

$$$$
[H]C([H])=C([H])C(=O)N1C([H])([H])C([H])([H])C([H])(c2onc(C([H])([H])N3C(=O)N(c4c(F)c(OC([H])([H])[H])c([H])c(OC([H])([H])[H])c4F)C([H])([H])c4c([H])nc(-c5c(C([H])([H])[H])nn(C([H])([H])[H])c5[H])c([H])c43)c2[H])C([H])([H])C1([H])[H]


 46 51  0  0  0  0  0  0  0  0999 V2000
   -1.4742   22.3994  -21.7689 N   0  0  0  0  0  0  0  0  0  0  0  0
   -1.0295   22.3326  -23.1451 C   0  0  0  0  0  0  0  0  0  0  0  0
   -2.0181   22.8124  -24.1240 C   0  0  0  0  0  0  0  0  0  0  0  0
   -1.6462   22.6908  -25.4562 C   0  0  0  0  0  0  0  0  0  0  0  0
   -2.4775   23.1130  -26.4038 N   0  0  0  0  0  0  0  0  0  0  0  0
   -3.7044   23.6714  -26.1137 C   0  0  0  0  0  0  0  0  0  0  0  0
   -4.0943   23.8027  -24.8227 C   0  0  0  0  0  0  0  0  0  0  0  0
   -3.2428   23.3679  -23.7938 C   0  0  0  0  0  0  0  0  0  0  0  0
   -3.5852   23.4447  -22.4198 N   0  0  0  0  0  0  0  0  0  0  0  0
   -2.7181   22.9691  -21.3919 C   0  0  0  0  0  0  0  0  0  0  0  0
   -3.0386   23.0469  -20.1633 O   0  0  0  0  0  0  0  0  0  0  0  0
    0.5779   19.9636  -19.9158 C   0  0  0  0  0  0  0  0  0  0  0  0
    1.0996   20.7735  -18.9282 C   0  0  0  0  0  0  0  0  0  0  0  0
    0.7913   22.1103  -18.8544 C   0  0  0  0  0  0  0  0  0  0  0  0
   -0.0744   22.6467  -19.8127 C   0  0  0  0  0  0  0  0  0  0  0  0
   -0.3375   23.9678  -19.6899 F   0  0  0  0  0  0  0  0  0  0  0  0
   -0.6028   21.8570  -20.8017 C   0  0  0  0  0  0  0  0  0  0  0  0
   -0.2745   20.5320  -20.8445 C   0  0  0  0  0  0  0  0  0  0  0  0
   -0.7808   19.7253  -21.8105 F   0  0  0  0  0  0  0  0  0  0  0  0
    2.1024   18.2347  -20.6094 C   0  0  0  0  0  0  0  0  0  0  0  0
    0.8792   18.6323  -19.9974 O   0  0  0  0  0  0  0  0  0  0  0  0
    1.3421   22.8680  -17.8459 O   0  0  0  0  0  0  0  0  0  0  0  0
    2.5448   23.5655  -17.9450 C   0  0  0  0  0  0  0  0  0  0  0  0
   -4.5259   24.0946  -27.2323 C   0  0  0  0  0  0  0  0  0  0  0  0
   -3.9457   24.6241  -28.4054 C   0  0  0  0  0  0  0  0  0  0  0  0
   -4.9333   24.9254  -29.2620 N   0  0  0  0  0  0  0  0  0  0  0  0
   -4.7256   25.4986  -30.5938 C   0  0  0  0  0  0  0  0  0  0  0  0
   -6.0614   24.6194  -28.6974 N   0  0  0  0  0  0  0  0  0  0  0  0
   -5.8674   24.1052  -27.4497 C   0  0  0  0  0  0  0  0  0  0  0  0
   -6.9371   23.6521  -26.5284 C   0  0  0  0  0  0  0  0  0  0  0  0
   -4.8372   24.0113  -22.0164 C   0  0  0  0  0  0  0  0  0  0  0  0
   -5.8850   22.9625  -21.7951 C   0  0  0  0  0  0  0  0  0  0  0  0
   -6.5196   22.7025  -20.6004 C   0  0  0  0  0  0  0  0  0  0  0  0
   -7.3989   21.6687  -20.8193 C   0  0  0  0  0  0  0  0  0  0  0  0
   -7.2759   21.3475  -22.0860 O   0  0  0  0  0  0  0  0  0  0  0  0
   -6.3948   22.0933  -22.6746 N   0  0  0  0  0  0  0  0  0  0  0  0
   -8.3195   21.0242  -19.8331 C   0  0  0  0  0  0  0  0  0  0  0  0
   -7.5876   20.5376  -18.6212 C   0  0  0  0  0  0  0  0  0  0  0  0
   -8.5878   19.7127  -17.7815 C   0  0  0  0  0  0  0  0  0  0  0  0
   -9.7096   20.5427  -17.4594 N   0  0  0  0  0  0  0  0  0  0  0  0
   -9.6319   21.9433  -17.9129 C   0  0  0  0  0  0  0  0  0  0  0  0
   -9.3974   21.9975  -19.3979 C   0  0  0  0  0  0  0  0  0  0  0  0
  -10.8500   20.1508  -16.7660 C   0  0  0  0  0  0  0  0  0  0  0  0
  -11.7645   21.0793  -16.5723 O   0  0  0  0  0  0  0  0  0  0  0  0
  -11.1724   18.8740  -16.2297 C   0  0  0  0  0  0  0  0  0  0  0  0
  -11.5349   18.5809  -15.0322 C   0  0  0  0  0  0  0  0  0  0  0  0
 20 21  1  0  0  0
 21 12  1  0  0  0
 12 13  2  0  0  0
 13 14  1  0  0  0
 14 22  1  0  0  0
 22 23  1  0  0  0
 14 15  2  0  0  0
 15 16  1  0  0  0
 15 17  1  0  0  0
 17  1  1  0  0  0
  1  2  1  0  0  0
  2  3  1  0  0  0
  3  4  2  0  0  0
  4  5  1  0  0  0
  5  6  2  0  0  0
  6  7  1  0  0  0
  7  8  2  0  0  0
  8  9  1  0  0  0
  9 31  1  0  0  0
 31 32  1  0  0  0
 32 33  1  0  0  0
 33 34  2  0  0  0
 34 35  1  0  0  0
 35 36  1  0  0  0
 34 37  1  0  0  0
 37 38  1  0  0  0
 38 39  1  0  0  0
 39 40  1  0  0  0
 40 41  1  0  0  0
 41 42  1  0  0  0
 40 43  1  0  0  0
 43 44  2  0  0  0
 43 45  1  0  0  0
 45 46  2  0  0  0
  9 10  1  0  0  0
 10 11  2  0  0  0
  6 24  1  0  0  0
 24 25  2  0  0  0
 25 26  1  0  0  0
 26 27  1  0  0  0
 26 28  1  0  0  0
 28 29  2  0  0  0
 29 30  1  0  0  0
 17 18  2  0  0  0
 18 19  1  0  0  0
 18 12  1  0  0  0
 10  1  1  0  0  0
 29 24  1  0  0  0
  8  3  1  0  0  0
 36 32  2  0  0  0
 42 37  1  0  0  0
M  END
> <minimizedAffinity>
-8.87387

> <CNNscore>
0.1265733838

> <CNNaffinity>
7.2089676857

> <CNN_VS>
0.9124634266

> <CNNaffinity_variance>
0.1330491304

$$$$
[H]C([H])=C([H])C(=O)N1C([H])([H])C([H])([H])C([H])(c2onc(C([H])([H])N3C(=O)N(c4c(F)c(OC([H])([H])[H])c([H])c(OC([H])([H])[H])c4F)C([H])([H])c4c([H])nc(-c5c(C([H])([H])[H])nn(C([H])([H])[H])c5[H])c([H])c43)c2[H])C([H])([H])C1([H])[H]


 46 51  0  0  0  0  0  0  0  0999 V2000
   -1.8805   22.3957  -23.9479 N   0  0  0  0  0  0  0  0  0  0  0  0
   -0.5230   22.3365  -24.4480 C   0  0  0  0  0  0  0  0  0  0  0  0
    0.4369   21.7183  -23.5195 C   0  0  0  0  0  0  0  0  0  0  0  0
    1.7592   21.7153  -23.9430 C   0  0  0  0  0  0  0  0  0  0  0  0
    2.6882   21.1638  -23.1683 N   0  0  0  0  0  0  0  0  0  0  0  0
    2.3880   20.5901  -21.9508 C   0  0  0  0  0  0  0  0  0  0  0  0
    1.1063   20.5785  -21.5114 C   0  0  0  0  0  0  0  0  0  0  0  0
    0.0972   21.1517  -22.3025 C   0  0  0  0  0  0  0  0  0  0  0  0
   -1.2631   21.2048  -21.9051 N   0  0  0  0  0  0  0  0  0  0  0  0
   -2.2675   21.8191  -22.7102 C   0  0  0  0  0  0  0  0  0  0  0  0
   -3.4843   21.8569  -22.3409 O   0  0  0  0  0  0  0  0  0  0  0  0
   -4.1032   23.1714  -26.7827 C   0  0  0  0  0  0  0  0  0  0  0  0
   -4.6486   24.3646  -26.3559 C   0  0  0  0  0  0  0  0  0  0  0  0
   -4.3014   24.9259  -25.1509 C   0  0  0  0  0  0  0  0  0  0  0  0
   -3.3705   24.2573  -24.3497 C   0  0  0  0  0  0  0  0  0  0  0  0
   -3.0715   24.8570  -23.1749 F   0  0  0  0  0  0  0  0  0  0  0  0
   -2.8177   23.0702  -24.7576 C   0  0  0  0  0  0  0  0  0  0  0  0
   -3.1860   22.5413  -25.9617 C   0  0  0  0  0  0  0  0  0  0  0  0
   -2.6570   21.3688  -26.3925 F   0  0  0  0  0  0  0  0  0  0  0  0
   -5.2068   23.3629  -28.9134 C   0  0  0  0  0  0  0  0  0  0  0  0
   -4.4428   22.6050  -27.9801 O   0  0  0  0  0  0  0  0  0  0  0  0
   -4.8787   26.1187  -24.7788 O   0  0  0  0  0  0  0  0  0  0  0  0
   -4.5029   27.3682  -25.2690 C   0  0  0  0  0  0  0  0  0  0  0  0
    3.4864   20.0202  -21.1932 C   0  0  0  0  0  0  0  0  0  0  0  0
    3.9073   18.6894  -21.4055 C   0  0  0  0  0  0  0  0  0  0  0  0
    4.9308   18.4363  -20.5759 N   0  0  0  0  0  0  0  0  0  0  0  0
    5.6377   17.1555  -20.5027 C   0  0  0  0  0  0  0  0  0  0  0  0
    5.1590   19.5089  -19.8814 N   0  0  0  0  0  0  0  0  0  0  0  0
    4.2998   20.5113  -20.2215 C   0  0  0  0  0  0  0  0  0  0  0  0
    4.2810   21.8693  -19.6263 C   0  0  0  0  0  0  0  0  0  0  0  0
   -1.6756   20.6337  -20.6582 C   0  0  0  0  0  0  0  0  0  0  0  0
   -1.9715   21.6823  -19.6287 C   0  0  0  0  0  0  0  0  0  0  0  0
   -2.8886   21.5670  -18.6073 C   0  0  0  0  0  0  0  0  0  0  0  0
   -2.8600   22.7428  -17.8954 C   0  0  0  0  0  0  0  0  0  0  0  0
   -1.9645   23.5024  -18.4820 O   0  0  0  0  0  0  0  0  0  0  0  0
   -1.4330   22.8997  -19.4985 N   0  0  0  0  0  0  0  0  0  0  0  0
   -3.6721   23.1067  -16.6940 C   0  0  0  0  0  0  0  0  0  0  0  0
   -4.9555   23.7794  -17.0703 C   0  0  0  0  0  0  0  0  0  0  0  0
   -5.6033   24.2943  -15.7660 C   0  0  0  0  0  0  0  0  0  0  0  0
   -5.7941   23.1851  -14.8802 N   0  0  0  0  0  0  0  0  0  0  0  0
   -5.4183   21.8610  -15.4083 C   0  0  0  0  0  0  0  0  0  0  0  0
   -3.9873   21.8723  -15.8721 C   0  0  0  0  0  0  0  0  0  0  0  0
   -6.2957   23.2449  -13.5842 C   0  0  0  0  0  0  0  0  0  0  0  0
   -6.3941   22.0987  -12.9419 O   0  0  0  0  0  0  0  0  0  0  0  0
   -6.7229   24.3821  -12.8452 C   0  0  0  0  0  0  0  0  0  0  0  0
   -6.0030   25.2377  -12.2120 C   0  0  0  0  0  0  0  0  0  0  0  0
 20 21  1  0  0  0
 21 12  1  0  0  0
 12 13  2  0  0  0
 13 14  1  0  0  0
 14 22  1  0  0  0
 22 23  1  0  0  0
 14 15  2  0  0  0
 15 16  1  0  0  0
 15 17  1  0  0  0
 17  1  1  0  0  0
  1  2  1  0  0  0
  2  3  1  0  0  0
  3  4  2  0  0  0
  4  5  1  0  0  0
  5  6  2  0  0  0
  6  7  1  0  0  0
  7  8  2  0  0  0
  8  9  1  0  0  0
  9 31  1  0  0  0
 31 32  1  0  0  0
 32 33  1  0  0  0
 33 34  2  0  0  0
 34 35  1  0  0  0
 35 36  1  0  0  0
 34 37  1  0  0  0
 37 38  1  0  0  0
 38 39  1  0  0  0
 39 40  1  0  0  0
 40 41  1  0  0  0
 41 42  1  0  0  0
 40 43  1  0  0  0
 43 44  2  0  0  0
 43 45  1  0  0  0
 45 46  2  0  0  0
  9 10  1  0  0  0
 10 11  2  0  0  0
  6 24  1  0  0  0
 24 25  2  0  0  0
 25 26  1  0  0  0
 26 27  1  0  0  0
 26 28  1  0  0  0
 28 29  2  0  0  0
 29 30  1  0  0  0
 17 18  2  0  0  0
 18 19  1  0  0  0
 18 12  1  0  0  0
 10  1  1  0  0  0
 29 24  1  0  0  0
  8  3  1  0  0  0
 36 32  2  0  0  0
 42 37  1  0  0  0
M  END
> <minimizedAffinity>
-7.80332

> <CNNscore>
0.1132266149

> <CNNaffinity>
7.0164475441

> <CNN_VS>
0.7944486141

> <CNNaffinity_variance>
0.1125917435

$$$$
[H]C([H])=C([H])C(=O)N1C([H])([H])C([H])([H])C([H])(c2onc(C([H])([H])N3C(=O)N(c4c(F)c(OC([H])([H])[H])c([H])c(OC([H])([H])[H])c4F)C([H])([H])c4c([H])nc(-c5c(C([H])([H])[H])nn(C([H])([H])[H])c5[H])c([H])c43)c2[H])C([H])([H])C1([H])[H]


 46 51  0  0  0  0  0  0  0  0999 V2000
   -2.1551   22.5309  -24.1511 N   0  0  0  0  0  0  0  0  0  0  0  0
   -0.7868   22.4643  -24.6196 C   0  0  0  0  0  0  0  0  0  0  0  0
    0.1486   21.8436  -23.6681 C   0  0  0  0  0  0  0  0  0  0  0  0
    1.4803   21.8334  -24.0610 C   0  0  0  0  0  0  0  0  0  0  0  0
    2.3885   21.2793  -23.2640 N   0  0  0  0  0  0  0  0  0  0  0  0
    2.0577   20.7094  -22.0527 C   0  0  0  0  0  0  0  0  0  0  0  0
    0.7662   20.7048  -21.6429 C   0  0  0  0  0  0  0  0  0  0  0  0
   -0.2216   21.2811  -22.4581 C   0  0  0  0  0  0  0  0  0  0  0  0
   -1.5905   21.3414  -22.0922 N   0  0  0  0  0  0  0  0  0  0  0  0
   -2.5732   21.9588  -22.9215 C   0  0  0  0  0  0  0  0  0  0  0  0
   -3.7979   22.0031  -22.5804 O   0  0  0  0  0  0  0  0  0  0  0  0
   -4.5170   25.0858  -25.3644 C   0  0  0  0  0  0  0  0  0  0  0  0
   -4.8562   24.5530  -26.5909 C   0  0  0  0  0  0  0  0  0  0  0  0
   -4.3248   23.3656  -27.0330 C   0  0  0  0  0  0  0  0  0  0  0  0
   -3.4191   22.6939  -26.2061 C   0  0  0  0  0  0  0  0  0  0  0  0
   -2.9282   21.5329  -26.6967 F   0  0  0  0  0  0  0  0  0  0  0  0
   -3.0702   23.2082  -24.9834 C   0  0  0  0  0  0  0  0  0  0  0  0
   -3.6181   24.3910  -24.5760 C   0  0  0  0  0  0  0  0  0  0  0  0
   -3.2927   24.9252  -23.3723 F   0  0  0  0  0  0  0  0  0  0  0  0
   -6.3716   26.2872  -24.4096 C   0  0  0  0  0  0  0  0  0  0  0  0
   -5.0404   26.2669  -24.9161 O   0  0  0  0  0  0  0  0  0  0  0  0
   -4.7015   22.8834  -28.2660 O   0  0  0  0  0  0  0  0  0  0  0  0
   -5.5874   23.5238  -29.1307 C   0  0  0  0  0  0  0  0  0  0  0  0
    3.1356   20.1360  -21.2688 C   0  0  0  0  0  0  0  0  0  0  0  0
    3.6229   18.8382  -21.5363 C   0  0  0  0  0  0  0  0  0  0  0  0
    4.6089   18.5733  -20.6660 N   0  0  0  0  0  0  0  0  0  0  0  0
    5.3637   17.3186  -20.6294 C   0  0  0  0  0  0  0  0  0  0  0  0
    4.7535   19.6085  -19.8962 N   0  0  0  0  0  0  0  0  0  0  0  0
    3.8732   20.5965  -20.2243 C   0  0  0  0  0  0  0  0  0  0  0  0
    3.7648   21.9129  -19.5506 C   0  0  0  0  0  0  0  0  0  0  0  0
   -2.0343   20.7749  -20.8540 C   0  0  0  0  0  0  0  0  0  0  0  0
   -2.1715   21.8096  -19.7781 C   0  0  0  0  0  0  0  0  0  0  0  0
   -3.1418   21.8260  -18.8004 C   0  0  0  0  0  0  0  0  0  0  0  0
   -2.9211   22.9374  -18.0218 C   0  0  0  0  0  0  0  0  0  0  0  0
   -1.8686   23.5351  -18.5296 O   0  0  0  0  0  0  0  0  0  0  0  0
   -1.4151   22.8905  -19.5582 N   0  0  0  0  0  0  0  0  0  0  0  0
   -3.7047   23.3939  -16.8331 C   0  0  0  0  0  0  0  0  0  0  0  0
   -5.1377   23.6579  -17.1766 C   0  0  0  0  0  0  0  0  0  0  0  0
   -5.7913   24.3179  -15.9425 C   0  0  0  0  0  0  0  0  0  0  0  0
   -5.6395   23.4416  -14.8200 N   0  0  0  0  0  0  0  0  0  0  0  0
   -4.9938   22.1446  -15.0920 C   0  0  0  0  0  0  0  0  0  0  0  0
   -3.6475   22.3565  -15.7289 C   0  0  0  0  0  0  0  0  0  0  0  0
   -6.0417   23.7014  -13.5139 C   0  0  0  0  0  0  0  0  0  0  0  0
   -5.8099   22.7515  -12.6308 O   0  0  0  0  0  0  0  0  0  0  0  0
   -6.6758   24.8614  -12.9905 C   0  0  0  0  0  0  0  0  0  0  0  0
   -6.1319   25.9522  -12.5835 C   0  0  0  0  0  0  0  0  0  0  0  0
 20 21  1  0  0  0
 21 12  1  0  0  0
 12 13  2  0  0  0
 13 14  1  0  0  0
 14 22  1  0  0  0
 22 23  1  0  0  0
 14 15  2  0  0  0
 15 16  1  0  0  0
 15 17  1  0  0  0
 17  1  1  0  0  0
  1  2  1  0  0  0
  2  3  1  0  0  0
  3  4  2  0  0  0
  4  5  1  0  0  0
  5  6  2  0  0  0
  6  7  1  0  0  0
  7  8  2  0  0  0
  8  9  1  0  0  0
  9 31  1  0  0  0
 31 32  1  0  0  0
 32 33  1  0  0  0
 33 34  2  0  0  0
 34 35  1  0  0  0
 35 36  1  0  0  0
 34 37  1  0  0  0
 37 38  1  0  0  0
 38 39  1  0  0  0
 39 40  1  0  0  0
 40 41  1  0  0  0
 41 42  1  0  0  0
 40 43  1  0  0  0
 43 44  2  0  0  0
 43 45  1  0  0  0
 45 46  2  0  0  0
  9 10  1  0  0  0
 10 11  2  0  0  0
  6 24  1  0  0  0
 24 25  2  0  0  0
 25 26  1  0  0  0
 26 27  1  0  0  0
 26 28  1  0  0  0
 28 29  2  0  0  0
 29 30  1  0  0  0
 17 18  2  0  0  0
 18 19  1  0  0  0
 18 12  1  0  0  0
 10  1  1  0  0  0
 29 24  1  0  0  0
  8  3  1  0  0  0
 36 32  2  0  0  0
 42 37  1  0  0  0
M  END
> <minimizedAffinity>
-7.82602

> <CNNscore>
0.0959045514

> <CNNaffinity>
7.0678582191

> <CNN_VS>
0.6778397560

> <CNNaffinity_variance>
0.0903496742

$$$$
[H]C([H])=C([H])C(=O)N1C([H])([H])C([H])([H])C([H])(c2onc(C([H])([H])N3C(=O)N(c4c(F)c(OC([H])([H])[H])c([H])c(OC([H])([H])[H])c4F)C([H])([H])c4c([H])nc(-c5c(C([H])([H])[H])nn(C([H])([H])[H])c5[H])c([H])c43)c2[H])C([H])([H])C1([H])[H]


 46 51  0  0  0  0  0  0  0  0999 V2000
   -1.1233   22.2358  -21.4429 N   0  0  0  0  0  0  0  0  0  0  0  0
   -0.6554   22.1470  -22.8102 C   0  0  0  0  0  0  0  0  0  0  0  0
   -1.6116   22.6482  -23.8103 C   0  0  0  0  0  0  0  0  0  0  0  0
   -1.2189   22.5071  -25.1346 C   0  0  0  0  0  0  0  0  0  0  0  0
   -2.0200   22.9465  -26.1001 N   0  0  0  0  0  0  0  0  0  0  0  0
   -3.2356   23.5417  -25.8364 C   0  0  0  0  0  0  0  0  0  0  0  0
   -3.6453   23.6928  -24.5537 C   0  0  0  0  0  0  0  0  0  0  0  0
   -2.8258   23.2408  -23.5065 C   0  0  0  0  0  0  0  0  0  0  0  0
   -3.1911   23.3366  -22.1395 N   0  0  0  0  0  0  0  0  0  0  0  0
   -2.3572   22.8434  -21.0927 C   0  0  0  0  0  0  0  0  0  0  0  0
   -2.6978   22.9386  -19.8708 O   0  0  0  0  0  0  0  0  0  0  0  0
    1.0791   21.9585  -18.5018 C   0  0  0  0  0  0  0  0  0  0  0  0
    1.3491   20.6056  -18.5160 C   0  0  0  0  0  0  0  0  0  0  0  0
    0.8222   19.7753  -19.4755 C   0  0  0  0  0  0  0  0  0  0  0  0
   -0.0065   20.3324  -20.4544 C   0  0  0  0  0  0  0  0  0  0  0  0
   -0.4970   19.4652  -21.3691 F   0  0  0  0  0  0  0  0  0  0  0  0
   -0.2859   21.6752  -20.4564 C   0  0  0  0  0  0  0  0  0  0  0  0
    0.2553   22.4709  -19.4872 C   0  0  0  0  0  0  0  0  0  0  0  0
   -0.0025   23.8025  -19.4625 F   0  0  0  0  0  0  0  0  0  0  0  0
    2.8741   22.4955  -16.9906 C   0  0  0  0  0  0  0  0  0  0  0  0
    1.5987   22.7926  -17.5509 O   0  0  0  0  0  0  0  0  0  0  0  0
    1.1277   18.4337  -19.4385 O   0  0  0  0  0  0  0  0  0  0  0  0
    2.1112   17.8231  -20.2147 C   0  0  0  0  0  0  0  0  0  0  0  0
   -4.0237   23.9807  -26.9727 C   0  0  0  0  0  0  0  0  0  0  0  0
   -4.2509   23.1301  -28.0764 C   0  0  0  0  0  0  0  0  0  0  0  0
   -5.0045   23.7921  -28.9673 N   0  0  0  0  0  0  0  0  0  0  0  0
   -5.4505   23.2363  -30.2470 C   0  0  0  0  0  0  0  0  0  0  0  0
   -5.2487   24.9731  -28.4874 N   0  0  0  0  0  0  0  0  0  0  0  0
   -4.6694   25.1404  -27.2646 C   0  0  0  0  0  0  0  0  0  0  0  0
   -4.7469   26.3667  -26.4347 C   0  0  0  0  0  0  0  0  0  0  0  0
   -4.4335   23.9415  -21.7631 C   0  0  0  0  0  0  0  0  0  0  0  0
   -5.5193   22.9260  -21.5713 C   0  0  0  0  0  0  0  0  0  0  0  0
   -6.0759   22.5656  -20.3639 C   0  0  0  0  0  0  0  0  0  0  0  0
   -7.0262   21.6058  -20.6203 C   0  0  0  0  0  0  0  0  0  0  0  0
   -7.0170   21.4217  -21.9199 O   0  0  0  0  0  0  0  0  0  0  0  0
   -6.1418   22.1851  -22.4947 N   0  0  0  0  0  0  0  0  0  0  0  0
   -7.9050   20.9006  -19.6375 C   0  0  0  0  0  0  0  0  0  0  0  0
   -7.2987   20.8681  -18.2691 C   0  0  0  0  0  0  0  0  0  0  0  0
   -8.1794   19.9445  -17.3989 C   0  0  0  0  0  0  0  0  0  0  0  0
   -9.5189   20.4513  -17.4033 N   0  0  0  0  0  0  0  0  0  0  0  0
   -9.7332   21.7121  -18.1365 C   0  0  0  0  0  0  0  0  0  0  0  0
   -9.2607   21.5745  -19.5581 C   0  0  0  0  0  0  0  0  0  0  0  0
  -10.6205   19.8682  -16.7856 C   0  0  0  0  0  0  0  0  0  0  0  0
  -11.7666   20.5062  -16.9106 O   0  0  0  0  0  0  0  0  0  0  0  0
  -10.6856   18.6663  -16.0289 C   0  0  0  0  0  0  0  0  0  0  0  0
  -11.5417   18.3362  -15.1292 C   0  0  0  0  0  0  0  0  0  0  0  0
 20 21  1  0  0  0
 21 12  1  0  0  0
 12 13  2  0  0  0
 13 14  1  0  0  0
 14 22  1  0  0  0
 22 23  1  0  0  0
 14 15  2  0  0  0
 15 16  1  0  0  0
 15 17  1  0  0  0
 17  1  1  0  0  0
  1  2  1  0  0  0
  2  3  1  0  0  0
  3  4  2  0  0  0
  4  5  1  0  0  0
  5  6  2  0  0  0
  6  7  1  0  0  0
  7  8  2  0  0  0
  8  9  1  0  0  0
  9 31  1  0  0  0
 31 32  1  0  0  0
 32 33  1  0  0  0
 33 34  2  0  0  0
 34 35  1  0  0  0
 35 36  1  0  0  0
 34 37  1  0  0  0
 37 38  1  0  0  0
 38 39  1  0  0  0
 39 40  1  0  0  0
 40 41  1  0  0  0
 41 42  1  0  0  0
 40 43  1  0  0  0
 43 44  2  0  0  0
 43 45  1  0  0  0
 45 46  2  0  0  0
  9 10  1  0  0  0
 10 11  2  0  0  0
  6 24  1  0  0  0
 24 25  2  0  0  0
 25 26  1  0  0  0
 26 27  1  0  0  0
 26 28  1  0  0  0
 28 29  2  0  0  0
 29 30  1  0  0  0
 17 18  2  0  0  0
 18 19  1  0  0  0
 18 12  1  0  0  0
 10  1  1  0  0  0
 29 24  1  0  0  0
  8  3  1  0  0  0
 36 32  2  0  0  0
 42 37  1  0  0  0
M  END
> <minimizedAffinity>
-8.50553

> <CNNscore>
0.0940354019

> <CNNaffinity>
7.1613311768

> <CNN_VS>
0.6734186411

> <CNNaffinity_variance>
0.0826370493

$$$$
[H]C([H])=C([H])C(=O)N1C([H])([H])C([H])([H])C([H])(c2onc(C([H])([H])N3C(=O)N(c4c(F)c(OC([H])([H])[H])c([H])c(OC([H])([H])[H])c4F)C([H])([H])c4c([H])nc(-c5c(C([H])([H])[H])nn(C([H])([H])[H])c5[H])c([H])c43)c2[H])C([H])([H])C1([H])[H]


 46 51  0  0  0  0  0  0  0  0999 V2000
   -1.1761   22.2481  -23.1228 N   0  0  0  0  0  0  0  0  0  0  0  0
   -1.2666   21.8497  -24.5118 C   0  0  0  0  0  0  0  0  0  0  0  0
   -2.2021   22.6557  -25.3123 C   0  0  0  0  0  0  0  0  0  0  0  0
   -2.3638   22.2487  -26.6300 C   0  0  0  0  0  0  0  0  0  0  0  0
   -3.1817   22.9314  -27.4250 N   0  0  0  0  0  0  0  0  0  0  0  0
   -3.8817   24.0368  -26.9893 C   0  0  0  0  0  0  0  0  0  0  0  0
   -3.7441   24.4571  -25.7086 C   0  0  0  0  0  0  0  0  0  0  0  0
   -2.8888   23.7610  -24.8388 C   0  0  0  0  0  0  0  0  0  0  0  0
   -2.7084   24.1186  -23.4783 N   0  0  0  0  0  0  0  0  0  0  0  0
   -1.8580   23.3794  -22.6037 C   0  0  0  0  0  0  0  0  0  0  0  0
   -1.7048   23.7139  -21.3860 O   0  0  0  0  0  0  0  0  0  0  0  0
    1.7801   20.5066  -21.7789 C   0  0  0  0  0  0  0  0  0  0  0  0
    1.2262   19.8804  -20.6815 C   0  0  0  0  0  0  0  0  0  0  0  0
   -0.1049   20.0162  -20.3694 C   0  0  0  0  0  0  0  0  0  0  0  0
   -0.9035   20.8130  -21.1958 C   0  0  0  0  0  0  0  0  0  0  0  0
   -2.2036   20.9108  -20.8359 F   0  0  0  0  0  0  0  0  0  0  0  0
   -0.3704   21.4431  -22.2912 C   0  0  0  0  0  0  0  0  0  0  0  0
    0.9571   21.2857  -22.5713 C   0  0  0  0  0  0  0  0  0  0  0  0
    1.5135   21.8961  -23.6474 F   0  0  0  0  0  0  0  0  0  0  0  0
    3.7503   19.1272  -21.8788 C   0  0  0  0  0  0  0  0  0  0  0  0
    3.1037   20.3775  -22.0973 O   0  0  0  0  0  0  0  0  0  0  0  0
   -0.6008   19.3667  -19.2618 O   0  0  0  0  0  0  0  0  0  0  0  0
   -0.9046   19.9851  -18.0502 C   0  0  0  0  0  0  0  0  0  0  0  0
   -4.7451   24.7000  -27.9483 C   0  0  0  0  0  0  0  0  0  0  0  0
   -4.3274   24.9172  -29.2794 C   0  0  0  0  0  0  0  0  0  0  0  0
   -5.3183   25.5427  -29.9326 N   0  0  0  0  0  0  0  0  0  0  0  0
   -5.2584   25.9379  -31.3418 C   0  0  0  0  0  0  0  0  0  0  0  0
   -6.2987   25.7192  -29.1005 N   0  0  0  0  0  0  0  0  0  0  0  0
   -5.9983   25.2197  -27.8680 C   0  0  0  0  0  0  0  0  0  0  0  0
   -6.8903   25.2523  -26.6840 C   0  0  0  0  0  0  0  0  0  0  0  0
   -3.3900   25.2533  -22.9317 C   0  0  0  0  0  0  0  0  0  0  0  0
   -4.8239   24.9512  -22.6160 C   0  0  0  0  0  0  0  0  0  0  0  0
   -5.2725   24.2469  -21.5205 C   0  0  0  0  0  0  0  0  0  0  0  0
   -6.6433   24.1860  -21.6050 C   0  0  0  0  0  0  0  0  0  0  0  0
   -6.9698   24.8280  -22.7023 O   0  0  0  0  0  0  0  0  0  0  0  0
   -5.9189   25.2836  -23.3083 N   0  0  0  0  0  0  0  0  0  0  0  0
   -7.5919   23.5295  -20.6538 C   0  0  0  0  0  0  0  0  0  0  0  0
   -7.5174   22.0364  -20.7322 C   0  0  0  0  0  0  0  0  0  0  0  0
   -8.6727   21.4738  -19.8751 C   0  0  0  0  0  0  0  0  0  0  0  0
   -8.5352   21.9694  -18.5385 N   0  0  0  0  0  0  0  0  0  0  0  0
   -7.3471   22.8012  -18.2740 C   0  0  0  0  0  0  0  0  0  0  0  0
   -7.3007   23.9617  -19.2301 C   0  0  0  0  0  0  0  0  0  0  0  0
   -9.4102   21.7389  -17.4820 C   0  0  0  0  0  0  0  0  0  0  0  0
   -9.0908   22.2879  -16.3277 O   0  0  0  0  0  0  0  0  0  0  0  0
  -10.6157   20.9850  -17.4713 C   0  0  0  0  0  0  0  0  0  0  0  0
  -11.7634   21.3098  -17.9494 C   0  0  0  0  0  0  0  0  0  0  0  0
 20 21  1  0  0  0
 21 12  1  0  0  0
 12 13  2  0  0  0
 13 14  1  0  0  0
 14 22  1  0  0  0
 22 23  1  0  0  0
 14 15  2  0  0  0
 15 16  1  0  0  0
 15 17  1  0  0  0
 17  1  1  0  0  0
  1  2  1  0  0  0
  2  3  1  0  0  0
  3  4  2  0  0  0
  4  5  1  0  0  0
  5  6  2  0  0  0
  6  7  1  0  0  0
  7  8  2  0  0  0
  8  9  1  0  0  0
  9 31  1  0  0  0
 31 32  1  0  0  0
 32 33  1  0  0  0
 33 34  2  0  0  0
 34 35  1  0  0  0
 35 36  1  0  0  0
 34 37  1  0  0  0
 37 38  1  0  0  0
 38 39  1  0  0  0
 39 40  1  0  0  0
 40 41  1  0  0  0
 41 42  1  0  0  0
 40 43  1  0  0  0
 43 44  2  0  0  0
 43 45  1  0  0  0
 45 46  2  0  0  0
  9 10  1  0  0  0
 10 11  2  0  0  0
  6 24  1  0  0  0
 24 25  2  0  0  0
 25 26  1  0  0  0
 26 27  1  0  0  0
 26 28  1  0  0  0
 28 29  2  0  0  0
 29 30  1  0  0  0
 17 18  2  0  0  0
 18 19  1  0  0  0
 18 12  1  0  0  0
 10  1  1  0  0  0
 29 24  1  0  0  0
  8  3  1  0  0  0
 36 32  2  0  0  0
 42 37  1  0  0  0
M  END
> <minimizedAffinity>
-9.48846

> <CNNscore>
0.0916349664

> <CNNaffinity>
7.2052292824

> <CNN_VS>
0.6602509618

> <CNNaffinity_variance>
0.3337802291

$$$$
[H]C([H])=C([H])C(=O)N1C([H])([H])C([H])([H])C([H])(c2onc(C([H])([H])N3C(=O)N(c4c(F)c(OC([H])([H])[H])c([H])c(OC([H])([H])[H])c4F)C([H])([H])c4c([H])nc(-c5c(C([H])([H])[H])nn(C([H])([H])[H])c5[H])c([H])c43)c2[H])C([H])([H])C1([H])[H]


 46 51  0  0  0  0  0  0  0  0999 V2000
   -1.1536   22.2444  -23.1335 N   0  0  0  0  0  0  0  0  0  0  0  0
   -1.2506   21.8399  -24.5204 C   0  0  0  0  0  0  0  0  0  0  0  0
   -2.1928   22.6399  -25.3191 C   0  0  0  0  0  0  0  0  0  0  0  0
   -2.3606   22.2270  -26.6341 C   0  0  0  0  0  0  0  0  0  0  0  0
   -3.1848   22.9040  -27.4274 N   0  0  0  0  0  0  0  0  0  0  0  0
   -3.8854   24.0092  -26.9925 C   0  0  0  0  0  0  0  0  0  0  0  0
   -3.7419   24.4353  -25.7143 C   0  0  0  0  0  0  0  0  0  0  0  0
   -2.8799   23.7453  -24.8464 C   0  0  0  0  0  0  0  0  0  0  0  0
   -2.6930   24.1091  -23.4884 N   0  0  0  0  0  0  0  0  0  0  0  0
   -1.8358   23.3760  -22.6154 C   0  0  0  0  0  0  0  0  0  0  0  0
   -1.6768   23.7160  -21.4000 O   0  0  0  0  0  0  0  0  0  0  0  0
   -0.1201   20.0199  -20.3838 C   0  0  0  0  0  0  0  0  0  0  0  0
    1.2222   19.8755  -20.6676 C   0  0  0  0  0  0  0  0  0  0  0  0
    1.8015   20.4960  -21.7478 C   0  0  0  0  0  0  0  0  0  0  0  0
    0.9954   21.2899  -22.5696 C   0  0  0  0  0  0  0  0  0  0  0  0
    1.6213   21.8717  -23.6180 F   0  0  0  0  0  0  0  0  0  0  0  0
   -0.3410   21.4452  -22.3030 C   0  0  0  0  0  0  0  0  0  0  0  0
   -0.8834   20.8135  -21.2203 C   0  0  0  0  0  0  0  0  0  0  0  0
   -2.2018   20.9475  -20.9307 F   0  0  0  0  0  0  0  0  0  0  0  0
   -0.9057   20.1484  -18.1120 C   0  0  0  0  0  0  0  0  0  0  0  0
   -0.7055   19.4061  -19.3111 O   0  0  0  0  0  0  0  0  0  0  0  0
    3.1461   20.3150  -21.9801 O   0  0  0  0  0  0  0  0  0  0  0  0
    4.1008   20.1045  -20.9867 C   0  0  0  0  0  0  0  0  0  0  0  0
   -4.7560   24.6660  -27.9495 C   0  0  0  0  0  0  0  0  0  0  0  0
   -4.3535   24.8623  -29.2884 C   0  0  0  0  0  0  0  0  0  0  0  0
   -5.3479   25.4864  -29.9376 N   0  0  0  0  0  0  0  0  0  0  0  0
   -5.3029   25.8624  -31.3526 C   0  0  0  0  0  0  0  0  0  0  0  0
   -6.3166   25.6813  -29.0958 N   0  0  0  0  0  0  0  0  0  0  0  0
   -6.0043   25.1961  -27.8605 C   0  0  0  0  0  0  0  0  0  0  0  0
   -6.8812   25.2510  -26.6661 C   0  0  0  0  0  0  0  0  0  0  0  0
   -3.3748   25.2443  -22.9428 C   0  0  0  0  0  0  0  0  0  0  0  0
   -4.8063   24.9397  -22.6188 C   0  0  0  0  0  0  0  0  0  0  0  0
   -5.2461   24.2166  -21.5320 C   0  0  0  0  0  0  0  0  0  0  0  0
   -6.6179   24.1604  -21.6044 C   0  0  0  0  0  0  0  0  0  0  0  0
   -6.9533   24.8232  -22.6866 O   0  0  0  0  0  0  0  0  0  0  0  0
   -5.9072   25.2872  -23.2944 N   0  0  0  0  0  0  0  0  0  0  0  0
   -7.5589   23.4889  -20.6562 C   0  0  0  0  0  0  0  0  0  0  0  0
   -7.4361   21.9979  -20.7097 C   0  0  0  0  0  0  0  0  0  0  0  0
   -8.5853   21.4122  -19.8599 C   0  0  0  0  0  0  0  0  0  0  0  0
   -8.4829   21.9326  -18.5296 N   0  0  0  0  0  0  0  0  0  0  0  0
   -7.3257   22.8058  -18.2619 C   0  0  0  0  0  0  0  0  0  0  0  0
   -7.3021   23.9522  -19.2357 C   0  0  0  0  0  0  0  0  0  0  0  0
   -9.3654   21.6907  -17.4819 C   0  0  0  0  0  0  0  0  0  0  0  0
   -9.0802   22.2675  -16.3322 O   0  0  0  0  0  0  0  0  0  0  0  0
  -10.5465   20.8990  -17.4761 C   0  0  0  0  0  0  0  0  0  0  0  0
  -11.7655   21.2869  -17.3545 C   0  0  0  0  0  0  0  0  0  0  0  0
 20 21  1  0  0  0
 21 12  1  0  0  0
 12 13  2  0  0  0
 13 14  1  0  0  0
 14 22  1  0  0  0
 22 23  1  0  0  0
 14 15  2  0  0  0
 15 16  1  0  0  0
 15 17  1  0  0  0
 17  1  1  0  0  0
  1  2  1  0  0  0
  2  3  1  0  0  0
  3  4  2  0  0  0
  4  5  1  0  0  0
  5  6  2  0  0  0
  6  7  1  0  0  0
  7  8  2  0  0  0
  8  9  1  0  0  0
  9 31  1  0  0  0
 31 32  1  0  0  0
 32 33  1  0  0  0
 33 34  2  0  0  0
 34 35  1  0  0  0
 35 36  1  0  0  0
 34 37  1  0  0  0
 37 38  1  0  0  0
 38 39  1  0  0  0
 39 40  1  0  0  0
 40 41  1  0  0  0
 41 42  1  0  0  0
 40 43  1  0  0  0
 43 44  2  0  0  0
 43 45  1  0  0  0
 45 46  2  0  0  0
  9 10  1  0  0  0
 10 11  2  0  0  0
  6 24  1  0  0  0
 24 25  2  0  0  0
 25 26  1  0  0  0
 26 27  1  0  0  0
 26 28  1  0  0  0
 28 29  2  0  0  0
 29 30  1  0  0  0
 17 18  2  0  0  0
 18 19  1  0  0  0
 18 12  1  0  0  0
 10  1  1  0  0  0
 29 24  1  0  0  0
  8  3  1  0  0  0
 36 32  2  0  0  0
 42 37  1  0  0  0
M  END
> <minimizedAffinity>
-9.41398

> <CNNscore>
0.0913321525

> <CNNaffinity>
7.2101464272

> <CNN_VS>
0.6585181952

> <CNNaffinity_variance>
0.3165418506

$$$$
[H]c1nc(N([H])[H])c(-c2c([H])c([H])c3c(c2[H])c([H])c(-c2c([H])nc([H])n2C([H])([H])[H])n3[H])nc1-c1c([H])nn(C2([H])C([H])([H])C([H])([H])N([H])C([H])([H])C2([H])[H])c1[H]


 37 42  0  0  0  0  0  0  0  0999 V2000
   -0.4733   21.9405  -24.1244 C   0  0  0  0  0  0  0  0  0  0  0  0
   -1.6131   22.3899  -24.7312 N   0  0  0  0  0  0  0  0  0  0  0  0
   -1.6798   22.6715  -26.0362 C   0  0  0  0  0  0  0  0  0  0  0  0
   -0.5317   22.4904  -26.7765 C   0  0  0  0  0  0  0  0  0  0  0  0
    0.6127   22.0512  -26.2265 N   0  0  0  0  0  0  0  0  0  0  0  0
    0.6592   21.7690  -24.8892 C   0  0  0  0  0  0  0  0  0  0  0  0
    1.8701   21.3122  -24.3147 N   0  0  0  0  0  0  0  0  0  0  0  0
    2.2996   20.3977  -24.5628 H   0  0  0  0  0  0  0  0  0  0  0  0
    2.3401   21.9266  -23.6163 H   0  0  0  0  0  0  0  0  0  0  0  0
    0.1314   19.5092  -18.6949 C   0  0  0  0  0  0  0  0  0  0  0  0
    0.3219   19.1756  -20.0126 C   0  0  0  0  0  0  0  0  0  0  0  0
   -0.0451   20.2854  -20.7868 C   0  0  0  0  0  0  0  0  0  0  0  0
   -0.0395   20.4613  -22.1431 C   0  0  0  0  0  0  0  0  0  0  0  0
   -0.4475   21.6527  -22.6986 C   0  0  0  0  0  0  0  0  0  0  0  0
   -0.8558   22.6437  -21.8311 C   0  0  0  0  0  0  0  0  0  0  0  0
   -0.8670   22.4820  -20.4694 C   0  0  0  0  0  0  0  0  0  0  0  0
   -0.4493   21.2686  -19.9401 C   0  0  0  0  0  0  0  0  0  0  0  0
   -0.3386   20.7929  -18.7080 N   0  0  0  0  0  0  0  0  0  0  0  0
   -0.5855   21.3442  -17.8400 H   0  0  0  0  0  0  0  0  0  0  0  0
   -1.6665   17.2305  -17.4661 C   0  0  0  0  0  0  0  0  0  0  0  0
   -0.4149   17.7616  -16.9759 N   0  0  0  0  0  0  0  0  0  0  0  0
    0.1645   17.2950  -15.8400 C   0  0  0  0  0  0  0  0  0  0  0  0
    1.3005   17.9902  -15.6662 N   0  0  0  0  0  0  0  0  0  0  0  0
    1.4450   18.8730  -16.6576 C   0  0  0  0  0  0  0  0  0  0  0  0
    0.3558   18.7296  -17.4912 C   0  0  0  0  0  0  0  0  0  0  0  0
   -2.9248   23.1500  -26.6376 C   0  0  0  0  0  0  0  0  0  0  0  0
   -3.3148   23.0438  -27.9552 C   0  0  0  0  0  0  0  0  0  0  0  0
   -4.5392   23.6231  -28.0676 N   0  0  0  0  0  0  0  0  0  0  0  0
   -4.9390   24.0861  -26.8960 N   0  0  0  0  0  0  0  0  0  0  0  0
   -3.9540   23.8021  -26.0036 C   0  0  0  0  0  0  0  0  0  0  0  0
   -6.1863   24.7755  -26.5726 C   0  0  0  0  0  0  0  0  0  0  0  0
   -6.8104   24.0230  -25.4256 C   0  0  0  0  0  0  0  0  0  0  0  0
   -7.8116   24.8147  -24.6565 C   0  0  0  0  0  0  0  0  0  0  0  0
   -7.4539   26.1765  -24.4220 N   0  0  0  0  0  0  0  0  0  0  0  0
   -6.1130   26.5198  -24.7795 C   0  0  0  0  0  0  0  0  0  0  0  0
   -5.9093   26.2190  -26.2472 C   0  0  0  0  0  0  0  0  0  0  0  0
   -8.1699   26.8728  -24.6465 H   0  0  0  0  0  0  0  0  0  0  0  0
 20 21  1  0  0  0
 21 22  1  0  0  0
 22 23  2  0  0  0
 23 24  1  0  0  0
 24 25  2  0  0  0
 25 10  1  0  0  0
 10 11  2  0  0  0
 11 12  1  0  0  0
 12 13  2  0  0  0
 13 14  1  0  0  0
 14 15  2  0  0  0
 15 16  1  0  0  0
 16 17  2  0  0  0
 17 18  1  0  0  0
 14  1  1  0  0  0
  1  2  2  0  0  0
  2  3  1  0  0  0
  3  4  2  0  0  0
  4  5  1  0  0  0
  5  6  2  0  0  0
  6  7  1  0  0  0
  3 26  1  0  0  0
 26 27  1  0  0  0
 27 28  2  0  0  0
 28 29  1  0  0  0
 29 30  1  0  0  0
 29 31  1  0  0  0
 31 32  1  0  0  0
 32 33  1  0  0  0
 33 34  1  0  0  0
 34 35  1  0  0  0
 35 36  1  0  0  0
 25 21  1  0  0  0
 18 10  1  0  0  0
  6  1  1  0  0  0
 30 26  2  0  0  0
 36 31  1  0  0  0
 17 12  1  0  0  0
 18 19  1  0  0  0
  7  8  1  0  0  0
  7  9  1  0  0  0
 34 37  1  0  0  0
M  END
> <minimizedAffinity>
-8.14879

> <CNNscore>
0.5403718948

> <CNNaffinity>
7.2867088318

> <CNN_VS>
3.9375326633

> <CNNaffinity_variance>
0.2625568509

$$$$
[H]c1nc(N([H])[H])c(-c2c([H])c([H])c3c(c2[H])c([H])c(-c2c([H])nc([H])n2C([H])([H])[H])n3[H])nc1-c1c([H])nn(C2([H])C([H])([H])C([H])([H])N([H])C([H])([H])C2([H])[H])c1[H]


 37 42  0  0  0  0  0  0  0  0999 V2000
   -1.2296   22.3163  -25.5290 C   0  0  0  0  0  0  0  0  0  0  0  0
   -2.5460   22.6538  -25.3791 N   0  0  0  0  0  0  0  0  0  0  0  0
   -3.3039   23.0925  -26.3889 C   0  0  0  0  0  0  0  0  0  0  0  0
   -2.7028   23.1986  -27.6244 C   0  0  0  0  0  0  0  0  0  0  0  0
   -1.4129   22.8795  -27.8224 N   0  0  0  0  0  0  0  0  0  0  0  0
   -0.6552   22.4325  -26.7753 C   0  0  0  0  0  0  0  0  0  0  0  0
    0.7052   22.1036  -26.9896 N   0  0  0  0  0  0  0  0  0  0  0  0
    1.0030   21.3113  -27.5946 H   0  0  0  0  0  0  0  0  0  0  0  0
    1.4278   22.6867  -26.5163 H   0  0  0  0  0  0  0  0  0  0  0  0
    3.0867   20.5988  -21.7640 C   0  0  0  0  0  0  0  0  0  0  0  0
    2.9472   21.0472  -23.0537 C   0  0  0  0  0  0  0  0  0  0  0  0
    1.5807   21.2641  -23.2802 C   0  0  0  0  0  0  0  0  0  0  0  0
    0.9262   21.7071  -24.3964 C   0  0  0  0  0  0  0  0  0  0  0  0
   -0.4428   21.8488  -24.3981 C   0  0  0  0  0  0  0  0  0  0  0  0
   -1.1098   21.5259  -23.2352 C   0  0  0  0  0  0  0  0  0  0  0  0
   -0.4675   21.0805  -22.1086 C   0  0  0  0  0  0  0  0  0  0  0  0
    0.9141   20.9485  -22.1387 C   0  0  0  0  0  0  0  0  0  0  0  0
    1.8193   20.5573  -21.2532 N   0  0  0  0  0  0  0  0  0  0  0  0
    1.5851   20.2501  -20.2688 H   0  0  0  0  0  0  0  0  0  0  0  0
    4.7800   17.9482  -21.9699 C   0  0  0  0  0  0  0  0  0  0  0  0
    4.9953   19.0981  -21.1213 N   0  0  0  0  0  0  0  0  0  0  0  0
    6.0363   19.1609  -20.2518 C   0  0  0  0  0  0  0  0  0  0  0  0
    5.9504   20.3448  -19.6235 N   0  0  0  0  0  0  0  0  0  0  0  0
    4.8898   21.0190  -20.0748 C   0  0  0  0  0  0  0  0  0  0  0  0
    4.2812   20.2284  -21.0269 C   0  0  0  0  0  0  0  0  0  0  0  0
   -4.7090   23.4408  -26.1758 C   0  0  0  0  0  0  0  0  0  0  0  0
   -5.6739   23.6583  -27.1355 C   0  0  0  0  0  0  0  0  0  0  0  0
   -6.8330   23.9549  -26.4906 N   0  0  0  0  0  0  0  0  0  0  0  0
   -6.6498   23.9357  -25.1818 N   0  0  0  0  0  0  0  0  0  0  0  0
   -5.3446   23.6202  -24.9716 C   0  0  0  0  0  0  0  0  0  0  0  0
   -7.6270   24.1958  -24.1268 C   0  0  0  0  0  0  0  0  0  0  0  0
   -7.2824   23.2765  -22.9832 C   0  0  0  0  0  0  0  0  0  0  0  0
   -7.8420   23.7077  -21.6711 C   0  0  0  0  0  0  0  0  0  0  0  0
   -7.7776   25.1111  -21.4186 N   0  0  0  0  0  0  0  0  0  0  0  0
   -7.0103   25.8610  -22.3634 C   0  0  0  0  0  0  0  0  0  0  0  0
   -7.5961   25.6507  -23.7413 C   0  0  0  0  0  0  0  0  0  0  0  0
   -8.6456   25.5489  -21.0977 H   0  0  0  0  0  0  0  0  0  0  0  0
 20 21  1  0  0  0
 21 22  1  0  0  0
 22 23  2  0  0  0
 23 24  1  0  0  0
 24 25  2  0  0  0
 25 10  1  0  0  0
 10 11  2  0  0  0
 11 12  1  0  0  0
 12 13  2  0  0  0
 13 14  1  0  0  0
 14 15  2  0  0  0
 15 16  1  0  0  0
 16 17  2  0  0  0
 17 18  1  0  0  0
 14  1  1  0  0  0
  1  2  2  0  0  0
  2  3  1  0  0  0
  3  4  2  0  0  0
  4  5  1  0  0  0
  5  6  2  0  0  0
  6  7  1  0  0  0
  3 26  1  0  0  0
 26 27  1  0  0  0
 27 28  2  0  0  0
 28 29  1  0  0  0
 29 30  1  0  0  0
 29 31  1  0  0  0
 31 32  1  0  0  0
 32 33  1  0  0  0
 33 34  1  0  0  0
 34 35  1  0  0  0
 35 36  1  0  0  0
 25 21  1  0  0  0
 18 10  1  0  0  0
  6  1  1  0  0  0
 30 26  2  0  0  0
 36 31  1  0  0  0
 17 12  1  0  0  0
 18 19  1  0  0  0
  7  8  1  0  0  0
  7  9  1  0  0  0
 34 37  1  0  0  0
M  END
> <minimizedAffinity>
-8.99655

> <CNNscore>
0.5107196569

> <CNNaffinity>
7.1567902565

> <CNN_VS>
3.6551134586

> <CNNaffinity_variance>
0.0757239908

$$$$
[H]c1nc(N([H])[H])c(-c2c([H])c([H])c3c(c2[H])c([H])c(-c2c([H])nc([H])n2C([H])([H])[H])n3[H])nc1-c1c([H])nn(C2([H])C([H])([H])C([H])([H])N([H])C([H])([H])C2([H])[H])c1[H]


 37 42  0  0  0  0  0  0  0  0999 V2000
   -0.4610   21.8292  -24.0416 C   0  0  0  0  0  0  0  0  0  0  0  0
   -1.6196   22.2534  -24.6305 N   0  0  0  0  0  0  0  0  0  0  0  0
   -1.6866   22.6408  -25.9081 C   0  0  0  0  0  0  0  0  0  0  0  0
   -0.5187   22.5996  -26.6382 C   0  0  0  0  0  0  0  0  0  0  0  0
    0.6447   22.1908  -26.1049 N   0  0  0  0  0  0  0  0  0  0  0  0
    0.6912   21.7986  -24.7956 C   0  0  0  0  0  0  0  0  0  0  0  0
    1.9217   21.3746  -24.2380 N   0  0  0  0  0  0  0  0  0  0  0  0
    2.4150   20.5149  -24.5541 H   0  0  0  0  0  0  0  0  0  0  0  0
    2.3396   21.9563  -23.4810 H   0  0  0  0  0  0  0  0  0  0  0  0
   -1.6710   20.6768  -18.3002 C   0  0  0  0  0  0  0  0  0  0  0  0
   -2.2715   21.2398  -19.3985 C   0  0  0  0  0  0  0  0  0  0  0  0
   -1.3589   21.1716  -20.4606 C   0  0  0  0  0  0  0  0  0  0  0  0
   -1.4736   21.5924  -21.7568 C   0  0  0  0  0  0  0  0  0  0  0  0
   -0.4360   21.4225  -22.6450 C   0  0  0  0  0  0  0  0  0  0  0  0
    0.7070   20.8162  -22.1681 C   0  0  0  0  0  0  0  0  0  0  0  0
    0.8367   20.3892  -20.8715 C   0  0  0  0  0  0  0  0  0  0  0  0
   -0.2279   20.5748  -20.0002 C   0  0  0  0  0  0  0  0  0  0  0  0
   -0.4297   20.2890  -18.7218 N   0  0  0  0  0  0  0  0  0  0  0  0
    0.2871   19.8168  -18.1042 H   0  0  0  0  0  0  0  0  0  0  0  0
   -2.9945   18.1147  -17.0277 C   0  0  0  0  0  0  0  0  0  0  0  0
   -2.7355   19.3992  -16.4180 N   0  0  0  0  0  0  0  0  0  0  0  0
   -3.0630   19.6571  -15.1258 C   0  0  0  0  0  0  0  0  0  0  0  0
   -2.6946   20.9239  -14.8740 N   0  0  0  0  0  0  0  0  0  0  0  0
   -2.1489   21.4607  -15.9681 C   0  0  0  0  0  0  0  0  0  0  0  0
   -2.1738   20.4933  -16.9508 C   0  0  0  0  0  0  0  0  0  0  0  0
   -2.9524   23.0865  -26.4913 C   0  0  0  0  0  0  0  0  0  0  0  0
   -3.3852   22.9133  -27.7883 C   0  0  0  0  0  0  0  0  0  0  0  0
   -4.6145   23.4843  -27.8891 N   0  0  0  0  0  0  0  0  0  0  0  0
   -4.9769   24.0053  -26.7298 N   0  0  0  0  0  0  0  0  0  0  0  0
   -3.9621   23.7681  -25.8573 C   0  0  0  0  0  0  0  0  0  0  0  0
   -6.2150   24.7083  -26.4005 C   0  0  0  0  0  0  0  0  0  0  0  0
   -6.7764   24.0406  -25.1714 C   0  0  0  0  0  0  0  0  0  0  0  0
   -7.7490   24.8813  -24.4176 C   0  0  0  0  0  0  0  0  0  0  0  0
   -7.3955   26.2595  -24.3040 N   0  0  0  0  0  0  0  0  0  0  0  0
   -6.0766   26.5843  -24.7500 C   0  0  0  0  0  0  0  0  0  0  0  0
   -5.9388   26.1743  -26.1987 C   0  0  0  0  0  0  0  0  0  0  0  0
   -8.1287   26.9316  -24.5462 H   0  0  0  0  0  0  0  0  0  0  0  0
 20 21  1  0  0  0
 21 22  1  0  0  0
 22 23  2  0  0  0
 23 24  1  0  0  0
 24 25  2  0  0  0
 25 10  1  0  0  0
 10 11  2  0  0  0
 11 12  1  0  0  0
 12 13  2  0  0  0
 13 14  1  0  0  0
 14 15  2  0  0  0
 15 16  1  0  0  0
 16 17  2  0  0  0
 17 18  1  0  0  0
 14  1  1  0  0  0
  1  2  2  0  0  0
  2  3  1  0  0  0
  3  4  2  0  0  0
  4  5  1  0  0  0
  5  6  2  0  0  0
  6  7  1  0  0  0
  3 26  1  0  0  0
 26 27  1  0  0  0
 27 28  2  0  0  0
 28 29  1  0  0  0
 29 30  1  0  0  0
 29 31  1  0  0  0
 31 32  1  0  0  0
 32 33  1  0  0  0
 33 34  1  0  0  0
 34 35  1  0  0  0
 35 36  1  0  0  0
 25 21  1  0  0  0
 18 10  1  0  0  0
  6  1  1  0  0  0
 30 26  2  0  0  0
 36 31  1  0  0  0
 17 12  1  0  0  0
 18 19  1  0  0  0
  7  8  1  0  0  0
  7  9  1  0  0  0
 34 37  1  0  0  0
M  END
> <minimizedAffinity>
-8.24897

> <CNNscore>
0.4904381931

> <CNNaffinity>
7.3503570557

> <CNN_VS>
3.6048958302

> <CNNaffinity_variance>
0.3286861777

$$$$
[H]c1nc(N([H])[H])c(-c2c([H])c([H])c3c(c2[H])c([H])c(-c2c([H])nc([H])n2C([H])([H])[H])n3[H])nc1-c1c([H])nn(C2([H])C([H])([H])C([H])([H])N([H])C([H])([H])C2([H])[H])c1[H]


 37 42  0  0  0  0  0  0  0  0999 V2000
   -0.3689   21.7293  -23.4773 C   0  0  0  0  0  0  0  0  0  0  0  0
   -1.5828   22.0739  -24.0034 N   0  0  0  0  0  0  0  0  0  0  0  0
   -1.7426   22.4570  -25.2740 C   0  0  0  0  0  0  0  0  0  0  0  0
   -0.6141   22.4963  -26.0640 C   0  0  0  0  0  0  0  0  0  0  0  0
    0.6006   22.1675  -25.5936 N   0  0  0  0  0  0  0  0  0  0  0  0
    0.7418   21.7782  -24.2902 C   0  0  0  0  0  0  0  0  0  0  0  0
    2.0258   21.4387  -23.7992 N   0  0  0  0  0  0  0  0  0  0  0  0
    2.5594   20.6150  -24.1442 H   0  0  0  0  0  0  0  0  0  0  0  0
    2.4419   22.0469  -23.0623 H   0  0  0  0  0  0  0  0  0  0  0  0
   -0.0110   21.4451  -17.5152 C   0  0  0  0  0  0  0  0  0  0  0  0
   -0.1681   22.3822  -18.5056 C   0  0  0  0  0  0  0  0  0  0  0  0
   -0.1591   21.7051  -19.7333 C   0  0  0  0  0  0  0  0  0  0  0  0
   -0.2805   22.1813  -21.0096 C   0  0  0  0  0  0  0  0  0  0  0  0
   -0.2435   21.3240  -22.0857 C   0  0  0  0  0  0  0  0  0  0  0  0
   -0.0801   19.9818  -21.8150 C   0  0  0  0  0  0  0  0  0  0  0  0
    0.0430   19.4896  -20.5411 C   0  0  0  0  0  0  0  0  0  0  0  0
    0.0015   20.3801  -19.4769 C   0  0  0  0  0  0  0  0  0  0  0  0
    0.0873   20.2444  -18.1613 N   0  0  0  0  0  0  0  0  0  0  0  0
    0.2165   19.3155  -17.6728 H   0  0  0  0  0  0  0  0  0  0  0  0
    2.3762   22.5105  -15.7542 C   0  0  0  0  0  0  0  0  0  0  0  0
    1.0681   22.0631  -15.3331 N   0  0  0  0  0  0  0  0  0  0  0  0
    0.7013   22.0545  -14.0258 C   0  0  0  0  0  0  0  0  0  0  0  0
   -0.5575   21.5887  -13.9757 N   0  0  0  0  0  0  0  0  0  0  0  0
   -0.9839   21.3081  -15.2095 C   0  0  0  0  0  0  0  0  0  0  0  0
    0.0477   21.6088  -16.0740 C   0  0  0  0  0  0  0  0  0  0  0  0
   -3.0644   22.8157  -25.7887 C   0  0  0  0  0  0  0  0  0  0  0  0
   -3.5075   22.7347  -27.0913 C   0  0  0  0  0  0  0  0  0  0  0  0
   -4.7950   23.1695  -27.1133 N   0  0  0  0  0  0  0  0  0  0  0  0
   -5.1843   23.5183  -25.8994 N   0  0  0  0  0  0  0  0  0  0  0  0
   -4.1278   23.3059  -25.0711 C   0  0  0  0  0  0  0  0  0  0  0  0
   -6.4846   24.0363  -25.4793 C   0  0  0  0  0  0  0  0  0  0  0  0
   -6.5933   23.7796  -23.9982 C   0  0  0  0  0  0  0  0  0  0  0  0
   -7.6022   24.6329  -23.3091 C   0  0  0  0  0  0  0  0  0  0  0  0
   -7.6352   25.9944  -23.7366 N   0  0  0  0  0  0  0  0  0  0  0  0
   -6.5696   26.3807  -24.6078 C   0  0  0  0  0  0  0  0  0  0  0  0
   -6.5983   25.4952  -25.8329 C   0  0  0  0  0  0  0  0  0  0  0  0
   -8.5597   26.3699  -23.9653 H   0  0  0  0  0  0  0  0  0  0  0  0
 20 21  1  0  0  0
 21 22  1  0  0  0
 22 23  2  0  0  0
 23 24  1  0  0  0
 24 25  2  0  0  0
 25 10  1  0  0  0
 10 11  2  0  0  0
 11 12  1  0  0  0
 12 13  2  0  0  0
 13 14  1  0  0  0
 14 15  2  0  0  0
 15 16  1  0  0  0
 16 17  2  0  0  0
 17 18  1  0  0  0
 14  1  1  0  0  0
  1  2  2  0  0  0
  2  3  1  0  0  0
  3  4  2  0  0  0
  4  5  1  0  0  0
  5  6  2  0  0  0
  6  7  1  0  0  0
  3 26  1  0  0  0
 26 27  1  0  0  0
 27 28  2  0  0  0
 28 29  1  0  0  0
 29 30  1  0  0  0
 29 31  1  0  0  0
 31 32  1  0  0  0
 32 33  1  0  0  0
 33 34  1  0  0  0
 34 35  1  0  0  0
 35 36  1  0  0  0
 25 21  1  0  0  0
 18 10  1  0  0  0
  6  1  1  0  0  0
 30 26  2  0  0  0
 36 31  1  0  0  0
 17 12  1  0  0  0
 18 19  1  0  0  0
  7  8  1  0  0  0
  7  9  1  0  0  0
 34 37  1  0  0  0
M  END
> <minimizedAffinity>
-8.16216

> <CNNscore>
0.4471425414

> <CNNaffinity>
7.0233430862

> <CNN_VS>
3.1404354572

> <CNNaffinity_variance>
0.1818768084

$$$$
[H]c1nc(N([H])[H])c(-c2c([H])c([H])c3c(c2[H])c([H])c(-c2c([H])nc([H])n2C([H])([H])[H])n3[H])nc1-c1c([H])nn(C2([H])C([H])([H])C([H])([H])N([H])C([H])([H])C2([H])[H])c1[H]


 37 42  0  0  0  0  0  0  0  0999 V2000
   -1.7608   22.2852  -24.9116 C   0  0  0  0  0  0  0  0  0  0  0  0
   -0.7868   21.9260  -24.0219 N   0  0  0  0  0  0  0  0  0  0  0  0
    0.4769   21.6853  -24.3847 C   0  0  0  0  0  0  0  0  0  0  0  0
    0.7807   21.8133  -25.7228 C   0  0  0  0  0  0  0  0  0  0  0  0
   -0.1409   22.1635  -26.6355 N   0  0  0  0  0  0  0  0  0  0  0  0
   -1.4284   22.4052  -26.2428 C   0  0  0  0  0  0  0  0  0  0  0  0
   -2.3960   22.7680  -27.2107 N   0  0  0  0  0  0  0  0  0  0  0  0
   -2.3497   23.6598  -27.7444 H   0  0  0  0  0  0  0  0  0  0  0  0
   -3.1816   22.1060  -27.3861 H   0  0  0  0  0  0  0  0  0  0  0  0
   -6.8578   24.5757  -22.7835 C   0  0  0  0  0  0  0  0  0  0  0  0
   -5.5515   24.9475  -22.9815 C   0  0  0  0  0  0  0  0  0  0  0  0
   -4.8817   23.8531  -23.5465 C   0  0  0  0  0  0  0  0  0  0  0  0
   -3.5759   23.7136  -23.9287 C   0  0  0  0  0  0  0  0  0  0  0  0
   -3.1249   22.5313  -24.4700 C   0  0  0  0  0  0  0  0  0  0  0  0
   -4.0426   21.5110  -24.6047 C   0  0  0  0  0  0  0  0  0  0  0  0
   -5.3546   21.6359  -24.2261 C   0  0  0  0  0  0  0  0  0  0  0  0
   -5.7786   22.8413  -23.6835 C   0  0  0  0  0  0  0  0  0  0  0  0
   -6.9411   23.2855  -23.2278 N   0  0  0  0  0  0  0  0  0  0  0  0
   -7.8264   22.7073  -23.2113 H   0  0  0  0  0  0  0  0  0  0  0  0
   -7.2635   25.5980  -19.8296 C   0  0  0  0  0  0  0  0  0  0  0  0
   -8.1342   25.7577  -20.9720 N   0  0  0  0  0  0  0  0  0  0  0  0
   -9.3163   26.4199  -20.8837 C   0  0  0  0  0  0  0  0  0  0  0  0
   -9.8744   26.3889  -22.1050 N   0  0  0  0  0  0  0  0  0  0  0  0
   -9.0769   25.7289  -22.9486 C   0  0  0  0  0  0  0  0  0  0  0  0
   -7.9702   25.3268  -22.2305 C   0  0  0  0  0  0  0  0  0  0  0  0
    1.4824   21.3037  -23.3926 C   0  0  0  0  0  0  0  0  0  0  0  0
    2.8002   20.9698  -23.6198 C   0  0  0  0  0  0  0  0  0  0  0  0
    3.3636   20.6854  -22.4160 N   0  0  0  0  0  0  0  0  0  0  0  0
    2.4746   20.8220  -21.4475 N   0  0  0  0  0  0  0  0  0  0  0  0
    1.3091   21.2030  -22.0340 C   0  0  0  0  0  0  0  0  0  0  0  0
    2.6597   20.6154  -20.0128 C   0  0  0  0  0  0  0  0  0  0  0  0
    3.6489   19.4882  -19.8633 C   0  0  0  0  0  0  0  0  0  0  0  0
    4.3169   19.4425  -18.5319 C   0  0  0  0  0  0  0  0  0  0  0  0
    4.6944   20.7128  -18.0014 N   0  0  0  0  0  0  0  0  0  0  0  0
    4.5604   21.8105  -18.9074 C   0  0  0  0  0  0  0  0  0  0  0  0
    3.1208   21.8922  -19.3622 C   0  0  0  0  0  0  0  0  0  0  0  0
    4.4166   20.8944  -17.0330 H   0  0  0  0  0  0  0  0  0  0  0  0
 20 21  1  0  0  0
 21 22  1  0  0  0
 22 23  2  0  0  0
 23 24  1  0  0  0
 24 25  2  0  0  0
 25 10  1  0  0  0
 10 11  2  0  0  0
 11 12  1  0  0  0
 12 13  2  0  0  0
 13 14  1  0  0  0
 14 15  2  0  0  0
 15 16  1  0  0  0
 16 17  2  0  0  0
 17 18  1  0  0  0
 14  1  1  0  0  0
  1  2  2  0  0  0
  2  3  1  0  0  0
  3  4  2  0  0  0
  4  5  1  0  0  0
  5  6  2  0  0  0
  6  7  1  0  0  0
  3 26  1  0  0  0
 26 27  1  0  0  0
 27 28  2  0  0  0
 28 29  1  0  0  0
 29 30  1  0  0  0
 29 31  1  0  0  0
 31 32  1  0  0  0
 32 33  1  0  0  0
 33 34  1  0  0  0
 34 35  1  0  0  0
 35 36  1  0  0  0
 25 21  1  0  0  0
 18 10  1  0  0  0
  6  1  1  0  0  0
 30 26  2  0  0  0
 36 31  1  0  0  0
 17 12  1  0  0  0
 18 19  1  0  0  0
  7  8  1  0  0  0
  7  9  1  0  0  0
 34 37  1  0  0  0
M  END
> <minimizedAffinity>
-8.00337

> <CNNscore>
0.3225046992

> <CNNaffinity>
6.9374985695

> <CNN_VS>
2.2373759747

> <CNNaffinity_variance>
0.1662298739

$$$$
[H]c1nc(N([H])[H])c(-c2c([H])c([H])c3c(c2[H])c([H])c(-c2c([H])nc([H])n2C([H])([H])[H])n3[H])nc1-c1c([H])nn(C2([H])C([H])([H])C([H])([H])N([H])C([H])([H])C2([H])[H])c1[H]


 37 42  0  0  0  0  0  0  0  0999 V2000
   -0.2555   21.6690  -23.4779 C   0  0  0  0  0  0  0  0  0  0  0  0
   -1.4949   22.0179  -23.9376 N   0  0  0  0  0  0  0  0  0  0  0  0
   -1.7313   22.3517  -25.2102 C   0  0  0  0  0  0  0  0  0  0  0  0
   -0.6572   22.3338  -26.0733 C   0  0  0  0  0  0  0  0  0  0  0  0
    0.5796   21.9983  -25.6699 N   0  0  0  0  0  0  0  0  0  0  0  0
    0.7996   21.6602  -24.3632 C   0  0  0  0  0  0  0  0  0  0  0  0
    2.1066   21.3134  -23.9433 N   0  0  0  0  0  0  0  0  0  0  0  0
    2.6004   20.4647  -24.2871 H   0  0  0  0  0  0  0  0  0  0  0  0
    2.5822   21.9423  -23.2617 H   0  0  0  0  0  0  0  0  0  0  0  0
    0.5658   21.6287  -17.5551 C   0  0  0  0  0  0  0  0  0  0  0  0
    0.3942   22.5291  -18.5767 C   0  0  0  0  0  0  0  0  0  0  0  0
    0.2562   21.7985  -19.7653 C   0  0  0  0  0  0  0  0  0  0  0  0
    0.0647   22.2242  -21.0508 C   0  0  0  0  0  0  0  0  0  0  0  0
   -0.0458   21.3188  -22.0815 C   0  0  0  0  0  0  0  0  0  0  0  0
    0.0453   19.9818  -21.7565 C   0  0  0  0  0  0  0  0  0  0  0  0
    0.2371   19.5400  -20.4727 C   0  0  0  0  0  0  0  0  0  0  0  0
    0.3445   20.4782  -19.4551 C   0  0  0  0  0  0  0  0  0  0  0  0
    0.5274   20.3961  -18.1450 N   0  0  0  0  0  0  0  0  0  0  0  0
    0.6310   19.4832  -17.6214 H   0  0  0  0  0  0  0  0  0  0  0  0
   -1.5047   21.2247  -15.2131 C   0  0  0  0  0  0  0  0  0  0  0  0
   -0.1341   21.6778  -15.1436 N   0  0  0  0  0  0  0  0  0  0  0  0
    0.4527   22.0038  -13.9633 C   0  0  0  0  0  0  0  0  0  0  0  0
    1.7111   22.3808  -14.2430 N   0  0  0  0  0  0  0  0  0  0  0  0
    1.9245   22.2992  -15.5587 C   0  0  0  0  0  0  0  0  0  0  0  0
    0.7529   21.8526  -16.1331 C   0  0  0  0  0  0  0  0  0  0  0  0
   -3.0773   22.7176  -25.6520 C   0  0  0  0  0  0  0  0  0  0  0  0
   -4.2728   22.4188  -25.0347 C   0  0  0  0  0  0  0  0  0  0  0  0
   -5.2682   22.9539  -25.7898 N   0  0  0  0  0  0  0  0  0  0  0  0
   -4.7651   23.5710  -26.8448 N   0  0  0  0  0  0  0  0  0  0  0  0
   -3.4148   23.4340  -26.7741 C   0  0  0  0  0  0  0  0  0  0  0  0
   -5.4791   24.2764  -27.9070 C   0  0  0  0  0  0  0  0  0  0  0  0
   -4.5253   25.3045  -28.4589 C   0  0  0  0  0  0  0  0  0  0  0  0
   -4.8801   25.7876  -29.8233 C   0  0  0  0  0  0  0  0  0  0  0  0
   -5.3377   24.7773  -30.7219 N   0  0  0  0  0  0  0  0  0  0  0  0
   -5.1957   23.4363  -30.2472 C   0  0  0  0  0  0  0  0  0  0  0  0
   -5.9553   23.2980  -28.9473 C   0  0  0  0  0  0  0  0  0  0  0  0
   -6.2041   24.9851  -31.2260 H   0  0  0  0  0  0  0  0  0  0  0  0
 20 21  1  0  0  0
 21 22  1  0  0  0
 22 23  2  0  0  0
 23 24  1  0  0  0
 24 25  2  0  0  0
 25 10  1  0  0  0
 10 11  2  0  0  0
 11 12  1  0  0  0
 12 13  2  0  0  0
 13 14  1  0  0  0
 14 15  2  0  0  0
 15 16  1  0  0  0
 16 17  2  0  0  0
 17 18  1  0  0  0
 14  1  1  0  0  0
  1  2  2  0  0  0
  2  3  1  0  0  0
  3  4  2  0  0  0
  4  5  1  0  0  0
  5  6  2  0  0  0
  6  7  1  0  0  0
  3 26  1  0  0  0
 26 27  1  0  0  0
 27 28  2  0  0  0
 28 29  1  0  0  0
 29 30  1  0  0  0
 29 31  1  0  0  0
 31 32  1  0  0  0
 32 33  1  0  0  0
 33 34  1  0  0  0
 34 35  1  0  0  0
 35 36  1  0  0  0
 25 21  1  0  0  0
 18 10  1  0  0  0
  6  1  1  0  0  0
 30 26  2  0  0  0
 36 31  1  0  0  0
 17 12  1  0  0  0
 18 19  1  0  0  0
  7  8  1  0  0  0
  7  9  1  0  0  0
 34 37  1  0  0  0
M  END
> <minimizedAffinity>
-8.14016

> <CNNscore>
0.2463928908

> <CNNaffinity>
6.8486490250

> <CNN_VS>
1.6874583960

> <CNNaffinity_variance>
0.1440381706

$$$$
[H]c1nc(N([H])[H])c(-c2c([H])c([H])c3c(c2[H])c([H])c(-c2c([H])nc([H])n2C([H])([H])[H])n3[H])nc1-c1c([H])nn(C2([H])C([H])([H])C([H])([H])N([H])C([H])([H])C2([H])[H])c1[H]


 37 42  0  0  0  0  0  0  0  0999 V2000
   -3.0318   22.5459  -25.3291 C   0  0  0  0  0  0  0  0  0  0  0  0
   -4.0069   22.6905  -24.3818 N   0  0  0  0  0  0  0  0  0  0  0  0
   -5.2760   22.9828  -24.6831 C   0  0  0  0  0  0  0  0  0  0  0  0
   -5.5840   23.1392  -26.0171 C   0  0  0  0  0  0  0  0  0  0  0  0
   -4.6615   23.0075  -26.9848 N   0  0  0  0  0  0  0  0  0  0  0  0
   -3.3686   22.7082  -26.6547 C   0  0  0  0  0  0  0  0  0  0  0  0
   -2.4000   22.5766  -27.6790 N   0  0  0  0  0  0  0  0  0  0  0  0
   -2.4350   21.8190  -28.3912 H   0  0  0  0  0  0  0  0  0  0  0  0
   -1.6256   23.2734  -27.7097 H   0  0  0  0  0  0  0  0  0  0  0  0
    2.0137   20.9853  -22.5248 C   0  0  0  0  0  0  0  0  0  0  0  0
    0.6739   21.1213  -22.2595 C   0  0  0  0  0  0  0  0  0  0  0  0
    0.0502   21.5464  -23.4409 C   0  0  0  0  0  0  0  0  0  0  0  0
   -1.2638   21.8237  -23.6998 C   0  0  0  0  0  0  0  0  0  0  0  0
   -1.6619   22.2330  -24.9521 C   0  0  0  0  0  0  0  0  0  0  0  0
   -0.6832   22.3476  -25.9168 C   0  0  0  0  0  0  0  0  0  0  0  0
    0.6378   22.0732  -25.6723 C   0  0  0  0  0  0  0  0  0  0  0  0
    1.0074   21.6623  -24.3988 C   0  0  0  0  0  0  0  0  0  0  0  0
    2.1615   21.3269  -23.8402 N   0  0  0  0  0  0  0  0  0  0  0  0
    3.0855   21.3250  -24.3545 H   0  0  0  0  0  0  0  0  0  0  0  0
    3.5129   18.2143  -22.4317 C   0  0  0  0  0  0  0  0  0  0  0  0
    3.7337   19.3923  -21.6240 N   0  0  0  0  0  0  0  0  0  0  0  0
    4.6898   19.4304  -20.6606 C   0  0  0  0  0  0  0  0  0  0  0  0
    4.6350   20.6511  -20.1032 N   0  0  0  0  0  0  0  0  0  0  0  0
    3.6760   21.3720  -20.6894 C   0  0  0  0  0  0  0  0  0  0  0  0
    3.1017   20.5737  -21.6564 C   0  0  0  0  0  0  0  0  0  0  0  0
   -6.2825   23.1269  -23.6310 C   0  0  0  0  0  0  0  0  0  0  0  0
   -6.7087   22.1650  -22.7406 C   0  0  0  0  0  0  0  0  0  0  0  0
   -7.6516   22.7340  -21.9439 N   0  0  0  0  0  0  0  0  0  0  0  0
   -7.8406   23.9972  -22.2837 N   0  0  0  0  0  0  0  0  0  0  0  0
   -7.0034   24.2547  -23.3230 C   0  0  0  0  0  0  0  0  0  0  0  0
   -8.7580   24.9671  -21.6895 C   0  0  0  0  0  0  0  0  0  0  0  0
   -9.6854   25.4142  -22.7901 C   0  0  0  0  0  0  0  0  0  0  0  0
  -10.9567   26.0188  -22.3012 C   0  0  0  0  0  0  0  0  0  0  0  0
  -11.5477   25.3600  -21.1813 N   0  0  0  0  0  0  0  0  0  0  0  0
  -10.9463   24.1123  -20.8272 C   0  0  0  0  0  0  0  0  0  0  0  0
   -9.4834   24.3463  -20.5256 C   0  0  0  0  0  0  0  0  0  0  0  0
  -11.8226   25.9626  -20.4008 H   0  0  0  0  0  0  0  0  0  0  0  0
 20 21  1  0  0  0
 21 22  1  0  0  0
 22 23  2  0  0  0
 23 24  1  0  0  0
 24 25  2  0  0  0
 25 10  1  0  0  0
 10 11  2  0  0  0
 11 12  1  0  0  0
 12 13  2  0  0  0
 13 14  1  0  0  0
 14 15  2  0  0  0
 15 16  1  0  0  0
 16 17  2  0  0  0
 17 18  1  0  0  0
 14  1  1  0  0  0
  1  2  2  0  0  0
  2  3  1  0  0  0
  3  4  2  0  0  0
  4  5  1  0  0  0
  5  6  2  0  0  0
  6  7  1  0  0  0
  3 26  1  0  0  0
 26 27  1  0  0  0
 27 28  2  0  0  0
 28 29  1  0  0  0
 29 30  1  0  0  0
 29 31  1  0  0  0
 31 32  1  0  0  0
 32 33  1  0  0  0
 33 34  1  0  0  0
 34 35  1  0  0  0
 35 36  1  0  0  0
 25 21  1  0  0  0
 18 10  1  0  0  0
  6  1  1  0  0  0
 30 26  2  0  0  0
 36 31  1  0  0  0
 17 12  1  0  0  0
 18 19  1  0  0  0
  7  8  1  0  0  0
  7  9  1  0  0  0
 34 37  1  0  0  0
M  END
> <minimizedAffinity>
-9.21676

> <CNNscore>
0.1927059293

> <CNNaffinity>
6.6370096207

> <CNN_VS>
1.2789911032

> <CNNaffinity_variance>
0.0698010996

$$$$
[H]c1nc(N([H])[H])c(-c2c([H])c([H])c3c(c2[H])c([H])c(-c2c([H])nc([H])n2C([H])([H])[H])n3[H])nc1-c1c([H])nn(C2([H])C([H])([H])C([H])([H])N([H])C([H])([H])C2([H])[H])c1[H]


 37 42  0  0  0  0  0  0  0  0999 V2000
    0.0120   21.6093  -23.1070 C   0  0  0  0  0  0  0  0  0  0  0  0
   -0.8004   21.6584  -22.0084 N   0  0  0  0  0  0  0  0  0  0  0  0
   -0.3799   21.3473  -20.7784 C   0  0  0  0  0  0  0  0  0  0  0  0
    0.9367   20.9634  -20.6438 C   0  0  0  0  0  0  0  0  0  0  0  0
    1.7742   20.8992  -21.6924 N   0  0  0  0  0  0  0  0  0  0  0  0
    1.3234   21.2219  -22.9426 C   0  0  0  0  0  0  0  0  0  0  0  0
    2.2096   21.1464  -24.0443 N   0  0  0  0  0  0  0  0  0  0  0  0
    3.0398   21.7658  -24.1408 H   0  0  0  0  0  0  0  0  0  0  0  0
    2.0109   20.4371  -24.7816 H   0  0  0  0  0  0  0  0  0  0  0  0
   -3.3060   23.0517  -27.8679 C   0  0  0  0  0  0  0  0  0  0  0  0
   -3.4635   22.7852  -26.5307 C   0  0  0  0  0  0  0  0  0  0  0  0
   -2.1946   22.5085  -26.0026 C   0  0  0  0  0  0  0  0  0  0  0  0
   -1.8152   22.1864  -24.7287 C   0  0  0  0  0  0  0  0  0  0  0  0
   -0.4928   21.9518  -24.4277 C   0  0  0  0  0  0  0  0  0  0  0  0
    0.4152   22.0562  -25.4603 C   0  0  0  0  0  0  0  0  0  0  0  0
    0.0499   22.3780  -26.7422 C   0  0  0  0  0  0  0  0  0  0  0  0
   -1.2918   22.6090  -27.0136 C   0  0  0  0  0  0  0  0  0  0  0  0
   -1.9658   22.9307  -28.1085 N   0  0  0  0  0  0  0  0  0  0  0  0
   -1.5164   23.0758  -29.0547 H   0  0  0  0  0  0  0  0  0  0  0  0
   -4.7738   25.8038  -28.3222 C   0  0  0  0  0  0  0  0  0  0  0  0
   -4.9123   24.5695  -29.0611 N   0  0  0  0  0  0  0  0  0  0  0  0
   -5.7601   24.4582  -30.1158 C   0  0  0  0  0  0  0  0  0  0  0  0
   -5.6521   23.2002  -30.5737 N   0  0  0  0  0  0  0  0  0  0  0  0
   -4.7645   22.5270  -29.8374 C   0  0  0  0  0  0  0  0  0  0  0  0
   -4.2930   23.3955  -28.8753 C   0  0  0  0  0  0  0  0  0  0  0  0
   -1.2900   21.4163  -19.6348 C   0  0  0  0  0  0  0  0  0  0  0  0
   -2.2362   22.3836  -19.3732 C   0  0  0  0  0  0  0  0  0  0  0  0
   -2.8507   22.0504  -18.2076 N   0  0  0  0  0  0  0  0  0  0  0  0
   -2.3440   20.9296  -17.7237 N   0  0  0  0  0  0  0  0  0  0  0  0
   -1.3801   20.5261  -18.5928 C   0  0  0  0  0  0  0  0  0  0  0  0
   -2.7136   20.2235  -16.4989 C   0  0  0  0  0  0  0  0  0  0  0  0
   -1.4301   19.7336  -15.8792 C   0  0  0  0  0  0  0  0  0  0  0  0
   -1.5420   19.4170  -14.4273 C   0  0  0  0  0  0  0  0  0  0  0  0
   -2.3202   20.3401  -13.6658 N   0  0  0  0  0  0  0  0  0  0  0  0
   -2.7030   21.5279  -14.3632 C   0  0  0  0  0  0  0  0  0  0  0  0
   -3.4935   21.1369  -15.5913 C   0  0  0  0  0  0  0  0  0  0  0  0
   -3.0323   19.9293  -13.0557 H   0  0  0  0  0  0  0  0  0  0  0  0
 20 21  1  0  0  0
 21 22  1  0  0  0
 22 23  2  0  0  0
 23 24  1  0  0  0
 24 25  2  0  0  0
 25 10  1  0  0  0
 10 11  2  0  0  0
 11 12  1  0  0  0
 12 13  2  0  0  0
 13 14  1  0  0  0
 14 15  2  0  0  0
 15 16  1  0  0  0
 16 17  2  0  0  0
 17 18  1  0  0  0
 14  1  1  0  0  0
  1  2  2  0  0  0
  2  3  1  0  0  0
  3  4  2  0  0  0
  4  5  1  0  0  0
  5  6  2  0  0  0
  6  7  1  0  0  0
  3 26  1  0  0  0
 26 27  1  0  0  0
 27 28  2  0  0  0
 28 29  1  0  0  0
 29 30  1  0  0  0
 29 31  1  0  0  0
 31 32  1  0  0  0
 32 33  1  0  0  0
 33 34  1  0  0  0
 34 35  1  0  0  0
 35 36  1  0  0  0
 25 21  1  0  0  0
 18 10  1  0  0  0
  6  1  1  0  0  0
 30 26  2  0  0  0
 36 31  1  0  0  0
 17 12  1  0  0  0
 18 19  1  0  0  0
  7  8  1  0  0  0
  7  9  1  0  0  0
 34 37  1  0  0  0
M  END
> <minimizedAffinity>
-8.44755

> <CNNscore>
0.1916610450

> <CNNaffinity>
6.5837111473

> <CNN_VS>
1.2618409395

> <CNNaffinity_variance>
0.0192799382

$$$$
[H]c1nc(N([H])[H])c(-c2c([H])c([H])c3c(c2[H])c([H])c(-c2c([H])nc([H])n2C([H])([H])[H])n3[H])nc1-c1c([H])nn(C2([H])C([H])([H])C([H])([H])N([H])C([H])([H])C2([H])[H])c1[H]


 37 42  0  0  0  0  0  0  0  0999 V2000
   -3.5101   23.0405  -26.3005 C   0  0  0  0  0  0  0  0  0  0  0  0
   -4.4901   23.3957  -25.4158 N   0  0  0  0  0  0  0  0  0  0  0  0
   -5.7224   23.7458  -25.7974 C   0  0  0  0  0  0  0  0  0  0  0  0
   -5.9861   23.7386  -27.1500 C   0  0  0  0  0  0  0  0  0  0  0  0
   -5.0569   23.3975  -28.0585 N   0  0  0  0  0  0  0  0  0  0  0  0
   -3.8021   23.0426  -27.6465 C   0  0  0  0  0  0  0  0  0  0  0  0
   -2.8258   22.6900  -28.6095 N   0  0  0  0  0  0  0  0  0  0  0  0
   -2.9098   21.8457  -29.2114 H   0  0  0  0  0  0  0  0  0  0  0  0
   -1.9941   23.3100  -28.7094 H   0  0  0  0  0  0  0  0  0  0  0  0
    1.2758   21.2596  -23.1894 C   0  0  0  0  0  0  0  0  0  0  0  0
   -0.0730   21.4419  -23.0120 C   0  0  0  0  0  0  0  0  0  0  0  0
   -0.6001   21.9043  -24.2260 C   0  0  0  0  0  0  0  0  0  0  0  0
   -1.8829   22.2334  -24.5678 C   0  0  0  0  0  0  0  0  0  0  0  0
   -2.1809   22.6724  -25.8377 C   0  0  0  0  0  0  0  0  0  0  0  0
   -1.1361   22.7624  -26.7332 C   0  0  0  0  0  0  0  0  0  0  0  0
    0.1547   22.4363  -26.4052 C   0  0  0  0  0  0  0  0  0  0  0  0
    0.4228   21.9964  -25.1161 C   0  0  0  0  0  0  0  0  0  0  0  0
    1.5239   21.6115  -24.4868 N   0  0  0  0  0  0  0  0  0  0  0  0
    2.4797   21.5816  -24.9383 H   0  0  0  0  0  0  0  0  0  0  0  0
    1.2606   21.4089  -20.0409 C   0  0  0  0  0  0  0  0  0  0  0  0
    2.2724   20.8650  -20.9180 N   0  0  0  0  0  0  0  0  0  0  0  0
    3.4171   20.3162  -20.4363 C   0  0  0  0  0  0  0  0  0  0  0  0
    4.1338   19.9114  -21.4977 N   0  0  0  0  0  0  0  0  0  0  0  0
    3.4709   20.1911  -22.6226 C   0  0  0  0  0  0  0  0  0  0  0  0
    2.2874   20.7973  -22.2566 C   0  0  0  0  0  0  0  0  0  0  0  0
   -6.7361   24.1177  -24.8100 C   0  0  0  0  0  0  0  0  0  0  0  0
   -7.8555   24.8965  -25.0099 C   0  0  0  0  0  0  0  0  0  0  0  0
   -8.5122   24.9814  -23.8229 N   0  0  0  0  0  0  0  0  0  0  0  0
   -7.8686   24.3004  -22.8907 N   0  0  0  0  0  0  0  0  0  0  0  0
   -6.7708   23.7619  -23.4840 C   0  0  0  0  0  0  0  0  0  0  0  0
   -8.2266   24.1301  -21.4841 C   0  0  0  0  0  0  0  0  0  0  0  0
   -7.2476   23.1405  -20.9065 C   0  0  0  0  0  0  0  0  0  0  0  0
   -7.1423   23.1911  -19.4208 C   0  0  0  0  0  0  0  0  0  0  0  0
   -7.1475   24.5033  -18.8591 N   0  0  0  0  0  0  0  0  0  0  0  0
   -7.0490   25.5679  -19.8081 C   0  0  0  0  0  0  0  0  0  0  0  0
   -8.2021   25.4606  -20.7801 C   0  0  0  0  0  0  0  0  0  0  0  0
   -7.7951   24.6550  -18.0809 H   0  0  0  0  0  0  0  0  0  0  0  0
 20 21  1  0  0  0
 21 22  1  0  0  0
 22 23  2  0  0  0
 23 24  1  0  0  0
 24 25  2  0  0  0
 25 10  1  0  0  0
 10 11  2  0  0  0
 11 12  1  0  0  0
 12 13  2  0  0  0
 13 14  1  0  0  0
 14 15  2  0  0  0
 15 16  1  0  0  0
 16 17  2  0  0  0
 17 18  1  0  0  0
 14  1  1  0  0  0
  1  2  2  0  0  0
  2  3  1  0  0  0
  3  4  2  0  0  0
  4  5  1  0  0  0
  5  6  2  0  0  0
  6  7  1  0  0  0
  3 26  1  0  0  0
 26 27  1  0  0  0
 27 28  2  0  0  0
 28 29  1  0  0  0
 29 30  1  0  0  0
 29 31  1  0  0  0
 31 32  1  0  0  0
 32 33  1  0  0  0
 33 34  1  0  0  0
 34 35  1  0  0  0
 35 36  1  0  0  0
 25 21  1  0  0  0
 18 10  1  0  0  0
  6  1  1  0  0  0
 30 26  2  0  0  0
 36 31  1  0  0  0
 17 12  1  0  0  0
 18 19  1  0  0  0
  7  8  1  0  0  0
  7  9  1  0  0  0
 34 37  1  0  0  0
M  END
> <minimizedAffinity>
-9.96887

> <CNNscore>
0.1801565289

> <CNNaffinity>
6.6880049706

> <CNN_VS>
1.2048877478

> <CNNaffinity_variance>
0.2058740109

$$$$
[H]c1nc([H])c(C([H])([H])N2C(=O)N(c3c(F)c(OC([H])([H])[H])c([H])c(OC([H])([H])[H])c3F)C([H])([H])c3c([H])nc(-c4c(C([H])([H])[H])nn(C([H])([H])[H])c4[H])c([H])c32)c([H])c1[H]


 37 41  0  0  0  0  0  0  0  0999 V2000
   -1.7148   22.1967  -23.0910 N   0  0  0  0  0  0  0  0  0  0  0  0
   -1.9857   21.5552  -24.3534 C   0  0  0  0  0  0  0  0  0  0  0  0
   -2.6496   22.4247  -25.3510 C   0  0  0  0  0  0  0  0  0  0  0  0
   -2.5995   22.0275  -26.6924 C   0  0  0  0  0  0  0  0  0  0  0  0
   -3.2583   22.7695  -27.5786 N   0  0  0  0  0  0  0  0  0  0  0  0
   -3.9610   23.8796  -27.2037 C   0  0  0  0  0  0  0  0  0  0  0  0
   -4.0191   24.2776  -25.9104 C   0  0  0  0  0  0  0  0  0  0  0  0
   -3.3432   23.5389  -24.9251 C   0  0  0  0  0  0  0  0  0  0  0  0
   -3.3058   24.0447  -23.5993 N   0  0  0  0  0  0  0  0  0  0  0  0
   -2.4613   23.3310  -22.6696 C   0  0  0  0  0  0  0  0  0  0  0  0
   -2.3333   23.6537  -21.4631 O   0  0  0  0  0  0  0  0  0  0  0  0
    0.1310   20.4738  -20.3790 C   0  0  0  0  0  0  0  0  0  0  0  0
    1.3962   20.5501  -20.9191 C   0  0  0  0  0  0  0  0  0  0  0  0
    1.7047   21.1385  -22.1189 C   0  0  0  0  0  0  0  0  0  0  0  0
    0.6445   21.6928  -22.8274 C   0  0  0  0  0  0  0  0  0  0  0  0
    0.9373   22.2744  -24.0112 F   0  0  0  0  0  0  0  0  0  0  0  0
   -0.6466   21.6431  -22.3344 C   0  0  0  0  0  0  0  0  0  0  0  0
   -0.8813   21.0419  -21.1295 C   0  0  0  0  0  0  0  0  0  0  0  0
   -2.1296   20.9732  -20.6098 F   0  0  0  0  0  0  0  0  0  0  0  0
   -0.2867   20.6123  -17.9706 C   0  0  0  0  0  0  0  0  0  0  0  0
   -0.1076   19.8539  -19.1344 O   0  0  0  0  0  0  0  0  0  0  0  0
    3.0205   21.1849  -22.6185 O   0  0  0  0  0  0  0  0  0  0  0  0
    3.8298   20.0614  -22.3677 C   0  0  0  0  0  0  0  0  0  0  0  0
   -4.6474   24.6735  -28.2244 C   0  0  0  0  0  0  0  0  0  0  0  0
   -4.2632   24.9601  -29.5112 C   0  0  0  0  0  0  0  0  0  0  0  0
   -5.2233   25.7232  -30.1113 N   0  0  0  0  0  0  0  0  0  0  0  0
   -5.1934   26.2286  -31.4753 C   0  0  0  0  0  0  0  0  0  0  0  0
   -6.1870   25.9005  -29.1927 N   0  0  0  0  0  0  0  0  0  0  0  0
   -5.8756   25.2888  -28.0594 C   0  0  0  0  0  0  0  0  0  0  0  0
   -6.6989   25.2447  -26.7985 C   0  0  0  0  0  0  0  0  0  0  0  0
   -4.0037   25.1951  -23.1354 C   0  0  0  0  0  0  0  0  0  0  0  0
   -5.4678   25.0735  -23.0023 C   0  0  0  0  0  0  0  0  0  0  0  0
   -6.0748   23.9419  -22.4754 C   0  0  0  0  0  0  0  0  0  0  0  0
   -7.4543   23.8188  -22.3420 C   0  0  0  0  0  0  0  0  0  0  0  0
   -8.2577   24.8741  -22.7523 C   0  0  0  0  0  0  0  0  0  0  0  0
   -7.6663   25.9747  -23.2636 N   0  0  0  0  0  0  0  0  0  0  0  0
   -6.3104   26.0821  -23.3900 C   0  0  0  0  0  0  0  0  0  0  0  0
 20 21  1  0  0  0
 21 12  1  0  0  0
 12 13  2  0  0  0
 13 14  1  0  0  0
 14 22  1  0  0  0
 22 23  1  0  0  0
 14 15  2  0  0  0
 15 16  1  0  0  0
 15 17  1  0  0  0
 17  1  1  0  0  0
  1  2  1  0  0  0
  2  3  1  0  0  0
  3  4  2  0  0  0
  4  5  1  0  0  0
  5  6  2  0  0  0
  6  7  1  0  0  0
  7  8  2  0  0  0
  8  9  1  0  0  0
  9 31  1  0  0  0
 31 32  1  0  0  0
 32 33  2  0  0  0
 33 34  1  0  0  0
 34 35  2  0  0  0
 35 36  1  0  0  0
 36 37  2  0  0  0
  9 10  1  0  0  0
 10 11  2  0  0  0
  6 24  1  0  0  0
 24 25  2  0  0  0
 25 26  1  0  0  0
 26 27  1  0  0  0
 26 28  1  0  0  0
 28 29  2  0  0  0
 29 30  1  0  0  0
 17 18  2  0  0  0
 18 19  1  0  0  0
 18 12  1  0  0  0
 10  1  1  0  0  0
 29 24  1  0  0  0
  8  3  1  0  0  0
 37 32  1  0  0  0
M  END
> <minimizedAffinity>
-8.97742

> <CNNscore>
0.1908999830

> <CNNaffinity>
7.1937341690

> <CNN_VS>
1.3732837439

> <CNNaffinity_variance>
0.1804606318

$$$$
[H]c1nc([H])c(C([H])([H])N2C(=O)N(c3c(F)c(OC([H])([H])[H])c([H])c(OC([H])([H])[H])c3F)C([H])([H])c3c([H])nc(-c4c(C([H])([H])[H])nn(C([H])([H])[H])c4[H])c([H])c32)c([H])c1[H]


 37 41  0  0  0  0  0  0  0  0999 V2000
   -1.8348   22.1502  -22.8189 N   0  0  0  0  0  0  0  0  0  0  0  0
   -2.0802   21.4977  -24.0809 C   0  0  0  0  0  0  0  0  0  0  0  0
   -2.7154   22.3611  -25.1021 C   0  0  0  0  0  0  0  0  0  0  0  0
   -2.6366   21.9503  -26.4381 C   0  0  0  0  0  0  0  0  0  0  0  0
   -3.2701   22.6873  -27.3466 N   0  0  0  0  0  0  0  0  0  0  0  0
   -3.9745   23.8052  -26.9991 C   0  0  0  0  0  0  0  0  0  0  0  0
   -4.0603   24.2163  -25.7115 C   0  0  0  0  0  0  0  0  0  0  0  0
   -3.4120   23.4836  -24.7035 C   0  0  0  0  0  0  0  0  0  0  0  0
   -3.4023   24.0023  -23.3823 N   0  0  0  0  0  0  0  0  0  0  0  0
   -2.5841   23.2929  -22.4261 C   0  0  0  0  0  0  0  0  0  0  0  0
   -2.4823   23.6269  -21.2202 O   0  0  0  0  0  0  0  0  0  0  0  0
    1.5518   21.1270  -21.7170 C   0  0  0  0  0  0  0  0  0  0  0  0
    1.2086   20.5789  -20.5004 C   0  0  0  0  0  0  0  0  0  0  0  0
   -0.0672   20.5066  -20.0025 C   0  0  0  0  0  0  0  0  0  0  0  0
   -1.0749   21.0332  -20.8028 C   0  0  0  0  0  0  0  0  0  0  0  0
   -2.3356   20.9678  -20.3214 F   0  0  0  0  0  0  0  0  0  0  0  0
   -0.7879   21.5979  -22.0321 C   0  0  0  0  0  0  0  0  0  0  0  0
    0.5074   21.6345  -22.4669 C   0  0  0  0  0  0  0  0  0  0  0  0
    0.8316   22.1763  -23.6646 F   0  0  0  0  0  0  0  0  0  0  0  0
    3.5577   19.9901  -22.5402 C   0  0  0  0  0  0  0  0  0  0  0  0
    2.8896   21.1620  -22.1634 O   0  0  0  0  0  0  0  0  0  0  0  0
   -0.3549   19.9330  -18.7491 O   0  0  0  0  0  0  0  0  0  0  0  0
    0.2457   20.5347  -17.6278 C   0  0  0  0  0  0  0  0  0  0  0  0
   -4.6322   24.5928  -28.0434 C   0  0  0  0  0  0  0  0  0  0  0  0
   -4.1963   24.9011  -29.3084 C   0  0  0  0  0  0  0  0  0  0  0  0
   -5.1458   25.6475  -29.9454 N   0  0  0  0  0  0  0  0  0  0  0  0
   -5.0654   26.1670  -31.3020 C   0  0  0  0  0  0  0  0  0  0  0  0
   -6.1546   25.7929  -29.0706 N   0  0  0  0  0  0  0  0  0  0  0  0
   -5.8810   25.1775  -27.9296 C   0  0  0  0  0  0  0  0  0  0  0  0
   -6.7599   25.1014  -26.7084 C   0  0  0  0  0  0  0  0  0  0  0  0
   -4.1039   25.1613  -22.9461 C   0  0  0  0  0  0  0  0  0  0  0  0
   -5.5726   25.0542  -22.8605 C   0  0  0  0  0  0  0  0  0  0  0  0
   -6.2066   23.9471  -22.3136 C   0  0  0  0  0  0  0  0  0  0  0  0
   -7.5909   23.8381  -22.2246 C   0  0  0  0  0  0  0  0  0  0  0  0
   -8.3711   24.8824  -22.7021 C   0  0  0  0  0  0  0  0  0  0  0  0
   -7.7536   25.9592  -23.2329 N   0  0  0  0  0  0  0  0  0  0  0  0
   -6.3932   26.0530  -23.3150 C   0  0  0  0  0  0  0  0  0  0  0  0
 20 21  1  0  0  0
 21 12  1  0  0  0
 12 13  2  0  0  0
 13 14  1  0  0  0
 14 22  1  0  0  0
 22 23  1  0  0  0
 14 15  2  0  0  0
 15 16  1  0  0  0
 15 17  1  0  0  0
 17  1  1  0  0  0
  1  2  1  0  0  0
  2  3  1  0  0  0
  3  4  2  0  0  0
  4  5  1  0  0  0
  5  6  2  0  0  0
  6  7  1  0  0  0
  7  8  2  0  0  0
  8  9  1  0  0  0
  9 31  1  0  0  0
 31 32  1  0  0  0
 32 33  2  0  0  0
 33 34  1  0  0  0
 34 35  2  0  0  0
 35 36  1  0  0  0
 36 37  2  0  0  0
  9 10  1  0  0  0
 10 11  2  0  0  0
  6 24  1  0  0  0
 24 25  2  0  0  0
 25 26  1  0  0  0
 26 27  1  0  0  0
 26 28  1  0  0  0
 28 29  2  0  0  0
 29 30  1  0  0  0
 17 18  2  0  0  0
 18 19  1  0  0  0
 18 12  1  0  0  0
 10  1  1  0  0  0
 29 24  1  0  0  0
  8  3  1  0  0  0
 37 32  1  0  0  0
M  END
> <minimizedAffinity>
-8.73411

> <CNNscore>
0.1550797671

> <CNNaffinity>
7.0908241272

> <CNN_VS>
1.0996433496

> <CNNaffinity_variance>
0.1890063584

$$$$
[H]c1nc([H])c(C([H])([H])N2C(=O)N(c3c(F)c(OC([H])([H])[H])c([H])c(OC([H])([H])[H])c3F)C([H])([H])c3c([H])nc(-c4c(C([H])([H])[H])nn(C([H])([H])[H])c4[H])c([H])c32)c([H])c1[H]


 37 41  0  0  0  0  0  0  0  0999 V2000
   -5.0079   22.7878  -22.5320 N   0  0  0  0  0  0  0  0  0  0  0  0
   -5.4971   24.0774  -22.9517 C   0  0  0  0  0  0  0  0  0  0  0  0
   -5.5450   24.2649  -24.4195 C   0  0  0  0  0  0  0  0  0  0  0  0
   -6.3476   25.2994  -24.9149 C   0  0  0  0  0  0  0  0  0  0  0  0
   -6.3330   25.5144  -26.2277 N   0  0  0  0  0  0  0  0  0  0  0  0
   -5.5664   24.7595  -27.0698 C   0  0  0  0  0  0  0  0  0  0  0  0
   -4.7848   23.7550  -26.6067 C   0  0  0  0  0  0  0  0  0  0  0  0
   -4.7566   23.4746  -25.2306 C   0  0  0  0  0  0  0  0  0  0  0  0
   -4.0369   22.3367  -24.7811 N   0  0  0  0  0  0  0  0  0  0  0  0
   -4.1791   22.0056  -23.3821 C   0  0  0  0  0  0  0  0  0  0  0  0
   -3.5981   21.0345  -22.8385 O   0  0  0  0  0  0  0  0  0  0  0  0
   -5.0485   22.1628  -18.8798 C   0  0  0  0  0  0  0  0  0  0  0  0
   -6.2840   21.5593  -18.7945 C   0  0  0  0  0  0  0  0  0  0  0  0
   -7.1204   21.3266  -19.8562 C   0  0  0  0  0  0  0  0  0  0  0  0
   -6.6669   21.7402  -21.1038 C   0  0  0  0  0  0  0  0  0  0  0  0
   -7.4834   21.5163  -22.1567 F   0  0  0  0  0  0  0  0  0  0  0  0
   -5.4359   22.3536  -21.2482 C   0  0  0  0  0  0  0  0  0  0  0  0
   -4.6528   22.5523  -20.1457 C   0  0  0  0  0  0  0  0  0  0  0  0
   -3.4404   23.1472  -20.2430 F   0  0  0  0  0  0  0  0  0  0  0  0
   -4.4421   23.4663  -16.8981 C   0  0  0  0  0  0  0  0  0  0  0  0
   -4.2419   22.3652  -17.7401 O   0  0  0  0  0  0  0  0  0  0  0  0
   -8.3742   20.7037  -19.7046 O   0  0  0  0  0  0  0  0  0  0  0  0
   -9.4176   21.5019  -19.2005 C   0  0  0  0  0  0  0  0  0  0  0  0
   -5.6075   25.0239  -28.5092 C   0  0  0  0  0  0  0  0  0  0  0  0
   -5.7431   26.2181  -29.1732 C   0  0  0  0  0  0  0  0  0  0  0  0
   -5.7124   25.9938  -30.5197 N   0  0  0  0  0  0  0  0  0  0  0  0
   -5.8194   27.0019  -31.5632 C   0  0  0  0  0  0  0  0  0  0  0  0
   -5.5594   24.6682  -30.6735 N   0  0  0  0  0  0  0  0  0  0  0  0
   -5.4934   24.0621  -29.4972 C   0  0  0  0  0  0  0  0  0  0  0  0
   -5.3153   22.5872  -29.2473 C   0  0  0  0  0  0  0  0  0  0  0  0
   -3.2239   21.5000  -25.5963 C   0  0  0  0  0  0  0  0  0  0  0  0
   -1.8754   22.0007  -25.9231 C   0  0  0  0  0  0  0  0  0  0  0  0
   -1.5019   22.3408  -27.2160 C   0  0  0  0  0  0  0  0  0  0  0  0
   -0.2340   22.8176  -27.5340 C   0  0  0  0  0  0  0  0  0  0  0  0
    0.6966   22.9607  -26.5138 C   0  0  0  0  0  0  0  0  0  0  0  0
    0.3321   22.6307  -25.2565 N   0  0  0  0  0  0  0  0  0  0  0  0
   -0.9161   22.1626  -24.9581 C   0  0  0  0  0  0  0  0  0  0  0  0
 20 21  1  0  0  0
 21 12  1  0  0  0
 12 13  2  0  0  0
 13 14  1  0  0  0
 14 22  1  0  0  0
 22 23  1  0  0  0
 14 15  2  0  0  0
 15 16  1  0  0  0
 15 17  1  0  0  0
 17  1  1  0  0  0
  1  2  1  0  0  0
  2  3  1  0  0  0
  3  4  2  0  0  0
  4  5  1  0  0  0
  5  6  2  0  0  0
  6  7  1  0  0  0
  7  8  2  0  0  0
  8  9  1  0  0  0
  9 31  1  0  0  0
 31 32  1  0  0  0
 32 33  2  0  0  0
 33 34  1  0  0  0
 34 35  2  0  0  0
 35 36  1  0  0  0
 36 37  2  0  0  0
  9 10  1  0  0  0
 10 11  2  0  0  0
  6 24  1  0  0  0
 24 25  2  0  0  0
 25 26  1  0  0  0
 26 27  1  0  0  0
 26 28  1  0  0  0
 28 29  2  0  0  0
 29 30  1  0  0  0
 17 18  2  0  0  0
 18 19  1  0  0  0
 18 12  1  0  0  0
 10  1  1  0  0  0
 29 24  1  0  0  0
  8  3  1  0  0  0
 37 32  1  0  0  0
M  END
> <minimizedAffinity>
-8.85246

> <CNNscore>
0.1480205357

> <CNNaffinity>
6.9403624535

> <CNN_VS>
1.0273162127

> <CNNaffinity_variance>
0.4185581207

$$$$
[H]c1nc([H])c(C([H])([H])N2C(=O)N(c3c(F)c(OC([H])([H])[H])c([H])c(OC([H])([H])[H])c3F)C([H])([H])c3c([H])nc(-c4c(C([H])([H])[H])nn(C([H])([H])[H])c4[H])c([H])c32)c([H])c1[H]


 37 41  0  0  0  0  0  0  0  0999 V2000
   -5.0211   22.7773  -22.5156 N   0  0  0  0  0  0  0  0  0  0  0  0
   -5.5080   24.0681  -22.9344 C   0  0  0  0  0  0  0  0  0  0  0  0
   -5.5528   24.2577  -24.4020 C   0  0  0  0  0  0  0  0  0  0  0  0
   -6.3532   25.2940  -24.8974 C   0  0  0  0  0  0  0  0  0  0  0  0
   -6.3358   25.5108  -26.2099 N   0  0  0  0  0  0  0  0  0  0  0  0
   -5.5685   24.7562  -27.0516 C   0  0  0  0  0  0  0  0  0  0  0  0
   -4.7891   23.7501  -26.5885 C   0  0  0  0  0  0  0  0  0  0  0  0
   -4.7639   23.4676  -25.2127 C   0  0  0  0  0  0  0  0  0  0  0  0
   -4.0465   22.3282  -24.7635 N   0  0  0  0  0  0  0  0  0  0  0  0
   -4.1917   21.9952  -23.3652 C   0  0  0  0  0  0  0  0  0  0  0  0
   -3.6130   21.0226  -22.8219 O   0  0  0  0  0  0  0  0  0  0  0  0
   -7.1188   21.3050  -19.8393 C   0  0  0  0  0  0  0  0  0  0  0  0
   -6.2464   21.4740  -18.7864 C   0  0  0  0  0  0  0  0  0  0  0  0
   -5.0050   22.0497  -18.8785 C   0  0  0  0  0  0  0  0  0  0  0  0
   -4.6180   22.4881  -20.1400 C   0  0  0  0  0  0  0  0  0  0  0  0
   -3.3965   23.0562  -20.2421 F   0  0  0  0  0  0  0  0  0  0  0  0
   -5.4522   22.3418  -21.2332 C   0  0  0  0  0  0  0  0  0  0  0  0
   -6.6779   21.7598  -21.0678 C   0  0  0  0  0  0  0  0  0  0  0  0
   -7.5260   21.5992  -22.1110 F   0  0  0  0  0  0  0  0  0  0  0  0
   -9.4445   21.4096  -19.0818 C   0  0  0  0  0  0  0  0  0  0  0  0
   -8.3838   20.7052  -19.6650 O   0  0  0  0  0  0  0  0  0  0  0  0
   -4.1576   22.1946  -17.7633 O   0  0  0  0  0  0  0  0  0  0  0  0
   -4.3111   23.3690  -17.0035 C   0  0  0  0  0  0  0  0  0  0  0  0
   -5.6066   25.0228  -28.4907 C   0  0  0  0  0  0  0  0  0  0  0  0
   -5.7196   26.2200  -29.1534 C   0  0  0  0  0  0  0  0  0  0  0  0
   -5.6953   25.9964  -30.5002 N   0  0  0  0  0  0  0  0  0  0  0  0
   -5.7840   27.0074  -31.5426 C   0  0  0  0  0  0  0  0  0  0  0  0
   -5.5687   24.6682  -30.6554 N   0  0  0  0  0  0  0  0  0  0  0  0
   -5.5130   24.0598  -29.4797 C   0  0  0  0  0  0  0  0  0  0  0  0
   -5.3637   22.5814  -29.2315 C   0  0  0  0  0  0  0  0  0  0  0  0
   -3.2329   21.4916  -25.5784 C   0  0  0  0  0  0  0  0  0  0  0  0
   -1.8938   22.0038  -25.9253 C   0  0  0  0  0  0  0  0  0  0  0  0
   -1.5416   22.3437  -27.2242 C   0  0  0  0  0  0  0  0  0  0  0  0
   -0.2827   22.8312  -27.5613 C   0  0  0  0  0  0  0  0  0  0  0  0
    0.6608   22.9855  -26.5546 C   0  0  0  0  0  0  0  0  0  0  0  0
    0.3170   22.6556  -25.2915 N   0  0  0  0  0  0  0  0  0  0  0  0
   -0.9226   22.1770  -24.9744 C   0  0  0  0  0  0  0  0  0  0  0  0
 20 21  1  0  0  0
 21 12  1  0  0  0
 12 13  2  0  0  0
 13 14  1  0  0  0
 14 22  1  0  0  0
 22 23  1  0  0  0
 14 15  2  0  0  0
 15 16  1  0  0  0
 15 17  1  0  0  0
 17  1  1  0  0  0
  1  2  1  0  0  0
  2  3  1  0  0  0
  3  4  2  0  0  0
  4  5  1  0  0  0
  5  6  2  0  0  0
  6  7  1  0  0  0
  7  8  2  0  0  0
  8  9  1  0  0  0
  9 31  1  0  0  0
 31 32  1  0  0  0
 32 33  2  0  0  0
 33 34  1  0  0  0
 34 35  2  0  0  0
 35 36  1  0  0  0
 36 37  2  0  0  0
  9 10  1  0  0  0
 10 11  2  0  0  0
  6 24  1  0  0  0
 24 25  2  0  0  0
 25 26  1  0  0  0
 26 27  1  0  0  0
 26 28  1  0  0  0
 28 29  2  0  0  0
 29 30  1  0  0  0
 17 18  2  0  0  0
 18 19  1  0  0  0
 18 12  1  0  0  0
 10  1  1  0  0  0
 29 24  1  0  0  0
  8  3  1  0  0  0
 37 32  1  0  0  0
M  END
> <minimizedAffinity>
-8.83882

> <CNNscore>
0.1424845457

> <CNNaffinity>
6.9365921021

> <CNN_VS>
0.9883571863

> <CNNaffinity_variance>
0.3955080211

$$$$
[H]c1nc([H])c(C([H])([H])N2C(=O)N(c3c(F)c(OC([H])([H])[H])c([H])c(OC([H])([H])[H])c3F)C([H])([H])c3c([H])nc(-c4c(C([H])([H])[H])nn(C([H])([H])[H])c4[H])c([H])c32)c([H])c1[H]


 37 41  0  0  0  0  0  0  0  0999 V2000
   -1.8352   21.5715  -22.4872 N   0  0  0  0  0  0  0  0  0  0  0  0
   -1.2278   21.6316  -23.7934 C   0  0  0  0  0  0  0  0  0  0  0  0
   -2.0938   22.2134  -24.8440 C   0  0  0  0  0  0  0  0  0  0  0  0
   -1.4764   22.6624  -26.0175 C   0  0  0  0  0  0  0  0  0  0  0  0
   -2.2618   23.1171  -26.9904 N   0  0  0  0  0  0  0  0  0  0  0  0
   -3.6213   23.1485  -26.8592 C   0  0  0  0  0  0  0  0  0  0  0  0
   -4.2340   22.7182  -25.7306 C   0  0  0  0  0  0  0  0  0  0  0  0
   -3.4618   22.2282  -24.6645 C   0  0  0  0  0  0  0  0  0  0  0  0
   -4.1106   21.9073  -23.4434 N   0  0  0  0  0  0  0  0  0  0  0  0
   -3.2488   21.5667  -22.3352 C   0  0  0  0  0  0  0  0  0  0  0  0
   -3.6764   21.2525  -21.1974 O   0  0  0  0  0  0  0  0  0  0  0  0
    0.6400   20.3656  -20.0074 C   0  0  0  0  0  0  0  0  0  0  0  0
    0.8176   21.5428  -19.3141 C   0  0  0  0  0  0  0  0  0  0  0  0
    0.1751   22.7226  -19.5904 C   0  0  0  0  0  0  0  0  0  0  0  0
   -0.7183   22.7063  -20.6557 C   0  0  0  0  0  0  0  0  0  0  0  0
   -1.3562   23.8635  -20.9369 F   0  0  0  0  0  0  0  0  0  0  0  0
   -0.9341   21.5533  -21.3883 C   0  0  0  0  0  0  0  0  0  0  0  0
   -0.2599   20.4118  -21.0556 C   0  0  0  0  0  0  0  0  0  0  0  0
   -0.4432   19.2612  -21.7453 F   0  0  0  0  0  0  0  0  0  0  0  0
    2.5646   18.8728  -20.2549 C   0  0  0  0  0  0  0  0  0  0  0  0
    1.3364   19.1887  -19.6606 O   0  0  0  0  0  0  0  0  0  0  0  0
    0.3995   23.8950  -18.8435 O   0  0  0  0  0  0  0  0  0  0  0  0
    1.7277   24.1505  -18.4553 C   0  0  0  0  0  0  0  0  0  0  0  0
   -4.4359   23.6821  -27.9524 C   0  0  0  0  0  0  0  0  0  0  0  0
   -4.6815   23.1535  -29.1957 C   0  0  0  0  0  0  0  0  0  0  0  0
   -5.5152   23.9863  -29.8855 N   0  0  0  0  0  0  0  0  0  0  0  0
   -6.0159   23.7785  -31.2356 C   0  0  0  0  0  0  0  0  0  0  0  0
   -5.7748   25.0175  -29.0648 N   0  0  0  0  0  0  0  0  0  0  0  0
   -5.1484   24.8673  -27.9070 C   0  0  0  0  0  0  0  0  0  0  0  0
   -5.1930   25.8010  -26.7256 C   0  0  0  0  0  0  0  0  0  0  0  0
   -5.5175   21.9223  -23.2283 C   0  0  0  0  0  0  0  0  0  0  0  0
   -6.1344   23.2366  -22.9673 C   0  0  0  0  0  0  0  0  0  0  0  0
   -7.0456   23.8162  -23.8393 C   0  0  0  0  0  0  0  0  0  0  0  0
   -7.6360   25.0533  -23.6006 C   0  0  0  0  0  0  0  0  0  0  0  0
   -7.3000   25.7363  -22.4396 C   0  0  0  0  0  0  0  0  0  0  0  0
   -6.4144   25.1713  -21.5916 N   0  0  0  0  0  0  0  0  0  0  0  0
   -5.8413   23.9561  -21.8387 C   0  0  0  0  0  0  0  0  0  0  0  0
 20 21  1  0  0  0
 21 12  1  0  0  0
 12 13  2  0  0  0
 13 14  1  0  0  0
 14 22  1  0  0  0
 22 23  1  0  0  0
 14 15  2  0  0  0
 15 16  1  0  0  0
 15 17  1  0  0  0
 17  1  1  0  0  0
  1  2  1  0  0  0
  2  3  1  0  0  0
  3  4  2  0  0  0
  4  5  1  0  0  0
  5  6  2  0  0  0
  6  7  1  0  0  0
  7  8  2  0  0  0
  8  9  1  0  0  0
  9 31  1  0  0  0
 31 32  1  0  0  0
 32 33  2  0  0  0
 33 34  1  0  0  0
 34 35  2  0  0  0
 35 36  1  0  0  0
 36 37  2  0  0  0
  9 10  1  0  0  0
 10 11  2  0  0  0
  6 24  1  0  0  0
 24 25  2  0  0  0
 25 26  1  0  0  0
 26 27  1  0  0  0
 26 28  1  0  0  0
 28 29  2  0  0  0
 29 30  1  0  0  0
 17 18  2  0  0  0
 18 19  1  0  0  0
 18 12  1  0  0  0
 10  1  1  0  0  0
 29 24  1  0  0  0
  8  3  1  0  0  0
 37 32  1  0  0  0
M  END
> <minimizedAffinity>
-8.48270

> <CNNscore>
0.1193284541

> <CNNaffinity>
7.1198363304

> <CNN_VS>
0.8495990634

> <CNNaffinity_variance>
0.0958291292

$$$$
[H]c1nc([H])c(C([H])([H])N2C(=O)N(c3c(F)c(OC([H])([H])[H])c([H])c(OC([H])([H])[H])c3F)C([H])([H])c3c([H])nc(-c4c(C([H])([H])[H])nn(C([H])([H])[H])c4[H])c([H])c32)c([H])c1[H]


 37 41  0  0  0  0  0  0  0  0999 V2000
   -6.7150   23.0954  -20.9405 N   0  0  0  0  0  0  0  0  0  0  0  0
   -6.4903   24.2592  -20.1197 C   0  0  0  0  0  0  0  0  0  0  0  0
   -6.4263   23.9797  -18.6672 C   0  0  0  0  0  0  0  0  0  0  0  0
   -5.8391   24.9495  -17.8459 C   0  0  0  0  0  0  0  0  0  0  0  0
   -5.8479   24.7313  -16.5336 N   0  0  0  0  0  0  0  0  0  0  0  0
   -6.4069   23.6059  -15.9972 C   0  0  0  0  0  0  0  0  0  0  0  0
   -6.9786   22.6581  -16.7778 C   0  0  0  0  0  0  0  0  0  0  0  0
   -7.0004   22.8268  -18.1721 C   0  0  0  0  0  0  0  0  0  0  0  0
   -7.4831   21.7643  -18.9802 N   0  0  0  0  0  0  0  0  0  0  0  0
   -7.3287   21.9291  -20.4070 C   0  0  0  0  0  0  0  0  0  0  0  0
   -7.7145   21.0799  -21.2473 O   0  0  0  0  0  0  0  0  0  0  0  0
   -6.5990   23.9054  -24.5544 C   0  0  0  0  0  0  0  0  0  0  0  0
   -5.3477   23.4002  -24.8320 C   0  0  0  0  0  0  0  0  0  0  0  0
   -4.5234   22.7955  -23.9178 C   0  0  0  0  0  0  0  0  0  0  0  0
   -5.0074   22.6966  -22.6181 C   0  0  0  0  0  0  0  0  0  0  0  0
   -4.2030   22.1031  -21.7092 F   0  0  0  0  0  0  0  0  0  0  0  0
   -6.2553   23.1887  -22.2821 C   0  0  0  0  0  0  0  0  0  0  0  0
   -7.0250   23.7783  -23.2456 C   0  0  0  0  0  0  0  0  0  0  0  0
   -8.2531   24.2713  -22.9597 F   0  0  0  0  0  0  0  0  0  0  0  0
   -6.8107   25.2712  -26.5752 C   0  0  0  0  0  0  0  0  0  0  0  0
   -7.3915   24.5121  -25.5516 O   0  0  0  0  0  0  0  0  0  0  0  0
   -3.2523   22.2978  -24.2635 O   0  0  0  0  0  0  0  0  0  0  0  0
   -3.0971   21.8252  -25.5798 C   0  0  0  0  0  0  0  0  0  0  0  0
   -6.3667   23.4052  -14.5476 C   0  0  0  0  0  0  0  0  0  0  0  0
   -7.3327   23.6571  -13.6049 C   0  0  0  0  0  0  0  0  0  0  0  0
   -6.8665   23.3007  -12.3720 N   0  0  0  0  0  0  0  0  0  0  0  0
   -7.5901   23.4065  -11.1142 C   0  0  0  0  0  0  0  0  0  0  0  0
   -5.6216   22.8346  -12.5645 N   0  0  0  0  0  0  0  0  0  0  0  0
   -5.2937   22.8829  -13.8473 C   0  0  0  0  0  0  0  0  0  0  0  0
   -3.9924   22.4438  -14.4664 C   0  0  0  0  0  0  0  0  0  0  0  0
   -8.0714   20.5619  -18.4965 C   0  0  0  0  0  0  0  0  0  0  0  0
   -7.2031   19.3704  -18.4511 C   0  0  0  0  0  0  0  0  0  0  0  0
   -5.8187   19.4609  -18.4039 C   0  0  0  0  0  0  0  0  0  0  0  0
   -4.9910   18.3435  -18.3569 C   0  0  0  0  0  0  0  0  0  0  0  0
   -5.5753   17.0841  -18.3557 C   0  0  0  0  0  0  0  0  0  0  0  0
   -6.9217   16.9971  -18.4005 N   0  0  0  0  0  0  0  0  0  0  0  0
   -7.7229   18.1026  -18.4474 C   0  0  0  0  0  0  0  0  0  0  0  0
 20 21  1  0  0  0
 21 12  1  0  0  0
 12 13  2  0  0  0
 13 14  1  0  0  0
 14 22  1  0  0  0
 22 23  1  0  0  0
 14 15  2  0  0  0
 15 16  1  0  0  0
 15 17  1  0  0  0
 17  1  1  0  0  0
  1  2  1  0  0  0
  2  3  1  0  0  0
  3  4  2  0  0  0
  4  5  1  0  0  0
  5  6  2  0  0  0
  6  7  1  0  0  0
  7  8  2  0  0  0
  8  9  1  0  0  0
  9 31  1  0  0  0
 31 32  1  0  0  0
 32 33  2  0  0  0
 33 34  1  0  0  0
 34 35  2  0  0  0
 35 36  1  0  0  0
 36 37  2  0  0  0
  9 10  1  0  0  0
 10 11  2  0  0  0
  6 24  1  0  0  0
 24 25  2  0  0  0
 25 26  1  0  0  0
 26 27  1  0  0  0
 26 28  1  0  0  0
 28 29  2  0  0  0
 29 30  1  0  0  0
 17 18  2  0  0  0
 18 19  1  0  0  0
 18 12  1  0  0  0
 10  1  1  0  0  0
 29 24  1  0  0  0
  8  3  1  0  0  0
 37 32  1  0  0  0
M  END
> <minimizedAffinity>
-6.30542

> <CNNscore>
0.1189952418

> <CNNaffinity>
6.1092400551

> <CNN_VS>
0.7269704938

> <CNNaffinity_variance>
0.0937527120

$$$$
[H]c1nc([H])c(C([H])([H])N2C(=O)N(c3c(F)c(OC([H])([H])[H])c([H])c(OC([H])([H])[H])c3F)C([H])([H])c3c([H])nc(-c4c(C([H])([H])[H])nn(C([H])([H])[H])c4[H])c([H])c32)c([H])c1[H]


 37 41  0  0  0  0  0  0  0  0999 V2000
   -1.8022   21.5827  -22.4877 N   0  0  0  0  0  0  0  0  0  0  0  0
   -1.2004   21.6380  -23.7966 C   0  0  0  0  0  0  0  0  0  0  0  0
   -2.0714   22.2144  -24.8460 C   0  0  0  0  0  0  0  0  0  0  0  0
   -1.4595   22.6592  -26.0239 C   0  0  0  0  0  0  0  0  0  0  0  0
   -2.2494   23.1089  -26.9954 N   0  0  0  0  0  0  0  0  0  0  0  0
   -3.6084   23.1393  -26.8587 C   0  0  0  0  0  0  0  0  0  0  0  0
   -4.2159   22.7130  -25.7258 C   0  0  0  0  0  0  0  0  0  0  0  0
   -3.4387   22.2283  -24.6608 C   0  0  0  0  0  0  0  0  0  0  0  0
   -4.0820   21.9118  -23.4358 N   0  0  0  0  0  0  0  0  0  0  0  0
   -3.2152   21.5769  -22.3297 C   0  0  0  0  0  0  0  0  0  0  0  0
   -3.6377   21.2670  -21.1889 O   0  0  0  0  0  0  0  0  0  0  0  0
    0.1941   22.7211  -19.5809 C   0  0  0  0  0  0  0  0  0  0  0  0
    0.8020   21.5232  -19.2750 C   0  0  0  0  0  0  0  0  0  0  0  0
    0.6163   20.3497  -19.9602 C   0  0  0  0  0  0  0  0  0  0  0  0
   -0.2567   20.3956  -21.0414 C   0  0  0  0  0  0  0  0  0  0  0  0
   -0.4474   19.2448  -21.7231 F   0  0  0  0  0  0  0  0  0  0  0  0
   -0.8966   21.5702  -21.3924 C   0  0  0  0  0  0  0  0  0  0  0  0
   -0.6629   22.7039  -20.6653 C   0  0  0  0  0  0  0  0  0  0  0  0
   -1.2671   23.8750  -20.9761 F   0  0  0  0  0  0  0  0  0  0  0  0
    1.7349   24.2320  -18.4248 C   0  0  0  0  0  0  0  0  0  0  0  0
    0.4385   23.8897  -18.8293 O   0  0  0  0  0  0  0  0  0  0  0  0
    1.2681   19.1551  -19.5981 O   0  0  0  0  0  0  0  0  0  0  0  0
    2.5450   18.9418  -20.1494 C   0  0  0  0  0  0  0  0  0  0  0  0
   -4.4282   23.6673  -27.9508 C   0  0  0  0  0  0  0  0  0  0  0  0
   -4.6746   23.1355  -29.1925 C   0  0  0  0  0  0  0  0  0  0  0  0
   -5.5138   23.9634  -29.8815 N   0  0  0  0  0  0  0  0  0  0  0  0
   -6.0169   23.7510  -31.2300 C   0  0  0  0  0  0  0  0  0  0  0  0
   -5.7759   24.9948  -29.0620 N   0  0  0  0  0  0  0  0  0  0  0  0
   -5.1459   24.8493  -27.9055 C   0  0  0  0  0  0  0  0  0  0  0  0
   -5.1917   25.7849  -26.7256 C   0  0  0  0  0  0  0  0  0  0  0  0
   -5.4880   21.9261  -23.2148 C   0  0  0  0  0  0  0  0  0  0  0  0
   -6.1071   23.2420  -22.9679 C   0  0  0  0  0  0  0  0  0  0  0  0
   -6.9979   23.8234  -23.8596 C   0  0  0  0  0  0  0  0  0  0  0  0
   -7.5903   25.0621  -23.6343 C   0  0  0  0  0  0  0  0  0  0  0  0
   -7.2777   25.7449  -22.4666 C   0  0  0  0  0  0  0  0  0  0  0  0
   -6.4119   25.1782  -21.5995 N   0  0  0  0  0  0  0  0  0  0  0  0
   -5.8367   23.9615  -21.8335 C   0  0  0  0  0  0  0  0  0  0  0  0
 20 21  1  0  0  0
 21 12  1  0  0  0
 12 13  2  0  0  0
 13 14  1  0  0  0
 14 22  1  0  0  0
 22 23  1  0  0  0
 14 15  2  0  0  0
 15 16  1  0  0  0
 15 17  1  0  0  0
 17  1  1  0  0  0
  1  2  1  0  0  0
  2  3  1  0  0  0
  3  4  2  0  0  0
  4  5  1  0  0  0
  5  6  2  0  0  0
  6  7  1  0  0  0
  7  8  2  0  0  0
  8  9  1  0  0  0
  9 31  1  0  0  0
 31 32  1  0  0  0
 32 33  2  0  0  0
 33 34  1  0  0  0
 34 35  2  0  0  0
 35 36  1  0  0  0
 36 37  2  0  0  0
  9 10  1  0  0  0
 10 11  2  0  0  0
  6 24  1  0  0  0
 24 25  2  0  0  0
 25 26  1  0  0  0
 26 27  1  0  0  0
 26 28  1  0  0  0
 28 29  2  0  0  0
 29 30  1  0  0  0
 17 18  2  0  0  0
 18 19  1  0  0  0
 18 12  1  0  0  0
 10  1  1  0  0  0
 29 24  1  0  0  0
  8  3  1  0  0  0
 37 32  1  0  0  0
M  END
> <minimizedAffinity>
-8.38348

> <CNNscore>
0.1099989414

> <CNNaffinity>
7.1432962418

> <CNN_VS>
0.7857550383

> <CNNaffinity_variance>
0.1011434793

$$$$
[H]c1nc([H])c(C([H])([H])N2C(=O)N(c3c(F)c(OC([H])([H])[H])c([H])c(OC([H])([H])[H])c3F)C([H])([H])c3c([H])nc(-c4c(C([H])([H])[H])nn(C([H])([H])[H])c4[H])c([H])c32)c([H])c1[H]


 37 41  0  0  0  0  0  0  0  0999 V2000
   -2.4124   21.9315  -23.4451 N   0  0  0  0  0  0  0  0  0  0  0  0
   -1.6789   22.0635  -24.6792 C   0  0  0  0  0  0  0  0  0  0  0  0
   -2.4521   22.6669  -25.7883 C   0  0  0  0  0  0  0  0  0  0  0  0
   -1.7339   23.1819  -26.8740 C   0  0  0  0  0  0  0  0  0  0  0  0
   -2.4309   23.6572  -27.9027 N   0  0  0  0  0  0  0  0  0  0  0  0
   -3.7970   23.6472  -27.9095 C   0  0  0  0  0  0  0  0  0  0  0  0
   -4.5068   23.1529  -26.8672 C   0  0  0  0  0  0  0  0  0  0  0  0
   -3.8311   22.6380  -25.7485 C   0  0  0  0  0  0  0  0  0  0  0  0
   -4.5893   22.2481  -24.6136 N   0  0  0  0  0  0  0  0  0  0  0  0
   -3.8333   21.8830  -23.4380 C   0  0  0  0  0  0  0  0  0  0  0  0
   -4.3634   21.5091  -22.3631 O   0  0  0  0  0  0  0  0  0  0  0  0
   -1.2298   22.6143  -20.0004 C   0  0  0  0  0  0  0  0  0  0  0  0
   -0.1423   21.7686  -19.9916 C   0  0  0  0  0  0  0  0  0  0  0  0
    0.2508   20.9821  -21.0442 C   0  0  0  0  0  0  0  0  0  0  0  0
   -0.5221   21.0597  -22.1974 C   0  0  0  0  0  0  0  0  0  0  0  0
   -0.1441   20.2886  -23.2403 F   0  0  0  0  0  0  0  0  0  0  0  0
   -1.6263   21.8899  -22.2617 C   0  0  0  0  0  0  0  0  0  0  0  0
   -1.9592   22.6479  -21.1741 C   0  0  0  0  0  0  0  0  0  0  0  0
   -3.0309   23.4750  -21.1955 F   0  0  0  0  0  0  0  0  0  0  0  0
   -2.2258   22.8333  -17.7747 C   0  0  0  0  0  0  0  0  0  0  0  0
   -1.5699   23.3964  -18.8766 O   0  0  0  0  0  0  0  0  0  0  0  0
    1.3744   20.1364  -20.9739 O   0  0  0  0  0  0  0  0  0  0  0  0
    2.5981   20.6764  -21.4110 C   0  0  0  0  0  0  0  0  0  0  0  0
   -4.5134   24.2056  -29.0576 C   0  0  0  0  0  0  0  0  0  0  0  0
   -4.7423   25.5183  -29.3887 C   0  0  0  0  0  0  0  0  0  0  0  0
   -5.4422   25.5749  -30.5597 N   0  0  0  0  0  0  0  0  0  0  0  0
   -5.8744   26.7821  -31.2471 C   0  0  0  0  0  0  0  0  0  0  0  0
   -5.6386   24.3013  -30.9386 N   0  0  0  0  0  0  0  0  0  0  0  0
   -5.0985   23.4620  -30.0671 C   0  0  0  0  0  0  0  0  0  0  0  0
   -5.0967   21.9573  -30.1408 C   0  0  0  0  0  0  0  0  0  0  0  0
   -6.0105   22.2168  -24.5423 C   0  0  0  0  0  0  0  0  0  0  0  0
   -6.6680   23.3733  -23.9050 C   0  0  0  0  0  0  0  0  0  0  0  0
   -7.2559   23.2955  -22.6500 C   0  0  0  0  0  0  0  0  0  0  0  0
   -7.8750   24.3812  -22.0385 C   0  0  0  0  0  0  0  0  0  0  0  0
   -7.9045   25.5946  -22.7123 C   0  0  0  0  0  0  0  0  0  0  0  0
   -7.3316   25.6696  -23.9324 N   0  0  0  0  0  0  0  0  0  0  0  0
   -6.7277   24.5954  -24.5219 C   0  0  0  0  0  0  0  0  0  0  0  0
 20 21  1  0  0  0
 21 12  1  0  0  0
 12 13  2  0  0  0
 13 14  1  0  0  0
 14 22  1  0  0  0
 22 23  1  0  0  0
 14 15  2  0  0  0
 15 16  1  0  0  0
 15 17  1  0  0  0
 17  1  1  0  0  0
  1  2  1  0  0  0
  2  3  1  0  0  0
  3  4  2  0  0  0
  4  5  1  0  0  0
  5  6  2  0  0  0
  6  7  1  0  0  0
  7  8  2  0  0  0
  8  9  1  0  0  0
  9 31  1  0  0  0
 31 32  1  0  0  0
 32 33  2  0  0  0
 33 34  1  0  0  0
 34 35  2  0  0  0
 35 36  1  0  0  0
 36 37  2  0  0  0
  9 10  1  0  0  0
 10 11  2  0  0  0
  6 24  1  0  0  0
 24 25  2  0  0  0
 25 26  1  0  0  0
 26 27  1  0  0  0
 26 28  1  0  0  0
 28 29  2  0  0  0
 29 30  1  0  0  0
 17 18  2  0  0  0
 18 19  1  0  0  0
 18 12  1  0  0  0
 10  1  1  0  0  0
 29 24  1  0  0  0
  8  3  1  0  0  0
 37 32  1  0  0  0
M  END
> <minimizedAffinity>
-8.43709

> <CNNscore>
0.0880933553

> <CNNaffinity>
6.9385604858

> <CNN_VS>
0.6112411022

> <CNNaffinity_variance>
0.2667266428

$$$$
[H]c1nc([H])c(C([H])([H])N2C(=O)N(c3c(F)c(OC([H])([H])[H])c([H])c(OC([H])([H])[H])c3F)C([H])([H])c3c([H])nc(-c4c(C([H])([H])[H])nn(C([H])([H])[H])c4[H])c([H])c32)c([H])c1[H]


 37 41  0  0  0  0  0  0  0  0999 V2000
   -0.3458   21.9892  -19.6398 N   0  0  0  0  0  0  0  0  0  0  0  0
    0.1297   21.2096  -20.7554 C   0  0  0  0  0  0  0  0  0  0  0  0
   -0.4302   21.6125  -22.0655 C   0  0  0  0  0  0  0  0  0  0  0  0
    0.2455   21.1901  -23.2165 C   0  0  0  0  0  0  0  0  0  0  0  0
   -0.2978   21.4896  -24.3934 N   0  0  0  0  0  0  0  0  0  0  0  0
   -1.4715   22.1828  -24.4861 C   0  0  0  0  0  0  0  0  0  0  0  0
   -2.1373   22.5988  -23.3825 C   0  0  0  0  0  0  0  0  0  0  0  0
   -1.6158   22.3169  -22.1090 C   0  0  0  0  0  0  0  0  0  0  0  0
   -2.2560   22.8742  -20.9713 N   0  0  0  0  0  0  0  0  0  0  0  0
   -1.5827   22.6871  -19.7069 C   0  0  0  0  0  0  0  0  0  0  0  0
   -2.0305   23.1147  -18.6147 O   0  0  0  0  0  0  0  0  0  0  0  0
    1.3334   21.0336  -16.4779 C   0  0  0  0  0  0  0  0  0  0  0  0
    2.1885   22.1088  -16.3733 C   0  0  0  0  0  0  0  0  0  0  0  0
    2.2578   23.1479  -17.2657 C   0  0  0  0  0  0  0  0  0  0  0  0
    1.3907   23.0908  -18.3511 C   0  0  0  0  0  0  0  0  0  0  0  0
    1.4512   24.1092  -19.2368 F   0  0  0  0  0  0  0  0  0  0  0  0
    0.5127   22.0339  -18.5080 C   0  0  0  0  0  0  0  0  0  0  0  0
    0.4964   21.0324  -17.5779 C   0  0  0  0  0  0  0  0  0  0  0  0
   -0.3488   19.9808  -17.6925 F   0  0  0  0  0  0  0  0  0  0  0  0
    2.1008   18.8518  -15.6750 C   0  0  0  0  0  0  0  0  0  0  0  0
    1.3181   20.0022  -15.5155 O   0  0  0  0  0  0  0  0  0  0  0  0
    3.1550   24.2211  -17.1036 O   0  0  0  0  0  0  0  0  0  0  0  0
    4.4818   24.0013  -17.5175 C   0  0  0  0  0  0  0  0  0  0  0  0
   -2.0116   22.5066  -25.8078 C   0  0  0  0  0  0  0  0  0  0  0  0
   -3.3155   22.6934  -26.1954 C   0  0  0  0  0  0  0  0  0  0  0  0
   -3.3535   22.9970  -27.5261 N   0  0  0  0  0  0  0  0  0  0  0  0
   -4.5461   23.2715  -28.3130 C   0  0  0  0  0  0  0  0  0  0  0  0
   -2.0776   22.9940  -27.9459 N   0  0  0  0  0  0  0  0  0  0  0  0
   -1.2543   22.7061  -26.9484 C   0  0  0  0  0  0  0  0  0  0  0  0
    0.2481   22.6148  -27.0121 C   0  0  0  0  0  0  0  0  0  0  0  0
   -3.4734   23.6114  -20.9883 C   0  0  0  0  0  0  0  0  0  0  0  0
   -4.6651   22.9363  -20.4407 C   0  0  0  0  0  0  0  0  0  0  0  0
   -5.5895   23.5932  -19.6404 C   0  0  0  0  0  0  0  0  0  0  0  0
   -6.7187   22.9667  -19.1222 C   0  0  0  0  0  0  0  0  0  0  0  0
   -6.9301   21.6273  -19.4199 C   0  0  0  0  0  0  0  0  0  0  0  0
   -6.0311   20.9895  -20.1992 N   0  0  0  0  0  0  0  0  0  0  0  0
   -4.9259   21.6165  -20.7008 C   0  0  0  0  0  0  0  0  0  0  0  0
 20 21  1  0  0  0
 21 12  1  0  0  0
 12 13  2  0  0  0
 13 14  1  0  0  0
 14 22  1  0  0  0
 22 23  1  0  0  0
 14 15  2  0  0  0
 15 16  1  0  0  0
 15 17  1  0  0  0
 17  1  1  0  0  0
  1  2  1  0  0  0
  2  3  1  0  0  0
  3  4  2  0  0  0
  4  5  1  0  0  0
  5  6  2  0  0  0
  6  7  1  0  0  0
  7  8  2  0  0  0
  8  9  1  0  0  0
  9 31  1  0  0  0
 31 32  1  0  0  0
 32 33  2  0  0  0
 33 34  1  0  0  0
 34 35  2  0  0  0
 35 36  1  0  0  0
 36 37  2  0  0  0
  9 10  1  0  0  0
 10 11  2  0  0  0
  6 24  1  0  0  0
 24 25  2  0  0  0
 25 26  1  0  0  0
 26 27  1  0  0  0
 26 28  1  0  0  0
 28 29  2  0  0  0
 29 30  1  0  0  0
 17 18  2  0  0  0
 18 19  1  0  0  0
 18 12  1  0  0  0
 10  1  1  0  0  0
 29 24  1  0  0  0
  8  3  1  0  0  0
 37 32  1  0  0  0
M  END
> <minimizedAffinity>
-7.04215

> <CNNscore>
0.0844709575

> <CNNaffinity>
6.5304346085

> <CNN_VS>
0.5516320467

> <CNNaffinity_variance>
0.0962554738

$$$$
[H]c1nc(N([H])[H])c(-c2nc(C(C([H])([H])[H])(C([H])([H])[H])C([H])([H])[H])no2)c2c1C([H])([H])N(c1c(Cl)c(OC([H])([H])[H])c([H])c(OC([H])([H])[H])c1Cl)C(=O)C21C([H])([H])C1([H])[H]


 37 41  0  0  0  0  0  0  0  0999 V2000
   -2.8623   22.0803  -21.4153 N   0  0  0  0  0  0  0  0  0  0  0  0
   -2.0958   21.1160  -22.1935 C   0  0  0  0  0  0  0  0  0  0  0  0
   -1.7009   21.6955  -23.4789 C   0  0  0  0  0  0  0  0  0  0  0  0
   -0.4680   21.3200  -24.0168 C   0  0  0  0  0  0  0  0  0  0  0  0
   -0.1132   21.8190  -25.1969 N   0  0  0  0  0  0  0  0  0  0  0  0
   -0.9155   22.6848  -25.8857 C   0  0  0  0  0  0  0  0  0  0  0  0
   -0.5062   23.1901  -27.1447 N   0  0  0  0  0  0  0  0  0  0  0  0
   -2.1385   23.0759  -25.3749 C   0  0  0  0  0  0  0  0  0  0  0  0
   -2.5444   22.5837  -24.1681 C   0  0  0  0  0  0  0  0  0  0  0  0
   -3.8379   22.7944  -23.5894 C   0  0  0  0  0  0  0  0  0  0  0  0
   -5.1767   22.8836  -24.0358 C   0  0  0  0  0  0  0  0  0  0  0  0
   -4.6879   21.4686  -23.7692 C   0  0  0  0  0  0  0  0  0  0  0  0
   -3.6096   23.0556  -22.1069 C   0  0  0  0  0  0  0  0  0  0  0  0
   -4.0674   24.0837  -21.5490 O   0  0  0  0  0  0  0  0  0  0  0  0
    0.2140   23.9147  -27.1965 H   0  0  0  0  0  0  0  0  0  0  0  0
   -0.9271   22.8321  -28.0266 H   0  0  0  0  0  0  0  0  0  0  0  0
   -1.5559   22.1606  -17.9149 C   0  0  0  0  0  0  0  0  0  0  0  0
   -2.6533   21.7295  -17.2138 C   0  0  0  0  0  0  0  0  0  0  0  0
   -3.8353   21.4322  -17.8321 C   0  0  0  0  0  0  0  0  0  0  0  0
   -3.8938   21.5825  -19.2216 C   0  0  0  0  0  0  0  0  0  0  0  0
   -5.4435   21.2323  -19.9535 Cl  0  0  0  0  0  0  0  0  0  0  0  0
   -2.8288   22.0067  -19.9762 C   0  0  0  0  0  0  0  0  0  0  0  0
   -1.6528   22.2959  -19.2848 C   0  0  0  0  0  0  0  0  0  0  0  0
   -0.2580   22.8672  -20.1502 Cl  0  0  0  0  0  0  0  0  0  0  0  0
    0.3693   21.5565  -16.4986 C   0  0  0  0  0  0  0  0  0  0  0  0
   -0.3695   22.4573  -17.2765 O   0  0  0  0  0  0  0  0  0  0  0  0
   -4.9644   20.9918  -17.1769 O   0  0  0  0  0  0  0  0  0  0  0  0
   -5.7365   21.7801  -16.3001 C   0  0  0  0  0  0  0  0  0  0  0  0
   -3.0480   23.9248  -26.1136 C   0  0  0  0  0  0  0  0  0  0  0  0
   -3.3792   23.6950  -27.4276 N   0  0  0  0  0  0  0  0  0  0  0  0
   -4.2474   24.6235  -27.8181 C   0  0  0  0  0  0  0  0  0  0  0  0
   -4.4495   25.4334  -26.7515 N   0  0  0  0  0  0  0  0  0  0  0  0
   -3.7305   24.9854  -25.7829 O   0  0  0  0  0  0  0  0  0  0  0  0
   -4.9247   24.6971  -29.1263 C   0  0  0  0  0  0  0  0  0  0  0  0
   -3.9703   25.2619  -30.1567 C   0  0  0  0  0  0  0  0  0  0  0  0
   -5.2217   23.2433  -29.5649 C   0  0  0  0  0  0  0  0  0  0  0  0
   -6.1890   25.4811  -29.1560 C   0  0  0  0  0  0  0  0  0  0  0  0
 25 26  1  0  0  0
 26 17  1  0  0  0
 17 18  2  0  0  0
 18 19  1  0  0  0
 19 27  1  0  0  0
 27 28  1  0  0  0
 19 20  2  0  0  0
 20 21  1  0  0  0
 20 22  1  0  0  0
 22  1  1  0  0  0
  1  2  1  0  0  0
  2  3  1  0  0  0
  3  4  2  0  0  0
  4  5  1  0  0  0
  5  6  2  0  0  0
  6  7  1  0  0  0
  6  8  1  0  0  0
  8  9  2  0  0  0
  9 10  1  0  0  0
 10 11  1  0  0  0
 11 12  1  0  0  0
 10 13  1  0  0  0
 13 14  2  0  0  0
  8 29  1  0  0  0
 29 30  2  0  0  0
 30 31  1  0  0  0
 31 32  2  0  0  0
 32 33  1  0  0  0
 31 34  1  0  0  0
 34 35  1  0  0  0
 34 36  1  0  0  0
 34 37  1  0  0  0
 22 23  2  0  0  0
 23 24  1  0  0  0
 23 17  1  0  0  0
 13  1  1  0  0  0
 33 29  1  0  0  0
  9  3  1  0  0  0
 12 10  1  0  0  0
  7 15  1  0  0  0
  7 16  1  0  0  0
M  END
> <minimizedAffinity>
-7.67760

> <CNNscore>
0.2042680681

> <CNNaffinity>
7.1732454300

> <CNN_VS>
1.4652650356

> <CNNaffinity_variance>
0.1830574274

$$$$
[H]c1nc(N([H])[H])c(-c2nc(C(C([H])([H])[H])(C([H])([H])[H])C([H])([H])[H])no2)c2c1C([H])([H])N(c1c(Cl)c(OC([H])([H])[H])c([H])c(OC([H])([H])[H])c1Cl)C(=O)C21C([H])([H])C1([H])[H]


 37 41  0  0  0  0  0  0  0  0999 V2000
   -6.9564   22.6809  -20.7632 N   0  0  0  0  0  0  0  0  0  0  0  0
   -5.8025   22.8999  -19.9009 C   0  0  0  0  0  0  0  0  0  0  0  0
   -5.3072   21.6254  -19.3769 C   0  0  0  0  0  0  0  0  0  0  0  0
   -3.9314   21.4867  -19.1813 C   0  0  0  0  0  0  0  0  0  0  0  0
   -3.4750   20.3433  -18.6794 N   0  0  0  0  0  0  0  0  0  0  0  0
   -4.3107   19.3106  -18.3585 C   0  0  0  0  0  0  0  0  0  0  0  0
   -3.7875   18.1096  -17.8186 N   0  0  0  0  0  0  0  0  0  0  0  0
   -5.6756   19.4198  -18.5454 C   0  0  0  0  0  0  0  0  0  0  0  0
   -6.1876   20.5784  -19.0540 C   0  0  0  0  0  0  0  0  0  0  0  0
   -7.5840   20.8773  -19.1690 C   0  0  0  0  0  0  0  0  0  0  0  0
   -8.7626   20.6507  -18.4213 C   0  0  0  0  0  0  0  0  0  0  0  0
   -7.9764   21.8858  -18.0108 C   0  0  0  0  0  0  0  0  0  0  0  0
   -7.7700   21.5554  -20.5194 C   0  0  0  0  0  0  0  0  0  0  0  0
   -8.6037   21.1251  -21.3547 O   0  0  0  0  0  0  0  0  0  0  0  0
   -3.3006   17.4447  -18.4247 H   0  0  0  0  0  0  0  0  0  0  0  0
   -3.8881   17.8905  -16.8063 H   0  0  0  0  0  0  0  0  0  0  0  0
   -8.3946   25.5860  -22.6228 C   0  0  0  0  0  0  0  0  0  0  0  0
   -7.9056   25.3598  -23.8843 C   0  0  0  0  0  0  0  0  0  0  0  0
   -7.0891   24.3002  -24.1642 C   0  0  0  0  0  0  0  0  0  0  0  0
   -6.7622   23.4400  -23.1105 C   0  0  0  0  0  0  0  0  0  0  0  0
   -5.6781   22.1286  -23.5162 Cl  0  0  0  0  0  0  0  0  0  0  0  0
   -7.2232   23.6133  -21.8295 C   0  0  0  0  0  0  0  0  0  0  0  0
   -8.0499   24.7145  -21.6097 C   0  0  0  0  0  0  0  0  0  0  0  0
   -8.6606   25.0338  -20.0142 Cl  0  0  0  0  0  0  0  0  0  0  0  0
  -10.6176   26.6136  -22.3404 C   0  0  0  0  0  0  0  0  0  0  0  0
   -9.2176   26.6604  -22.3558 O   0  0  0  0  0  0  0  0  0  0  0  0
   -6.5750   24.0252  -25.4124 O   0  0  0  0  0  0  0  0  0  0  0  0
   -5.5620   24.7767  -26.0412 C   0  0  0  0  0  0  0  0  0  0  0  0
   -6.5959   18.3793  -18.1407 C   0  0  0  0  0  0  0  0  0  0  0  0
   -6.9030   18.1279  -16.8248 N   0  0  0  0  0  0  0  0  0  0  0  0
   -7.7890   17.1375  -16.7744 C   0  0  0  0  0  0  0  0  0  0  0  0
   -8.0261   16.7687  -18.0559 N   0  0  0  0  0  0  0  0  0  0  0  0
   -7.3095   17.5212  -18.8148 O   0  0  0  0  0  0  0  0  0  0  0  0
   -8.4497   16.6115  -15.5652 C   0  0  0  0  0  0  0  0  0  0  0  0
   -7.4167   16.3961  -14.4798 C   0  0  0  0  0  0  0  0  0  0  0  0
   -9.3949   17.7213  -15.0466 C   0  0  0  0  0  0  0  0  0  0  0  0
   -9.2285   15.3569  -15.7485 C   0  0  0  0  0  0  0  0  0  0  0  0
 25 26  1  0  0  0
 26 17  1  0  0  0
 17 18  2  0  0  0
 18 19  1  0  0  0
 19 27  1  0  0  0
 27 28  1  0  0  0
 19 20  2  0  0  0
 20 21  1  0  0  0
 20 22  1  0  0  0
 22  1  1  0  0  0
  1  2  1  0  0  0
  2  3  1  0  0  0
  3  4  2  0  0  0
  4  5  1  0  0  0
  5  6  2  0  0  0
  6  7  1  0  0  0
  6  8  1  0  0  0
  8  9  2  0  0  0
  9 10  1  0  0  0
 10 11  1  0  0  0
 11 12  1  0  0  0
 10 13  1  0  0  0
 13 14  2  0  0  0
  8 29  1  0  0  0
 29 30  2  0  0  0
 30 31  1  0  0  0
 31 32  2  0  0  0
 32 33  1  0  0  0
 31 34  1  0  0  0
 34 35  1  0  0  0
 34 36  1  0  0  0
 34 37  1  0  0  0
 22 23  2  0  0  0
 23 24  1  0  0  0
 23 17  1  0  0  0
 13  1  1  0  0  0
 33 29  1  0  0  0
  9  3  1  0  0  0
 12 10  1  0  0  0
  7 15  1  0  0  0
  7 16  1  0  0  0
M  END
> <minimizedAffinity>
-6.17390

> <CNNscore>
0.1267879903

> <CNNaffinity>
6.0771799088

> <CNN_VS>
0.7705134153

> <CNNaffinity_variance>
0.1524889171

$$$$
[H]c1nc(N([H])[H])c(-c2nc(C(C([H])([H])[H])(C([H])([H])[H])C([H])([H])[H])no2)c2c1C([H])([H])N(c1c(Cl)c(OC([H])([H])[H])c([H])c(OC([H])([H])[H])c1Cl)C(=O)C21C([H])([H])C1([H])[H]


 37 41  0  0  0  0  0  0  0  0999 V2000
   -4.8101   21.7218  -20.0375 N   0  0  0  0  0  0  0  0  0  0  0  0
   -5.0616   20.4264  -19.4199 C   0  0  0  0  0  0  0  0  0  0  0  0
   -6.0056   20.5647  -18.3091 C   0  0  0  0  0  0  0  0  0  0  0  0
   -6.9001   19.5184  -18.0740 C   0  0  0  0  0  0  0  0  0  0  0  0
   -7.7420   19.6225  -17.0503 N   0  0  0  0  0  0  0  0  0  0  0  0
   -7.7555   20.7192  -16.2349 C   0  0  0  0  0  0  0  0  0  0  0  0
   -8.6629   20.7907  -15.1489 N   0  0  0  0  0  0  0  0  0  0  0  0
   -6.8840   21.7704  -16.4471 C   0  0  0  0  0  0  0  0  0  0  0  0
   -5.9991   21.7028  -17.4843 C   0  0  0  0  0  0  0  0  0  0  0  0
   -4.9542   22.6506  -17.7342 C   0  0  0  0  0  0  0  0  0  0  0  0
   -4.0490   23.4273  -16.9746 C   0  0  0  0  0  0  0  0  0  0  0  0
   -3.5791   22.0120  -17.2719 C   0  0  0  0  0  0  0  0  0  0  0  0
   -4.9294   22.8781  -19.2394 C   0  0  0  0  0  0  0  0  0  0  0  0
   -5.0108   24.0339  -19.7245 O   0  0  0  0  0  0  0  0  0  0  0  0
   -9.6528   20.9835  -15.3200 H   0  0  0  0  0  0  0  0  0  0  0  0
   -8.3379   20.6467  -14.1708 H   0  0  0  0  0  0  0  0  0  0  0  0
   -2.7304   21.9556  -23.1337 C   0  0  0  0  0  0  0  0  0  0  0  0
   -3.7020   22.0454  -24.0978 C   0  0  0  0  0  0  0  0  0  0  0  0
   -5.0327   22.0054  -23.7893 C   0  0  0  0  0  0  0  0  0  0  0  0
   -5.3800   21.8685  -22.4411 C   0  0  0  0  0  0  0  0  0  0  0  0
   -7.0951   21.7769  -22.1097 Cl  0  0  0  0  0  0  0  0  0  0  0  0
   -4.4533   21.7772  -21.4328 C   0  0  0  0  0  0  0  0  0  0  0  0
   -3.1128   21.8219  -21.8144 C   0  0  0  0  0  0  0  0  0  0  0  0
   -1.8655   21.6851  -20.6119 Cl  0  0  0  0  0  0  0  0  0  0  0  0
   -0.8673   21.7273  -24.7318 C   0  0  0  0  0  0  0  0  0  0  0  0
   -1.3909   21.9971  -23.4608 O   0  0  0  0  0  0  0  0  0  0  0  0
   -6.0474   22.0959  -24.7168 O   0  0  0  0  0  0  0  0  0  0  0  0
   -6.3114   23.2363  -25.5018 C   0  0  0  0  0  0  0  0  0  0  0  0
   -6.8149   22.9081  -15.5559 C   0  0  0  0  0  0  0  0  0  0  0  0
   -6.3942   22.8070  -14.2513 N   0  0  0  0  0  0  0  0  0  0  0  0
   -6.4165   24.0170  -13.7002 C   0  0  0  0  0  0  0  0  0  0  0  0
   -6.8576   24.8673  -14.6578 N   0  0  0  0  0  0  0  0  0  0  0  0
   -7.0751   24.1750  -15.7205 O   0  0  0  0  0  0  0  0  0  0  0  0
   -5.9609   24.3719  -12.3430 C   0  0  0  0  0  0  0  0  0  0  0  0
   -4.5452   23.8757  -12.1408 C   0  0  0  0  0  0  0  0  0  0  0  0
   -5.8899   25.9162  -12.2785 C   0  0  0  0  0  0  0  0  0  0  0  0
   -6.8114   23.8779  -11.2264 C   0  0  0  0  0  0  0  0  0  0  0  0
 25 26  1  0  0  0
 26 17  1  0  0  0
 17 18  2  0  0  0
 18 19  1  0  0  0
 19 27  1  0  0  0
 27 28  1  0  0  0
 19 20  2  0  0  0
 20 21  1  0  0  0
 20 22  1  0  0  0
 22  1  1  0  0  0
  1  2  1  0  0  0
  2  3  1  0  0  0
  3  4  2  0  0  0
  4  5  1  0  0  0
  5  6  2  0  0  0
  6  7  1  0  0  0
  6  8  1  0  0  0
  8  9  2  0  0  0
  9 10  1  0  0  0
 10 11  1  0  0  0
 11 12  1  0  0  0
 10 13  1  0  0  0
 13 14  2  0  0  0
  8 29  1  0  0  0
 29 30  2  0  0  0
 30 31  1  0  0  0
 31 32  2  0  0  0
 32 33  1  0  0  0
 31 34  1  0  0  0
 34 35  1  0  0  0
 34 36  1  0  0  0
 34 37  1  0  0  0
 22 23  2  0  0  0
 23 24  1  0  0  0
 23 17  1  0  0  0
 13  1  1  0  0  0
 33 29  1  0  0  0
  9  3  1  0  0  0
 12 10  1  0  0  0
  7 15  1  0  0  0
  7 16  1  0  0  0
M  END
> <minimizedAffinity>
-6.28056

> <CNNscore>
0.0940637961

> <CNNaffinity>
6.1360220909

> <CNN_VS>
0.5771775246

> <CNNaffinity_variance>
0.1869213581

$$$$
[H]c1nc(N([H])[H])c(-c2nc(C(C([H])([H])[H])(C([H])([H])[H])C([H])([H])[H])no2)c2c1C([H])([H])N(c1c(Cl)c(OC([H])([H])[H])c([H])c(OC([H])([H])[H])c1Cl)C(=O)C21C([H])([H])C1([H])[H]


 37 41  0  0  0  0  0  0  0  0999 V2000
   -6.8215   23.2580  -21.6690 N   0  0  0  0  0  0  0  0  0  0  0  0
   -6.3519   24.3010  -20.7664 C   0  0  0  0  0  0  0  0  0  0  0  0
   -6.4504   23.8550  -19.3752 C   0  0  0  0  0  0  0  0  0  0  0  0
   -5.4760   24.2923  -18.4754 C   0  0  0  0  0  0  0  0  0  0  0  0
   -5.5728   23.9156  -17.2041 N   0  0  0  0  0  0  0  0  0  0  0  0
   -6.5895   23.1157  -16.7632 C   0  0  0  0  0  0  0  0  0  0  0  0
   -6.6633   22.7412  -15.3987 N   0  0  0  0  0  0  0  0  0  0  0  0
   -7.5647   22.6658  -17.6328 C   0  0  0  0  0  0  0  0  0  0  0  0
   -7.5064   23.0325  -18.9464 C   0  0  0  0  0  0  0  0  0  0  0  0
   -8.5188   22.7549  -19.9213 C   0  0  0  0  0  0  0  0  0  0  0  0
   -9.9309   22.6992  -19.9696 C   0  0  0  0  0  0  0  0  0  0  0  0
   -9.3412   24.0848  -20.1806 C   0  0  0  0  0  0  0  0  0  0  0  0
   -7.7906   22.3499  -21.1956 C   0  0  0  0  0  0  0  0  0  0  0  0
   -8.0507   21.2677  -21.7780 O   0  0  0  0  0  0  0  0  0  0  0  0
   -6.0274   22.0312  -15.0270 H   0  0  0  0  0  0  0  0  0  0  0  0
   -7.3576   23.1813  -14.7606 H   0  0  0  0  0  0  0  0  0  0  0  0
   -6.4543   23.7849  -25.3505 C   0  0  0  0  0  0  0  0  0  0  0  0
   -5.3858   22.9709  -25.6282 C   0  0  0  0  0  0  0  0  0  0  0  0
   -4.7438   22.2620  -24.6519 C   0  0  0  0  0  0  0  0  0  0  0  0
   -5.2160   22.3928  -23.3416 C   0  0  0  0  0  0  0  0  0  0  0  0
   -4.3284   21.4993  -22.1275 Cl  0  0  0  0  0  0  0  0  0  0  0  0
   -6.2817   23.1888  -23.0036 C   0  0  0  0  0  0  0  0  0  0  0  0
   -6.8911   23.8873  -24.0454 C   0  0  0  0  0  0  0  0  0  0  0  0
   -8.2307   24.9433  -23.7124 Cl  0  0  0  0  0  0  0  0  0  0  0  0
   -6.4483   25.3043  -27.2918 C   0  0  0  0  0  0  0  0  0  0  0  0
   -7.0918   24.4947  -26.3470 O   0  0  0  0  0  0  0  0  0  0  0  0
   -3.6706   21.4280  -24.8769 O   0  0  0  0  0  0  0  0  0  0  0  0
   -2.5570   21.7587  -25.6749 C   0  0  0  0  0  0  0  0  0  0  0  0
   -8.6988   21.8868  -17.1849 C   0  0  0  0  0  0  0  0  0  0  0  0
   -8.6438   20.5245  -17.0110 N   0  0  0  0  0  0  0  0  0  0  0  0
   -9.8258   20.1017  -16.5722 C   0  0  0  0  0  0  0  0  0  0  0  0
  -10.6162   21.1978  -16.4812 N   0  0  0  0  0  0  0  0  0  0  0  0
   -9.9152   22.2128  -16.8474 O   0  0  0  0  0  0  0  0  0  0  0  0
  -10.1733   18.7242  -16.1756 C   0  0  0  0  0  0  0  0  0  0  0  0
  -11.5790   18.4061  -16.6382 C   0  0  0  0  0  0  0  0  0  0  0  0
   -9.2358   17.7766  -16.9613 C   0  0  0  0  0  0  0  0  0  0  0  0
  -10.0616   18.4228  -14.7227 C   0  0  0  0  0  0  0  0  0  0  0  0
 25 26  1  0  0  0
 26 17  1  0  0  0
 17 18  2  0  0  0
 18 19  1  0  0  0
 19 27  1  0  0  0
 27 28  1  0  0  0
 19 20  2  0  0  0
 20 21  1  0  0  0
 20 22  1  0  0  0
 22  1  1  0  0  0
  1  2  1  0  0  0
  2  3  1  0  0  0
  3  4  2  0  0  0
  4  5  1  0  0  0
  5  6  2  0  0  0
  6  7  1  0  0  0
  6  8  1  0  0  0
  8  9  2  0  0  0
  9 10  1  0  0  0
 10 11  1  0  0  0
 11 12  1  0  0  0
 10 13  1  0  0  0
 13 14  2  0  0  0
  8 29  1  0  0  0
 29 30  2  0  0  0
 30 31  1  0  0  0
 31 32  2  0  0  0
 32 33  1  0  0  0
 31 34  1  0  0  0
 34 35  1  0  0  0
 34 36  1  0  0  0
 34 37  1  0  0  0
 22 23  2  0  0  0
 23 24  1  0  0  0
 23 17  1  0  0  0
 13  1  1  0  0  0
 33 29  1  0  0  0
  9  3  1  0  0  0
 12 10  1  0  0  0
  7 15  1  0  0  0
  7 16  1  0  0  0
M  END
> <minimizedAffinity>
-6.94921

> <CNNscore>
0.0852310732

> <CNNaffinity>
5.8693299294

> <CNN_VS>
0.5002492666

> <CNNaffinity_variance>
0.3090721369

$$$$
[H]c1nc(N([H])[H])c(-c2nc(C(C([H])([H])[H])(C([H])([H])[H])C([H])([H])[H])no2)c2c1C([H])([H])N(c1c(Cl)c(OC([H])([H])[H])c([H])c(OC([H])([H])[H])c1Cl)C(=O)C21C([H])([H])C1([H])[H]


 37 41  0  0  0  0  0  0  0  0999 V2000
   -2.6117   22.1742  -21.7523 N   0  0  0  0  0  0  0  0  0  0  0  0
   -3.8339   21.4342  -22.0380 C   0  0  0  0  0  0  0  0  0  0  0  0
   -4.9919   22.1169  -21.4574 C   0  0  0  0  0  0  0  0  0  0  0  0
   -6.2046   22.0540  -22.1472 C   0  0  0  0  0  0  0  0  0  0  0  0
   -7.2683   22.6468  -21.6139 N   0  0  0  0  0  0  0  0  0  0  0  0
   -7.2024   23.3128  -20.4222 C   0  0  0  0  0  0  0  0  0  0  0  0
   -8.3598   23.9261  -19.8818 N   0  0  0  0  0  0  0  0  0  0  0  0
   -6.0146   23.3937  -19.7207 C   0  0  0  0  0  0  0  0  0  0  0  0
   -4.8984   22.7949  -20.2297 C   0  0  0  0  0  0  0  0  0  0  0  0
   -3.6441   22.6825  -19.5468 C   0  0  0  0  0  0  0  0  0  0  0  0
   -3.1943   22.4624  -18.2244 C   0  0  0  0  0  0  0  0  0  0  0  0
   -3.4975   21.1975  -19.0120 C   0  0  0  0  0  0  0  0  0  0  0  0
   -2.5630   22.9597  -20.5824 C   0  0  0  0  0  0  0  0  0  0  0  0
   -1.6870   23.8390  -20.3896 O   0  0  0  0  0  0  0  0  0  0  0  0
   -8.7095   24.8012  -20.2800 H   0  0  0  0  0  0  0  0  0  0  0  0
   -8.8673   23.4971  -19.0809 H   0  0  0  0  0  0  0  0  0  0  0  0
   -0.5996   22.4813  -24.8865 C   0  0  0  0  0  0  0  0  0  0  0  0
    0.5363   21.7954  -24.5389 C   0  0  0  0  0  0  0  0  0  0  0  0
    0.6988   21.2473  -23.2976 C   0  0  0  0  0  0  0  0  0  0  0  0
   -0.3434   21.4084  -22.3784 C   0  0  0  0  0  0  0  0  0  0  0  0
   -0.0620   20.7266  -20.7922 Cl  0  0  0  0  0  0  0  0  0  0  0  0
   -1.5037   22.0811  -22.6694 C   0  0  0  0  0  0  0  0  0  0  0  0
   -1.6059   22.6185  -23.9521 C   0  0  0  0  0  0  0  0  0  0  0  0
   -3.0258   23.5123  -24.4056 Cl  0  0  0  0  0  0  0  0  0  0  0  0
   -0.7961   22.2973  -27.3370 C   0  0  0  0  0  0  0  0  0  0  0  0
   -0.7487   23.0294  -26.1437 O   0  0  0  0  0  0  0  0  0  0  0  0
    1.8157   20.5461  -22.8990 O   0  0  0  0  0  0  0  0  0  0  0  0
    3.1426   20.9543  -23.1419 C   0  0  0  0  0  0  0  0  0  0  0  0
   -5.9277   24.0190  -18.4189 C   0  0  0  0  0  0  0  0  0  0  0  0
   -6.3148   23.3859  -17.2619 N   0  0  0  0  0  0  0  0  0  0  0  0
   -6.0936   24.2007  -16.2345 C   0  0  0  0  0  0  0  0  0  0  0  0
   -5.5776   25.3408  -16.7525 N   0  0  0  0  0  0  0  0  0  0  0  0
   -5.4990   25.1865  -18.0275 O   0  0  0  0  0  0  0  0  0  0  0  0
   -6.2865   23.8851  -14.8067 C   0  0  0  0  0  0  0  0  0  0  0  0
   -7.3443   22.8115  -14.6663 C   0  0  0  0  0  0  0  0  0  0  0  0
   -4.9660   23.2584  -14.2990 C   0  0  0  0  0  0  0  0  0  0  0  0
   -6.6451   25.0355  -13.9336 C   0  0  0  0  0  0  0  0  0  0  0  0
 25 26  1  0  0  0
 26 17  1  0  0  0
 17 18  2  0  0  0
 18 19  1  0  0  0
 19 27  1  0  0  0
 27 28  1  0  0  0
 19 20  2  0  0  0
 20 21  1  0  0  0
 20 22  1  0  0  0
 22  1  1  0  0  0
  1  2  1  0  0  0
  2  3  1  0  0  0
  3  4  2  0  0  0
  4  5  1  0  0  0
  5  6  2  0  0  0
  6  7  1  0  0  0
  6  8  1  0  0  0
  8  9  2  0  0  0
  9 10  1  0  0  0
 10 11  1  0  0  0
 11 12  1  0  0  0
 10 13  1  0  0  0
 13 14  2  0  0  0
  8 29  1  0  0  0
 29 30  2  0  0  0
 30 31  1  0  0  0
 31 32  2  0  0  0
 32 33  1  0  0  0
 31 34  1  0  0  0
 34 35  1  0  0  0
 34 36  1  0  0  0
 34 37  1  0  0  0
 22 23  2  0  0  0
 23 24  1  0  0  0
 23 17  1  0  0  0
 13  1  1  0  0  0
 33 29  1  0  0  0
  9  3  1  0  0  0
 12 10  1  0  0  0
  7 15  1  0  0  0
  7 16  1  0  0  0
M  END
> <minimizedAffinity>
-7.38643

> <CNNscore>
0.0827647150

> <CNNaffinity>
5.9594306946

> <CNN_VS>
0.4932305813

> <CNNaffinity_variance>
0.3886694610

$$$$
[H]c1nc(N([H])[H])c(-c2nc(C(C([H])([H])[H])(C([H])([H])[H])C([H])([H])[H])no2)c2c1C([H])([H])N(c1c(Cl)c(OC([H])([H])[H])c([H])c(OC([H])([H])[H])c1Cl)C(=O)C21C([H])([H])C1([H])[H]


 37 41  0  0  0  0  0  0  0  0999 V2000
    0.0229   21.9114  -18.6911 N   0  0  0  0  0  0  0  0  0  0  0  0
    0.4973   20.8951  -19.6211 C   0  0  0  0  0  0  0  0  0  0  0  0
    0.2541   21.3138  -21.0030 C   0  0  0  0  0  0  0  0  0  0  0  0
    1.1841   20.9397  -21.9753 C   0  0  0  0  0  0  0  0  0  0  0  0
    0.9575   21.2911  -23.2373 N   0  0  0  0  0  0  0  0  0  0  0  0
   -0.1494   22.0058  -23.6004 C   0  0  0  0  0  0  0  0  0  0  0  0
   -0.3604   22.3556  -24.9572 N   0  0  0  0  0  0  0  0  0  0  0  0
   -1.0836   22.3921  -22.6583 C   0  0  0  0  0  0  0  0  0  0  0  0
   -0.8926   22.0483  -21.3511 C   0  0  0  0  0  0  0  0  0  0  0  0
   -1.8421   22.2614  -20.2997 C   0  0  0  0  0  0  0  0  0  0  0  0
   -3.2460   22.2107  -20.1380 C   0  0  0  0  0  0  0  0  0  0  0  0
   -2.5371   20.8766  -19.9654 C   0  0  0  0  0  0  0  0  0  0  0  0
   -1.0476   22.7372  -19.0912 C   0  0  0  0  0  0  0  0  0  0  0  0
   -1.3422   23.8042  -18.4973 O   0  0  0  0  0  0  0  0  0  0  0  0
    0.1876   23.1067  -25.3840 H   0  0  0  0  0  0  0  0  0  0  0  0
   -1.0678   21.8558  -25.5341 H   0  0  0  0  0  0  0  0  0  0  0  0
    2.5096   22.8777  -16.0741 C   0  0  0  0  0  0  0  0  0  0  0  0
    2.0274   22.1943  -14.9869 C   0  0  0  0  0  0  0  0  0  0  0  0
    0.8913   21.4377  -15.0540 C   0  0  0  0  0  0  0  0  0  0  0  0
    0.2249   21.3798  -16.2826 C   0  0  0  0  0  0  0  0  0  0  0  0
   -1.2471   20.4348  -16.2983 Cl  0  0  0  0  0  0  0  0  0  0  0  0
    0.6607   22.0388  -17.4049 C   0  0  0  0  0  0  0  0  0  0  0  0
    1.8243   22.7952  -17.2691 C   0  0  0  0  0  0  0  0  0  0  0  0
    2.4392   23.6888  -18.6271 Cl  0  0  0  0  0  0  0  0  0  0  0  0
    4.9030   23.1642  -15.5574 C   0  0  0  0  0  0  0  0  0  0  0  0
    3.6579   23.6378  -15.9906 O   0  0  0  0  0  0  0  0  0  0  0  0
    0.3672   20.7291  -13.9952 O   0  0  0  0  0  0  0  0  0  0  0  0
    1.1367   20.0224  -13.0493 C   0  0  0  0  0  0  0  0  0  0  0  0
   -2.3060   23.0771  -23.0187 C   0  0  0  0  0  0  0  0  0  0  0  0
   -3.3734   22.4372  -23.6021 N   0  0  0  0  0  0  0  0  0  0  0  0
   -4.3503   23.3198  -23.7896 C   0  0  0  0  0  0  0  0  0  0  0  0
   -3.8882   24.5075  -23.3311 N   0  0  0  0  0  0  0  0  0  0  0  0
   -2.6943   24.3152  -22.8912 O   0  0  0  0  0  0  0  0  0  0  0  0
   -5.7015   23.0364  -24.3086 C   0  0  0  0  0  0  0  0  0  0  0  0
   -6.0508   21.5882  -24.0405 C   0  0  0  0  0  0  0  0  0  0  0  0
   -6.6935   23.8809  -23.4738 C   0  0  0  0  0  0  0  0  0  0  0  0
   -5.9127   23.3263  -25.7527 C   0  0  0  0  0  0  0  0  0  0  0  0
 25 26  1  0  0  0
 26 17  1  0  0  0
 17 18  2  0  0  0
 18 19  1  0  0  0
 19 27  1  0  0  0
 27 28  1  0  0  0
 19 20  2  0  0  0
 20 21  1  0  0  0
 20 22  1  0  0  0
 22  1  1  0  0  0
  1  2  1  0  0  0
  2  3  1  0  0  0
  3  4  2  0  0  0
  4  5  1  0  0  0
  5  6  2  0  0  0
  6  7  1  0  0  0
  6  8  1  0  0  0
  8  9  2  0  0  0
  9 10  1  0  0  0
 10 11  1  0  0  0
 11 12  1  0  0  0
 10 13  1  0  0  0
 13 14  2  0  0  0
  8 29  1  0  0  0
 29 30  2  0  0  0
 30 31  1  0  0  0
 31 32  2  0  0  0
 32 33  1  0  0  0
 31 34  1  0  0  0
 34 35  1  0  0  0
 34 36  1  0  0  0
 34 37  1  0  0  0
 22 23  2  0  0  0
 23 24  1  0  0  0
 23 17  1  0  0  0
 13  1  1  0  0  0
 33 29  1  0  0  0
  9  3  1  0  0  0
 12 10  1  0  0  0
  7 15  1  0  0  0
  7 16  1  0  0  0
M  END
> <minimizedAffinity>
-6.72257

> <CNNscore>
0.0777945518

> <CNNaffinity>
6.3431930542

> <CNN_VS>
0.4934658706

> <CNNaffinity_variance>
0.0559852719

$$$$
[H]c1nc(N([H])[H])c(-c2nc(C(C([H])([H])[H])(C([H])([H])[H])C([H])([H])[H])no2)c2c1C([H])([H])N(c1c(Cl)c(OC([H])([H])[H])c([H])c(OC([H])([H])[H])c1Cl)C(=O)C21C([H])([H])C1([H])[H]


 37 41  0  0  0  0  0  0  0  0999 V2000
    0.0772   21.9284  -18.6804 N   0  0  0  0  0  0  0  0  0  0  0  0
    0.5264   20.8981  -19.6075 C   0  0  0  0  0  0  0  0  0  0  0  0
    0.2705   21.3081  -20.9898 C   0  0  0  0  0  0  0  0  0  0  0  0
    1.1829   20.9137  -21.9708 C   0  0  0  0  0  0  0  0  0  0  0  0
    0.9442   21.2571  -23.2327 N   0  0  0  0  0  0  0  0  0  0  0  0
   -0.1581   21.9829  -23.5877 C   0  0  0  0  0  0  0  0  0  0  0  0
   -0.3823   22.3237  -24.9447 N   0  0  0  0  0  0  0  0  0  0  0  0
   -1.0749   22.3893  -22.6369 C   0  0  0  0  0  0  0  0  0  0  0  0
   -0.8712   22.0543  -21.3294 C   0  0  0  0  0  0  0  0  0  0  0  0
   -1.8041   22.2886  -20.2677 C   0  0  0  0  0  0  0  0  0  0  0  0
   -3.2062   22.2574  -20.0873 C   0  0  0  0  0  0  0  0  0  0  0  0
   -2.5122   20.9158  -19.9123 C   0  0  0  0  0  0  0  0  0  0  0  0
   -0.9878   22.7645  -19.0738 C   0  0  0  0  0  0  0  0  0  0  0  0
   -1.2610   23.8402  -18.4855 O   0  0  0  0  0  0  0  0  0  0  0  0
    0.1695   23.0640  -25.3851 H   0  0  0  0  0  0  0  0  0  0  0  0
   -1.1035   21.8281  -25.5079 H   0  0  0  0  0  0  0  0  0  0  0  0
    0.7062   21.6921  -15.0041 C   0  0  0  0  0  0  0  0  0  0  0  0
    1.8673   22.4131  -14.8883 C   0  0  0  0  0  0  0  0  0  0  0  0
    2.4880   22.9637  -15.9743 C   0  0  0  0  0  0  0  0  0  0  0  0
    1.8952   22.7675  -17.2261 C   0  0  0  0  0  0  0  0  0  0  0  0
    2.7567   23.4547  -18.5846 Cl  0  0  0  0  0  0  0  0  0  0  0  0
    0.7334   22.0587  -17.4037 C   0  0  0  0  0  0  0  0  0  0  0  0
    0.1515   21.5209  -16.2562 C   0  0  0  0  0  0  0  0  0  0  0  0
   -1.3063   20.5832  -16.3829 Cl  0  0  0  0  0  0  0  0  0  0  0  0
    0.5293   19.9937  -13.2261 C   0  0  0  0  0  0  0  0  0  0  0  0
    0.0915   21.1421  -13.8984 O   0  0  0  0  0  0  0  0  0  0  0  0
    3.6512   23.6993  -15.9131 O   0  0  0  0  0  0  0  0  0  0  0  0
    4.9165   23.1662  -15.5949 C   0  0  0  0  0  0  0  0  0  0  0  0
   -2.2931   23.0868  -22.9874 C   0  0  0  0  0  0  0  0  0  0  0  0
   -3.3647   22.4616  -23.5789 N   0  0  0  0  0  0  0  0  0  0  0  0
   -4.3361   23.3529  -23.7540 C   0  0  0  0  0  0  0  0  0  0  0  0
   -3.8662   24.5313  -23.2797 N   0  0  0  0  0  0  0  0  0  0  0  0
   -2.6734   24.3256  -22.8430 O   0  0  0  0  0  0  0  0  0  0  0  0
   -5.6893   23.0851  -24.2761 C   0  0  0  0  0  0  0  0  0  0  0  0
   -5.7064   23.3134  -25.7724 C   0  0  0  0  0  0  0  0  0  0  0  0
   -5.9651   21.5770  -24.0668 C   0  0  0  0  0  0  0  0  0  0  0  0
   -6.7890   23.8708  -23.6536 C   0  0  0  0  0  0  0  0  0  0  0  0
 25 26  1  0  0  0
 26 17  1  0  0  0
 17 18  2  0  0  0
 18 19  1  0  0  0
 19 27  1  0  0  0
 27 28  1  0  0  0
 19 20  2  0  0  0
 20 21  1  0  0  0
 20 22  1  0  0  0
 22  1  1  0  0  0
  1  2  1  0  0  0
  2  3  1  0  0  0
  3  4  2  0  0  0
  4  5  1  0  0  0
  5  6  2  0  0  0
  6  7  1  0  0  0
  6  8  1  0  0  0
  8  9  2  0  0  0
  9 10  1  0  0  0
 10 11  1  0  0  0
 11 12  1  0  0  0
 10 13  1  0  0  0
 13 14  2  0  0  0
  8 29  1  0  0  0
 29 30  2  0  0  0
 30 31  1  0  0  0
 31 32  2  0  0  0
 32 33  1  0  0  0
 31 34  1  0  0  0
 34 35  1  0  0  0
 34 36  1  0  0  0
 34 37  1  0  0  0
 22 23  2  0  0  0
 23 24  1  0  0  0
 23 17  1  0  0  0
 13  1  1  0  0  0
 33 29  1  0  0  0
  9  3  1  0  0  0
 12 10  1  0  0  0
  7 15  1  0  0  0
  7 16  1  0  0  0
M  END
> <minimizedAffinity>
-6.82601

> <CNNscore>
0.0770806819

> <CNNaffinity>
6.3365964890

> <CNN_VS>
0.4884291887

> <CNNaffinity_variance>
0.0484814793

$$$$
[H]c1nc(N([H])[H])c(-c2nc(C(C([H])([H])[H])(C([H])([H])[H])C([H])([H])[H])no2)c2c1C([H])([H])N(c1c(Cl)c(OC([H])([H])[H])c([H])c(OC([H])([H])[H])c1Cl)C(=O)C21C([H])([H])C1([H])[H]


 37 41  0  0  0  0  0  0  0  0999 V2000
   -5.7043   22.4037  -21.0916 N   0  0  0  0  0  0  0  0  0  0  0  0
   -6.4163   21.1925  -20.7059 C   0  0  0  0  0  0  0  0  0  0  0  0
   -7.1896   21.4218  -19.4837 C   0  0  0  0  0  0  0  0  0  0  0  0
   -8.4110   20.7589  -19.3460 C   0  0  0  0  0  0  0  0  0  0  0  0
   -9.1070   20.9387  -18.2276 N   0  0  0  0  0  0  0  0  0  0  0  0
   -8.6622   21.7516  -17.2230 C   0  0  0  0  0  0  0  0  0  0  0  0
   -9.4287   21.9125  -16.0422 N   0  0  0  0  0  0  0  0  0  0  0  0
   -7.4592   22.4223  -17.3347 C   0  0  0  0  0  0  0  0  0  0  0  0
   -6.7099   22.2624  -18.4645 C   0  0  0  0  0  0  0  0  0  0  0  0
   -5.3890   22.7838  -18.6534 C   0  0  0  0  0  0  0  0  0  0  0  0
   -4.2251   22.9791  -17.8745 C   0  0  0  0  0  0  0  0  0  0  0  0
   -4.3540   21.5945  -18.4897 C   0  0  0  0  0  0  0  0  0  0  0  0
   -5.3344   23.3135  -20.0798 C   0  0  0  0  0  0  0  0  0  0  0  0
   -4.9782   24.4932  -20.3230 O   0  0  0  0  0  0  0  0  0  0  0  0
  -10.2715   22.4922  -16.0533 H   0  0  0  0  0  0  0  0  0  0  0  0
   -9.1487   21.4450  -15.1556 H   0  0  0  0  0  0  0  0  0  0  0  0
   -6.1353   23.4013  -24.6673 C   0  0  0  0  0  0  0  0  0  0  0  0
   -4.9584   22.9519  -25.2101 C   0  0  0  0  0  0  0  0  0  0  0  0
   -3.9948   22.3503  -24.4503 C   0  0  0  0  0  0  0  0  0  0  0  0
   -4.2480   22.2039  -23.0824 C   0  0  0  0  0  0  0  0  0  0  0  0
   -2.9618   21.4693  -22.1517 Cl  0  0  0  0  0  0  0  0  0  0  0  0
   -5.4070   22.6304  -22.4836 C   0  0  0  0  0  0  0  0  0  0  0  0
   -6.3485   23.2381  -23.3136 C   0  0  0  0  0  0  0  0  0  0  0  0
   -7.8356   23.8369  -22.6425 Cl  0  0  0  0  0  0  0  0  0  0  0  0
   -6.9715   25.2692  -26.0416 C   0  0  0  0  0  0  0  0  0  0  0  0
   -7.0985   24.0071  -25.4472 O   0  0  0  0  0  0  0  0  0  0  0  0
   -2.7992   21.8776  -24.9452 O   0  0  0  0  0  0  0  0  0  0  0  0
   -2.3844   22.0056  -26.2861 C   0  0  0  0  0  0  0  0  0  0  0  0
   -6.9196   23.2246  -16.2583 C   0  0  0  0  0  0  0  0  0  0  0  0
   -6.5325   22.6893  -15.0530 N   0  0  0  0  0  0  0  0  0  0  0  0
   -6.0589   23.6656  -14.2843 C   0  0  0  0  0  0  0  0  0  0  0  0
   -6.1587   24.8066  -15.0073 N   0  0  0  0  0  0  0  0  0  0  0  0
   -6.6643   24.4986  -16.1498 O   0  0  0  0  0  0  0  0  0  0  0  0
   -5.4585   23.5157  -12.9455 C   0  0  0  0  0  0  0  0  0  0  0  0
   -4.0599   22.9527  -13.0806 C   0  0  0  0  0  0  0  0  0  0  0  0
   -5.2957   24.9388  -12.3602 C   0  0  0  0  0  0  0  0  0  0  0  0
   -6.2262   22.6798  -11.9831 C   0  0  0  0  0  0  0  0  0  0  0  0
 25 26  1  0  0  0
 26 17  1  0  0  0
 17 18  2  0  0  0
 18 19  1  0  0  0
 19 27  1  0  0  0
 27 28  1  0  0  0
 19 20  2  0  0  0
 20 21  1  0  0  0
 20 22  1  0  0  0
 22  1  1  0  0  0
  1  2  1  0  0  0
  2  3  1  0  0  0
  3  4  2  0  0  0
  4  5  1  0  0  0
  5  6  2  0  0  0
  6  7  1  0  0  0
  6  8  1  0  0  0
  8  9  2  0  0  0
  9 10  1  0  0  0
 10 11  1  0  0  0
 11 12  1  0  0  0
 10 13  1  0  0  0
 13 14  2  0  0  0
  8 29  1  0  0  0
 29 30  2  0  0  0
 30 31  1  0  0  0
 31 32  2  0  0  0
 32 33  1  0  0  0
 31 34  1  0  0  0
 34 35  1  0  0  0
 34 36  1  0  0  0
 34 37  1  0  0  0
 22 23  2  0  0  0
 23 24  1  0  0  0
 23 17  1  0  0  0
 13  1  1  0  0  0
 33 29  1  0  0  0
  9  3  1  0  0  0
 12 10  1  0  0  0
  7 15  1  0  0  0
  7 16  1  0  0  0
M  END
> <minimizedAffinity>
-6.42957

> <CNNscore>
0.0638815090

> <CNNaffinity>
6.1189050674

> <CNN_VS>
0.3908848763

> <CNNaffinity_variance>
0.3431431949

$$$$
[H]c1nc(N([H])[H])c(-c2nc(C(C([H])([H])[H])(C([H])([H])[H])C([H])([H])[H])no2)c2c1C([H])([H])N(c1c(Cl)c(OC([H])([H])[H])c([H])c(OC([H])([H])[H])c1Cl)C(=O)C21C([H])([H])C1([H])[H]


 37 41  0  0  0  0  0  0  0  0999 V2000
   -6.0282   23.0271  -19.4367 N   0  0  0  0  0  0  0  0  0  0  0  0
   -6.3613   21.6443  -19.1210 C   0  0  0  0  0  0  0  0  0  0  0  0
   -7.1719   21.5793  -17.9033 C   0  0  0  0  0  0  0  0  0  0  0  0
   -8.1503   20.5864  -17.8185 C   0  0  0  0  0  0  0  0  0  0  0  0
   -8.8723   20.5017  -16.7054 N   0  0  0  0  0  0  0  0  0  0  0  0
   -8.6847   21.3569  -15.6559 C   0  0  0  0  0  0  0  0  0  0  0  0
   -9.4690   21.2306  -14.4826 N   0  0  0  0  0  0  0  0  0  0  0  0
   -7.7262   22.3506  -15.7147 C   0  0  0  0  0  0  0  0  0  0  0  0
   -6.9590   22.4704  -16.8374 C   0  0  0  0  0  0  0  0  0  0  0  0
   -5.8443   23.3593  -16.9781 C   0  0  0  0  0  0  0  0  0  0  0  0
   -4.7890   23.8426  -16.1704 C   0  0  0  0  0  0  0  0  0  0  0  0
   -4.5105   22.5123  -16.8522 C   0  0  0  0  0  0  0  0  0  0  0  0
   -5.9403   23.9530  -18.3769 C   0  0  0  0  0  0  0  0  0  0  0  0
   -5.9392   25.1960  -18.5580 O   0  0  0  0  0  0  0  0  0  0  0  0
  -10.4432   21.5425  -14.4814 H   0  0  0  0  0  0  0  0  0  0  0  0
   -9.0689   20.8199  -13.6141 H   0  0  0  0  0  0  0  0  0  0  0  0
   -6.7131   24.0926  -22.9526 C   0  0  0  0  0  0  0  0  0  0  0  0
   -5.4656   23.9771  -23.5110 C   0  0  0  0  0  0  0  0  0  0  0  0
   -4.3791   23.5871  -22.7793 C   0  0  0  0  0  0  0  0  0  0  0  0
   -4.5800   23.3047  -21.4240 C   0  0  0  0  0  0  0  0  0  0  0  0
   -3.1472   22.8552  -20.5269 Cl  0  0  0  0  0  0  0  0  0  0  0  0
   -5.8043   23.3993  -20.8110 C   0  0  0  0  0  0  0  0  0  0  0  0
   -6.8712   23.8047  -21.6122 C   0  0  0  0  0  0  0  0  0  0  0  0
   -8.4554   23.9815  -20.9197 Cl  0  0  0  0  0  0  0  0  0  0  0  0
   -7.7570   24.8169  -25.0652 C   0  0  0  0  0  0  0  0  0  0  0  0
   -7.8003   24.4879  -23.7042 O   0  0  0  0  0  0  0  0  0  0  0  0
   -3.1073   23.4508  -23.2910 O   0  0  0  0  0  0  0  0  0  0  0  0
   -2.7585   22.5747  -24.3385 C   0  0  0  0  0  0  0  0  0  0  0  0
   -7.4450   23.2195  -14.5924 C   0  0  0  0  0  0  0  0  0  0  0  0
   -6.7704   22.7944  -13.4730 N   0  0  0  0  0  0  0  0  0  0  0  0
   -6.6458   23.8189  -12.6344 C   0  0  0  0  0  0  0  0  0  0  0  0
   -7.2488   24.8766  -13.2278 N   0  0  0  0  0  0  0  0  0  0  0  0
   -7.6976   24.4784  -14.3661 O   0  0  0  0  0  0  0  0  0  0  0  0
   -5.9134   23.8213  -11.3541 C   0  0  0  0  0  0  0  0  0  0  0  0
   -5.7653   22.3996  -10.8558 C   0  0  0  0  0  0  0  0  0  0  0  0
   -4.4812   24.3250  -11.6527 C   0  0  0  0  0  0  0  0  0  0  0  0
   -6.5056   24.6544  -10.2727 C   0  0  0  0  0  0  0  0  0  0  0  0
 25 26  1  0  0  0
 26 17  1  0  0  0
 17 18  2  0  0  0
 18 19  1  0  0  0
 19 27  1  0  0  0
 27 28  1  0  0  0
 19 20  2  0  0  0
 20 21  1  0  0  0
 20 22  1  0  0  0
 22  1  1  0  0  0
  1  2  1  0  0  0
  2  3  1  0  0  0
  3  4  2  0  0  0
  4  5  1  0  0  0
  5  6  2  0  0  0
  6  7  1  0  0  0
  6  8  1  0  0  0
  8  9  2  0  0  0
  9 10  1  0  0  0
 10 11  1  0  0  0
 11 12  1  0  0  0
 10 13  1  0  0  0
 13 14  2  0  0  0
  8 29  1  0  0  0
 29 30  2  0  0  0
 30 31  1  0  0  0
 31 32  2  0  0  0
 32 33  1  0  0  0
 31 34  1  0  0  0
 34 35  1  0  0  0
 34 36  1  0  0  0
 34 37  1  0  0  0
 22 23  2  0  0  0
 23 24  1  0  0  0
 23 17  1  0  0  0
 13  1  1  0  0  0
 33 29  1  0  0  0
  9  3  1  0  0  0
 12 10  1  0  0  0
  7 15  1  0  0  0
  7 16  1  0  0  0
M  END
> <minimizedAffinity>
-6.03522

> <CNNscore>
0.0620827526

> <CNNaffinity>
5.8880553246

> <CNN_VS>
0.3655466735

> <CNNaffinity_variance>
0.2458990514

$$$$
[H]c1nc(N([H])[H])c2c(-c3sc4c(C(=O)OC([H])([H])[H])c([H])c([H])c([H])c4c3[H])c(C([H])([H])N3C([H])([H])C(=O)N([H])C([H])([H])C3([H])[H])c(C([H])([H])N3C([H])([H])C([H])([H])N([H])C([H])([H])C3([H])[H])n2n1


 42 47  0  0  0  0  0  0  0  0999 V2000
   -1.7864   22.3359  -24.9930 C   0  0  0  0  0  0  0  0  0  0  0  0
   -3.2101   22.4820  -25.0084 C   0  0  0  0  0  0  0  0  0  0  0  0
   -3.5824   22.8517  -26.2780 C   0  0  0  0  0  0  0  0  0  0  0  0
   -2.4546   22.9376  -27.0486 N   0  0  0  0  0  0  0  0  0  0  0  0
   -2.2604   23.2013  -28.3253 N   0  0  0  0  0  0  0  0  0  0  0  0
   -1.0854   23.1919  -28.9581 C   0  0  0  0  0  0  0  0  0  0  0  0
   -0.0168   22.8858  -28.2247 N   0  0  0  0  0  0  0  0  0  0  0  0
   -0.1732   22.6034  -26.8914 C   0  0  0  0  0  0  0  0  0  0  0  0
    1.0016   22.2148  -26.2090 N   0  0  0  0  0  0  0  0  0  0  0  0
   -1.3933   22.6219  -26.2605 C   0  0  0  0  0  0  0  0  0  0  0  0
    1.1212   21.2103  -25.9538 H   0  0  0  0  0  0  0  0  0  0  0  0
    1.7729   22.8617  -25.9349 H   0  0  0  0  0  0  0  0  0  0  0  0
    1.7612   20.5451  -21.2419 C   0  0  0  0  0  0  0  0  0  0  0  0
    1.4990   20.0896  -19.9773 C   0  0  0  0  0  0  0  0  0  0  0  0
    0.1852   20.1053  -19.5698 C   0  0  0  0  0  0  0  0  0  0  0  0
   -0.8176   20.5525  -20.3827 C   0  0  0  0  0  0  0  0  0  0  0  0
   -0.5727   21.0251  -21.6857 C   0  0  0  0  0  0  0  0  0  0  0  0
   -1.4731   21.4879  -22.5762 C   0  0  0  0  0  0  0  0  0  0  0  0
   -1.0315   21.9048  -23.7988 C   0  0  0  0  0  0  0  0  0  0  0  0
    0.6705   21.6231  -23.6545 S   0  0  0  0  0  0  0  0  0  0  0  0
    0.7322   21.0042  -22.0763 C   0  0  0  0  0  0  0  0  0  0  0  0
    3.0998   20.5912  -21.8128 C   0  0  0  0  0  0  0  0  0  0  0  0
    3.9244   21.4885  -21.5313 O   0  0  0  0  0  0  0  0  0  0  0  0
    3.7298   18.2671  -22.3520 C   0  0  0  0  0  0  0  0  0  0  0  0
    3.4734   19.6121  -22.6945 O   0  0  0  0  0  0  0  0  0  0  0  0
   -3.9991   22.3319  -23.7958 C   0  0  0  0  0  0  0  0  0  0  0  0
   -4.2012   23.4566  -23.0002 N   0  0  0  0  0  0  0  0  0  0  0  0
   -3.9551   24.7463  -23.5552 C   0  0  0  0  0  0  0  0  0  0  0  0
   -5.2470   25.4398  -23.9906 C   0  0  0  0  0  0  0  0  0  0  0  0
   -5.9548   25.7420  -22.7421 N   0  0  0  0  0  0  0  0  0  0  0  0
   -5.7477   24.7993  -21.6856 C   0  0  0  0  0  0  0  0  0  0  0  0
   -5.9145   25.1196  -20.4886 O   0  0  0  0  0  0  0  0  0  0  0  0
   -5.3250   23.4294  -22.1156 C   0  0  0  0  0  0  0  0  0  0  0  0
   -6.5611   26.5616  -22.6055 H   0  0  0  0  0  0  0  0  0  0  0  0
   -4.9275   23.0332  -26.8635 C   0  0  0  0  0  0  0  0  0  0  0  0
   -4.9322   23.9098  -28.0491 N   0  0  0  0  0  0  0  0  0  0  0  0
   -5.6939   25.1230  -27.7821 C   0  0  0  0  0  0  0  0  0  0  0  0
   -5.7009   25.9665  -29.0168 C   0  0  0  0  0  0  0  0  0  0  0  0
   -6.0866   25.2754  -30.2069 N   0  0  0  0  0  0  0  0  0  0  0  0
   -5.5081   23.9632  -30.3465 C   0  0  0  0  0  0  0  0  0  0  0  0
   -5.6769   23.1691  -29.0669 C   0  0  0  0  0  0  0  0  0  0  0  0
   -7.0971   25.2509  -30.3718 H   0  0  0  0  0  0  0  0  0  0  0  0
 24 25  1  0  0  0
 25 22  1  0  0  0
 22 23  2  0  0  0
 22 13  1  0  0  0
 13 14  2  0  0  0
 14 15  1  0  0  0
 15 16  2  0  0  0
 16 17  1  0  0  0
 17 18  1  0  0  0
 18 19  2  0  0  0
 19 20  1  0  0  0
 20 21  1  0  0  0
 19  1  1  0  0  0
  1  2  1  0  0  0
  2 26  1  0  0  0
 26 27  1  0  0  0
 27 28  1  0  0  0
 28 29  1  0  0  0
 29 30  1  0  0  0
 30 31  1  0  0  0
 31 32  2  0  0  0
 31 33  1  0  0  0
  2  3  2  0  0  0
  3 35  1  0  0  0
 35 36  1  0  0  0
 36 37  1  0  0  0
 37 38  1  0  0  0
 38 39  1  0  0  0
 39 40  1  0  0  0
 40 41  1  0  0  0
  3  4  1  0  0  0
  4  5  1  0  0  0
  5  6  2  0  0  0
  6  7  1  0  0  0
  7  8  2  0  0  0
  8  9  1  0  0  0
  8 10  1  0  0  0
 21 13  1  0  0  0
 10  1  2  0  0  0
 21 17  2  0  0  0
 33 27  1  0  0  0
 41 36  1  0  0  0
 10  4  1  0  0  0
 30 34  1  0  0  0
 39 42  1  0  0  0
  9 11  1  0  0  0
  9 12  1  0  0  0
M  END
> <minimizedAffinity>
-9.73844

> <CNNscore>
0.8746328354

> <CNNaffinity>
7.7821350098

> <CNN_VS>
6.8065109253

> <CNNaffinity_variance>
0.0647463351

$$$$
[H]c1nc(N([H])[H])c2c(-c3sc4c(C(=O)OC([H])([H])[H])c([H])c([H])c([H])c4c3[H])c(C([H])([H])N3C([H])([H])C(=O)N([H])C([H])([H])C3([H])[H])c(C([H])([H])N3C([H])([H])C([H])([H])N([H])C([H])([H])C3([H])[H])n2n1


 42 47  0  0  0  0  0  0  0  0999 V2000
   -1.9168   22.6442  -24.7785 C   0  0  0  0  0  0  0  0  0  0  0  0
   -3.2997   22.5990  -25.1444 C   0  0  0  0  0  0  0  0  0  0  0  0
   -3.3809   22.7536  -26.5070 C   0  0  0  0  0  0  0  0  0  0  0  0
   -2.1115   22.8891  -27.0003 N   0  0  0  0  0  0  0  0  0  0  0  0
   -1.6343   23.0131  -28.2227 N   0  0  0  0  0  0  0  0  0  0  0  0
   -0.3442   23.0783  -28.5581 C   0  0  0  0  0  0  0  0  0  0  0  0
    0.5345   23.0100  -27.5598 N   0  0  0  0  0  0  0  0  0  0  0  0
    0.0817   22.8797  -26.2713 C   0  0  0  0  0  0  0  0  0  0  0  0
    1.0834   22.7378  -25.2848 N   0  0  0  0  0  0  0  0  0  0  0  0
   -1.2523   22.8173  -25.9496 C   0  0  0  0  0  0  0  0  0  0  0  0
    1.2331   21.7980  -24.8574 H   0  0  0  0  0  0  0  0  0  0  0  0
    1.6965   23.5098  -24.9430 H   0  0  0  0  0  0  0  0  0  0  0  0
   -0.0607   21.0118  -19.9048 C   0  0  0  0  0  0  0  0  0  0  0  0
   -0.1831   21.6445  -18.6964 C   0  0  0  0  0  0  0  0  0  0  0  0
   -0.8253   22.8610  -18.6928 C   0  0  0  0  0  0  0  0  0  0  0  0
   -1.3211   23.4191  -19.8370 C   0  0  0  0  0  0  0  0  0  0  0  0
   -1.2072   22.7881  -21.0900 C   0  0  0  0  0  0  0  0  0  0  0  0
   -1.6540   23.2359  -22.2807 C   0  0  0  0  0  0  0  0  0  0  0  0
   -1.4422   22.4698  -23.3907 C   0  0  0  0  0  0  0  0  0  0  0  0
   -0.6078   21.1149  -22.7088 S   0  0  0  0  0  0  0  0  0  0  0  0
   -0.5693   21.5845  -21.0793 C   0  0  0  0  0  0  0  0  0  0  0  0
    0.5941   19.7216  -20.0683 C   0  0  0  0  0  0  0  0  0  0  0  0
    1.8208   19.6086  -20.2845 O   0  0  0  0  0  0  0  0  0  0  0  0
    0.1716   17.3411  -20.5615 C   0  0  0  0  0  0  0  0  0  0  0  0
   -0.1629   18.5836  -19.9816 O   0  0  0  0  0  0  0  0  0  0  0  0
   -4.3455   22.5007  -24.1383 C   0  0  0  0  0  0  0  0  0  0  0  0
   -5.3462   23.4687  -24.1342 N   0  0  0  0  0  0  0  0  0  0  0  0
   -6.4991   23.2644  -23.3212 C   0  0  0  0  0  0  0  0  0  0  0  0
   -6.4256   24.0524  -22.0123 C   0  0  0  0  0  0  0  0  0  0  0  0
   -6.5411   25.4595  -22.4096 N   0  0  0  0  0  0  0  0  0  0  0  0
   -5.9790   25.7758  -23.6871 C   0  0  0  0  0  0  0  0  0  0  0  0
   -6.3581   26.7771  -24.3326 O   0  0  0  0  0  0  0  0  0  0  0  0
   -4.9245   24.8348  -24.1799 C   0  0  0  0  0  0  0  0  0  0  0  0
   -6.9869   26.1873  -21.8355 H   0  0  0  0  0  0  0  0  0  0  0  0
   -4.5506   22.6819  -27.4078 C   0  0  0  0  0  0  0  0  0  0  0  0
   -4.7678   23.9198  -28.1787 N   0  0  0  0  0  0  0  0  0  0  0  0
   -5.7127   24.7893  -27.4898 C   0  0  0  0  0  0  0  0  0  0  0  0
   -5.9290   26.0149  -28.3185 C   0  0  0  0  0  0  0  0  0  0  0  0
   -6.2505   25.7582  -29.6872 N   0  0  0  0  0  0  0  0  0  0  0  0
   -5.4621   24.7185  -30.2983 C   0  0  0  0  0  0  0  0  0  0  0  0
   -5.4249   23.4895  -29.4124 C   0  0  0  0  0  0  0  0  0  0  0  0
   -7.2487   25.6158  -29.8666 H   0  0  0  0  0  0  0  0  0  0  0  0
 24 25  1  0  0  0
 25 22  1  0  0  0
 22 23  2  0  0  0
 22 13  1  0  0  0
 13 14  2  0  0  0
 14 15  1  0  0  0
 15 16  2  0  0  0
 16 17  1  0  0  0
 17 18  1  0  0  0
 18 19  2  0  0  0
 19 20  1  0  0  0
 20 21  1  0  0  0
 19  1  1  0  0  0
  1  2  1  0  0  0
  2 26  1  0  0  0
 26 27  1  0  0  0
 27 28  1  0  0  0
 28 29  1  0  0  0
 29 30  1  0  0  0
 30 31  1  0  0  0
 31 32  2  0  0  0
 31 33  1  0  0  0
  2  3  2  0  0  0
  3 35  1  0  0  0
 35 36  1  0  0  0
 36 37  1  0  0  0
 37 38  1  0  0  0
 38 39  1  0  0  0
 39 40  1  0  0  0
 40 41  1  0  0  0
  3  4  1  0  0  0
  4  5  1  0  0  0
  5  6  2  0  0  0
  6  7  1  0  0  0
  7  8  2  0  0  0
  8  9  1  0  0  0
  8 10  1  0  0  0
 21 13  1  0  0  0
 10  1  2  0  0  0
 21 17  2  0  0  0
 33 27  1  0  0  0
 41 36  1  0  0  0
 10  4  1  0  0  0
 30 34  1  0  0  0
 39 42  1  0  0  0
  9 11  1  0  0  0
  9 12  1  0  0  0
M  END
> <minimizedAffinity>
-9.15485

> <CNNscore>
0.8130632639

> <CNNaffinity>
7.7293767929

> <CNN_VS>
6.2844724655

> <CNNaffinity_variance>
0.1167816892

$$$$
[H]c1nc(N([H])[H])c2c(-c3sc4c(C(=O)OC([H])([H])[H])c([H])c([H])c([H])c4c3[H])c(C([H])([H])N3C([H])([H])C(=O)N([H])C([H])([H])C3([H])[H])c(C([H])([H])N3C([H])([H])C([H])([H])N([H])C([H])([H])C3([H])[H])n2n1


 42 47  0  0  0  0  0  0  0  0999 V2000
   -1.6985   22.0771  -24.2963 C   0  0  0  0  0  0  0  0  0  0  0  0
   -3.0821   22.1955  -24.6427 C   0  0  0  0  0  0  0  0  0  0  0  0
   -3.1566   22.5409  -25.9702 C   0  0  0  0  0  0  0  0  0  0  0  0
   -1.8827   22.6382  -26.4609 N   0  0  0  0  0  0  0  0  0  0  0  0
   -1.4026   22.8886  -27.6626 N   0  0  0  0  0  0  0  0  0  0  0  0
   -0.1132   22.8933  -28.0067 C   0  0  0  0  0  0  0  0  0  0  0  0
    0.7615   22.6176  -27.0412 N   0  0  0  0  0  0  0  0  0  0  0  0
    0.3055   22.3501  -25.7752 C   0  0  0  0  0  0  0  0  0  0  0  0
    1.2966   21.9933  -24.8333 N   0  0  0  0  0  0  0  0  0  0  0  0
   -1.0275   22.3536  -25.4436 C   0  0  0  0  0  0  0  0  0  0  0  0
    1.3697   20.9949  -24.5399 H   0  0  0  0  0  0  0  0  0  0  0  0
    1.9735   22.6586  -24.3998 H   0  0  0  0  0  0  0  0  0  0  0  0
    0.2089   21.5958  -19.1980 C   0  0  0  0  0  0  0  0  0  0  0  0
    0.6908   20.4749  -18.5761 C   0  0  0  0  0  0  0  0  0  0  0  0
    0.6729   19.3051  -19.2997 C   0  0  0  0  0  0  0  0  0  0  0  0
    0.1984   19.2552  -20.5798 C   0  0  0  0  0  0  0  0  0  0  0  0
   -0.3017   20.3935  -21.2396 C   0  0  0  0  0  0  0  0  0  0  0  0
   -0.7926   20.4691  -22.4930 C   0  0  0  0  0  0  0  0  0  0  0  0
   -1.2335   21.6765  -22.9528 C   0  0  0  0  0  0  0  0  0  0  0  0
   -0.9336   22.6879  -21.5801 S   0  0  0  0  0  0  0  0  0  0  0  0
   -0.2783   21.5448  -20.5118 C   0  0  0  0  0  0  0  0  0  0  0  0
    0.1615   22.9045  -18.5615 C   0  0  0  0  0  0  0  0  0  0  0  0
   -0.8349   23.6568  -18.6356 O   0  0  0  0  0  0  0  0  0  0  0  0
    2.5205   23.6114  -18.4040 C   0  0  0  0  0  0  0  0  0  0  0  0
    1.2523   23.3310  -17.8516 O   0  0  0  0  0  0  0  0  0  0  0  0
   -4.1277   22.0465  -23.6426 C   0  0  0  0  0  0  0  0  0  0  0  0
   -4.6974   23.2004  -23.1110 N   0  0  0  0  0  0  0  0  0  0  0  0
   -3.8644   24.3317  -22.8696 C   0  0  0  0  0  0  0  0  0  0  0  0
   -3.9882   25.3819  -23.9747 C   0  0  0  0  0  0  0  0  0  0  0  0
   -5.3425   25.9263  -23.8308 N   0  0  0  0  0  0  0  0  0  0  0  0
   -6.3209   24.9970  -23.3543 C   0  0  0  0  0  0  0  0  0  0  0  0
   -7.3660   25.3878  -22.7903 O   0  0  0  0  0  0  0  0  0  0  0  0
   -6.0026   23.5519  -23.5788 C   0  0  0  0  0  0  0  0  0  0  0  0
   -5.6006   26.8981  -24.0477 H   0  0  0  0  0  0  0  0  0  0  0  0
   -4.3325   22.6888  -26.8536 C   0  0  0  0  0  0  0  0  0  0  0  0
   -4.5413   24.0728  -27.3171 N   0  0  0  0  0  0  0  0  0  0  0  0
   -5.9159   24.4897  -27.0722 C   0  0  0  0  0  0  0  0  0  0  0  0
   -6.0932   25.8831  -27.5850 C   0  0  0  0  0  0  0  0  0  0  0  0
   -5.6438   26.0846  -28.9267 N   0  0  0  0  0  0  0  0  0  0  0  0
   -4.3818   25.4596  -29.2313 C   0  0  0  0  0  0  0  0  0  0  0  0
   -4.3785   24.0163  -28.7695 C   0  0  0  0  0  0  0  0  0  0  0  0
   -6.3432   25.8684  -29.6429 H   0  0  0  0  0  0  0  0  0  0  0  0
 24 25  1  0  0  0
 25 22  1  0  0  0
 22 23  2  0  0  0
 22 13  1  0  0  0
 13 14  2  0  0  0
 14 15  1  0  0  0
 15 16  2  0  0  0
 16 17  1  0  0  0
 17 18  1  0  0  0
 18 19  2  0  0  0
 19 20  1  0  0  0
 20 21  1  0  0  0
 19  1  1  0  0  0
  1  2  1  0  0  0
  2 26  1  0  0  0
 26 27  1  0  0  0
 27 28  1  0  0  0
 28 29  1  0  0  0
 29 30  1  0  0  0
 30 31  1  0  0  0
 31 32  2  0  0  0
 31 33  1  0  0  0
  2  3  2  0  0  0
  3 35  1  0  0  0
 35 36  1  0  0  0
 36 37  1  0  0  0
 37 38  1  0  0  0
 38 39  1  0  0  0
 39 40  1  0  0  0
 40 41  1  0  0  0
  3  4  1  0  0  0
  4  5  1  0  0  0
  5  6  2  0  0  0
  6  7  1  0  0  0
  7  8  2  0  0  0
  8  9  1  0  0  0
  8 10  1  0  0  0
 21 13  1  0  0  0
 10  1  2  0  0  0
 21 17  2  0  0  0
 33 27  1  0  0  0
 41 36  1  0  0  0
 10  4  1  0  0  0
 30 34  1  0  0  0
 39 42  1  0  0  0
  9 11  1  0  0  0
  9 12  1  0  0  0
M  END
> <minimizedAffinity>
-8.88837

> <CNNscore>
0.7754559517

> <CNNaffinity>
7.6958694458

> <CNN_VS>
5.9678077698

> <CNNaffinity_variance>
0.0286337882

$$$$
[H]c1nc(N([H])[H])c2c(-c3sc4c(C(=O)OC([H])([H])[H])c([H])c([H])c([H])c4c3[H])c(C([H])([H])N3C([H])([H])C(=O)N([H])C([H])([H])C3([H])[H])c(C([H])([H])N3C([H])([H])C([H])([H])N([H])C([H])([H])C3([H])[H])n2n1


 42 47  0  0  0  0  0  0  0  0999 V2000
   -1.9548   22.2858  -24.9487 C   0  0  0  0  0  0  0  0  0  0  0  0
   -3.3106   22.2754  -25.4072 C   0  0  0  0  0  0  0  0  0  0  0  0
   -3.3062   22.5926  -26.7439 C   0  0  0  0  0  0  0  0  0  0  0  0
   -2.0099   22.7953  -27.1331 N   0  0  0  0  0  0  0  0  0  0  0  0
   -1.4570   23.0690  -28.2979 N   0  0  0  0  0  0  0  0  0  0  0  0
   -0.1492   23.1831  -28.5377 C   0  0  0  0  0  0  0  0  0  0  0  0
    0.6645   23.0010  -27.4993 N   0  0  0  0  0  0  0  0  0  0  0  0
    0.1318   22.7133  -26.2683 C   0  0  0  0  0  0  0  0  0  0  0  0
    1.0700   22.4605  -25.2423 N   0  0  0  0  0  0  0  0  0  0  0  0
   -1.2191   22.6033  -26.0445 C   0  0  0  0  0  0  0  0  0  0  0  0
    1.2058   21.4771  -24.9217 H   0  0  0  0  0  0  0  0  0  0  0  0
    1.6484   23.1898  -24.7710 H   0  0  0  0  0  0  0  0  0  0  0  0
   -0.5656   22.0518  -19.6688 C   0  0  0  0  0  0  0  0  0  0  0  0
    0.0688   21.0364  -19.0038 C   0  0  0  0  0  0  0  0  0  0  0  0
    0.3769   19.9116  -19.7333 C   0  0  0  0  0  0  0  0  0  0  0  0
    0.0681   19.8042  -21.0598 C   0  0  0  0  0  0  0  0  0  0  0  0
   -0.5834   20.8340  -21.7642 C   0  0  0  0  0  0  0  0  0  0  0  0
   -0.9373   20.8452  -23.0652 C   0  0  0  0  0  0  0  0  0  0  0  0
   -1.5679   21.9487  -23.5636 C   0  0  0  0  0  0  0  0  0  0  0  0
   -1.6407   22.9569  -22.1582 S   0  0  0  0  0  0  0  0  0  0  0  0
   -0.8826   21.9419  -21.0301 C   0  0  0  0  0  0  0  0  0  0  0  0
   -0.9566   23.3016  -19.0323 C   0  0  0  0  0  0  0  0  0  0  0  0
   -0.2720   24.3452  -19.1143 O   0  0  0  0  0  0  0  0  0  0  0  0
   -3.2246   22.4798  -18.5131 C   0  0  0  0  0  0  0  0  0  0  0  0
   -2.1220   23.3380  -18.3139 O   0  0  0  0  0  0  0  0  0  0  0  0
   -4.4173   22.0493  -24.4909 C   0  0  0  0  0  0  0  0  0  0  0  0
   -5.3181   23.0897  -24.2795 N   0  0  0  0  0  0  0  0  0  0  0  0
   -6.3297   22.9341  -23.2874 C   0  0  0  0  0  0  0  0  0  0  0  0
   -5.9698   23.6485  -21.9836 C   0  0  0  0  0  0  0  0  0  0  0  0
   -6.0326   25.0782  -22.3046 N   0  0  0  0  0  0  0  0  0  0  0  0
   -5.6704   25.4134  -23.6479 C   0  0  0  0  0  0  0  0  0  0  0  0
   -6.0681   26.4715  -24.1820 O   0  0  0  0  0  0  0  0  0  0  0  0
   -4.7972   24.4201  -24.3486 C   0  0  0  0  0  0  0  0  0  0  0  0
   -6.3122   25.8086  -21.6365 H   0  0  0  0  0  0  0  0  0  0  0  0
   -4.4145   22.6218  -27.7216 C   0  0  0  0  0  0  0  0  0  0  0  0
   -4.6845   23.9698  -28.2544 N   0  0  0  0  0  0  0  0  0  0  0  0
   -5.7818   24.5943  -27.5269 C   0  0  0  0  0  0  0  0  0  0  0  0
   -6.0438   25.9424  -28.1183 C   0  0  0  0  0  0  0  0  0  0  0  0
   -6.1965   25.9489  -29.5393 N   0  0  0  0  0  0  0  0  0  0  0  0
   -5.2436   25.1290  -30.2435 C   0  0  0  0  0  0  0  0  0  0  0  0
   -5.1641   23.7507  -29.6186 C   0  0  0  0  0  0  0  0  0  0  0  0
   -7.1505   25.7628  -29.8620 H   0  0  0  0  0  0  0  0  0  0  0  0
 24 25  1  0  0  0
 25 22  1  0  0  0
 22 23  2  0  0  0
 22 13  1  0  0  0
 13 14  2  0  0  0
 14 15  1  0  0  0
 15 16  2  0  0  0
 16 17  1  0  0  0
 17 18  1  0  0  0
 18 19  2  0  0  0
 19 20  1  0  0  0
 20 21  1  0  0  0
 19  1  1  0  0  0
  1  2  1  0  0  0
  2 26  1  0  0  0
 26 27  1  0  0  0
 27 28  1  0  0  0
 28 29  1  0  0  0
 29 30  1  0  0  0
 30 31  1  0  0  0
 31 32  2  0  0  0
 31 33  1  0  0  0
  2  3  2  0  0  0
  3 35  1  0  0  0
 35 36  1  0  0  0
 36 37  1  0  0  0
 37 38  1  0  0  0
 38 39  1  0  0  0
 39 40  1  0  0  0
 40 41  1  0  0  0
  3  4  1  0  0  0
  4  5  1  0  0  0
  5  6  2  0  0  0
  6  7  1  0  0  0
  7  8  2  0  0  0
  8  9  1  0  0  0
  8 10  1  0  0  0
 21 13  1  0  0  0
 10  1  2  0  0  0
 21 17  2  0  0  0
 33 27  1  0  0  0
 41 36  1  0  0  0
 10  4  1  0  0  0
 30 34  1  0  0  0
 39 42  1  0  0  0
  9 11  1  0  0  0
  9 12  1  0  0  0
M  END
> <minimizedAffinity>
-9.56467

> <CNNscore>
0.7728930712

> <CNNaffinity>
7.6446800232

> <CNN_VS>
5.9085202217

> <CNNaffinity_variance>
0.1461053044

$$$$
[H]c1nc(N([H])[H])c2c(-c3sc4c(C(=O)OC([H])([H])[H])c([H])c([H])c([H])c4c3[H])c(C([H])([H])N3C([H])([H])C(=O)N([H])C([H])([H])C3([H])[H])c(C([H])([H])N3C([H])([H])C([H])([H])N([H])C([H])([H])C3([H])[H])n2n1


 42 47  0  0  0  0  0  0  0  0999 V2000
   -1.4596   22.4797  -23.2430 C   0  0  0  0  0  0  0  0  0  0  0  0
   -2.8123   22.9324  -23.3606 C   0  0  0  0  0  0  0  0  0  0  0  0
   -3.0667   23.1601  -24.6912 C   0  0  0  0  0  0  0  0  0  0  0  0
   -1.9345   22.8658  -25.4016 N   0  0  0  0  0  0  0  0  0  0  0  0
   -1.6612   22.8651  -26.6910 N   0  0  0  0  0  0  0  0  0  0  0  0
   -0.5075   22.4915  -27.2479 C   0  0  0  0  0  0  0  0  0  0  0  0
    0.4495   22.0822  -26.4172 N   0  0  0  0  0  0  0  0  0  0  0  0
    0.2077   22.0659  -25.0668 C   0  0  0  0  0  0  0  0  0  0  0  0
    1.2503   21.5454  -24.2675 N   0  0  0  0  0  0  0  0  0  0  0  0
   -0.9879   22.4579  -24.5158 C   0  0  0  0  0  0  0  0  0  0  0  0
    1.1336   20.5958  -23.8516 H   0  0  0  0  0  0  0  0  0  0  0  0
    2.1432   22.0419  -24.0556 H   0  0  0  0  0  0  0  0  0  0  0  0
    0.5884   20.1010  -18.7698 C   0  0  0  0  0  0  0  0  0  0  0  0
    0.8385   20.6673  -17.5482 C   0  0  0  0  0  0  0  0  0  0  0  0
    0.5755   22.0114  -17.4195 C   0  0  0  0  0  0  0  0  0  0  0  0
    0.0874   22.7542  -18.4571 C   0  0  0  0  0  0  0  0  0  0  0  0
   -0.1772   22.1946  -19.7212 C   0  0  0  0  0  0  0  0  0  0  0  0
   -0.6573   22.8208  -20.8144 C   0  0  0  0  0  0  0  0  0  0  0  0
   -0.8453   22.0958  -21.9558 C   0  0  0  0  0  0  0  0  0  0  0  0
   -0.3336   20.5236  -21.4425 S   0  0  0  0  0  0  0  0  0  0  0  0
    0.0876   20.8631  -19.8348 C   0  0  0  0  0  0  0  0  0  0  0  0
    0.8178   18.6926  -19.0592 C   0  0  0  0  0  0  0  0  0  0  0  0
    1.9501   18.2325  -19.3247 O   0  0  0  0  0  0  0  0  0  0  0  0
   -0.3920   16.6993  -19.8667 C   0  0  0  0  0  0  0  0  0  0  0  0
   -0.2493   17.8344  -19.0402 O   0  0  0  0  0  0  0  0  0  0  0  0
   -3.6376   23.1632  -22.1854 C   0  0  0  0  0  0  0  0  0  0  0  0
   -4.6002   22.2109  -21.8613 N   0  0  0  0  0  0  0  0  0  0  0  0
   -4.3815   21.3664  -20.7340 C   0  0  0  0  0  0  0  0  0  0  0  0
   -5.1569   21.8394  -19.5033 C   0  0  0  0  0  0  0  0  0  0  0  0
   -6.5672   21.6038  -19.8298 N   0  0  0  0  0  0  0  0  0  0  0  0
   -6.8993   21.7427  -21.2148 C   0  0  0  0  0  0  0  0  0  0  0  0
   -7.9049   21.1805  -21.7003 O   0  0  0  0  0  0  0  0  0  0  0  0
   -5.9689   22.5950  -22.0199 C   0  0  0  0  0  0  0  0  0  0  0  0
   -7.2869   21.3559  -19.1378 H   0  0  0  0  0  0  0  0  0  0  0  0
   -4.3240   23.5353  -25.3721 C   0  0  0  0  0  0  0  0  0  0  0  0
   -4.9385   24.7591  -24.8254 N   0  0  0  0  0  0  0  0  0  0  0  0
   -6.3907   24.6391  -24.8165 C   0  0  0  0  0  0  0  0  0  0  0  0
   -6.9738   25.9100  -24.2868 C   0  0  0  0  0  0  0  0  0  0  0  0
   -6.4819   27.0965  -24.9136 N   0  0  0  0  0  0  0  0  0  0  0  0
   -5.0586   27.1045  -25.1374 C   0  0  0  0  0  0  0  0  0  0  0  0
   -4.6160   25.8102  -25.7898 C   0  0  0  0  0  0  0  0  0  0  0  0
   -6.9887   27.3669  -25.7615 H   0  0  0  0  0  0  0  0  0  0  0  0
 24 25  1  0  0  0
 25 22  1  0  0  0
 22 23  2  0  0  0
 22 13  1  0  0  0
 13 14  2  0  0  0
 14 15  1  0  0  0
 15 16  2  0  0  0
 16 17  1  0  0  0
 17 18  1  0  0  0
 18 19  2  0  0  0
 19 20  1  0  0  0
 20 21  1  0  0  0
 19  1  1  0  0  0
  1  2  1  0  0  0
  2 26  1  0  0  0
 26 27  1  0  0  0
 27 28  1  0  0  0
 28 29  1  0  0  0
 29 30  1  0  0  0
 30 31  1  0  0  0
 31 32  2  0  0  0
 31 33  1  0  0  0
  2  3  2  0  0  0
  3 35  1  0  0  0
 35 36  1  0  0  0
 36 37  1  0  0  0
 37 38  1  0  0  0
 38 39  1  0  0  0
 39 40  1  0  0  0
 40 41  1  0  0  0
  3  4  1  0  0  0
  4  5  1  0  0  0
  5  6  2  0  0  0
  6  7  1  0  0  0
  7  8  2  0  0  0
  8  9  1  0  0  0
  8 10  1  0  0  0
 21 13  1  0  0  0
 10  1  2  0  0  0
 21 17  2  0  0  0
 33 27  1  0  0  0
 41 36  1  0  0  0
 10  4  1  0  0  0
 30 34  1  0  0  0
 39 42  1  0  0  0
  9 11  1  0  0  0
  9 12  1  0  0  0
M  END
> <minimizedAffinity>
-7.92848

> <CNNscore>
0.5695997477

> <CNNaffinity>
7.2108716965

> <CNN_VS>
4.1073107719

> <CNNaffinity_variance>
0.0230341814

$$$$
[H]c1nc(N([H])[H])c2c(-c3sc4c(C(=O)OC([H])([H])[H])c([H])c([H])c([H])c4c3[H])c(C([H])([H])N3C([H])([H])C(=O)N([H])C([H])([H])C3([H])[H])c(C([H])([H])N3C([H])([H])C([H])([H])N([H])C([H])([H])C3([H])[H])n2n1


 42 47  0  0  0  0  0  0  0  0999 V2000
   -1.8101   22.1800  -24.0403 C   0  0  0  0  0  0  0  0  0  0  0  0
   -2.4125   22.0156  -22.7524 C   0  0  0  0  0  0  0  0  0  0  0  0
   -1.4463   21.5569  -21.8903 C   0  0  0  0  0  0  0  0  0  0  0  0
   -0.2739   21.4333  -22.5855 N   0  0  0  0  0  0  0  0  0  0  0  0
    0.9466   21.0868  -22.2284 N   0  0  0  0  0  0  0  0  0  0  0  0
    2.0202   21.0682  -23.0209 C   0  0  0  0  0  0  0  0  0  0  0  0
    1.8318   21.4361  -24.2869 N   0  0  0  0  0  0  0  0  0  0  0  0
    0.5774   21.8056  -24.7016 C   0  0  0  0  0  0  0  0  0  0  0  0
    0.4850   22.2536  -26.0386 N   0  0  0  0  0  0  0  0  0  0  0  0
   -0.5142   21.8144  -23.8677 C   0  0  0  0  0  0  0  0  0  0  0  0
    0.3615   23.2744  -26.2153 H   0  0  0  0  0  0  0  0  0  0  0  0
    0.5312   21.6362  -26.8784 H   0  0  0  0  0  0  0  0  0  0  0  0
   -5.1579   24.4969  -27.6854 C   0  0  0  0  0  0  0  0  0  0  0  0
   -5.2987   24.2000  -29.0149 C   0  0  0  0  0  0  0  0  0  0  0  0
   -4.4812   23.2173  -29.5233 C   0  0  0  0  0  0  0  0  0  0  0  0
   -3.5689   22.5629  -28.7450 C   0  0  0  0  0  0  0  0  0  0  0  0
   -3.4061   22.8506  -27.3768 C   0  0  0  0  0  0  0  0  0  0  0  0
   -2.5465   22.2760  -26.5115 C   0  0  0  0  0  0  0  0  0  0  0  0
   -2.5414   22.6997  -25.2137 C   0  0  0  0  0  0  0  0  0  0  0  0
   -3.7738   23.9149  -25.2528 S   0  0  0  0  0  0  0  0  0  0  0  0
   -4.2216   23.8254  -26.8864 C   0  0  0  0  0  0  0  0  0  0  0  0
   -5.9495   25.5124  -27.0056 C   0  0  0  0  0  0  0  0  0  0  0  0
   -7.1112   25.3004  -26.5934 O   0  0  0  0  0  0  0  0  0  0  0  0
   -5.1309   27.3275  -25.5481 C   0  0  0  0  0  0  0  0  0  0  0  0
   -5.4009   26.7516  -26.8081 O   0  0  0  0  0  0  0  0  0  0  0  0
   -3.8356   22.2371  -22.5491 C   0  0  0  0  0  0  0  0  0  0  0  0
   -4.2247   23.1895  -21.6110 N   0  0  0  0  0  0  0  0  0  0  0  0
   -4.6464   24.4727  -22.0663 C   0  0  0  0  0  0  0  0  0  0  0  0
   -6.1703   24.6017  -22.0888 C   0  0  0  0  0  0  0  0  0  0  0  0
   -6.5723   24.5980  -20.6783 N   0  0  0  0  0  0  0  0  0  0  0  0
   -5.7451   23.8113  -19.8153 C   0  0  0  0  0  0  0  0  0  0  0  0
   -5.6893   24.0377  -18.5870 O   0  0  0  0  0  0  0  0  0  0  0  0
   -4.9687   22.7199  -20.4831 C   0  0  0  0  0  0  0  0  0  0  0  0
   -7.3822   25.1120  -20.3070 H   0  0  0  0  0  0  0  0  0  0  0  0
   -1.5026   21.3197  -20.4324 C   0  0  0  0  0  0  0  0  0  0  0  0
   -0.2387   21.6365  -19.7424 N   0  0  0  0  0  0  0  0  0  0  0  0
   -0.0552   20.7636  -18.5901 C   0  0  0  0  0  0  0  0  0  0  0  0
    1.2183   21.1387  -17.9020 C   0  0  0  0  0  0  0  0  0  0  0  0
    1.3512   22.5326  -17.6157 N   0  0  0  0  0  0  0  0  0  0  0  0
    0.9373   23.4020  -18.6876 C   0  0  0  0  0  0  0  0  0  0  0  0
   -0.4223   22.9875  -19.2132 C   0  0  0  0  0  0  0  0  0  0  0  0
    0.9344   22.8222  -16.7261 H   0  0  0  0  0  0  0  0  0  0  0  0
 24 25  1  0  0  0
 25 22  1  0  0  0
 22 23  2  0  0  0
 22 13  1  0  0  0
 13 14  2  0  0  0
 14 15  1  0  0  0
 15 16  2  0  0  0
 16 17  1  0  0  0
 17 18  1  0  0  0
 18 19  2  0  0  0
 19 20  1  0  0  0
 20 21  1  0  0  0
 19  1  1  0  0  0
  1  2  1  0  0  0
  2 26  1  0  0  0
 26 27  1  0  0  0
 27 28  1  0  0  0
 28 29  1  0  0  0
 29 30  1  0  0  0
 30 31  1  0  0  0
 31 32  2  0  0  0
 31 33  1  0  0  0
  2  3  2  0  0  0
  3 35  1  0  0  0
 35 36  1  0  0  0
 36 37  1  0  0  0
 37 38  1  0  0  0
 38 39  1  0  0  0
 39 40  1  0  0  0
 40 41  1  0  0  0
  3  4  1  0  0  0
  4  5  1  0  0  0
  5  6  2  0  0  0
  6  7  1  0  0  0
  7  8  2  0  0  0
  8  9  1  0  0  0
  8 10  1  0  0  0
 21 13  1  0  0  0
 10  1  2  0  0  0
 21 17  2  0  0  0
 33 27  1  0  0  0
 41 36  1  0  0  0
 10  4  1  0  0  0
 30 34  1  0  0  0
 39 42  1  0  0  0
  9 11  1  0  0  0
  9 12  1  0  0  0
M  END
> <minimizedAffinity>
-9.14771

> <CNNscore>
0.4954436421

> <CNNaffinity>
7.4072618484

> <CNN_VS>
3.6698808670

> <CNNaffinity_variance>
0.1273511648

$$$$
[H]c1nc(N([H])[H])c2c(-c3sc4c(C(=O)OC([H])([H])[H])c([H])c([H])c([H])c4c3[H])c(C([H])([H])N3C([H])([H])C(=O)N([H])C([H])([H])C3([H])[H])c(C([H])([H])N3C([H])([H])C([H])([H])N([H])C([H])([H])C3([H])[H])n2n1


 42 47  0  0  0  0  0  0  0  0999 V2000
   -1.5422   21.7676  -23.6881 C   0  0  0  0  0  0  0  0  0  0  0  0
   -2.9605   21.8066  -23.8766 C   0  0  0  0  0  0  0  0  0  0  0  0
   -3.2049   22.2792  -25.1432 C   0  0  0  0  0  0  0  0  0  0  0  0
   -2.0028   22.5310  -25.7471 N   0  0  0  0  0  0  0  0  0  0  0  0
   -1.6768   22.9420  -26.9563 N   0  0  0  0  0  0  0  0  0  0  0  0
   -0.4367   23.0882  -27.4271 C   0  0  0  0  0  0  0  0  0  0  0  0
    0.5563   22.7878  -26.5922 N   0  0  0  0  0  0  0  0  0  0  0  0
    0.2624   22.3551  -25.3239 C   0  0  0  0  0  0  0  0  0  0  0  0
    1.3740   21.9864  -24.5331 N   0  0  0  0  0  0  0  0  0  0  0  0
   -1.0229   22.2147  -24.8600 C   0  0  0  0  0  0  0  0  0  0  0  0
    1.5495   20.9725  -24.3611 H   0  0  0  0  0  0  0  0  0  0  0  0
    2.0455   22.6571  -24.0997 H   0  0  0  0  0  0  0  0  0  0  0  0
    0.8967   20.9237  -18.8713 C   0  0  0  0  0  0  0  0  0  0  0  0
    1.5636   19.8066  -18.4436 C   0  0  0  0  0  0  0  0  0  0  0  0
    1.6109   18.7396  -19.3106 C   0  0  0  0  0  0  0  0  0  0  0  0
    1.0226   18.7840  -20.5428 C   0  0  0  0  0  0  0  0  0  0  0  0
    0.3319   19.9203  -21.0040 C   0  0  0  0  0  0  0  0  0  0  0  0
   -0.2844   20.0830  -22.1921 C   0  0  0  0  0  0  0  0  0  0  0  0
   -0.9050   21.2709  -22.4516 C   0  0  0  0  0  0  0  0  0  0  0  0
   -0.5917   22.1398  -20.9874 S   0  0  0  0  0  0  0  0  0  0  0  0
    0.2928   20.9694  -20.1358 C   0  0  0  0  0  0  0  0  0  0  0  0
    0.7604   22.1296  -18.0668 C   0  0  0  0  0  0  0  0  0  0  0  0
   -0.0986   22.2475  -17.1653 O   0  0  0  0  0  0  0  0  0  0  0  0
    2.7956   23.4410  -17.5906 C   0  0  0  0  0  0  0  0  0  0  0  0
    1.6071   23.1792  -18.3054 O   0  0  0  0  0  0  0  0  0  0  0  0
   -3.8764   21.4702  -22.7980 C   0  0  0  0  0  0  0  0  0  0  0  0
   -4.8057   22.4286  -22.4024 N   0  0  0  0  0  0  0  0  0  0  0  0
   -6.1389   22.0165  -22.1114 C   0  0  0  0  0  0  0  0  0  0  0  0
   -6.3834   21.8836  -20.6074 C   0  0  0  0  0  0  0  0  0  0  0  0
   -6.3372   23.2562  -20.0927 N   0  0  0  0  0  0  0  0  0  0  0  0
   -5.4468   24.1340  -20.7889 C   0  0  0  0  0  0  0  0  0  0  0  0
   -5.6046   25.3739  -20.7605 O   0  0  0  0  0  0  0  0  0  0  0  0
   -4.3359   23.4666  -21.5377 C   0  0  0  0  0  0  0  0  0  0  0  0
   -6.8909   23.5927  -19.2938 H   0  0  0  0  0  0  0  0  0  0  0  0
   -4.4783   22.4196  -25.8804 C   0  0  0  0  0  0  0  0  0  0  0  0
   -5.3763   23.4359  -25.3017 N   0  0  0  0  0  0  0  0  0  0  0  0
   -6.5940   23.5496  -26.0940 C   0  0  0  0  0  0  0  0  0  0  0  0
   -7.4598   24.6105  -25.4934 C   0  0  0  0  0  0  0  0  0  0  0  0
   -6.7954   25.8519  -25.2480 N   0  0  0  0  0  0  0  0  0  0  0  0
   -5.4788   25.7191  -24.6780 C   0  0  0  0  0  0  0  0  0  0  0  0
   -4.6637   24.7041  -25.4538 C   0  0  0  0  0  0  0  0  0  0  0  0
   -6.7867   26.4911  -26.0481 H   0  0  0  0  0  0  0  0  0  0  0  0
 24 25  1  0  0  0
 25 22  1  0  0  0
 22 23  2  0  0  0
 22 13  1  0  0  0
 13 14  2  0  0  0
 14 15  1  0  0  0
 15 16  2  0  0  0
 16 17  1  0  0  0
 17 18  1  0  0  0
 18 19  2  0  0  0
 19 20  1  0  0  0
 20 21  1  0  0  0
 19  1  1  0  0  0
  1  2  1  0  0  0
  2 26  1  0  0  0
 26 27  1  0  0  0
 27 28  1  0  0  0
 28 29  1  0  0  0
 29 30  1  0  0  0
 30 31  1  0  0  0
 31 32  2  0  0  0
 31 33  1  0  0  0
  2  3  2  0  0  0
  3 35  1  0  0  0
 35 36  1  0  0  0
 36 37  1  0  0  0
 37 38  1  0  0  0
 38 39  1  0  0  0
 39 40  1  0  0  0
 40 41  1  0  0  0
  3  4  1  0  0  0
  4  5  1  0  0  0
  5  6  2  0  0  0
  6  7  1  0  0  0
  7  8  2  0  0  0
  8  9  1  0  0  0
  8 10  1  0  0  0
 21 13  1  0  0  0
 10  1  2  0  0  0
 21 17  2  0  0  0
 33 27  1  0  0  0
 41 36  1  0  0  0
 10  4  1  0  0  0
 30 34  1  0  0  0
 39 42  1  0  0  0
  9 11  1  0  0  0
  9 12  1  0  0  0
M  END
> <minimizedAffinity>
-8.04688

> <CNNscore>
0.4315089285

> <CNNaffinity>
7.0695672035

> <CNN_VS>
3.0505814552

> <CNNaffinity_variance>
0.0095495926

$$$$
[H]c1nc(N([H])[H])c2c(-c3sc4c(C(=O)OC([H])([H])[H])c([H])c([H])c([H])c4c3[H])c(C([H])([H])N3C([H])([H])C(=O)N([H])C([H])([H])C3([H])[H])c(C([H])([H])N3C([H])([H])C([H])([H])N([H])C([H])([H])C3([H])[H])n2n1


 42 47  0  0  0  0  0  0  0  0999 V2000
   -1.4133   21.7497  -23.2340 C   0  0  0  0  0  0  0  0  0  0  0  0
   -2.8377   21.7506  -23.3743 C   0  0  0  0  0  0  0  0  0  0  0  0
   -3.1311   21.9799  -24.6966 C   0  0  0  0  0  0  0  0  0  0  0  0
   -1.9536   22.1175  -25.3803 N   0  0  0  0  0  0  0  0  0  0  0  0
   -1.6745   22.2979  -26.6558 N   0  0  0  0  0  0  0  0  0  0  0  0
   -0.4533   22.3565  -27.1908 C   0  0  0  0  0  0  0  0  0  0  0  0
    0.5714   22.2178  -26.3516 N   0  0  0  0  0  0  0  0  0  0  0  0
    0.3267   22.0271  -25.0152 C   0  0  0  0  0  0  0  0  0  0  0  0
    1.4689   21.8133  -24.2111 N   0  0  0  0  0  0  0  0  0  0  0  0
   -0.9400   21.9729  -24.4866 C   0  0  0  0  0  0  0  0  0  0  0  0
    1.6591   20.8492  -23.8610 H   0  0  0  0  0  0  0  0  0  0  0  0
    2.1497   22.5539  -23.9343 H   0  0  0  0  0  0  0  0  0  0  0  0
    0.9512   19.8080  -18.7062 C   0  0  0  0  0  0  0  0  0  0  0  0
    1.2069   20.4684  -17.5340 C   0  0  0  0  0  0  0  0  0  0  0  0
    0.8591   21.7982  -17.4800 C   0  0  0  0  0  0  0  0  0  0  0  0
    0.2848   22.4380  -18.5418 C   0  0  0  0  0  0  0  0  0  0  0  0
    0.0126   21.7805  -19.7562 C   0  0  0  0  0  0  0  0  0  0  0  0
   -0.5480   22.3011  -20.8664 C   0  0  0  0  0  0  0  0  0  0  0  0
   -0.7282   21.4919  -21.9510 C   0  0  0  0  0  0  0  0  0  0  0  0
   -0.0937   19.9933  -21.3606 S   0  0  0  0  0  0  0  0  0  0  0  0
    0.3619   20.4643  -19.7960 C   0  0  0  0  0  0  0  0  0  0  0  0
    1.2640   18.4013  -18.9151 C   0  0  0  0  0  0  0  0  0  0  0  0
    0.4147   17.4928  -18.7824 O   0  0  0  0  0  0  0  0  0  0  0  0
    2.9779   17.8220  -20.5932 C   0  0  0  0  0  0  0  0  0  0  0  0
    2.5406   18.0569  -19.2720 O   0  0  0  0  0  0  0  0  0  0  0  0
   -3.7117   21.6182  -22.2192 C   0  0  0  0  0  0  0  0  0  0  0  0
   -4.7108   22.5710  -22.0388 N   0  0  0  0  0  0  0  0  0  0  0  0
   -6.0736   22.1721  -22.1635 C   0  0  0  0  0  0  0  0  0  0  0  0
   -6.7339   21.9511  -20.8016 C   0  0  0  0  0  0  0  0  0  0  0  0
   -6.8293   23.2874  -20.2048 N   0  0  0  0  0  0  0  0  0  0  0  0
   -5.7747   24.1864  -20.5619 C   0  0  0  0  0  0  0  0  0  0  0  0
   -5.9288   25.4254  -20.4968 O   0  0  0  0  0  0  0  0  0  0  0  0
   -4.5003   23.5419  -21.0098 C   0  0  0  0  0  0  0  0  0  0  0  0
   -7.5849   23.5858  -19.5738 H   0  0  0  0  0  0  0  0  0  0  0  0
   -4.4313   21.9790  -25.3999 C   0  0  0  0  0  0  0  0  0  0  0  0
   -4.8179   23.3076  -25.9092 N   0  0  0  0  0  0  0  0  0  0  0  0
   -4.2354   24.3581  -25.0843 C   0  0  0  0  0  0  0  0  0  0  0  0
   -4.6774   25.6847  -25.6141 C   0  0  0  0  0  0  0  0  0  0  0  0
   -6.0871   25.8044  -25.8164 N   0  0  0  0  0  0  0  0  0  0  0  0
   -6.7010   24.6503  -26.4226 C   0  0  0  0  0  0  0  0  0  0  0  0
   -6.2654   23.3833  -25.7145 C   0  0  0  0  0  0  0  0  0  0  0  0
   -6.6083   26.1050  -24.9877 H   0  0  0  0  0  0  0  0  0  0  0  0
 24 25  1  0  0  0
 25 22  1  0  0  0
 22 23  2  0  0  0
 22 13  1  0  0  0
 13 14  2  0  0  0
 14 15  1  0  0  0
 15 16  2  0  0  0
 16 17  1  0  0  0
 17 18  1  0  0  0
 18 19  2  0  0  0
 19 20  1  0  0  0
 20 21  1  0  0  0
 19  1  1  0  0  0
  1  2  1  0  0  0
  2 26  1  0  0  0
 26 27  1  0  0  0
 27 28  1  0  0  0
 28 29  1  0  0  0
 29 30  1  0  0  0
 30 31  1  0  0  0
 31 32  2  0  0  0
 31 33  1  0  0  0
  2  3  2  0  0  0
  3 35  1  0  0  0
 35 36  1  0  0  0
 36 37  1  0  0  0
 37 38  1  0  0  0
 38 39  1  0  0  0
 39 40  1  0  0  0
 40 41  1  0  0  0
  3  4  1  0  0  0
  4  5  1  0  0  0
  5  6  2  0  0  0
  6  7  1  0  0  0
  7  8  2  0  0  0
  8  9  1  0  0  0
  8 10  1  0  0  0
 21 13  1  0  0  0
 10  1  2  0  0  0
 21 17  2  0  0  0
 33 27  1  0  0  0
 41 36  1  0  0  0
 10  4  1  0  0  0
 30 34  1  0  0  0
 39 42  1  0  0  0
  9 11  1  0  0  0
  9 12  1  0  0  0
M  END
> <minimizedAffinity>
-7.68686

> <CNNscore>
0.3034248948

> <CNNaffinity>
6.8527870178

> <CNN_VS>
2.0793061256

> <CNNaffinity_variance>
0.0504248440

$$$$
[H]c1nc(N([H])[H])c2c(-c3sc4c(C(=O)OC([H])([H])[H])c([H])c([H])c([H])c4c3[H])c(C([H])([H])N3C([H])([H])C(=O)N([H])C([H])([H])C3([H])[H])c(C([H])([H])N3C([H])([H])C([H])([H])N([H])C([H])([H])C3([H])[H])n2n1


 42 47  0  0  0  0  0  0  0  0999 V2000
   -2.0292   22.7258  -22.6506 C   0  0  0  0  0  0  0  0  0  0  0  0
   -2.3099   22.4165  -21.2817 C   0  0  0  0  0  0  0  0  0  0  0  0
   -1.2583   21.6811  -20.7912 C   0  0  0  0  0  0  0  0  0  0  0  0
   -0.3393   21.5245  -21.7932 N   0  0  0  0  0  0  0  0  0  0  0  0
    0.8483   20.9543  -21.8380 N   0  0  0  0  0  0  0  0  0  0  0  0
    1.6678   20.9311  -22.8910 C   0  0  0  0  0  0  0  0  0  0  0  0
    1.2387   21.5437  -23.9929 N   0  0  0  0  0  0  0  0  0  0  0  0
    0.0087   22.1513  -23.9903 C   0  0  0  0  0  0  0  0  0  0  0  0
   -0.3324   22.8415  -25.1753 N   0  0  0  0  0  0  0  0  0  0  0  0
   -0.8195   22.1600  -22.8944 C   0  0  0  0  0  0  0  0  0  0  0  0
   -0.3093   23.8845  -25.1693 H   0  0  0  0  0  0  0  0  0  0  0  0
   -0.6101   22.3852  -26.0715 H   0  0  0  0  0  0  0  0  0  0  0  0
   -5.2773   24.9704  -26.4287 C   0  0  0  0  0  0  0  0  0  0  0  0
   -5.6087   26.2900  -26.5852 C   0  0  0  0  0  0  0  0  0  0  0  0
   -5.0926   27.1746  -25.6668 C   0  0  0  0  0  0  0  0  0  0  0  0
   -4.2860   26.7643  -24.6433 C   0  0  0  0  0  0  0  0  0  0  0  0
   -3.9319   25.4142  -24.4621 C   0  0  0  0  0  0  0  0  0  0  0  0
   -3.1481   24.8911  -23.4978 C   0  0  0  0  0  0  0  0  0  0  0  0
   -2.9240   23.5444  -23.4937 C   0  0  0  0  0  0  0  0  0  0  0  0
   -3.8388   23.0480  -24.8772 S   0  0  0  0  0  0  0  0  0  0  0  0
   -4.4497   24.5491  -25.3783 C   0  0  0  0  0  0  0  0  0  0  0  0
   -5.7470   23.9180  -27.3185 C   0  0  0  0  0  0  0  0  0  0  0  0
   -6.8742   23.3884  -27.2036 O   0  0  0  0  0  0  0  0  0  0  0  0
   -5.3501   22.8551  -29.5098 C   0  0  0  0  0  0  0  0  0  0  0  0
   -4.9217   23.4891  -28.3238 O   0  0  0  0  0  0  0  0  0  0  0  0
   -3.5725   22.7917  -20.6650 C   0  0  0  0  0  0  0  0  0  0  0  0
   -4.6466   21.9133  -20.7804 N   0  0  0  0  0  0  0  0  0  0  0  0
   -4.8815   20.9715  -19.7365 C   0  0  0  0  0  0  0  0  0  0  0  0
   -5.9996   21.4241  -18.7959 C   0  0  0  0  0  0  0  0  0  0  0  0
   -7.2248   21.3471  -19.5983 N   0  0  0  0  0  0  0  0  0  0  0  0
   -7.0529   21.6179  -20.9930 C   0  0  0  0  0  0  0  0  0  0  0  0
   -7.8652   21.1902  -21.8417 O   0  0  0  0  0  0  0  0  0  0  0  0
   -5.8508   22.4353  -21.3491 C   0  0  0  0  0  0  0  0  0  0  0  0
   -8.1521   21.1181  -19.2166 H   0  0  0  0  0  0  0  0  0  0  0  0
   -0.9902   21.1949  -19.4213 C   0  0  0  0  0  0  0  0  0  0  0  0
    0.3562   21.5452  -18.9329 N   0  0  0  0  0  0  0  0  0  0  0  0
    0.6122   20.9102  -17.6466 C   0  0  0  0  0  0  0  0  0  0  0  0
    1.9712   21.3164  -17.1731 C   0  0  0  0  0  0  0  0  0  0  0  0
    2.2125   22.7249  -17.1962 N   0  0  0  0  0  0  0  0  0  0  0  0
    1.7361   23.3905  -18.3820 C   0  0  0  0  0  0  0  0  0  0  0  0
    0.3068   22.9851  -18.6811 C   0  0  0  0  0  0  0  0  0  0  0  0
    1.9103   23.2186  -16.3513 H   0  0  0  0  0  0  0  0  0  0  0  0
 24 25  1  0  0  0
 25 22  1  0  0  0
 22 23  2  0  0  0
 22 13  1  0  0  0
 13 14  2  0  0  0
 14 15  1  0  0  0
 15 16  2  0  0  0
 16 17  1  0  0  0
 17 18  1  0  0  0
 18 19  2  0  0  0
 19 20  1  0  0  0
 20 21  1  0  0  0
 19  1  1  0  0  0
  1  2  1  0  0  0
  2 26  1  0  0  0
 26 27  1  0  0  0
 27 28  1  0  0  0
 28 29  1  0  0  0
 29 30  1  0  0  0
 30 31  1  0  0  0
 31 32  2  0  0  0
 31 33  1  0  0  0
  2  3  2  0  0  0
  3 35  1  0  0  0
 35 36  1  0  0  0
 36 37  1  0  0  0
 37 38  1  0  0  0
 38 39  1  0  0  0
 39 40  1  0  0  0
 40 41  1  0  0  0
  3  4  1  0  0  0
  4  5  1  0  0  0
  5  6  2  0  0  0
  6  7  1  0  0  0
  7  8  2  0  0  0
  8  9  1  0  0  0
  8 10  1  0  0  0
 21 13  1  0  0  0
 10  1  2  0  0  0
 21 17  2  0  0  0
 33 27  1  0  0  0
 41 36  1  0  0  0
 10  4  1  0  0  0
 30 34  1  0  0  0
 39 42  1  0  0  0
  9 11  1  0  0  0
  9 12  1  0  0  0
M  END
> <minimizedAffinity>
-8.11260

> <CNNscore>
0.1251037121

> <CNNaffinity>
6.7579240799

> <CNN_VS>
0.8454414010

> <CNNaffinity_variance>
0.1150920019

$$$$
[H]c1nn(C2([H])C([H])([H])C([H])([H])C([H])([H])C([H])([H])C2([H])[H])c([H])c1-c1nn([H])c2c([H])c(OC([H])([H])C([H])([H])C([H])([H])N(C([H])([H])[H])C([H])([H])c3c([H])c([H])c([H])c([H])c3[H])c([H])c([H])c12


 34 38  0  0  0  0  0  0  0  0999 V2000
   -3.7300   23.1098  -27.6303 C   0  0  0  0  0  0  0  0  0  0  0  0
   -3.8930   22.8757  -26.2831 C   0  0  0  0  0  0  0  0  0  0  0  0
   -2.7797   22.5513  -25.4937 C   0  0  0  0  0  0  0  0  0  0  0  0
   -1.5149   22.4561  -26.0123 C   0  0  0  0  0  0  0  0  0  0  0  0
   -0.2703   22.1667  -25.5058 C   0  0  0  0  0  0  0  0  0  0  0  0
    0.5978   22.2338  -26.5480 N   0  0  0  0  0  0  0  0  0  0  0  0
   -0.0648   22.5481  -27.6486 N   0  0  0  0  0  0  0  0  0  0  0  0
   -1.3694   22.6945  -27.3647 C   0  0  0  0  0  0  0  0  0  0  0  0
   -2.4414   23.0109  -28.1478 C   0  0  0  0  0  0  0  0  0  0  0  0
    0.3323   22.6713  -28.6047 H   0  0  0  0  0  0  0  0  0  0  0  0
    0.0020   21.8586  -24.1138 C   0  0  0  0  0  0  0  0  0  0  0  0
    1.2124   21.3094  -23.6845 C   0  0  0  0  0  0  0  0  0  0  0  0
    1.1288   21.1572  -22.3731 N   0  0  0  0  0  0  0  0  0  0  0  0
   -0.0539   21.5693  -21.9142 N   0  0  0  0  0  0  0  0  0  0  0  0
   -0.7451   22.0000  -22.9852 C   0  0  0  0  0  0  0  0  0  0  0  0
   -0.4270   21.5219  -20.5198 C   0  0  0  0  0  0  0  0  0  0  0  0
    0.6307   20.9424  -19.6340 C   0  0  0  0  0  0  0  0  0  0  0  0
    0.2357   21.1022  -18.2029 C   0  0  0  0  0  0  0  0  0  0  0  0
   -1.2142   21.4603  -18.0066 C   0  0  0  0  0  0  0  0  0  0  0  0
   -1.6185   22.7017  -18.7443 C   0  0  0  0  0  0  0  0  0  0  0  0
   -0.7944   22.9076  -19.9937 C   0  0  0  0  0  0  0  0  0  0  0  0
   -4.7268   23.4257  -28.4859 O   0  0  0  0  0  0  0  0  0  0  0  0
   -5.0625   24.5684  -29.1639 C   0  0  0  0  0  0  0  0  0  0  0  0
   -6.0524   25.4235  -28.4484 C   0  0  0  0  0  0  0  0  0  0  0  0
   -5.4401   26.0367  -27.1783 C   0  0  0  0  0  0  0  0  0  0  0  0
   -7.3077   24.7962  -26.2448 C   0  0  0  0  0  0  0  0  0  0  0  0
   -6.2619   25.7199  -26.0856 N   0  0  0  0  0  0  0  0  0  0  0  0
   -6.0050   26.2835  -24.8247 C   0  0  0  0  0  0  0  0  0  0  0  0
   -5.3128   25.4248  -23.8537 C   0  0  0  0  0  0  0  0  0  0  0  0
   -3.9494   25.5520  -23.7096 C   0  0  0  0  0  0  0  0  0  0  0  0
   -3.2180   24.7858  -22.8210 C   0  0  0  0  0  0  0  0  0  0  0  0
   -3.8877   23.8666  -22.0589 C   0  0  0  0  0  0  0  0  0  0  0  0
   -5.2693   23.7408  -22.2077 C   0  0  0  0  0  0  0  0  0  0  0  0
   -5.9821   24.5164  -23.1019 C   0  0  0  0  0  0  0  0  0  0  0  0
 26 27  1  0  0  0
 27 25  1  0  0  0
 25 24  1  0  0  0
 24 23  1  0  0  0
 23 22  1  0  0  0
 22  1  1  0  0  0
  1  2  2  0  0  0
  2  3  1  0  0  0
  3  4  2  0  0  0
  4  5  1  0  0  0
  5  6  2  0  0  0
  6  7  1  0  0  0
  7  8  1  0  0  0
  8  9  2  0  0  0
  5 11  1  0  0  0
 11 12  1  0  0  0
 12 13  2  0  0  0
 13 14  1  0  0  0
 14 15  1  0  0  0
 14 16  1  0  0  0
 16 17  1  0  0  0
 17 18  1  0  0  0
 18 19  1  0  0  0
 19 20  1  0  0  0
 20 21  1  0  0  0
 27 28  1  0  0  0
 28 29  1  0  0  0
 29 30  2  0  0  0
 30 31  1  0  0  0
 31 32  2  0  0  0
 32 33  1  0  0  0
 33 34  2  0  0  0
  9  1  1  0  0  0
 15 11  2  0  0  0
 21 16  1  0  0  0
 34 29  1  0  0  0
  8  4  1  0  0  0
  7 10  1  0  0  0
M  END
> <minimizedAffinity>
-8.03225

> <CNNscore>
0.6698111296

> <CNNaffinity>
7.3032789230

> <CNN_VS>
4.8918175697

> <CNNaffinity_variance>
0.0168709047

$$$$
[H]c1nn(C2([H])C([H])([H])C([H])([H])C([H])([H])C([H])([H])C2([H])[H])c([H])c1-c1nn([H])c2c([H])c(OC([H])([H])C([H])([H])C([H])([H])N(C([H])([H])[H])C([H])([H])c3c([H])c([H])c([H])c([H])c3[H])c([H])c([H])c12


 34 38  0  0  0  0  0  0  0  0999 V2000
   -2.6880   22.9648  -20.9506 C   0  0  0  0  0  0  0  0  0  0  0  0
   -3.3994   23.5140  -21.9940 C   0  0  0  0  0  0  0  0  0  0  0  0
   -2.9499   23.3383  -23.3111 C   0  0  0  0  0  0  0  0  0  0  0  0
   -1.8148   22.6315  -23.6111 C   0  0  0  0  0  0  0  0  0  0  0  0
   -1.1468   22.2999  -24.7657 C   0  0  0  0  0  0  0  0  0  0  0  0
   -0.0651   21.5690  -24.3917 N   0  0  0  0  0  0  0  0  0  0  0  0
   -0.0541   21.4480  -23.0747 N   0  0  0  0  0  0  0  0  0  0  0  0
   -1.1140   22.0873  -22.5531 C   0  0  0  0  0  0  0  0  0  0  0  0
   -1.5365   22.2485  -21.2654 C   0  0  0  0  0  0  0  0  0  0  0  0
    0.6522   20.9420  -22.4984 H   0  0  0  0  0  0  0  0  0  0  0  0
   -1.5672   22.6842  -26.1007 C   0  0  0  0  0  0  0  0  0  0  0  0
   -0.7173   22.6221  -27.2074 C   0  0  0  0  0  0  0  0  0  0  0  0
   -1.4095   23.0381  -28.2552 N   0  0  0  0  0  0  0  0  0  0  0  0
   -2.6549   23.3683  -27.9101 N   0  0  0  0  0  0  0  0  0  0  0  0
   -2.7501   23.1503  -26.5858 C   0  0  0  0  0  0  0  0  0  0  0  0
   -3.6380   23.8562  -28.8488 C   0  0  0  0  0  0  0  0  0  0  0  0
   -4.6595   22.8334  -29.2354 C   0  0  0  0  0  0  0  0  0  0  0  0
   -5.7308   23.4729  -30.0558 C   0  0  0  0  0  0  0  0  0  0  0  0
   -5.3668   24.8385  -30.5771 C   0  0  0  0  0  0  0  0  0  0  0  0
   -4.9741   25.7966  -29.4924 C   0  0  0  0  0  0  0  0  0  0  0  0
   -4.3639   25.0857  -28.3071 C   0  0  0  0  0  0  0  0  0  0  0  0
   -3.0230   23.0714  -19.6460 O   0  0  0  0  0  0  0  0  0  0  0  0
   -3.8687   22.3690  -18.8279 C   0  0  0  0  0  0  0  0  0  0  0  0
   -5.1641   23.0595  -18.5666 C   0  0  0  0  0  0  0  0  0  0  0  0
   -6.2766   22.5149  -19.4774 C   0  0  0  0  0  0  0  0  0  0  0  0
   -6.3651   24.8884  -19.9837 C   0  0  0  0  0  0  0  0  0  0  0  0
   -6.7958   23.5757  -20.2356 N   0  0  0  0  0  0  0  0  0  0  0  0
   -7.7014   23.3187  -21.2783 C   0  0  0  0  0  0  0  0  0  0  0  0
   -7.1175   23.0471  -22.5991 C   0  0  0  0  0  0  0  0  0  0  0  0
   -7.0832   24.0610  -23.5301 C   0  0  0  0  0  0  0  0  0  0  0  0
   -6.5530   23.8943  -24.7961 C   0  0  0  0  0  0  0  0  0  0  0  0
   -6.0443   22.6668  -25.1258 C   0  0  0  0  0  0  0  0  0  0  0  0
   -6.0807   21.6419  -24.1796 C   0  0  0  0  0  0  0  0  0  0  0  0
   -6.6153   21.8291  -22.9193 C   0  0  0  0  0  0  0  0  0  0  0  0
 26 27  1  0  0  0
 27 25  1  0  0  0
 25 24  1  0  0  0
 24 23  1  0  0  0
 23 22  1  0  0  0
 22  1  1  0  0  0
  1  2  2  0  0  0
  2  3  1  0  0  0
  3  4  2  0  0  0
  4  5  1  0  0  0
  5  6  2  0  0  0
  6  7  1  0  0  0
  7  8  1  0  0  0
  8  9  2  0  0  0
  5 11  1  0  0  0
 11 12  1  0  0  0
 12 13  2  0  0  0
 13 14  1  0  0  0
 14 15  1  0  0  0
 14 16  1  0  0  0
 16 17  1  0  0  0
 17 18  1  0  0  0
 18 19  1  0  0  0
 19 20  1  0  0  0
 20 21  1  0  0  0
 27 28  1  0  0  0
 28 29  1  0  0  0
 29 30  2  0  0  0
 30 31  1  0  0  0
 31 32  2  0  0  0
 32 33  1  0  0  0
 33 34  2  0  0  0
  9  1  1  0  0  0
 15 11  2  0  0  0
 21 16  1  0  0  0
 34 29  1  0  0  0
  8  4  1  0  0  0
  7 10  1  0  0  0
M  END
> <minimizedAffinity>
-8.49424

> <CNNscore>
0.2508487403

> <CNNaffinity>
6.9011564255

> <CNN_VS>
1.7311464548

> <CNNaffinity_variance>
0.2962813973

$$$$
[H]c1nn(C2([H])C([H])([H])C([H])([H])C([H])([H])C([H])([H])C2([H])[H])c([H])c1-c1nn([H])c2c([H])c(OC([H])([H])C([H])([H])C([H])([H])N(C([H])([H])[H])C([H])([H])c3c([H])c([H])c([H])c([H])c3[H])c([H])c([H])c12


 34 38  0  0  0  0  0  0  0  0999 V2000
   -1.5537   22.1562  -21.2035 C   0  0  0  0  0  0  0  0  0  0  0  0
   -2.7555   22.6517  -21.6580 C   0  0  0  0  0  0  0  0  0  0  0  0
   -2.9787   22.7790  -23.0370 C   0  0  0  0  0  0  0  0  0  0  0  0
   -2.0378   22.4253  -23.9685 C   0  0  0  0  0  0  0  0  0  0  0  0
   -1.9703   22.4346  -25.3413 C   0  0  0  0  0  0  0  0  0  0  0  0
   -0.7455   21.9504  -25.6727 N   0  0  0  0  0  0  0  0  0  0  0  0
   -0.0803   21.6531  -24.5689 N   0  0  0  0  0  0  0  0  0  0  0  0
   -0.8388   21.9298  -23.4955 C   0  0  0  0  0  0  0  0  0  0  0  0
   -0.6044   21.7995  -22.1574 C   0  0  0  0  0  0  0  0  0  0  0  0
    0.8845   21.2629  -24.5053 H   0  0  0  0  0  0  0  0  0  0  0  0
   -3.0372   22.8852  -26.2162 C   0  0  0  0  0  0  0  0  0  0  0  0
   -4.3889   22.7070  -25.9126 C   0  0  0  0  0  0  0  0  0  0  0  0
   -5.0850   23.2280  -26.9097 N   0  0  0  0  0  0  0  0  0  0  0  0
   -4.2812   23.7353  -27.8455 N   0  0  0  0  0  0  0  0  0  0  0  0
   -3.0231   23.5238  -27.4178 C   0  0  0  0  0  0  0  0  0  0  0  0
   -4.7633   24.3692  -29.0503 C   0  0  0  0  0  0  0  0  0  0  0  0
   -3.8168   25.3796  -29.6179 C   0  0  0  0  0  0  0  0  0  0  0  0
   -4.3102   25.8438  -30.9486 C   0  0  0  0  0  0  0  0  0  0  0  0
   -5.7449   25.4798  -31.2281 C   0  0  0  0  0  0  0  0  0  0  0  0
   -6.0102   24.0080  -31.1189 C   0  0  0  0  0  0  0  0  0  0  0  0
   -5.0805   23.3400  -30.1330 C   0  0  0  0  0  0  0  0  0  0  0  0
   -1.2274   21.9929  -19.9026 O   0  0  0  0  0  0  0  0  0  0  0  0
   -1.6389   21.1218  -18.9281 C   0  0  0  0  0  0  0  0  0  0  0  0
   -1.0495   21.3977  -17.5867 C   0  0  0  0  0  0  0  0  0  0  0  0
    0.0061   20.3427  -17.2169 C   0  0  0  0  0  0  0  0  0  0  0  0
    2.2769   19.8258  -17.9055 C   0  0  0  0  0  0  0  0  0  0  0  0
    1.2529   20.7654  -17.7031 N   0  0  0  0  0  0  0  0  0  0  0  0
    1.4578   22.1144  -18.0374 C   0  0  0  0  0  0  0  0  0  0  0  0
    2.4936   22.8264  -17.2762 C   0  0  0  0  0  0  0  0  0  0  0  0
    3.4902   23.4811  -17.9646 C   0  0  0  0  0  0  0  0  0  0  0  0
    4.5038   24.1752  -17.3302 C   0  0  0  0  0  0  0  0  0  0  0  0
    4.5059   24.2056  -15.9615 C   0  0  0  0  0  0  0  0  0  0  0  0
    3.4943   23.5410  -15.2674 C   0  0  0  0  0  0  0  0  0  0  0  0
    2.4900   22.8527  -15.9206 C   0  0  0  0  0  0  0  0  0  0  0  0
 26 27  1  0  0  0
 27 25  1  0  0  0
 25 24  1  0  0  0
 24 23  1  0  0  0
 23 22  1  0  0  0
 22  1  1  0  0  0
  1  2  2  0  0  0
  2  3  1  0  0  0
  3  4  2  0  0  0
  4  5  1  0  0  0
  5  6  2  0  0  0
  6  7  1  0  0  0
  7  8  1  0  0  0
  8  9  2  0  0  0
  5 11  1  0  0  0
 11 12  1  0  0  0
 12 13  2  0  0  0
 13 14  1  0  0  0
 14 15  1  0  0  0
 14 16  1  0  0  0
 16 17  1  0  0  0
 17 18  1  0  0  0
 18 19  1  0  0  0
 19 20  1  0  0  0
 20 21  1  0  0  0
 27 28  1  0  0  0
 28 29  1  0  0  0
 29 30  2  0  0  0
 30 31  1  0  0  0
 31 32  2  0  0  0
 32 33  1  0  0  0
 33 34  2  0  0  0
  9  1  1  0  0  0
 15 11  2  0  0  0
 21 16  1  0  0  0
 34 29  1  0  0  0
  8  4  1  0  0  0
  7 10  1  0  0  0
M  END
> <minimizedAffinity>
-7.59330

> <CNNscore>
0.2263387591

> <CNNaffinity>
6.3892526627

> <CNN_VS>
1.4461355209

> <CNNaffinity_variance>
0.4326407015

$$$$
[H]c1nn(C2([H])C([H])([H])C([H])([H])C([H])([H])C([H])([H])C2([H])[H])c([H])c1-c1nn([H])c2c([H])c(OC([H])([H])C([H])([H])C([H])([H])N(C([H])([H])[H])C([H])([H])c3c([H])c([H])c([H])c([H])c3[H])c([H])c([H])c12


 34 38  0  0  0  0  0  0  0  0999 V2000
   -2.2279   21.6601  -21.4785 C   0  0  0  0  0  0  0  0  0  0  0  0
   -3.1481   22.1786  -22.3620 C   0  0  0  0  0  0  0  0  0  0  0  0
   -2.7804   22.4040  -23.6969 C   0  0  0  0  0  0  0  0  0  0  0  0
   -1.5246   22.1256  -24.1692 C   0  0  0  0  0  0  0  0  0  0  0  0
   -0.8911   22.2350  -25.3842 C   0  0  0  0  0  0  0  0  0  0  0  0
    0.3772   21.7849  -25.2022 N   0  0  0  0  0  0  0  0  0  0  0  0
    0.5320   21.4131  -23.9424 N   0  0  0  0  0  0  0  0  0  0  0  0
   -0.6146   21.6057  -23.2701 C   0  0  0  0  0  0  0  0  0  0  0  0
   -0.9550   21.3803  -21.9678 C   0  0  0  0  0  0  0  0  0  0  0  0
    1.3961   21.0262  -23.5056 H   0  0  0  0  0  0  0  0  0  0  0  0
   -1.5118   22.7402  -26.5950 C   0  0  0  0  0  0  0  0  0  0  0  0
   -0.9152   22.6282  -27.8530 C   0  0  0  0  0  0  0  0  0  0  0  0
   -1.7385   23.1844  -28.7265 N   0  0  0  0  0  0  0  0  0  0  0  0
   -2.8336   23.6529  -28.1263 N   0  0  0  0  0  0  0  0  0  0  0  0
   -2.6927   23.3792  -26.8164 C   0  0  0  0  0  0  0  0  0  0  0  0
   -3.9077   24.3120  -28.8318 C   0  0  0  0  0  0  0  0  0  0  0  0
   -4.9505   24.8945  -27.9305 C   0  0  0  0  0  0  0  0  0  0  0  0
   -5.9143   25.7073  -28.7307 C   0  0  0  0  0  0  0  0  0  0  0  0
   -5.8281   25.4685  -30.2155 C   0  0  0  0  0  0  0  0  0  0  0  0
   -4.4531   25.6957  -30.7689 C   0  0  0  0  0  0  0  0  0  0  0  0
   -3.3801   25.4190  -29.7419 C   0  0  0  0  0  0  0  0  0  0  0  0
   -2.4681   21.4051  -20.1735 O   0  0  0  0  0  0  0  0  0  0  0  0
   -3.4998   21.7129  -19.3256 C   0  0  0  0  0  0  0  0  0  0  0  0
   -4.8244   21.2004  -19.7792 C   0  0  0  0  0  0  0  0  0  0  0  0
   -5.9730   21.8790  -19.0149 C   0  0  0  0  0  0  0  0  0  0  0  0
   -7.0892   21.9689  -21.1699 C   0  0  0  0  0  0  0  0  0  0  0  0
   -6.7822   22.5632  -19.9351 N   0  0  0  0  0  0  0  0  0  0  0  0
   -7.3271   23.8139  -19.5998 C   0  0  0  0  0  0  0  0  0  0  0  0
   -8.3901   24.3205  -20.4788 C   0  0  0  0  0  0  0  0  0  0  0  0
   -9.6960   23.9824  -20.2030 C   0  0  0  0  0  0  0  0  0  0  0  0
  -10.7581   24.4139  -20.9760 C   0  0  0  0  0  0  0  0  0  0  0  0
  -10.4876   25.2092  -22.0571 C   0  0  0  0  0  0  0  0  0  0  0  0
   -9.1630   25.5497  -22.3333 C   0  0  0  0  0  0  0  0  0  0  0  0
   -8.1155   25.1079  -21.5479 C   0  0  0  0  0  0  0  0  0  0  0  0
 26 27  1  0  0  0
 27 25  1  0  0  0
 25 24  1  0  0  0
 24 23  1  0  0  0
 23 22  1  0  0  0
 22  1  1  0  0  0
  1  2  2  0  0  0
  2  3  1  0  0  0
  3  4  2  0  0  0
  4  5  1  0  0  0
  5  6  2  0  0  0
  6  7  1  0  0  0
  7  8  1  0  0  0
  8  9  2  0  0  0
  5 11  1  0  0  0
 11 12  1  0  0  0
 12 13  2  0  0  0
 13 14  1  0  0  0
 14 15  1  0  0  0
 14 16  1  0  0  0
 16 17  1  0  0  0
 17 18  1  0  0  0
 18 19  1  0  0  0
 19 20  1  0  0  0
 20 21  1  0  0  0
 27 28  1  0  0  0
 28 29  1  0  0  0
 29 30  2  0  0  0
 30 31  1  0  0  0
 31 32  2  0  0  0
 32 33  1  0  0  0
 33 34  2  0  0  0
  9  1  1  0  0  0
 15 11  2  0  0  0
 21 16  1  0  0  0
 34 29  1  0  0  0
  8  4  1  0  0  0
  7 10  1  0  0  0
M  END
> <minimizedAffinity>
-7.53065

> <CNNscore>
0.2068919688

> <CNNaffinity>
6.5426063538

> <CNN_VS>
1.3536126614

> <CNNaffinity_variance>
0.1760105938

$$$$
[H]c1nn(C2([H])C([H])([H])C([H])([H])C([H])([H])C([H])([H])C2([H])[H])c([H])c1-c1nn([H])c2c([H])c(OC([H])([H])C([H])([H])C([H])([H])N(C([H])([H])[H])C([H])([H])c3c([H])c([H])c([H])c([H])c3[H])c([H])c([H])c12


 34 38  0  0  0  0  0  0  0  0999 V2000
   -2.4371   22.9032  -27.5143 C   0  0  0  0  0  0  0  0  0  0  0  0
   -3.2164   22.7292  -26.3923 C   0  0  0  0  0  0  0  0  0  0  0  0
   -2.6151   22.3719  -25.1763 C   0  0  0  0  0  0  0  0  0  0  0  0
   -1.2632   22.1856  -25.0529 C   0  0  0  0  0  0  0  0  0  0  0  0
   -0.4133   21.8452  -24.0276 C   0  0  0  0  0  0  0  0  0  0  0  0
    0.8390   21.8238  -24.5527 N   0  0  0  0  0  0  0  0  0  0  0  0
    0.7792   22.1339  -25.8370 N   0  0  0  0  0  0  0  0  0  0  0  0
   -0.4967   22.3646  -26.1875 C   0  0  0  0  0  0  0  0  0  0  0  0
   -1.0648   22.7119  -27.3788 C   0  0  0  0  0  0  0  0  0  0  0  0
    1.5786   22.1985  -26.5032 H   0  0  0  0  0  0  0  0  0  0  0  0
   -0.8326   21.5744  -22.6647 C   0  0  0  0  0  0  0  0  0  0  0  0
   -0.1252   20.7243  -21.8115 C   0  0  0  0  0  0  0  0  0  0  0  0
   -0.7727   20.7015  -20.6581 N   0  0  0  0  0  0  0  0  0  0  0  0
   -1.8559   21.4787  -20.6978 N   0  0  0  0  0  0  0  0  0  0  0  0
   -1.8913   22.0143  -21.9316 C   0  0  0  0  0  0  0  0  0  0  0  0
   -2.7556   21.6476  -19.5807 C   0  0  0  0  0  0  0  0  0  0  0  0
   -2.1605   22.4117  -18.4400 C   0  0  0  0  0  0  0  0  0  0  0  0
   -3.2112   22.6946  -17.4174 C   0  0  0  0  0  0  0  0  0  0  0  0
   -4.4663   21.8799  -17.5908 C   0  0  0  0  0  0  0  0  0  0  0  0
   -5.0832   22.0320  -18.9491 C   0  0  0  0  0  0  0  0  0  0  0  0
   -4.0485   22.3401  -20.0060 C   0  0  0  0  0  0  0  0  0  0  0  0
   -2.9053   23.2429  -28.7353 O   0  0  0  0  0  0  0  0  0  0  0  0
   -3.2389   24.4366  -29.3200 C   0  0  0  0  0  0  0  0  0  0  0  0
   -4.7056   24.6226  -29.5131 C   0  0  0  0  0  0  0  0  0  0  0  0
   -5.2888   25.5712  -28.4527 C   0  0  0  0  0  0  0  0  0  0  0  0
   -6.3637   23.4764  -27.8575 C   0  0  0  0  0  0  0  0  0  0  0  0
   -6.0936   24.8257  -27.5774 N   0  0  0  0  0  0  0  0  0  0  0  0
   -6.5819   25.4124  -26.3980 C   0  0  0  0  0  0  0  0  0  0  0  0
   -5.8269   25.1341  -25.1685 C   0  0  0  0  0  0  0  0  0  0  0  0
   -4.6884   25.8641  -24.9098 C   0  0  0  0  0  0  0  0  0  0  0  0
   -3.9176   25.6692  -23.7787 C   0  0  0  0  0  0  0  0  0  0  0  0
   -4.3125   24.7085  -22.8868 C   0  0  0  0  0  0  0  0  0  0  0  0
   -5.4668   23.9709  -23.1524 C   0  0  0  0  0  0  0  0  0  0  0  0
   -6.2234   24.1812  -24.2893 C   0  0  0  0  0  0  0  0  0  0  0  0
 26 27  1  0  0  0
 27 25  1  0  0  0
 25 24  1  0  0  0
 24 23  1  0  0  0
 23 22  1  0  0  0
 22  1  1  0  0  0
  1  2  2  0  0  0
  2  3  1  0  0  0
  3  4  2  0  0  0
  4  5  1  0  0  0
  5  6  2  0  0  0
  6  7  1  0  0  0
  7  8  1  0  0  0
  8  9  2  0  0  0
  5 11  1  0  0  0
 11 12  1  0  0  0
 12 13  2  0  0  0
 13 14  1  0  0  0
 14 15  1  0  0  0
 14 16  1  0  0  0
 16 17  1  0  0  0
 17 18  1  0  0  0
 18 19  1  0  0  0
 19 20  1  0  0  0
 20 21  1  0  0  0
 27 28  1  0  0  0
 28 29  1  0  0  0
 29 30  2  0  0  0
 30 31  1  0  0  0
 31 32  2  0  0  0
 32 33  1  0  0  0
 33 34  2  0  0  0
  9  1  1  0  0  0
 15 11  2  0  0  0
 21 16  1  0  0  0
 34 29  1  0  0  0
  8  4  1  0  0  0
  7 10  1  0  0  0
M  END
> <minimizedAffinity>
-7.73655

> <CNNscore>
0.1627917439

> <CNNaffinity>
6.8621015549

> <CNN_VS>
1.1170934439

> <CNNaffinity_variance>
0.1550846100

$$$$
[H]c1nn(C2([H])C([H])([H])C([H])([H])C([H])([H])C([H])([H])C2([H])[H])c([H])c1-c1nn([H])c2c([H])c(OC([H])([H])C([H])([H])C([H])([H])N(C([H])([H])[H])C([H])([H])c3c([H])c([H])c([H])c([H])c3[H])c([H])c([H])c12


 34 38  0  0  0  0  0  0  0  0999 V2000
   -1.9257   21.8673  -23.9351 C   0  0  0  0  0  0  0  0  0  0  0  0
   -1.9384   21.3056  -22.6779 C   0  0  0  0  0  0  0  0  0  0  0  0
   -0.7287   20.9552  -22.0602 C   0  0  0  0  0  0  0  0  0  0  0  0
    0.4865   21.1511  -22.6624 C   0  0  0  0  0  0  0  0  0  0  0  0
    1.7967   20.9177  -22.3180 C   0  0  0  0  0  0  0  0  0  0  0  0
    2.5536   21.3400  -23.3635 N   0  0  0  0  0  0  0  0  0  0  0  0
    1.7627   21.8127  -24.3123 N   0  0  0  0  0  0  0  0  0  0  0  0
    0.4811   21.7158  -23.9225 C   0  0  0  0  0  0  0  0  0  0  0  0
   -0.6864   22.0625  -24.5386 C   0  0  0  0  0  0  0  0  0  0  0  0
    2.0551   22.2070  -25.2322 H   0  0  0  0  0  0  0  0  0  0  0  0
    2.2270   20.3316  -21.0619 C   0  0  0  0  0  0  0  0  0  0  0  0
    2.5324   21.0992  -19.9356 C   0  0  0  0  0  0  0  0  0  0  0  0
    2.8849   20.2604  -18.9752 N   0  0  0  0  0  0  0  0  0  0  0  0
    2.8311   18.9958  -19.3959 N   0  0  0  0  0  0  0  0  0  0  0  0
    2.4266   19.0413  -20.6784 C   0  0  0  0  0  0  0  0  0  0  0  0
    3.1624   17.8646  -18.5613 C   0  0  0  0  0  0  0  0  0  0  0  0
    2.2992   17.7418  -17.3451 C   0  0  0  0  0  0  0  0  0  0  0  0
    2.5891   16.4542  -16.6467 C   0  0  0  0  0  0  0  0  0  0  0  0
    3.8621   15.7879  -17.0992 C   0  0  0  0  0  0  0  0  0  0  0  0
    3.9013   15.5370  -18.5771 C   0  0  0  0  0  0  0  0  0  0  0  0
    3.0884   16.5547  -19.3427 C   0  0  0  0  0  0  0  0  0  0  0  0
   -3.0252   22.2404  -24.6261 O   0  0  0  0  0  0  0  0  0  0  0  0
   -4.2371   22.7653  -24.2605 C   0  0  0  0  0  0  0  0  0  0  0  0
   -4.2050   24.2346  -24.0091 C   0  0  0  0  0  0  0  0  0  0  0  0
   -5.3973   24.9381  -24.6782 C   0  0  0  0  0  0  0  0  0  0  0  0
   -5.3300   27.1145  -25.7536 C   0  0  0  0  0  0  0  0  0  0  0  0
   -4.9120   25.7751  -25.6949 N   0  0  0  0  0  0  0  0  0  0  0  0
   -3.9701   25.2893  -26.6171 C   0  0  0  0  0  0  0  0  0  0  0  0
   -4.4972   24.8329  -27.9106 C   0  0  0  0  0  0  0  0  0  0  0  0
   -5.0726   23.5845  -27.9889 C   0  0  0  0  0  0  0  0  0  0  0  0
   -5.5934   23.0750  -29.1640 C   0  0  0  0  0  0  0  0  0  0  0  0
   -5.5286   23.8528  -30.2888 C   0  0  0  0  0  0  0  0  0  0  0  0
   -4.9449   25.1174  -30.2053 C   0  0  0  0  0  0  0  0  0  0  0  0
   -4.4299   25.6082  -29.0208 C   0  0  0  0  0  0  0  0  0  0  0  0
 26 27  1  0  0  0
 27 25  1  0  0  0
 25 24  1  0  0  0
 24 23  1  0  0  0
 23 22  1  0  0  0
 22  1  1  0  0  0
  1  2  2  0  0  0
  2  3  1  0  0  0
  3  4  2  0  0  0
  4  5  1  0  0  0
  5  6  2  0  0  0
  6  7  1  0  0  0
  7  8  1  0  0  0
  8  9  2  0  0  0
  5 11  1  0  0  0
 11 12  1  0  0  0
 12 13  2  0  0  0
 13 14  1  0  0  0
 14 15  1  0  0  0
 14 16  1  0  0  0
 16 17  1  0  0  0
 17 18  1  0  0  0
 18 19  1  0  0  0
 19 20  1  0  0  0
 20 21  1  0  0  0
 27 28  1  0  0  0
 28 29  1  0  0  0
 29 30  2  0  0  0
 30 31  1  0  0  0
 31 32  2  0  0  0
 32 33  1  0  0  0
 33 34  2  0  0  0
  9  1  1  0  0  0
 15 11  2  0  0  0
 21 16  1  0  0  0
 34 29  1  0  0  0
  8  4  1  0  0  0
  7 10  1  0  0  0
M  END
> <minimizedAffinity>
-6.98829

> <CNNscore>
0.1354234964

> <CNNaffinity>
6.1510415077

> <CNN_VS>
0.8329955339

> <CNNaffinity_variance>
0.0259072334

$$$$
[H]c1nn(C2([H])C([H])([H])C([H])([H])C([H])([H])C([H])([H])C2([H])[H])c([H])c1-c1nn([H])c2c([H])c(OC([H])([H])C([H])([H])C([H])([H])N(C([H])([H])[H])C([H])([H])c3c([H])c([H])c([H])c([H])c3[H])c([H])c([H])c12


 34 38  0  0  0  0  0  0  0  0999 V2000
   -6.2476   21.7789  -21.9079 C   0  0  0  0  0  0  0  0  0  0  0  0
   -6.6251   22.2815  -23.1332 C   0  0  0  0  0  0  0  0  0  0  0  0
   -5.6709   22.4204  -24.1521 C   0  0  0  0  0  0  0  0  0  0  0  0
   -4.3570   22.0714  -23.9796 C   0  0  0  0  0  0  0  0  0  0  0  0
   -3.2294   22.0915  -24.7655 C   0  0  0  0  0  0  0  0  0  0  0  0
   -2.2162   21.6065  -24.0024 N   0  0  0  0  0  0  0  0  0  0  0  0
   -2.6815   21.2985  -22.8033 N   0  0  0  0  0  0  0  0  0  0  0  0
   -3.9959   21.5688  -22.7452 C   0  0  0  0  0  0  0  0  0  0  0  0
   -4.9108   21.4272  -21.7425 C   0  0  0  0  0  0  0  0  0  0  0  0
   -2.1401   20.9051  -22.0038 H   0  0  0  0  0  0  0  0  0  0  0  0
   -3.1916   22.5521  -26.1413 C   0  0  0  0  0  0  0  0  0  0  0  0
   -2.1101   22.3068  -26.9905 C   0  0  0  0  0  0  0  0  0  0  0  0
   -2.3981   22.8570  -28.1586 N   0  0  0  0  0  0  0  0  0  0  0  0
   -3.5946   23.4459  -28.1322 N   0  0  0  0  0  0  0  0  0  0  0  0
   -4.0809   23.2576  -26.8919 C   0  0  0  0  0  0  0  0  0  0  0  0
   -4.1707   24.1288  -29.2670 C   0  0  0  0  0  0  0  0  0  0  0  0
   -5.2396   23.3448  -29.9611 C   0  0  0  0  0  0  0  0  0  0  0  0
   -5.8992   24.1948  -30.9966 C   0  0  0  0  0  0  0  0  0  0  0  0
   -5.1376   25.4509  -31.3303 C   0  0  0  0  0  0  0  0  0  0  0  0
   -4.8601   26.3067  -30.1307 C   0  0  0  0  0  0  0  0  0  0  0  0
   -4.7465   25.4856  -28.8675 C   0  0  0  0  0  0  0  0  0  0  0  0
   -7.0767   21.6044  -20.8555 O   0  0  0  0  0  0  0  0  0  0  0  0
   -6.8791   21.5160  -19.5023 C   0  0  0  0  0  0  0  0  0  0  0  0
   -6.9669   22.8254  -18.7948 C   0  0  0  0  0  0  0  0  0  0  0  0
   -5.5687   23.4061  -18.5270 C   0  0  0  0  0  0  0  0  0  0  0  0
   -5.2599   24.8388  -16.5905 C   0  0  0  0  0  0  0  0  0  0  0  0
   -5.4020   23.5549  -17.1415 N   0  0  0  0  0  0  0  0  0  0  0  0
   -5.4317   22.4275  -16.3038 C   0  0  0  0  0  0  0  0  0  0  0  0
   -4.2278   22.1796  -15.4985 C   0  0  0  0  0  0  0  0  0  0  0  0
   -3.0789   21.7648  -16.1339 C   0  0  0  0  0  0  0  0  0  0  0  0
   -1.9017   21.5084  -15.4555 C   0  0  0  0  0  0  0  0  0  0  0  0
   -1.8903   21.6774  -14.0970 C   0  0  0  0  0  0  0  0  0  0  0  0
   -3.0566   22.0980  -13.4568 C   0  0  0  0  0  0  0  0  0  0  0  0
   -4.2232   22.3490  -14.1533 C   0  0  0  0  0  0  0  0  0  0  0  0
 26 27  1  0  0  0
 27 25  1  0  0  0
 25 24  1  0  0  0
 24 23  1  0  0  0
 23 22  1  0  0  0
 22  1  1  0  0  0
  1  2  2  0  0  0
  2  3  1  0  0  0
  3  4  2  0  0  0
  4  5  1  0  0  0
  5  6  2  0  0  0
  6  7  1  0  0  0
  7  8  1  0  0  0
  8  9  2  0  0  0
  5 11  1  0  0  0
 11 12  1  0  0  0
 12 13  2  0  0  0
 13 14  1  0  0  0
 14 15  1  0  0  0
 14 16  1  0  0  0
 16 17  1  0  0  0
 17 18  1  0  0  0
 18 19  1  0  0  0
 19 20  1  0  0  0
 20 21  1  0  0  0
 27 28  1  0  0  0
 28 29  1  0  0  0
 29 30  2  0  0  0
 30 31  1  0  0  0
 31 32  2  0  0  0
 32 33  1  0  0  0
 33 34  2  0  0  0
  9  1  1  0  0  0
 15 11  2  0  0  0
 21 16  1  0  0  0
 34 29  1  0  0  0
  8  4  1  0  0  0
  7 10  1  0  0  0
M  END
> <minimizedAffinity>
-7.17775

> <CNNscore>
0.1124431416

> <CNNaffinity>
6.1151876450

> <CNN_VS>
0.6876109242

> <CNNaffinity_variance>
0.3283377290

$$$$
[H]c1nn(C2([H])C([H])([H])C([H])([H])C([H])([H])C([H])([H])C2([H])[H])c([H])c1-c1nn([H])c2c([H])c(OC([H])([H])C([H])([H])C([H])([H])N(C([H])([H])[H])C([H])([H])c3c([H])c([H])c([H])c([H])c3[H])c([H])c([H])c12


 34 38  0  0  0  0  0  0  0  0999 V2000
   -6.2925   21.4649  -22.1516 C   0  0  0  0  0  0  0  0  0  0  0  0
   -6.6992   21.8434  -23.4116 C   0  0  0  0  0  0  0  0  0  0  0  0
   -5.7409   22.1253  -24.3965 C   0  0  0  0  0  0  0  0  0  0  0  0
   -4.3945   22.0386  -24.1566 C   0  0  0  0  0  0  0  0  0  0  0  0
   -3.2548   22.2449  -24.8968 C   0  0  0  0  0  0  0  0  0  0  0  0
   -2.2058   21.9882  -24.0735 N   0  0  0  0  0  0  0  0  0  0  0  0
   -2.6612   21.6396  -22.8817 N   0  0  0  0  0  0  0  0  0  0  0  0
   -4.0042   21.6571  -22.8882 C   0  0  0  0  0  0  0  0  0  0  0  0
   -4.9228   21.3795  -21.9177 C   0  0  0  0  0  0  0  0  0  0  0  0
   -2.0941   21.3844  -22.0449 H   0  0  0  0  0  0  0  0  0  0  0  0
   -3.2390   22.6559  -26.2887 C   0  0  0  0  0  0  0  0  0  0  0  0
   -2.2088   22.3108  -27.1666 C   0  0  0  0  0  0  0  0  0  0  0  0
   -2.5042   22.8399  -28.3426 N   0  0  0  0  0  0  0  0  0  0  0  0
   -3.6577   23.5079  -28.2947 N   0  0  0  0  0  0  0  0  0  0  0  0
   -4.1079   23.3939  -27.0319 C   0  0  0  0  0  0  0  0  0  0  0  0
   -4.2303   24.1896  -29.4319 C   0  0  0  0  0  0  0  0  0  0  0  0
   -5.3427   23.4338  -30.0881 C   0  0  0  0  0  0  0  0  0  0  0  0
   -5.9903   24.2877  -31.1279 C   0  0  0  0  0  0  0  0  0  0  0  0
   -5.1880   25.5062  -31.5030 C   0  0  0  0  0  0  0  0  0  0  0  0
   -4.8532   26.3747  -30.3273 C   0  0  0  0  0  0  0  0  0  0  0  0
   -4.7452   25.5755  -29.0497 C   0  0  0  0  0  0  0  0  0  0  0  0
   -7.1230   21.1729  -21.1266 O   0  0  0  0  0  0  0  0  0  0  0  0
   -8.2480   21.7717  -20.6230 C   0  0  0  0  0  0  0  0  0  0  0  0
   -8.0566   23.2061  -20.2640 C   0  0  0  0  0  0  0  0  0  0  0  0
   -9.1806   24.0786  -20.8466 C   0  0  0  0  0  0  0  0  0  0  0  0
   -8.2950   26.3309  -20.6455 C   0  0  0  0  0  0  0  0  0  0  0  0
   -8.6066   25.2144  -21.4383 N   0  0  0  0  0  0  0  0  0  0  0  0
   -8.2952   25.2134  -22.8081 C   0  0  0  0  0  0  0  0  0  0  0  0
   -6.8799   25.4001  -23.1568 C   0  0  0  0  0  0  0  0  0  0  0  0
   -6.5643   25.9212  -24.3915 C   0  0  0  0  0  0  0  0  0  0  0  0
   -5.2609   26.1303  -24.8026 C   0  0  0  0  0  0  0  0  0  0  0  0
   -4.2515   25.8019  -23.9379 C   0  0  0  0  0  0  0  0  0  0  0  0
   -4.5753   25.2741  -22.6876 C   0  0  0  0  0  0  0  0  0  0  0  0
   -5.8850   25.0728  -22.2958 C   0  0  0  0  0  0  0  0  0  0  0  0
 26 27  1  0  0  0
 27 25  1  0  0  0
 25 24  1  0  0  0
 24 23  1  0  0  0
 23 22  1  0  0  0
 22  1  1  0  0  0
  1  2  2  0  0  0
  2  3  1  0  0  0
  3  4  2  0  0  0
  4  5  1  0  0  0
  5  6  2  0  0  0
  6  7  1  0  0  0
  7  8  1  0  0  0
  8  9  2  0  0  0
  5 11  1  0  0  0
 11 12  1  0  0  0
 12 13  2  0  0  0
 13 14  1  0  0  0
 14 15  1  0  0  0
 14 16  1  0  0  0
 16 17  1  0  0  0
 17 18  1  0  0  0
 18 19  1  0  0  0
 19 20  1  0  0  0
 20 21  1  0  0  0
 27 28  1  0  0  0
 28 29  1  0  0  0
 29 30  2  0  0  0
 30 31  1  0  0  0
 31 32  2  0  0  0
 32 33  1  0  0  0
 33 34  2  0  0  0
  9  1  1  0  0  0
 15 11  2  0  0  0
 21 16  1  0  0  0
 34 29  1  0  0  0
  8  4  1  0  0  0
  7 10  1  0  0  0
M  END
> <minimizedAffinity>
-8.04321

> <CNNscore>
0.1059639528

> <CNNaffinity>
6.5733833313

> <CNN_VS>
0.6965416670

> <CNNaffinity_variance>
0.4279595912

$$$$
[H]c1nn(C2([H])C([H])([H])C([H])([H])C([H])([H])C([H])([H])C2([H])[H])c([H])c1-c1nn([H])c2c([H])c(OC([H])([H])C([H])([H])C([H])([H])N(C([H])([H])[H])C([H])([H])c3c([H])c([H])c([H])c([H])c3[H])c([H])c([H])c12


 34 38  0  0  0  0  0  0  0  0999 V2000
   -8.4680   23.0074  -20.8043 C   0  0  0  0  0  0  0  0  0  0  0  0
   -7.4135   22.2498  -21.2630 C   0  0  0  0  0  0  0  0  0  0  0  0
   -6.7277   22.6417  -22.4223 C   0  0  0  0  0  0  0  0  0  0  0  0
   -7.0659   23.7649  -23.1307 C   0  0  0  0  0  0  0  0  0  0  0  0
   -6.5958   24.3835  -24.2646 C   0  0  0  0  0  0  0  0  0  0  0  0
   -7.3696   25.4830  -24.4559 N   0  0  0  0  0  0  0  0  0  0  0  0
   -8.2758   25.5516  -23.4950 N   0  0  0  0  0  0  0  0  0  0  0  0
   -8.1252   24.5132  -22.6565 C   0  0  0  0  0  0  0  0  0  0  0  0
   -8.8039   24.1466  -21.5306 C   0  0  0  0  0  0  0  0  0  0  0  0
   -9.0082   26.2841  -23.3764 H   0  0  0  0  0  0  0  0  0  0  0  0
   -5.4806   23.9065  -25.0617 C   0  0  0  0  0  0  0  0  0  0  0  0
   -5.6482   23.2997  -26.3086 C   0  0  0  0  0  0  0  0  0  0  0  0
   -4.4429   22.9900  -26.7574 N   0  0  0  0  0  0  0  0  0  0  0  0
   -3.4973   23.3526  -25.8893 N   0  0  0  0  0  0  0  0  0  0  0  0
   -4.1366   23.9156  -24.8479 C   0  0  0  0  0  0  0  0  0  0  0  0
   -2.0867   23.1391  -26.1139 C   0  0  0  0  0  0  0  0  0  0  0  0
   -1.4283   22.3105  -25.0560 C   0  0  0  0  0  0  0  0  0  0  0  0
   -0.0278   21.9900  -25.4628 C   0  0  0  0  0  0  0  0  0  0  0  0
    0.4829   22.8289  -26.6050 C   0  0  0  0  0  0  0  0  0  0  0  0
   -0.3866   22.7540  -27.8244 C   0  0  0  0  0  0  0  0  0  0  0  0
   -1.8308   22.4862  -27.4704 C   0  0  0  0  0  0  0  0  0  0  0  0
   -9.2010   22.7261  -19.7047 O   0  0  0  0  0  0  0  0  0  0  0  0
   -9.5584   21.5593  -19.0812 C   0  0  0  0  0  0  0  0  0  0  0  0
  -10.2789   21.7625  -17.7918 C   0  0  0  0  0  0  0  0  0  0  0  0
  -10.8373   20.4351  -17.2531 C   0  0  0  0  0  0  0  0  0  0  0  0
   -9.2988   20.8041  -15.4106 C   0  0  0  0  0  0  0  0  0  0  0  0
   -9.9438   19.9269  -16.2976 N   0  0  0  0  0  0  0  0  0  0  0  0
   -9.7374   18.5412  -16.1935 C   0  0  0  0  0  0  0  0  0  0  0  0
   -8.4326   18.0389  -16.6457 C   0  0  0  0  0  0  0  0  0  0  0  0
   -8.1242   18.1067  -17.9859 C   0  0  0  0  0  0  0  0  0  0  0  0
   -6.9212   17.6580  -18.4988 C   0  0  0  0  0  0  0  0  0  0  0  0
   -6.0074   17.1266  -17.6287 C   0  0  0  0  0  0  0  0  0  0  0  0
   -6.3235   17.0597  -16.2714 C   0  0  0  0  0  0  0  0  0  0  0  0
   -7.5320   17.5139  -15.7789 C   0  0  0  0  0  0  0  0  0  0  0  0
 26 27  1  0  0  0
 27 25  1  0  0  0
 25 24  1  0  0  0
 24 23  1  0  0  0
 23 22  1  0  0  0
 22  1  1  0  0  0
  1  2  2  0  0  0
  2  3  1  0  0  0
  3  4  2  0  0  0
  4  5  1  0  0  0
  5  6  2  0  0  0
  6  7  1  0  0  0
  7  8  1  0  0  0
  8  9  2  0  0  0
  5 11  1  0  0  0
 11 12  1  0  0  0
 12 13  2  0  0  0
 13 14  1  0  0  0
 14 15  1  0  0  0
 14 16  1  0  0  0
 16 17  1  0  0  0
 17 18  1  0  0  0
 18 19  1  0  0  0
 19 20  1  0  0  0
 20 21  1  0  0  0
 27 28  1  0  0  0
 28 29  1  0  0  0
 29 30  2  0  0  0
 30 31  1  0  0  0
 31 32  2  0  0  0
 32 33  1  0  0  0
 33 34  2  0  0  0
  9  1  1  0  0  0
 15 11  2  0  0  0
 21 16  1  0  0  0
 34 29  1  0  0  0
  8  4  1  0  0  0
  7 10  1  0  0  0
M  END
> <minimizedAffinity>
-6.93961

> <CNNscore>
0.0875220597

> <CNNaffinity>
5.7730445862

> <CNN_VS>
0.5052687526

> <CNNaffinity_variance>
0.0953494161

$$$$
[H]OC([H])([H])C([H])([H])N(c1nn2c(-c3c([H])nc(OC([H])(C([H])([H])[H])C([H])([H])[H])c([H])c3[H])c([H])nc2c([H])c1[H])c1c([H])c(OC([H])([H])[H])c([H])c(OC([H])([H])[H])c1[H]


 34 37  0  0  0  0  0  0  0  0999 V2000
   -1.7358   22.0068  -22.7395 C   0  0  0  0  0  0  0  0  0  0  0  0
   -0.4381   21.5834  -22.5286 C   0  0  0  0  0  0  0  0  0  0  0  0
    0.4187   21.5459  -23.6048 C   0  0  0  0  0  0  0  0  0  0  0  0
    0.0305   21.9119  -24.8719 C   0  0  0  0  0  0  0  0  0  0  0  0
    0.6705   21.9557  -26.0480 N   0  0  0  0  0  0  0  0  0  0  0  0
   -0.1763   22.3919  -26.9938 C   0  0  0  0  0  0  0  0  0  0  0  0
   -1.3820   22.6168  -26.3357 C   0  0  0  0  0  0  0  0  0  0  0  0
   -1.2639   22.3260  -25.0386 N   0  0  0  0  0  0  0  0  0  0  0  0
   -2.0591   22.3504  -23.9859 N   0  0  0  0  0  0  0  0  0  0  0  0
   -2.5850   23.1104  -27.0092 C   0  0  0  0  0  0  0  0  0  0  0  0
   -2.8916   22.6169  -28.2614 C   0  0  0  0  0  0  0  0  0  0  0  0
   -4.0010   23.0408  -28.9490 C   0  0  0  0  0  0  0  0  0  0  0  0
   -4.8412   23.9789  -28.3973 C   0  0  0  0  0  0  0  0  0  0  0  0
   -4.5209   24.4405  -27.1817 N   0  0  0  0  0  0  0  0  0  0  0  0
   -3.4408   24.0413  -26.4881 C   0  0  0  0  0  0  0  0  0  0  0  0
   -5.9804   24.4500  -29.0436 O   0  0  0  0  0  0  0  0  0  0  0  0
   -5.8377   25.3096  -30.1734 C   0  0  0  0  0  0  0  0  0  0  0  0
   -5.9746   24.4564  -31.4211 C   0  0  0  0  0  0  0  0  0  0  0  0
   -4.4890   25.9580  -30.1436 C   0  0  0  0  0  0  0  0  0  0  0  0
   -2.6887   22.0466  -21.6574 N   0  0  0  0  0  0  0  0  0  0  0  0
   -5.5591   24.2069  -22.6518 C   0  0  0  0  0  0  0  0  0  0  0  0
   -6.6035   23.3645  -22.3434 C   0  0  0  0  0  0  0  0  0  0  0  0
   -6.3773   22.0999  -21.8122 C   0  0  0  0  0  0  0  0  0  0  0  0
   -5.0778   21.6809  -21.5901 C   0  0  0  0  0  0  0  0  0  0  0  0
   -4.0180   22.5076  -21.8914 C   0  0  0  0  0  0  0  0  0  0  0  0
   -4.2817   23.7612  -22.4189 C   0  0  0  0  0  0  0  0  0  0  0  0
   -7.0754   25.7371  -23.7772 C   0  0  0  0  0  0  0  0  0  0  0  0
   -5.7923   25.4865  -23.1901 O   0  0  0  0  0  0  0  0  0  0  0  0
   -7.4444   21.2595  -21.5055 O   0  0  0  0  0  0  0  0  0  0  0  0
   -8.5713   21.7619  -20.8142 C   0  0  0  0  0  0  0  0  0  0  0  0
   -2.2596   21.6339  -20.3431 C   0  0  0  0  0  0  0  0  0  0  0  0
   -2.0764   22.7854  -19.3796 C   0  0  0  0  0  0  0  0  0  0  0  0
   -1.0617   23.6454  -19.7084 O   0  0  0  0  0  0  0  0  0  0  0  0
   -0.5719   24.0279  -18.9590 H   0  0  0  0  0  0  0  0  0  0  0  0
 27 28  1  0  0  0
 28 21  1  0  0  0
 21 22  2  0  0  0
 22 23  1  0  0  0
 23 29  1  0  0  0
 29 30  1  0  0  0
 23 24  2  0  0  0
 24 25  1  0  0  0
 25 26  2  0  0  0
 25 20  1  0  0  0
 20 31  1  0  0  0
 31 32  1  0  0  0
 32 33  1  0  0  0
 20  1  1  0  0  0
  1  2  1  0  0  0
  2  3  2  0  0  0
  3  4  1  0  0  0
  4  5  2  0  0  0
  5  6  1  0  0  0
  6  7  2  0  0  0
  7 10  1  0  0  0
 10 11  2  0  0  0
 11 12  1  0  0  0
 12 13  2  0  0  0
 13 16  1  0  0  0
 16 17  1  0  0  0
 17 18  1  0  0  0
 17 19  1  0  0  0
 13 14  1  0  0  0
 14 15  2  0  0  0
  7  8  1  0  0  0
  8  9  1  0  0  0
 26 21  1  0  0  0
  9  1  2  0  0  0
  8  4  1  0  0  0
 15 10  1  0  0  0
 33 34  1  0  0  0
M  END
> <minimizedAffinity>
-8.57561

> <CNNscore>
0.6794751883

> <CNNaffinity>
7.3102712631

> <CNN_VS>
4.9671478271

> <CNNaffinity_variance>
0.3740156293

$$$$
[H]OC([H])([H])C([H])([H])N(c1nn2c(-c3c([H])nc(OC([H])(C([H])([H])[H])C([H])([H])[H])c([H])c3[H])c([H])nc2c([H])c1[H])c1c([H])c(OC([H])([H])[H])c([H])c(OC([H])([H])[H])c1[H]


 34 37  0  0  0  0  0  0  0  0999 V2000
   -1.9721   22.0230  -22.7599 C   0  0  0  0  0  0  0  0  0  0  0  0
   -0.6728   21.6554  -22.4694 C   0  0  0  0  0  0  0  0  0  0  0  0
    0.2491   21.6563  -23.4911 C   0  0  0  0  0  0  0  0  0  0  0  0
   -0.0760   22.0073  -24.7800 C   0  0  0  0  0  0  0  0  0  0  0  0
    0.6324   22.0801  -25.9147 N   0  0  0  0  0  0  0  0  0  0  0  0
   -0.1729   22.4811  -26.9111 C   0  0  0  0  0  0  0  0  0  0  0  0
   -1.4251   22.6531  -26.3284 C   0  0  0  0  0  0  0  0  0  0  0  0
   -1.3743   22.3657  -25.0262 N   0  0  0  0  0  0  0  0  0  0  0  0
   -2.2329   22.3544  -24.0242 N   0  0  0  0  0  0  0  0  0  0  0  0
   -2.6047   23.0957  -27.0748 C   0  0  0  0  0  0  0  0  0  0  0  0
   -3.4327   24.0409  -26.5033 C   0  0  0  0  0  0  0  0  0  0  0  0
   -4.5566   24.4949  -27.1467 C   0  0  0  0  0  0  0  0  0  0  0  0
   -4.8856   24.0108  -28.3907 C   0  0  0  0  0  0  0  0  0  0  0  0
   -4.0653   23.0953  -28.9223 N   0  0  0  0  0  0  0  0  0  0  0  0
   -2.9591   22.6350  -28.3128 C   0  0  0  0  0  0  0  0  0  0  0  0
   -6.0113   24.4297  -29.0941 O   0  0  0  0  0  0  0  0  0  0  0  0
   -5.8515   25.2941  -30.2180 C   0  0  0  0  0  0  0  0  0  0  0  0
   -5.9710   24.4464  -31.4712 C   0  0  0  0  0  0  0  0  0  0  0  0
   -4.5027   25.9409  -30.1657 C   0  0  0  0  0  0  0  0  0  0  0  0
   -2.9903   22.0203  -21.7383 N   0  0  0  0  0  0  0  0  0  0  0  0
   -6.6956   22.2372  -22.0828 C   0  0  0  0  0  0  0  0  0  0  0  0
   -6.8091   23.5128  -22.5882 C   0  0  0  0  0  0  0  0  0  0  0  0
   -5.6865   24.2997  -22.8186 C   0  0  0  0  0  0  0  0  0  0  0  0
   -4.4322   23.7905  -22.5341 C   0  0  0  0  0  0  0  0  0  0  0  0
   -4.2956   22.5167  -22.0279 C   0  0  0  0  0  0  0  0  0  0  0  0
   -5.4367   21.7614  -21.8116 C   0  0  0  0  0  0  0  0  0  0  0  0
   -8.4617   21.5406  -20.5652 C   0  0  0  0  0  0  0  0  0  0  0  0
   -7.8348   21.4437  -21.8503 O   0  0  0  0  0  0  0  0  0  0  0  0
   -5.8180   25.5882  -23.3301 O   0  0  0  0  0  0  0  0  0  0  0  0
   -6.6117   25.8220  -24.4772 C   0  0  0  0  0  0  0  0  0  0  0  0
   -2.6503   21.5288  -20.4251 C   0  0  0  0  0  0  0  0  0  0  0  0
   -2.5954   22.6126  -19.3713 C   0  0  0  0  0  0  0  0  0  0  0  0
   -1.5690   23.5066  -19.5288 O   0  0  0  0  0  0  0  0  0  0  0  0
   -1.1705   23.8423  -18.7064 H   0  0  0  0  0  0  0  0  0  0  0  0
 27 28  1  0  0  0
 28 21  1  0  0  0
 21 22  2  0  0  0
 22 23  1  0  0  0
 23 29  1  0  0  0
 29 30  1  0  0  0
 23 24  2  0  0  0
 24 25  1  0  0  0
 25 26  2  0  0  0
 25 20  1  0  0  0
 20 31  1  0  0  0
 31 32  1  0  0  0
 32 33  1  0  0  0
 20  1  1  0  0  0
  1  2  1  0  0  0
  2  3  2  0  0  0
  3  4  1  0  0  0
  4  5  2  0  0  0
  5  6  1  0  0  0
  6  7  2  0  0  0
  7 10  1  0  0  0
 10 11  2  0  0  0
 11 12  1  0  0  0
 12 13  2  0  0  0
 13 16  1  0  0  0
 16 17  1  0  0  0
 17 18  1  0  0  0
 17 19  1  0  0  0
 13 14  1  0  0  0
 14 15  2  0  0  0
  7  8  1  0  0  0
  8  9  1  0  0  0
 26 21  1  0  0  0
  9  1  2  0  0  0
  8  4  1  0  0  0
 15 10  1  0  0  0
 33 34  1  0  0  0
M  END
> <minimizedAffinity>
-8.37333

> <CNNscore>
0.6163129210

> <CNNaffinity>
7.2644181252

> <CNN_VS>
4.4771547318

> <CNNaffinity_variance>
0.3073731065

$$$$
[H]OC([H])([H])C([H])([H])N(c1nn2c(-c3c([H])nc(OC([H])(C([H])([H])[H])C([H])([H])[H])c([H])c3[H])c([H])nc2c([H])c1[H])c1c([H])c(OC([H])([H])[H])c([H])c(OC([H])([H])[H])c1[H]


 34 37  0  0  0  0  0  0  0  0999 V2000
   -2.6275   22.2464  -25.3600 C   0  0  0  0  0  0  0  0  0  0  0  0
   -1.8110   22.2603  -26.4739 C   0  0  0  0  0  0  0  0  0  0  0  0
   -0.4627   22.0501  -26.2968 C   0  0  0  0  0  0  0  0  0  0  0  0
    0.0949   21.8290  -25.0597 C   0  0  0  0  0  0  0  0  0  0  0  0
    1.3505   21.6071  -24.6485 N   0  0  0  0  0  0  0  0  0  0  0  0
    1.3559   21.4531  -23.3149 C   0  0  0  0  0  0  0  0  0  0  0  0
    0.0284   21.5928  -22.9208 C   0  0  0  0  0  0  0  0  0  0  0  0
   -0.7487   21.8226  -23.9812 N   0  0  0  0  0  0  0  0  0  0  0  0
   -2.0361   22.0271  -24.1860 N   0  0  0  0  0  0  0  0  0  0  0  0
   -0.4116   21.4880  -21.5280 C   0  0  0  0  0  0  0  0  0  0  0  0
   -0.9225   22.6114  -20.9095 C   0  0  0  0  0  0  0  0  0  0  0  0
   -1.3478   22.5828  -19.6051 C   0  0  0  0  0  0  0  0  0  0  0  0
   -1.2724   21.4188  -18.8774 C   0  0  0  0  0  0  0  0  0  0  0  0
   -0.7735   20.3440  -19.5015 N   0  0  0  0  0  0  0  0  0  0  0  0
   -0.3507   20.3463  -20.7775 C   0  0  0  0  0  0  0  0  0  0  0  0
   -1.6860   21.3251  -17.5517 O   0  0  0  0  0  0  0  0  0  0  0  0
   -3.0809   21.2691  -17.2572 C   0  0  0  0  0  0  0  0  0  0  0  0
   -3.7705   20.5860  -18.4239 C   0  0  0  0  0  0  0  0  0  0  0  0
   -3.6148   22.6574  -17.0902 C   0  0  0  0  0  0  0  0  0  0  0  0
   -4.0456   22.4831  -25.4761 N   0  0  0  0  0  0  0  0  0  0  0  0
   -5.5270   24.2885  -28.3814 C   0  0  0  0  0  0  0  0  0  0  0  0
   -5.4702   25.5799  -27.9078 C   0  0  0  0  0  0  0  0  0  0  0  0
   -4.9508   25.8646  -26.6501 C   0  0  0  0  0  0  0  0  0  0  0  0
   -4.4827   24.8298  -25.8603 C   0  0  0  0  0  0  0  0  0  0  0  0
   -4.5299   23.5303  -26.3146 C   0  0  0  0  0  0  0  0  0  0  0  0
   -5.0539   23.2846  -27.5733 C   0  0  0  0  0  0  0  0  0  0  0  0
   -5.6120   24.8119  -30.7533 C   0  0  0  0  0  0  0  0  0  0  0  0
   -6.0543   24.0043  -29.6553 O   0  0  0  0  0  0  0  0  0  0  0  0
   -4.9003   27.1763  -26.1852 O   0  0  0  0  0  0  0  0  0  0  0  0
   -4.1223   27.5004  -25.0495 C   0  0  0  0  0  0  0  0  0  0  0  0
   -4.9489   21.6565  -24.7129 C   0  0  0  0  0  0  0  0  0  0  0  0
   -5.5535   22.3652  -23.5212 C   0  0  0  0  0  0  0  0  0  0  0  0
   -4.6422   22.7899  -22.5904 O   0  0  0  0  0  0  0  0  0  0  0  0
   -4.9341   22.7477  -21.6625 H   0  0  0  0  0  0  0  0  0  0  0  0
 27 28  1  0  0  0
 28 21  1  0  0  0
 21 22  2  0  0  0
 22 23  1  0  0  0
 23 29  1  0  0  0
 29 30  1  0  0  0
 23 24  2  0  0  0
 24 25  1  0  0  0
 25 26  2  0  0  0
 25 20  1  0  0  0
 20 31  1  0  0  0
 31 32  1  0  0  0
 32 33  1  0  0  0
 20  1  1  0  0  0
  1  2  1  0  0  0
  2  3  2  0  0  0
  3  4  1  0  0  0
  4  5  2  0  0  0
  5  6  1  0  0  0
  6  7  2  0  0  0
  7 10  1  0  0  0
 10 11  2  0  0  0
 11 12  1  0  0  0
 12 13  2  0  0  0
 13 16  1  0  0  0
 16 17  1  0  0  0
 17 18  1  0  0  0
 17 19  1  0  0  0
 13 14  1  0  0  0
 14 15  2  0  0  0
  7  8  1  0  0  0
  8  9  1  0  0  0
 26 21  1  0  0  0
  9  1  2  0  0  0
  8  4  1  0  0  0
 15 10  1  0  0  0
 33 34  1  0  0  0
M  END
> <minimizedAffinity>
-7.08773

> <CNNscore>
0.3716277182

> <CNNaffinity>
6.8507537842

> <CNN_VS>
2.5459299088

> <CNNaffinity_variance>
0.1086561829

$$$$
[H]OC([H])([H])C([H])([H])N(c1nn2c(-c3c([H])nc(OC([H])(C([H])([H])[H])C([H])([H])[H])c([H])c3[H])c([H])nc2c([H])c1[H])c1c([H])c(OC([H])([H])[H])c([H])c(OC([H])([H])[H])c1[H]


 34 37  0  0  0  0  0  0  0  0999 V2000
   -4.1916   23.7405  -25.8413 C   0  0  0  0  0  0  0  0  0  0  0  0
   -4.2478   23.9792  -27.2006 C   0  0  0  0  0  0  0  0  0  0  0  0
   -3.1603   23.6322  -27.9691 C   0  0  0  0  0  0  0  0  0  0  0  0
   -2.0295   23.0611  -27.4350 C   0  0  0  0  0  0  0  0  0  0  0  0
   -0.8723   22.6496  -27.9700 N   0  0  0  0  0  0  0  0  0  0  0  0
   -0.0877   22.1591  -26.9975 C   0  0  0  0  0  0  0  0  0  0  0  0
   -0.8260   22.2904  -25.8249 C   0  0  0  0  0  0  0  0  0  0  0  0
   -2.0139   22.8406  -26.0838 N   0  0  0  0  0  0  0  0  0  0  0  0
   -3.0731   23.1849  -25.3760 N   0  0  0  0  0  0  0  0  0  0  0  0
   -0.3331   21.8649  -24.5132 C   0  0  0  0  0  0  0  0  0  0  0  0
   -1.2501   21.6068  -23.5141 C   0  0  0  0  0  0  0  0  0  0  0  0
   -0.8550   21.2096  -22.2614 C   0  0  0  0  0  0  0  0  0  0  0  0
    0.4805   21.0587  -21.9716 C   0  0  0  0  0  0  0  0  0  0  0  0
    1.3485   21.3149  -22.9588 N   0  0  0  0  0  0  0  0  0  0  0  0
    0.9869   21.7048  -24.1934 C   0  0  0  0  0  0  0  0  0  0  0  0
    0.9450   20.6600  -20.7215 O   0  0  0  0  0  0  0  0  0  0  0  0
    1.2085   21.6479  -19.7264 C   0  0  0  0  0  0  0  0  0  0  0  0
    2.7136   21.7364  -19.5530 C   0  0  0  0  0  0  0  0  0  0  0  0
    0.5686   21.2428  -18.4353 C   0  0  0  0  0  0  0  0  0  0  0  0
   -5.2890   24.1026  -24.9781 N   0  0  0  0  0  0  0  0  0  0  0  0
   -6.6404   22.0958  -22.1424 C   0  0  0  0  0  0  0  0  0  0  0  0
   -5.6483   22.3083  -21.2118 C   0  0  0  0  0  0  0  0  0  0  0  0
   -4.5449   23.1023  -21.5027 C   0  0  0  0  0  0  0  0  0  0  0  0
   -4.4427   23.6891  -22.7512 C   0  0  0  0  0  0  0  0  0  0  0  0
   -5.4239   23.4899  -23.6972 C   0  0  0  0  0  0  0  0  0  0  0  0
   -6.5093   22.6928  -23.3717 C   0  0  0  0  0  0  0  0  0  0  0  0
   -8.5969   21.6958  -20.7569 C   0  0  0  0  0  0  0  0  0  0  0  0
   -7.7559   21.2906  -21.8442 O   0  0  0  0  0  0  0  0  0  0  0  0
   -3.5496   23.3076  -20.5506 O   0  0  0  0  0  0  0  0  0  0  0  0
   -3.2582   22.3049  -19.5967 C   0  0  0  0  0  0  0  0  0  0  0  0
   -6.2474   25.0729  -25.4488 C   0  0  0  0  0  0  0  0  0  0  0  0
   -5.9850   26.4740  -24.9430 C   0  0  0  0  0  0  0  0  0  0  0  0
   -6.5996   26.7737  -23.7556 O   0  0  0  0  0  0  0  0  0  0  0  0
   -6.9107   27.6913  -23.6601 H   0  0  0  0  0  0  0  0  0  0  0  0
 27 28  1  0  0  0
 28 21  1  0  0  0
 21 22  2  0  0  0
 22 23  1  0  0  0
 23 29  1  0  0  0
 29 30  1  0  0  0
 23 24  2  0  0  0
 24 25  1  0  0  0
 25 26  2  0  0  0
 25 20  1  0  0  0
 20 31  1  0  0  0
 31 32  1  0  0  0
 32 33  1  0  0  0
 20  1  1  0  0  0
  1  2  1  0  0  0
  2  3  2  0  0  0
  3  4  1  0  0  0
  4  5  2  0  0  0
  5  6  1  0  0  0
  6  7  2  0  0  0
  7 10  1  0  0  0
 10 11  2  0  0  0
 11 12  1  0  0  0
 12 13  2  0  0  0
 13 16  1  0  0  0
 16 17  1  0  0  0
 17 18  1  0  0  0
 17 19  1  0  0  0
 13 14  1  0  0  0
 14 15  2  0  0  0
  7  8  1  0  0  0
  8  9  1  0  0  0
 26 21  1  0  0  0
  9  1  2  0  0  0
  8  4  1  0  0  0
 15 10  1  0  0  0
 33 34  1  0  0  0
M  END
> <minimizedAffinity>
-8.06348

> <CNNscore>
0.3548794985

> <CNNaffinity>
6.8299355507

> <CNN_VS>
2.4238040447

> <CNNaffinity_variance>
0.1265189797

$$$$
[H]OC([H])([H])C([H])([H])N(c1nn2c(-c3c([H])nc(OC([H])(C([H])([H])[H])C([H])([H])[H])c([H])c3[H])c([H])nc2c([H])c1[H])c1c([H])c(OC([H])([H])[H])c([H])c(OC([H])([H])[H])c1[H]


 34 37  0  0  0  0  0  0  0  0999 V2000
   -4.6671   23.7424  -25.7032 C   0  0  0  0  0  0  0  0  0  0  0  0
   -4.8922   24.0077  -27.0399 C   0  0  0  0  0  0  0  0  0  0  0  0
   -3.8869   23.7310  -27.9379 C   0  0  0  0  0  0  0  0  0  0  0  0
   -2.6766   23.2042  -27.5536 C   0  0  0  0  0  0  0  0  0  0  0  0
   -1.5719   22.8614  -28.2297 N   0  0  0  0  0  0  0  0  0  0  0  0
   -0.6577   22.3886  -27.3679 C   0  0  0  0  0  0  0  0  0  0  0  0
   -1.2595   22.4581  -26.1149 C   0  0  0  0  0  0  0  0  0  0  0  0
   -2.4936   22.9553  -26.2198 N   0  0  0  0  0  0  0  0  0  0  0  0
   -3.4777   23.2319  -25.3854 N   0  0  0  0  0  0  0  0  0  0  0  0
   -0.5982   22.0285  -24.8809 C   0  0  0  0  0  0  0  0  0  0  0  0
   -1.3770   21.7493  -23.7759 C   0  0  0  0  0  0  0  0  0  0  0  0
   -0.8206   21.3471  -22.5877 C   0  0  0  0  0  0  0  0  0  0  0  0
    0.5428   21.2125  -22.4718 C   0  0  0  0  0  0  0  0  0  0  0  0
    1.2746   21.4891  -23.5588 N   0  0  0  0  0  0  0  0  0  0  0  0
    0.7538   21.8843  -24.7333 C   0  0  0  0  0  0  0  0  0  0  0  0
    1.1678   20.8099  -21.2950 O   0  0  0  0  0  0  0  0  0  0  0  0
    2.5903   20.7051  -21.2599 C   0  0  0  0  0  0  0  0  0  0  0  0
    2.9408   19.2319  -21.1587 C   0  0  0  0  0  0  0  0  0  0  0  0
    3.1183   21.4388  -20.0669 C   0  0  0  0  0  0  0  0  0  0  0  0
   -5.6719   24.0316  -24.7096 N   0  0  0  0  0  0  0  0  0  0  0  0
   -4.4648   23.0259  -21.3293 C   0  0  0  0  0  0  0  0  0  0  0  0
   -5.5115   22.2222  -20.9369 C   0  0  0  0  0  0  0  0  0  0  0  0
   -6.6049   22.0053  -21.7675 C   0  0  0  0  0  0  0  0  0  0  0  0
   -6.6411   22.6093  -23.0115 C   0  0  0  0  0  0  0  0  0  0  0  0
   -5.6046   23.4172  -23.4242 C   0  0  0  0  0  0  0  0  0  0  0  0
   -4.5312   23.6100  -22.5699 C   0  0  0  0  0  0  0  0  0  0  0  0
   -3.2034   22.3739  -19.3567 C   0  0  0  0  0  0  0  0  0  0  0  0
   -3.3597   23.2435  -20.4850 O   0  0  0  0  0  0  0  0  0  0  0  0
   -7.6559   21.1896  -21.3560 O   0  0  0  0  0  0  0  0  0  0  0  0
   -8.7509   21.7400  -20.6501 C   0  0  0  0  0  0  0  0  0  0  0  0
   -6.7463   24.9307  -25.0546 C   0  0  0  0  0  0  0  0  0  0  0  0
   -6.4715   26.3702  -24.6798 C   0  0  0  0  0  0  0  0  0  0  0  0
   -6.8153   26.6981  -23.3946 O   0  0  0  0  0  0  0  0  0  0  0  0
   -7.1585   27.6000  -23.2655 H   0  0  0  0  0  0  0  0  0  0  0  0
 27 28  1  0  0  0
 28 21  1  0  0  0
 21 22  2  0  0  0
 22 23  1  0  0  0
 23 29  1  0  0  0
 29 30  1  0  0  0
 23 24  2  0  0  0
 24 25  1  0  0  0
 25 26  2  0  0  0
 25 20  1  0  0  0
 20 31  1  0  0  0
 31 32  1  0  0  0
 32 33  1  0  0  0
 20  1  1  0  0  0
  1  2  1  0  0  0
  2  3  2  0  0  0
  3  4  1  0  0  0
  4  5  2  0  0  0
  5  6  1  0  0  0
  6  7  2  0  0  0
  7 10  1  0  0  0
 10 11  2  0  0  0
 11 12  1  0  0  0
 12 13  2  0  0  0
 13 16  1  0  0  0
 16 17  1  0  0  0
 17 18  1  0  0  0
 17 19  1  0  0  0
 13 14  1  0  0  0
 14 15  2  0  0  0
  7  8  1  0  0  0
  8  9  1  0  0  0
 26 21  1  0  0  0
  9  1  2  0  0  0
  8  4  1  0  0  0
 15 10  1  0  0  0
 33 34  1  0  0  0
M  END
> <minimizedAffinity>
-8.06492

> <CNNscore>
0.3544567823

> <CNNaffinity>
6.8009705544

> <CNN_VS>
2.4106502533

> <CNNaffinity_variance>
0.1482407749

$$$$
[H]OC([H])([H])C([H])([H])N(c1nn2c(-c3c([H])nc(OC([H])(C([H])([H])[H])C([H])([H])[H])c([H])c3[H])c([H])nc2c([H])c1[H])c1c([H])c(OC([H])([H])[H])c([H])c(OC([H])([H])[H])c1[H]


 34 37  0  0  0  0  0  0  0  0999 V2000
   -5.3686   22.6914  -23.4260 C   0  0  0  0  0  0  0  0  0  0  0  0
   -6.3170   22.9712  -24.3903 C   0  0  0  0  0  0  0  0  0  0  0  0
   -5.9071   23.0637  -25.7007 C   0  0  0  0  0  0  0  0  0  0  0  0
   -4.5971   22.8889  -26.0797 C   0  0  0  0  0  0  0  0  0  0  0  0
   -3.9741   22.9320  -27.2649 N   0  0  0  0  0  0  0  0  0  0  0  0
   -2.6664   22.6889  -27.0836 C   0  0  0  0  0  0  0  0  0  0  0  0
   -2.5130   22.4921  -25.7143 C   0  0  0  0  0  0  0  0  0  0  0  0
   -3.6883   22.6125  -25.0937 N   0  0  0  0  0  0  0  0  0  0  0  0
   -4.1145   22.5305  -23.8475 N   0  0  0  0  0  0  0  0  0  0  0  0
   -1.2255   22.1903  -25.0852 C   0  0  0  0  0  0  0  0  0  0  0  0
   -1.2076   21.8406  -23.7499 C   0  0  0  0  0  0  0  0  0  0  0  0
   -0.0351   21.5507  -23.0986 C   0  0  0  0  0  0  0  0  0  0  0  0
    1.1625   21.6035  -23.7719 C   0  0  0  0  0  0  0  0  0  0  0  0
    1.1168   21.9448  -25.0661 N   0  0  0  0  0  0  0  0  0  0  0  0
   -0.0182   22.2330  -25.7264 C   0  0  0  0  0  0  0  0  0  0  0  0
    2.3848   21.3220  -23.1684 O   0  0  0  0  0  0  0  0  0  0  0  0
    2.4268   20.4233  -22.0610 C   0  0  0  0  0  0  0  0  0  0  0  0
    2.9880   21.1828  -20.8729 C   0  0  0  0  0  0  0  0  0  0  0  0
    3.3128   19.2626  -22.3899 C   0  0  0  0  0  0  0  0  0  0  0  0
   -5.7302   22.6042  -22.0324 N   0  0  0  0  0  0  0  0  0  0  0  0
   -9.1023   23.1793  -20.5514 C   0  0  0  0  0  0  0  0  0  0  0  0
   -9.1619   24.5524  -20.6320 C   0  0  0  0  0  0  0  0  0  0  0  0
   -8.1119   25.2897  -21.1673 C   0  0  0  0  0  0  0  0  0  0  0  0
   -6.9862   24.6301  -21.6271 C   0  0  0  0  0  0  0  0  0  0  0  0
   -6.9056   23.2568  -21.5562 C   0  0  0  0  0  0  0  0  0  0  0  0
   -7.9715   22.5552  -21.0169 C   0  0  0  0  0  0  0  0  0  0  0  0
  -10.9718   23.0652  -19.0025 C   0  0  0  0  0  0  0  0  0  0  0  0
  -10.1674   22.4364  -20.0081 O   0  0  0  0  0  0  0  0  0  0  0  0
   -8.1874   26.6782  -21.2417 O   0  0  0  0  0  0  0  0  0  0  0  0
   -9.1827   27.3774  -20.5202 C   0  0  0  0  0  0  0  0  0  0  0  0
   -4.8692   21.8669  -21.1398 C   0  0  0  0  0  0  0  0  0  0  0  0
   -4.0203   22.7514  -20.2537 C   0  0  0  0  0  0  0  0  0  0  0  0
   -3.0933   23.5051  -20.9243 O   0  0  0  0  0  0  0  0  0  0  0  0
   -2.2484   23.6466  -20.4616 H   0  0  0  0  0  0  0  0  0  0  0  0
 27 28  1  0  0  0
 28 21  1  0  0  0
 21 22  2  0  0  0
 22 23  1  0  0  0
 23 29  1  0  0  0
 29 30  1  0  0  0
 23 24  2  0  0  0
 24 25  1  0  0  0
 25 26  2  0  0  0
 25 20  1  0  0  0
 20 31  1  0  0  0
 31 32  1  0  0  0
 32 33  1  0  0  0
 20  1  1  0  0  0
  1  2  1  0  0  0
  2  3  2  0  0  0
  3  4  1  0  0  0
  4  5  2  0  0  0
  5  6  1  0  0  0
  6  7  2  0  0  0
  7 10  1  0  0  0
 10 11  2  0  0  0
 11 12  1  0  0  0
 12 13  2  0  0  0
 13 16  1  0  0  0
 16 17  1  0  0  0
 17 18  1  0  0  0
 17 19  1  0  0  0
 13 14  1  0  0  0
 14 15  2  0  0  0
  7  8  1  0  0  0
  8  9  1  0  0  0
 26 21  1  0  0  0
  9  1  2  0  0  0
  8  4  1  0  0  0
 15 10  1  0  0  0
 33 34  1  0  0  0
M  END
> <minimizedAffinity>
-7.09039

> <CNNscore>
0.2894286811

> <CNNaffinity>
6.3469719887

> <CNN_VS>
1.8369957209

> <CNNaffinity_variance>
0.0405233763

$$$$
[H]OC([H])([H])C([H])([H])N(c1nn2c(-c3c([H])nc(OC([H])(C([H])([H])[H])C([H])([H])[H])c([H])c3[H])c([H])nc2c([H])c1[H])c1c([H])c(OC([H])([H])[H])c([H])c(OC([H])([H])[H])c1[H]


 34 37  0  0  0  0  0  0  0  0999 V2000
   -1.6469   21.5050  -21.0473 C   0  0  0  0  0  0  0  0  0  0  0  0
   -0.5412   21.0874  -20.3327 C   0  0  0  0  0  0  0  0  0  0  0  0
    0.6514   20.9404  -21.0034 C   0  0  0  0  0  0  0  0  0  0  0  0
    0.7788   21.1924  -22.3489 C   0  0  0  0  0  0  0  0  0  0  0  0
    1.8112   21.1196  -23.1996 N   0  0  0  0  0  0  0  0  0  0  0  0
    1.3972   21.4768  -24.4256 C   0  0  0  0  0  0  0  0  0  0  0  0
    0.0450   21.7760  -24.2869 C   0  0  0  0  0  0  0  0  0  0  0  0
   -0.3406   21.6049  -23.0207 N   0  0  0  0  0  0  0  0  0  0  0  0
   -1.4680   21.7359  -22.3476 N   0  0  0  0  0  0  0  0  0  0  0  0
   -0.7980   22.2197  -25.3991 C   0  0  0  0  0  0  0  0  0  0  0  0
   -2.1516   22.3794  -25.1803 C   0  0  0  0  0  0  0  0  0  0  0  0
   -2.9979   22.7874  -26.1804 C   0  0  0  0  0  0  0  0  0  0  0  0
   -2.5084   23.0489  -27.4383 C   0  0  0  0  0  0  0  0  0  0  0  0
   -1.1919   22.8867  -27.6232 N   0  0  0  0  0  0  0  0  0  0  0  0
   -0.3425   22.4885  -26.6603 C   0  0  0  0  0  0  0  0  0  0  0  0
   -3.3142   23.4645  -28.4944 O   0  0  0  0  0  0  0  0  0  0  0  0
   -4.7319   23.3544  -28.3769 C   0  0  0  0  0  0  0  0  0  0  0  0
   -5.2555   22.7540  -29.6688 C   0  0  0  0  0  0  0  0  0  0  0  0
   -5.3252   24.7126  -28.1678 C   0  0  0  0  0  0  0  0  0  0  0  0
   -2.9307   21.6561  -20.4073 N   0  0  0  0  0  0  0  0  0  0  0  0
   -6.3100   22.1079  -21.9143 C   0  0  0  0  0  0  0  0  0  0  0  0
   -6.1347   23.3324  -22.5186 C   0  0  0  0  0  0  0  0  0  0  0  0
   -4.9227   24.0088  -22.4392 C   0  0  0  0  0  0  0  0  0  0  0  0
   -3.8739   23.4399  -21.7393 C   0  0  0  0  0  0  0  0  0  0  0  0
   -4.0275   22.2155  -21.1272 C   0  0  0  0  0  0  0  0  0  0  0  0
   -5.2494   21.5705  -21.2279 C   0  0  0  0  0  0  0  0  0  0  0  0
   -8.5255   21.7115  -20.9968 C   0  0  0  0  0  0  0  0  0  0  0  0
   -7.5390   21.4264  -21.9964 O   0  0  0  0  0  0  0  0  0  0  0  0
   -4.7612   25.2469  -23.0559 O   0  0  0  0  0  0  0  0  0  0  0  0
   -5.1764   25.4357  -24.3947 C   0  0  0  0  0  0  0  0  0  0  0  0
   -3.0676   21.2518  -19.0291 C   0  0  0  0  0  0  0  0  0  0  0  0
   -3.2714   22.4105  -18.0784 C   0  0  0  0  0  0  0  0  0  0  0  0
   -2.3405   23.4094  -18.1924 O   0  0  0  0  0  0  0  0  0  0  0  0
   -2.0918   23.8527  -17.3620 H   0  0  0  0  0  0  0  0  0  0  0  0
 27 28  1  0  0  0
 28 21  1  0  0  0
 21 22  2  0  0  0
 22 23  1  0  0  0
 23 29  1  0  0  0
 29 30  1  0  0  0
 23 24  2  0  0  0
 24 25  1  0  0  0
 25 26  2  0  0  0
 25 20  1  0  0  0
 20 31  1  0  0  0
 31 32  1  0  0  0
 32 33  1  0  0  0
 20  1  1  0  0  0
  1  2  1  0  0  0
  2  3  2  0  0  0
  3  4  1  0  0  0
  4  5  2  0  0  0
  5  6  1  0  0  0
  6  7  2  0  0  0
  7 10  1  0  0  0
 10 11  2  0  0  0
 11 12  1  0  0  0
 12 13  2  0  0  0
 13 16  1  0  0  0
 16 17  1  0  0  0
 17 18  1  0  0  0
 17 19  1  0  0  0
 13 14  1  0  0  0
 14 15  2  0  0  0
  7  8  1  0  0  0
  8  9  1  0  0  0
 26 21  1  0  0  0
  9  1  2  0  0  0
  8  4  1  0  0  0
 15 10  1  0  0  0
 33 34  1  0  0  0
M  END
> <minimizedAffinity>
-7.53325

> <CNNscore>
0.2341388017

> <CNNaffinity>
6.5916337967

> <CNN_VS>
1.5433572531

> <CNNaffinity_variance>
0.1660882533

$$$$
[H]OC([H])([H])C([H])([H])N(c1nn2c(-c3c([H])nc(OC([H])(C([H])([H])[H])C([H])([H])[H])c([H])c3[H])c([H])nc2c([H])c1[H])c1c([H])c(OC([H])([H])[H])c([H])c(OC([H])([H])[H])c1[H]


 34 37  0  0  0  0  0  0  0  0999 V2000
   -3.9137   23.2127  -26.5011 C   0  0  0  0  0  0  0  0  0  0  0  0
   -3.3262   22.9577  -27.7248 C   0  0  0  0  0  0  0  0  0  0  0  0
   -2.0024   22.5825  -27.7471 C   0  0  0  0  0  0  0  0  0  0  0  0
   -1.2509   22.4542  -26.6030 C   0  0  0  0  0  0  0  0  0  0  0  0
    0.0252   22.1127  -26.3801 N   0  0  0  0  0  0  0  0  0  0  0  0
    0.2644   22.1424  -25.0595 C   0  0  0  0  0  0  0  0  0  0  0  0
   -0.9395   22.5232  -24.4739 C   0  0  0  0  0  0  0  0  0  0  0  0
   -1.8706   22.7155  -25.4104 N   0  0  0  0  0  0  0  0  0  0  0  0
   -3.1409   23.0727  -25.4243 N   0  0  0  0  0  0  0  0  0  0  0  0
   -1.1177   22.6730  -23.0282 C   0  0  0  0  0  0  0  0  0  0  0  0
   -0.6897   21.6549  -22.2000 C   0  0  0  0  0  0  0  0  0  0  0  0
   -0.8314   21.7297  -20.8371 C   0  0  0  0  0  0  0  0  0  0  0  0
   -1.4110   22.8352  -20.2606 C   0  0  0  0  0  0  0  0  0  0  0  0
   -1.8168   23.8081  -21.0866 N   0  0  0  0  0  0  0  0  0  0  0  0
   -1.6890   23.7588  -22.4239 C   0  0  0  0  0  0  0  0  0  0  0  0
   -1.5842   22.9707  -18.8862 O   0  0  0  0  0  0  0  0  0  0  0  0
   -2.3354   21.9872  -18.1762 C   0  0  0  0  0  0  0  0  0  0  0  0
   -3.6964   22.5831  -17.8660 C   0  0  0  0  0  0  0  0  0  0  0  0
   -1.6289   21.6380  -16.9037 C   0  0  0  0  0  0  0  0  0  0  0  0
   -5.2908   23.6321  -26.4118 N   0  0  0  0  0  0  0  0  0  0  0  0
   -6.8293   22.5667  -23.1881 C   0  0  0  0  0  0  0  0  0  0  0  0
   -7.2025   23.7947  -22.6899 C   0  0  0  0  0  0  0  0  0  0  0  0
   -6.9576   24.9652  -23.3990 C   0  0  0  0  0  0  0  0  0  0  0  0
   -6.3267   24.8933  -24.6280 C   0  0  0  0  0  0  0  0  0  0  0  0
   -5.9449   23.6751  -25.1452 C   0  0  0  0  0  0  0  0  0  0  0  0
   -6.2057   22.5298  -24.4106 C   0  0  0  0  0  0  0  0  0  0  0  0
   -7.8190   21.4937  -21.2447 C   0  0  0  0  0  0  0  0  0  0  0  0
   -7.0785   21.3838  -22.4667 O   0  0  0  0  0  0  0  0  0  0  0  0
   -7.3411   26.1998  -22.8815 O   0  0  0  0  0  0  0  0  0  0  0  0
   -7.8550   26.2930  -21.5672 C   0  0  0  0  0  0  0  0  0  0  0  0
   -5.9870   23.9810  -27.6264 C   0  0  0  0  0  0  0  0  0  0  0  0
   -5.8648   25.4436  -27.9925 C   0  0  0  0  0  0  0  0  0  0  0  0
   -6.4929   25.7916  -29.1594 O   0  0  0  0  0  0  0  0  0  0  0  0
   -6.0508   26.4782  -29.6894 H   0  0  0  0  0  0  0  0  0  0  0  0
 27 28  1  0  0  0
 28 21  1  0  0  0
 21 22  2  0  0  0
 22 23  1  0  0  0
 23 29  1  0  0  0
 29 30  1  0  0  0
 23 24  2  0  0  0
 24 25  1  0  0  0
 25 26  2  0  0  0
 25 20  1  0  0  0
 20 31  1  0  0  0
 31 32  1  0  0  0
 32 33  1  0  0  0
 20  1  1  0  0  0
  1  2  1  0  0  0
  2  3  2  0  0  0
  3  4  1  0  0  0
  4  5  2  0  0  0
  5  6  1  0  0  0
  6  7  2  0  0  0
  7 10  1  0  0  0
 10 11  2  0  0  0
 11 12  1  0  0  0
 12 13  2  0  0  0
 13 16  1  0  0  0
 16 17  1  0  0  0
 17 18  1  0  0  0
 17 19  1  0  0  0
 13 14  1  0  0  0
 14 15  2  0  0  0
  7  8  1  0  0  0
  8  9  1  0  0  0
 26 21  1  0  0  0
  9  1  2  0  0  0
  8  4  1  0  0  0
 15 10  1  0  0  0
 33 34  1  0  0  0
M  END
> <minimizedAffinity>
-8.24463

> <CNNscore>
0.2123076469

> <CNNaffinity>
6.6047821045

> <CNN_VS>
1.4022457600

> <CNNaffinity_variance>
0.2408528775

$$$$
[H]OC([H])([H])C([H])([H])N(c1nn2c(-c3c([H])nc(OC([H])(C([H])([H])[H])C([H])([H])[H])c([H])c3[H])c([H])nc2c([H])c1[H])c1c([H])c(OC([H])([H])[H])c([H])c(OC([H])([H])[H])c1[H]


 34 37  0  0  0  0  0  0  0  0999 V2000
   -3.9855   23.2874  -26.5230 C   0  0  0  0  0  0  0  0  0  0  0  0
   -3.4289   23.0106  -27.7564 C   0  0  0  0  0  0  0  0  0  0  0  0
   -2.1115   22.6159  -27.8036 C   0  0  0  0  0  0  0  0  0  0  0  0
   -1.3368   22.4890  -26.6749 C   0  0  0  0  0  0  0  0  0  0  0  0
   -0.0611   22.1313  -26.4763 N   0  0  0  0  0  0  0  0  0  0  0  0
    0.2076   22.1719  -25.1616 C   0  0  0  0  0  0  0  0  0  0  0  0
   -0.9774   22.5766  -24.5541 C   0  0  0  0  0  0  0  0  0  0  0  0
   -1.9262   22.7723  -25.4720 N   0  0  0  0  0  0  0  0  0  0  0  0
   -3.1912   23.1478  -25.4620 N   0  0  0  0  0  0  0  0  0  0  0  0
   -1.1216   22.7446  -23.1065 C   0  0  0  0  0  0  0  0  0  0  0  0
   -0.5419   21.8108  -22.2713 C   0  0  0  0  0  0  0  0  0  0  0  0
   -0.6434   21.9065  -20.9061 C   0  0  0  0  0  0  0  0  0  0  0  0
   -1.3344   22.9486  -20.3344 C   0  0  0  0  0  0  0  0  0  0  0  0
   -1.8863   23.8404  -21.1672 N   0  0  0  0  0  0  0  0  0  0  0  0
   -1.8009   23.7690  -22.5068 C   0  0  0  0  0  0  0  0  0  0  0  0
   -1.4742   23.1012  -18.9579 O   0  0  0  0  0  0  0  0  0  0  0  0
   -2.1454   22.0901  -18.2075 C   0  0  0  0  0  0  0  0  0  0  0  0
   -3.4118   22.7035  -17.6388 C   0  0  0  0  0  0  0  0  0  0  0  0
   -1.2611   21.6208  -17.0947 C   0  0  0  0  0  0  0  0  0  0  0  0
   -5.3542   23.7279  -26.4083 N   0  0  0  0  0  0  0  0  0  0  0  0
   -7.0134   25.0664  -23.3505 C   0  0  0  0  0  0  0  0  0  0  0  0
   -7.1948   23.8946  -22.6510 C   0  0  0  0  0  0  0  0  0  0  0  0
   -6.7781   22.6736  -23.1689 C   0  0  0  0  0  0  0  0  0  0  0  0
   -6.1700   22.6367  -24.4109 C   0  0  0  0  0  0  0  0  0  0  0  0
   -5.9785   23.7971  -25.1278 C   0  0  0  0  0  0  0  0  0  0  0  0
   -6.4063   24.9954  -24.5798 C   0  0  0  0  0  0  0  0  0  0  0  0
   -7.8536   26.3299  -21.4518 C   0  0  0  0  0  0  0  0  0  0  0  0
   -7.4373   26.3007  -22.8228 O   0  0  0  0  0  0  0  0  0  0  0  0
   -6.9689   21.4970  -22.4491 O   0  0  0  0  0  0  0  0  0  0  0  0
   -7.2348   21.5460  -21.0608 C   0  0  0  0  0  0  0  0  0  0  0  0
   -6.0730   24.0707  -27.6114 C   0  0  0  0  0  0  0  0  0  0  0  0
   -5.9413   25.5271  -27.9981 C   0  0  0  0  0  0  0  0  0  0  0  0
   -6.4751   25.8408  -29.2204 O   0  0  0  0  0  0  0  0  0  0  0  0
   -6.0001   26.5233  -29.7269 H   0  0  0  0  0  0  0  0  0  0  0  0
 27 28  1  0  0  0
 28 21  1  0  0  0
 21 22  2  0  0  0
 22 23  1  0  0  0
 23 29  1  0  0  0
 29 30  1  0  0  0
 23 24  2  0  0  0
 24 25  1  0  0  0
 25 26  2  0  0  0
 25 20  1  0  0  0
 20 31  1  0  0  0
 31 32  1  0  0  0
 32 33  1  0  0  0
 20  1  1  0  0  0
  1  2  1  0  0  0
  2  3  2  0  0  0
  3  4  1  0  0  0
  4  5  2  0  0  0
  5  6  1  0  0  0
  6  7  2  0  0  0
  7 10  1  0  0  0
 10 11  2  0  0  0
 11 12  1  0  0  0
 12 13  2  0  0  0
 13 16  1  0  0  0
 16 17  1  0  0  0
 17 18  1  0  0  0
 17 19  1  0  0  0
 13 14  1  0  0  0
 14 15  2  0  0  0
  7  8  1  0  0  0
  8  9  1  0  0  0
 26 21  1  0  0  0
  9  1  2  0  0  0
  8  4  1  0  0  0
 15 10  1  0  0  0
 33 34  1  0  0  0
M  END
> <minimizedAffinity>
-8.31615

> <CNNscore>
0.2119122297

> <CNNaffinity>
6.6136450768

> <CNN_VS>
1.4015122652

> <CNNaffinity_variance>
0.2214842588

$$$$
[H]c1c(OC([H])([H])[H])c(Cl)c(-c2oc3c(N([H])S(=O)(=O)N(C([H])([H])C([H])([H])[H])C([H])([H])C([H])([H])[H])c([H])c([H])c([H])c3c2[H])c(Cl)c1OC([H])([H])[H]


 31 33  0  0  0  0  0  0  0  0999 V2000
   -6.2804   23.6769  -23.2568 C   0  0  0  0  0  0  0  0  0  0  0  0
   -7.2886   23.3353  -22.3935 C   0  0  0  0  0  0  0  0  0  0  0  0
   -7.2041   22.3347  -21.4504 C   0  0  0  0  0  0  0  0  0  0  0  0
   -6.0058   21.6361  -21.3866 C   0  0  0  0  0  0  0  0  0  0  0  0
   -4.9729   21.9530  -22.2381 C   0  0  0  0  0  0  0  0  0  0  0  0
   -3.6687   21.4652  -22.4371 C   0  0  0  0  0  0  0  0  0  0  0  0
   -3.0623   22.1597  -23.4386 C   0  0  0  0  0  0  0  0  0  0  0  0
   -3.9764   23.0399  -23.8302 O   0  0  0  0  0  0  0  0  0  0  0  0
   -5.0827   22.9498  -23.1643 C   0  0  0  0  0  0  0  0  0  0  0  0
   -1.7235   22.0659  -24.0444 C   0  0  0  0  0  0  0  0  0  0  0  0
   -0.5600   21.9858  -23.3458 C   0  0  0  0  0  0  0  0  0  0  0  0
   -0.5347   21.9852  -21.5885 Cl  0  0  0  0  0  0  0  0  0  0  0  0
    0.6541   21.9011  -24.0237 C   0  0  0  0  0  0  0  0  0  0  0  0
    0.7110   21.8960  -25.3923 C   0  0  0  0  0  0  0  0  0  0  0  0
   -0.4518   21.9759  -26.1038 C   0  0  0  0  0  0  0  0  0  0  0  0
   -1.6290   22.0581  -25.4374 C   0  0  0  0  0  0  0  0  0  0  0  0
   -3.1180   22.1605  -26.3866 Cl  0  0  0  0  0  0  0  0  0  0  0  0
    1.8097   21.8217  -23.2802 O   0  0  0  0  0  0  0  0  0  0  0  0
    2.7316   20.7666  -23.3721 C   0  0  0  0  0  0  0  0  0  0  0  0
   -0.4486   21.9746  -27.5097 O   0  0  0  0  0  0  0  0  0  0  0  0
    0.0738   23.1152  -28.1552 C   0  0  0  0  0  0  0  0  0  0  0  0
   -6.3831   24.7190  -24.2223 N   0  0  0  0  0  0  0  0  0  0  0  0
   -6.4042   25.7095  -23.8747 H   0  0  0  0  0  0  0  0  0  0  0  0
   -6.4747   24.4415  -25.9137 S   0  0  0  0  0  0  0  0  0  0  0  0
   -7.6829   25.0756  -26.4902 O   0  0  0  0  0  0  0  0  0  0  0  0
   -6.5817   22.9552  -26.1514 O   0  0  0  0  0  0  0  0  0  0  0  0
   -5.0683   25.0832  -26.7011 N   0  0  0  0  0  0  0  0  0  0  0  0
   -4.3066   25.4864  -28.9581 C   0  0  0  0  0  0  0  0  0  0  0  0
   -5.4115   25.6743  -27.9416 C   0  0  0  0  0  0  0  0  0  0  0  0
   -4.3023   25.8913  -25.8071 C   0  0  0  0  0  0  0  0  0  0  0  0
   -4.8046   27.2934  -25.6413 C   0  0  0  0  0  0  0  0  0  0  0  0
 28 29  1  0  0  0
 29 27  1  0  0  0
 27 30  1  0  0  0
 30 31  1  0  0  0
 27 24  1  0  0  0
 24 25  2  0  0  0
 24 26  2  0  0  0
 24 22  1  0  0  0
 22  1  1  0  0  0
  1  2  2  0  0  0
  2  3  1  0  0  0
  3  4  2  0  0  0
  4  5  1  0  0  0
  5  6  1  0  0  0
  6  7  2  0  0  0
  7  8  1  0  0  0
  8  9  1  0  0  0
  7 10  1  0  0  0
 10 11  2  0  0  0
 11 12  1  0  0  0
 11 13  1  0  0  0
 13 18  1  0  0  0
 18 19  1  0  0  0
 13 14  2  0  0  0
 14 15  1  0  0  0
 15 20  1  0  0  0
 20 21  1  0  0  0
 15 16  2  0  0  0
 16 17  1  0  0  0
  9  1  1  0  0  0
 16 10  1  0  0  0
  9  5  2  0  0  0
 22 23  1  0  0  0
M  END
> <minimizedAffinity>
-7.28339

> <CNNscore>
0.5281702876

> <CNNaffinity>
7.1107473373

> <CNN_VS>
3.7556855679

> <CNNaffinity_variance>
0.2220805585

$$$$
[H]c1c(OC([H])([H])[H])c(Cl)c(-c2oc3c(N([H])S(=O)(=O)N(C([H])([H])C([H])([H])[H])C([H])([H])C([H])([H])[H])c([H])c([H])c([H])c3c2[H])c(Cl)c1OC([H])([H])[H]


 31 33  0  0  0  0  0  0  0  0999 V2000
   -4.8072   24.9048  -27.2881 C   0  0  0  0  0  0  0  0  0  0  0  0
   -5.3740   24.8540  -28.5349 C   0  0  0  0  0  0  0  0  0  0  0  0
   -5.0713   23.9115  -29.4931 C   0  0  0  0  0  0  0  0  0  0  0  0
   -4.1236   22.9558  -29.1516 C   0  0  0  0  0  0  0  0  0  0  0  0
   -3.5349   22.9772  -27.9085 C   0  0  0  0  0  0  0  0  0  0  0  0
   -2.5712   22.1874  -27.2557 C   0  0  0  0  0  0  0  0  0  0  0  0
   -2.3516   22.6676  -26.0010 C   0  0  0  0  0  0  0  0  0  0  0  0
   -3.1605   23.7162  -25.9028 O   0  0  0  0  0  0  0  0  0  0  0  0
   -3.8530   23.9228  -26.9768 C   0  0  0  0  0  0  0  0  0  0  0  0
   -1.4634   22.2312  -24.9108 C   0  0  0  0  0  0  0  0  0  0  0  0
   -0.1051   22.2360  -24.9680 C   0  0  0  0  0  0  0  0  0  0  0  0
    0.7583   22.7831  -26.3976 Cl  0  0  0  0  0  0  0  0  0  0  0  0
    0.6389   21.7995  -23.8740 C   0  0  0  0  0  0  0  0  0  0  0  0
    0.0339   21.3595  -22.7265 C   0  0  0  0  0  0  0  0  0  0  0  0
   -1.3299   21.3506  -22.6584 C   0  0  0  0  0  0  0  0  0  0  0  0
   -2.0469   21.7766  -23.7266 C   0  0  0  0  0  0  0  0  0  0  0  0
   -3.8116   21.7532  -23.6081 Cl  0  0  0  0  0  0  0  0  0  0  0  0
    2.0116   21.8198  -23.9716 O   0  0  0  0  0  0  0  0  0  0  0  0
    2.8650   21.0018  -23.2138 C   0  0  0  0  0  0  0  0  0  0  0  0
   -2.0001   20.9087  -21.5041 O   0  0  0  0  0  0  0  0  0  0  0  0
   -2.1925   21.8487  -20.4697 C   0  0  0  0  0  0  0  0  0  0  0  0
   -5.1368   25.8834  -26.3071 N   0  0  0  0  0  0  0  0  0  0  0  0
   -4.6022   26.7869  -26.3166 H   0  0  0  0  0  0  0  0  0  0  0  0
   -6.3541   25.6633  -25.1172 S   0  0  0  0  0  0  0  0  0  0  0  0
   -7.6291   25.2332  -25.7365 O   0  0  0  0  0  0  0  0  0  0  0  0
   -6.6019   26.9853  -24.4333 O   0  0  0  0  0  0  0  0  0  0  0  0
   -5.8530   24.4672  -23.9646 N   0  0  0  0  0  0  0  0  0  0  0  0
   -3.8114   25.2015  -22.9020 C   0  0  0  0  0  0  0  0  0  0  0  0
   -5.3163   25.0788  -22.8054 C   0  0  0  0  0  0  0  0  0  0  0  0
   -6.8799   23.4986  -23.7496 C   0  0  0  0  0  0  0  0  0  0  0  0
   -7.2705   23.3053  -22.3157 C   0  0  0  0  0  0  0  0  0  0  0  0
 28 29  1  0  0  0
 29 27  1  0  0  0
 27 30  1  0  0  0
 30 31  1  0  0  0
 27 24  1  0  0  0
 24 25  2  0  0  0
 24 26  2  0  0  0
 24 22  1  0  0  0
 22  1  1  0  0  0
  1  2  2  0  0  0
  2  3  1  0  0  0
  3  4  2  0  0  0
  4  5  1  0  0  0
  5  6  1  0  0  0
  6  7  2  0  0  0
  7  8  1  0  0  0
  8  9  1  0  0  0
  7 10  1  0  0  0
 10 11  2  0  0  0
 11 12  1  0  0  0
 11 13  1  0  0  0
 13 18  1  0  0  0
 18 19  1  0  0  0
 13 14  2  0  0  0
 14 15  1  0  0  0
 15 20  1  0  0  0
 20 21  1  0  0  0
 15 16  2  0  0  0
 16 17  1  0  0  0
  9  1  1  0  0  0
 16 10  1  0  0  0
  9  5  2  0  0  0
 22 23  1  0  0  0
M  END
> <minimizedAffinity>
-7.76484

> <CNNscore>
0.4382863343

> <CNNaffinity>
7.1136360168

> <CNN_VS>
3.1178095341

> <CNNaffinity_variance>
0.1131714806

$$$$
[H]c1c(OC([H])([H])[H])c(Cl)c(-c2oc3c(N([H])S(=O)(=O)N(C([H])([H])C([H])([H])[H])C([H])([H])C([H])([H])[H])c([H])c([H])c([H])c3c2[H])c(Cl)c1OC([H])([H])[H]


 31 33  0  0  0  0  0  0  0  0999 V2000
   -3.4474   23.9868  -27.1468 C   0  0  0  0  0  0  0  0  0  0  0  0
   -2.6034   23.5632  -28.1401 C   0  0  0  0  0  0  0  0  0  0  0  0
   -1.7804   22.4621  -28.0493 C   0  0  0  0  0  0  0  0  0  0  0  0
   -1.8245   21.7457  -26.8607 C   0  0  0  0  0  0  0  0  0  0  0  0
   -2.6604   22.1429  -25.8430 C   0  0  0  0  0  0  0  0  0  0  0  0
   -2.9450   21.6637  -24.5514 C   0  0  0  0  0  0  0  0  0  0  0  0
   -3.8772   22.4583  -23.9576 C   0  0  0  0  0  0  0  0  0  0  0  0
   -4.1452   23.3885  -24.8667 O   0  0  0  0  0  0  0  0  0  0  0  0
   -3.4664   23.2386  -25.9586 C   0  0  0  0  0  0  0  0  0  0  0  0
   -4.5227   22.4158  -22.6349 C   0  0  0  0  0  0  0  0  0  0  0  0
   -3.9589   22.8645  -21.4820 C   0  0  0  0  0  0  0  0  0  0  0  0
   -2.3476   23.5656  -21.4524 Cl  0  0  0  0  0  0  0  0  0  0  0  0
   -4.6620   22.7746  -20.2828 C   0  0  0  0  0  0  0  0  0  0  0  0
   -5.9222   22.2401  -20.2301 C   0  0  0  0  0  0  0  0  0  0  0  0
   -6.4978   21.7865  -21.3822 C   0  0  0  0  0  0  0  0  0  0  0  0
   -5.8077   21.8772  -22.5451 C   0  0  0  0  0  0  0  0  0  0  0  0
   -6.5799   21.2812  -24.0205 Cl  0  0  0  0  0  0  0  0  0  0  0  0
   -4.0565   23.2399  -19.1377 O   0  0  0  0  0  0  0  0  0  0  0  0
   -3.5192   22.4100  -18.1406 C   0  0  0  0  0  0  0  0  0  0  0  0
   -7.7886   21.2292  -21.3828 O   0  0  0  0  0  0  0  0  0  0  0  0
   -8.7086   21.7306  -20.4377 C   0  0  0  0  0  0  0  0  0  0  0  0
   -4.2963   25.1249  -27.2601 N   0  0  0  0  0  0  0  0  0  0  0  0
   -3.8483   26.0743  -27.2472 H   0  0  0  0  0  0  0  0  0  0  0  0
   -6.0029   25.0255  -27.4144 S   0  0  0  0  0  0  0  0  0  0  0  0
   -6.4296   23.6351  -27.6954 O   0  0  0  0  0  0  0  0  0  0  0  0
   -6.4300   25.8791  -28.5831 O   0  0  0  0  0  0  0  0  0  0  0  0
   -6.7671   25.5678  -25.9543 N   0  0  0  0  0  0  0  0  0  0  0  0
   -7.8154   24.8039  -23.9161 C   0  0  0  0  0  0  0  0  0  0  0  0
   -7.5473   24.5343  -25.3806 C   0  0  0  0  0  0  0  0  0  0  0  0
   -5.8273   26.2045  -25.0881 C   0  0  0  0  0  0  0  0  0  0  0  0
   -5.3172   27.5258  -25.5778 C   0  0  0  0  0  0  0  0  0  0  0  0
 28 29  1  0  0  0
 29 27  1  0  0  0
 27 30  1  0  0  0
 30 31  1  0  0  0
 27 24  1  0  0  0
 24 25  2  0  0  0
 24 26  2  0  0  0
 24 22  1  0  0  0
 22  1  1  0  0  0
  1  2  2  0  0  0
  2  3  1  0  0  0
  3  4  2  0  0  0
  4  5  1  0  0  0
  5  6  1  0  0  0
  6  7  2  0  0  0
  7  8  1  0  0  0
  8  9  1  0  0  0
  7 10  1  0  0  0
 10 11  2  0  0  0
 11 12  1  0  0  0
 11 13  1  0  0  0
 13 18  1  0  0  0
 18 19  1  0  0  0
 13 14  2  0  0  0
 14 15  1  0  0  0
 15 20  1  0  0  0
 20 21  1  0  0  0
 15 16  2  0  0  0
 16 17  1  0  0  0
  9  1  1  0  0  0
 16 10  1  0  0  0
  9  5  2  0  0  0
 22 23  1  0  0  0
M  END
> <minimizedAffinity>
-7.83739

> <CNNscore>
0.3971033692

> <CNNaffinity>
6.7741065025

> <CNN_VS>
2.6900205612

> <CNNaffinity_variance>
0.3508549333

$$$$
[H]c1c(OC([H])([H])[H])c(Cl)c(-c2oc3c(N([H])S(=O)(=O)N(C([H])([H])C([H])([H])[H])C([H])([H])C([H])([H])[H])c([H])c([H])c([H])c3c2[H])c(Cl)c1OC([H])([H])[H]


 31 33  0  0  0  0  0  0  0  0999 V2000
   -3.0071   22.8573  -27.3479 C   0  0  0  0  0  0  0  0  0  0  0  0
   -1.8108   22.8245  -28.0159 C   0  0  0  0  0  0  0  0  0  0  0  0
   -0.5880   22.6105  -27.4187 C   0  0  0  0  0  0  0  0  0  0  0  0
   -0.5898   22.4168  -26.0437 C   0  0  0  0  0  0  0  0  0  0  0  0
   -1.7726   22.4434  -25.3419 C   0  0  0  0  0  0  0  0  0  0  0  0
   -2.1246   22.2898  -23.9887 C   0  0  0  0  0  0  0  0  0  0  0  0
   -3.4726   22.4124  -23.8440 C   0  0  0  0  0  0  0  0  0  0  0  0
   -3.9179   22.6334  -25.0755 O   0  0  0  0  0  0  0  0  0  0  0  0
   -2.9716   22.6576  -25.9584 C   0  0  0  0  0  0  0  0  0  0  0  0
   -4.3571   22.3404  -22.6690 C   0  0  0  0  0  0  0  0  0  0  0  0
   -5.6251   21.8502  -22.6816 C   0  0  0  0  0  0  0  0  0  0  0  0
   -6.3624   21.2306  -24.1516 Cl  0  0  0  0  0  0  0  0  0  0  0  0
   -6.3749   21.8303  -21.5077 C   0  0  0  0  0  0  0  0  0  0  0  0
   -5.8653   22.2964  -20.3247 C   0  0  0  0  0  0  0  0  0  0  0  0
   -4.5927   22.7908  -20.3009 C   0  0  0  0  0  0  0  0  0  0  0  0
   -3.8693   22.8071  -21.4469 C   0  0  0  0  0  0  0  0  0  0  0  0
   -2.2242   23.4537  -21.3841 Cl  0  0  0  0  0  0  0  0  0  0  0  0
   -7.6545   21.3261  -21.5621 O   0  0  0  0  0  0  0  0  0  0  0  0
   -8.6437   21.5890  -20.6009 C   0  0  0  0  0  0  0  0  0  0  0  0
   -4.0225   23.2814  -19.1130 O   0  0  0  0  0  0  0  0  0  0  0  0
   -4.7640   23.1148  -17.9243 C   0  0  0  0  0  0  0  0  0  0  0  0
   -4.2635   23.0741  -27.9827 N   0  0  0  0  0  0  0  0  0  0  0  0
   -4.7401   22.2482  -28.4221 H   0  0  0  0  0  0  0  0  0  0  0  0
   -5.0335   24.6058  -28.0673 S   0  0  0  0  0  0  0  0  0  0  0  0
   -6.2850   24.5270  -28.8558 O   0  0  0  0  0  0  0  0  0  0  0  0
   -4.1102   25.5693  -28.7715 O   0  0  0  0  0  0  0  0  0  0  0  0
   -5.4051   25.1762  -26.4715 N   0  0  0  0  0  0  0  0  0  0  0  0
   -4.1643   26.1538  -24.6436 C   0  0  0  0  0  0  0  0  0  0  0  0
   -4.5464   26.2412  -26.1049 C   0  0  0  0  0  0  0  0  0  0  0  0
   -6.8053   25.4145  -26.3238 C   0  0  0  0  0  0  0  0  0  0  0  0
   -7.4911   24.5295  -25.3276 C   0  0  0  0  0  0  0  0  0  0  0  0
 28 29  1  0  0  0
 29 27  1  0  0  0
 27 30  1  0  0  0
 30 31  1  0  0  0
 27 24  1  0  0  0
 24 25  2  0  0  0
 24 26  2  0  0  0
 24 22  1  0  0  0
 22  1  1  0  0  0
  1  2  2  0  0  0
  2  3  1  0  0  0
  3  4  2  0  0  0
  4  5  1  0  0  0
  5  6  1  0  0  0
  6  7  2  0  0  0
  7  8  1  0  0  0
  8  9  1  0  0  0
  7 10  1  0  0  0
 10 11  2  0  0  0
 11 12  1  0  0  0
 11 13  1  0  0  0
 13 18  1  0  0  0
 18 19  1  0  0  0
 13 14  2  0  0  0
 14 15  1  0  0  0
 15 20  1  0  0  0
 20 21  1  0  0  0
 15 16  2  0  0  0
 16 17  1  0  0  0
  9  1  1  0  0  0
 16 10  1  0  0  0
  9  5  2  0  0  0
 22 23  1  0  0  0
M  END
> <minimizedAffinity>
-7.94380

> <CNNscore>
0.3813723922

> <CNNaffinity>
6.7101302147

> <CNN_VS>
2.5590584278

> <CNNaffinity_variance>
0.5886954069

$$$$
[H]c1c(OC([H])([H])[H])c(Cl)c(-c2oc3c(N([H])S(=O)(=O)N(C([H])([H])C([H])([H])[H])C([H])([H])C([H])([H])[H])c([H])c([H])c([H])c3c2[H])c(Cl)c1OC([H])([H])[H]


 31 33  0  0  0  0  0  0  0  0999 V2000
   -4.7584   24.3636  -26.9257 C   0  0  0  0  0  0  0  0  0  0  0  0
   -5.1253   24.4022  -28.2456 C   0  0  0  0  0  0  0  0  0  0  0  0
   -4.5167   23.6783  -29.2473 C   0  0  0  0  0  0  0  0  0  0  0  0
   -3.4604   22.8588  -28.8722 C   0  0  0  0  0  0  0  0  0  0  0  0
   -3.0660   22.7958  -27.5559 C   0  0  0  0  0  0  0  0  0  0  0  0
   -2.0694   22.0944  -26.8534 C   0  0  0  0  0  0  0  0  0  0  0  0
   -2.1233   22.4135  -25.5311 C   0  0  0  0  0  0  0  0  0  0  0  0
   -3.1240   23.2819  -25.4417 O   0  0  0  0  0  0  0  0  0  0  0  0
   -3.6865   23.5241  -26.5822 C   0  0  0  0  0  0  0  0  0  0  0  0
   -1.3288   21.9785  -24.3702 C   0  0  0  0  0  0  0  0  0  0  0  0
   -1.8499   21.5739  -23.1815 C   0  0  0  0  0  0  0  0  0  0  0  0
   -3.5841   21.5265  -22.9002 Cl  0  0  0  0  0  0  0  0  0  0  0  0
   -1.0023   21.1827  -22.1474 C   0  0  0  0  0  0  0  0  0  0  0  0
    0.3595   21.1936  -22.2951 C   0  0  0  0  0  0  0  0  0  0  0  0
    0.8933   21.5982  -23.4850 C   0  0  0  0  0  0  0  0  0  0  0  0
    0.0625   21.9774  -24.4863 C   0  0  0  0  0  0  0  0  0  0  0  0
    0.7840   22.4963  -26.0156 Cl  0  0  0  0  0  0  0  0  0  0  0  0
   -1.5690   20.7797  -20.9596 O   0  0  0  0  0  0  0  0  0  0  0  0
   -1.5032   21.5190  -19.7675 C   0  0  0  0  0  0  0  0  0  0  0  0
    2.2842   21.6280  -23.6882 O   0  0  0  0  0  0  0  0  0  0  0  0
    3.0753   20.8027  -22.8613 C   0  0  0  0  0  0  0  0  0  0  0  0
   -5.4032   25.1148  -25.9017 N   0  0  0  0  0  0  0  0  0  0  0  0
   -5.0757   26.0982  -25.7346 H   0  0  0  0  0  0  0  0  0  0  0  0
   -6.6789   24.4995  -24.9321 S   0  0  0  0  0  0  0  0  0  0  0  0
   -6.5311   23.0401  -24.7256 O   0  0  0  0  0  0  0  0  0  0  0  0
   -7.9841   24.7285  -25.6537 O   0  0  0  0  0  0  0  0  0  0  0  0
   -6.6908   25.2911  -23.3883 N   0  0  0  0  0  0  0  0  0  0  0  0
   -8.3875   24.6994  -21.7735 C   0  0  0  0  0  0  0  0  0  0  0  0
   -8.0174   25.5527  -22.9669 C   0  0  0  0  0  0  0  0  0  0  0  0
   -5.8545   24.6081  -22.4539 C   0  0  0  0  0  0  0  0  0  0  0  0
   -4.4108   25.0080  -22.4943 C   0  0  0  0  0  0  0  0  0  0  0  0
 28 29  1  0  0  0
 29 27  1  0  0  0
 27 30  1  0  0  0
 30 31  1  0  0  0
 27 24  1  0  0  0
 24 25  2  0  0  0
 24 26  2  0  0  0
 24 22  1  0  0  0
 22  1  1  0  0  0
  1  2  2  0  0  0
  2  3  1  0  0  0
  3  4  2  0  0  0
  4  5  1  0  0  0
  5  6  1  0  0  0
  6  7  2  0  0  0
  7  8  1  0  0  0
  8  9  1  0  0  0
  7 10  1  0  0  0
 10 11  2  0  0  0
 11 12  1  0  0  0
 11 13  1  0  0  0
 13 18  1  0  0  0
 18 19  1  0  0  0
 13 14  2  0  0  0
 14 15  1  0  0  0
 15 20  1  0  0  0
 20 21  1  0  0  0
 15 16  2  0  0  0
 16 17  1  0  0  0
  9  1  1  0  0  0
 16 10  1  0  0  0
  9  5  2  0  0  0
 22 23  1  0  0  0
M  END
> <minimizedAffinity>
-7.63792

> <CNNscore>
0.3099795580

> <CNNaffinity>
6.7501273155

> <CNN_VS>
2.0924015045

> <CNNaffinity_variance>
0.1983185709

$$$$
[H]c1c(OC([H])([H])[H])c(Cl)c(-c2oc3c(N([H])S(=O)(=O)N(C([H])([H])C([H])([H])[H])C([H])([H])C([H])([H])[H])c([H])c([H])c([H])c3c2[H])c(Cl)c1OC([H])([H])[H]


 31 33  0  0  0  0  0  0  0  0999 V2000
   -0.9737   21.6101  -22.6641 C   0  0  0  0  0  0  0  0  0  0  0  0
    0.3296   21.2594  -22.4253 C   0  0  0  0  0  0  0  0  0  0  0  0
    1.3227   21.2464  -23.3799 C   0  0  0  0  0  0  0  0  0  0  0  0
    0.9570   21.6179  -24.6669 C   0  0  0  0  0  0  0  0  0  0  0  0
   -0.3425   21.9760  -24.9417 C   0  0  0  0  0  0  0  0  0  0  0  0
   -1.0322   22.3917  -26.0950 C   0  0  0  0  0  0  0  0  0  0  0  0
   -2.3396   22.6229  -25.7947 C   0  0  0  0  0  0  0  0  0  0  0  0
   -2.4328   22.3537  -24.4976 O   0  0  0  0  0  0  0  0  0  0  0  0
   -1.3081   21.9803  -23.9768 C   0  0  0  0  0  0  0  0  0  0  0  0
   -3.4834   23.0663  -26.6090 C   0  0  0  0  0  0  0  0  0  0  0  0
   -3.4082   23.4378  -27.9147 C   0  0  0  0  0  0  0  0  0  0  0  0
   -1.8864   23.4252  -28.7935 Cl  0  0  0  0  0  0  0  0  0  0  0  0
   -4.5576   23.8419  -28.5902 C   0  0  0  0  0  0  0  0  0  0  0  0
   -5.7781   23.8764  -27.9693 C   0  0  0  0  0  0  0  0  0  0  0  0
   -5.8648   23.5053  -26.6581 C   0  0  0  0  0  0  0  0  0  0  0  0
   -4.7424   23.1134  -26.0074 C   0  0  0  0  0  0  0  0  0  0  0  0
   -4.8868   22.6386  -24.3097 Cl  0  0  0  0  0  0  0  0  0  0  0  0
   -4.4396   24.2103  -29.9112 O   0  0  0  0  0  0  0  0  0  0  0  0
   -4.5232   25.5356  -30.3673 C   0  0  0  0  0  0  0  0  0  0  0  0
   -7.0933   23.5228  -25.9744 O   0  0  0  0  0  0  0  0  0  0  0  0
   -7.6604   24.7848  -25.6983 C   0  0  0  0  0  0  0  0  0  0  0  0
   -1.9868   21.6236  -21.6632 N   0  0  0  0  0  0  0  0  0  0  0  0
   -2.4852   20.7228  -21.4574 H   0  0  0  0  0  0  0  0  0  0  0  0
   -2.4332   23.0275  -20.7822 S   0  0  0  0  0  0  0  0  0  0  0  0
   -3.1849   23.9739  -21.6385 O   0  0  0  0  0  0  0  0  0  0  0  0
   -1.1770   23.7261  -20.3231 O   0  0  0  0  0  0  0  0  0  0  0  0
   -3.4176   22.5909  -19.4218 N   0  0  0  0  0  0  0  0  0  0  0  0
   -5.6826   23.3781  -19.1277 C   0  0  0  0  0  0  0  0  0  0  0  0
   -4.7633   22.3936  -19.8169 C   0  0  0  0  0  0  0  0  0  0  0  0
   -2.8182   21.5339  -18.6718 C   0  0  0  0  0  0  0  0  0  0  0  0
   -3.6646   20.3052  -18.5316 C   0  0  0  0  0  0  0  0  0  0  0  0
 28 29  1  0  0  0
 29 27  1  0  0  0
 27 30  1  0  0  0
 30 31  1  0  0  0
 27 24  1  0  0  0
 24 25  2  0  0  0
 24 26  2  0  0  0
 24 22  1  0  0  0
 22  1  1  0  0  0
  1  2  2  0  0  0
  2  3  1  0  0  0
  3  4  2  0  0  0
  4  5  1  0  0  0
  5  6  1  0  0  0
  6  7  2  0  0  0
  7  8  1  0  0  0
  8  9  1  0  0  0
  7 10  1  0  0  0
 10 11  2  0  0  0
 11 12  1  0  0  0
 11 13  1  0  0  0
 13 18  1  0  0  0
 18 19  1  0  0  0
 13 14  2  0  0  0
 14 15  1  0  0  0
 15 20  1  0  0  0
 20 21  1  0  0  0
 15 16  2  0  0  0
 16 17  1  0  0  0
  9  1  1  0  0  0
 16 10  1  0  0  0
  9  5  2  0  0  0
 22 23  1  0  0  0
M  END
> <minimizedAffinity>
-7.81588

> <CNNscore>
0.3041111231

> <CNNaffinity>
6.6800346375

> <CNN_VS>
2.0314729214

> <CNNaffinity_variance>
0.2342856377

$$$$
[H]c1c(OC([H])([H])[H])c(Cl)c(-c2oc3c(N([H])S(=O)(=O)N(C([H])([H])C([H])([H])[H])C([H])([H])C([H])([H])[H])c([H])c([H])c([H])c3c2[H])c(Cl)c1OC([H])([H])[H]


 31 33  0  0  0  0  0  0  0  0999 V2000
   -3.2797   23.8015  -26.5835 C   0  0  0  0  0  0  0  0  0  0  0  0
   -2.3892   23.3683  -27.5311 C   0  0  0  0  0  0  0  0  0  0  0  0
   -1.5606   22.2776  -27.3840 C   0  0  0  0  0  0  0  0  0  0  0  0
   -1.6497   21.5828  -26.1851 C   0  0  0  0  0  0  0  0  0  0  0  0
   -2.5329   21.9900  -25.2123 C   0  0  0  0  0  0  0  0  0  0  0  0
   -2.8689   21.5318  -23.9255 C   0  0  0  0  0  0  0  0  0  0  0  0
   -3.8336   22.3276  -23.3878 C   0  0  0  0  0  0  0  0  0  0  0  0
   -4.0704   23.2382  -24.3250 O   0  0  0  0  0  0  0  0  0  0  0  0
   -3.3433   23.0751  -25.3834 C   0  0  0  0  0  0  0  0  0  0  0  0
   -4.5356   22.3029  -22.0937 C   0  0  0  0  0  0  0  0  0  0  0  0
   -3.9985   22.7078  -20.9122 C   0  0  0  0  0  0  0  0  0  0  0  0
   -2.3560   23.3237  -20.8057 Cl  0  0  0  0  0  0  0  0  0  0  0  0
   -4.7554   22.6402  -19.7445 C   0  0  0  0  0  0  0  0  0  0  0  0
   -6.0425   22.1715  -19.7518 C   0  0  0  0  0  0  0  0  0  0  0  0
   -6.5916   21.7623  -20.9332 C   0  0  0  0  0  0  0  0  0  0  0  0
   -5.8492   21.8309  -22.0650 C   0  0  0  0  0  0  0  0  0  0  0  0
   -6.5882   21.2936  -23.5795 Cl  0  0  0  0  0  0  0  0  0  0  0  0
   -4.1755   23.0596  -18.5688 O   0  0  0  0  0  0  0  0  0  0  0  0
   -3.5868   22.1955  -17.6316 C   0  0  0  0  0  0  0  0  0  0  0  0
   -7.9082   21.2730  -20.9952 O   0  0  0  0  0  0  0  0  0  0  0  0
   -8.9339   22.1179  -20.5212 C   0  0  0  0  0  0  0  0  0  0  0  0
   -4.1335   24.9285  -26.7550 N   0  0  0  0  0  0  0  0  0  0  0  0
   -3.9806   25.7592  -26.1314 H   0  0  0  0  0  0  0  0  0  0  0  0
   -5.3922   24.9983  -27.9199 S   0  0  0  0  0  0  0  0  0  0  0  0
   -6.0302   26.3351  -27.9314 O   0  0  0  0  0  0  0  0  0  0  0  0
   -6.4506   23.9906  -27.5444 O   0  0  0  0  0  0  0  0  0  0  0  0
   -4.7625   24.6581  -29.5004 N   0  0  0  0  0  0  0  0  0  0  0  0
   -4.9456   22.3206  -30.0823 C   0  0  0  0  0  0  0  0  0  0  0  0
   -5.5642   23.6988  -30.1660 C   0  0  0  0  0  0  0  0  0  0  0  0
   -4.4943   25.8636  -30.2173 C   0  0  0  0  0  0  0  0  0  0  0  0
   -5.3334   26.0655  -31.4424 C   0  0  0  0  0  0  0  0  0  0  0  0
 28 29  1  0  0  0
 29 27  1  0  0  0
 27 30  1  0  0  0
 30 31  1  0  0  0
 27 24  1  0  0  0
 24 25  2  0  0  0
 24 26  2  0  0  0
 24 22  1  0  0  0
 22  1  1  0  0  0
  1  2  2  0  0  0
  2  3  1  0  0  0
  3  4  2  0  0  0
  4  5  1  0  0  0
  5  6  1  0  0  0
  6  7  2  0  0  0
  7  8  1  0  0  0
  8  9  1  0  0  0
  7 10  1  0  0  0
 10 11  2  0  0  0
 11 12  1  0  0  0
 11 13  1  0  0  0
 13 18  1  0  0  0
 18 19  1  0  0  0
 13 14  2  0  0  0
 14 15  1  0  0  0
 15 20  1  0  0  0
 20 21  1  0  0  0
 15 16  2  0  0  0
 16 17  1  0  0  0
  9  1  1  0  0  0
 16 10  1  0  0  0
  9  5  2  0  0  0
 22 23  1  0  0  0
M  END
> <minimizedAffinity>
-7.73989

> <CNNscore>
0.2869379222

> <CNNaffinity>
6.7328743935

> <CNN_VS>
1.9319169521

> <CNNaffinity_variance>
0.4069818854

$$$$
[H]c1c(OC([H])([H])[H])c(Cl)c(-c2oc3c(N([H])S(=O)(=O)N(C([H])([H])C([H])([H])[H])C([H])([H])C([H])([H])[H])c([H])c([H])c([H])c3c2[H])c(Cl)c1OC([H])([H])[H]


 31 33  0  0  0  0  0  0  0  0999 V2000
   -0.8935   21.3901  -22.2368 C   0  0  0  0  0  0  0  0  0  0  0  0
    0.4282   21.1017  -22.0167 C   0  0  0  0  0  0  0  0  0  0  0  0
    1.4161   21.1864  -22.9730 C   0  0  0  0  0  0  0  0  0  0  0  0
    1.0245   21.5944  -24.2412 C   0  0  0  0  0  0  0  0  0  0  0  0
   -0.2939   21.8920  -24.4969 C   0  0  0  0  0  0  0  0  0  0  0  0
   -1.0108   22.3201  -25.6289 C   0  0  0  0  0  0  0  0  0  0  0  0
   -2.3276   22.4649  -25.3157 C   0  0  0  0  0  0  0  0  0  0  0  0
   -2.3998   22.1332  -24.0318 O   0  0  0  0  0  0  0  0  0  0  0  0
   -1.2539   21.7997  -23.5307 C   0  0  0  0  0  0  0  0  0  0  0  0
   -3.4978   22.8804  -26.1069 C   0  0  0  0  0  0  0  0  0  0  0  0
   -3.4891   23.0985  -27.4488 C   0  0  0  0  0  0  0  0  0  0  0  0
   -2.0305   22.8989  -28.4086 Cl  0  0  0  0  0  0  0  0  0  0  0  0
   -4.6578   23.4908  -28.0975 C   0  0  0  0  0  0  0  0  0  0  0  0
   -5.8319   23.6657  -27.4138 C   0  0  0  0  0  0  0  0  0  0  0  0
   -5.8518   23.4493  -26.0657 C   0  0  0  0  0  0  0  0  0  0  0  0
   -4.7109   23.0679  -25.4415 C   0  0  0  0  0  0  0  0  0  0  0  0
   -4.7684   22.7953  -23.6948 Cl  0  0  0  0  0  0  0  0  0  0  0  0
   -4.6076   23.7016  -29.4567 O   0  0  0  0  0  0  0  0  0  0  0  0
   -5.6053   24.3688  -30.1854 C   0  0  0  0  0  0  0  0  0  0  0  0
   -7.0305   23.6148  -25.3174 O   0  0  0  0  0  0  0  0  0  0  0  0
   -7.5221   24.9290  -25.1695 C   0  0  0  0  0  0  0  0  0  0  0  0
   -1.9012   21.3027  -21.2341 N   0  0  0  0  0  0  0  0  0  0  0  0
   -2.5297   20.4617  -21.2421 H   0  0  0  0  0  0  0  0  0  0  0  0
   -2.1409   22.4938  -20.0217 S   0  0  0  0  0  0  0  0  0  0  0  0
   -3.5467   22.9603  -20.0074 O   0  0  0  0  0  0  0  0  0  0  0  0
   -1.2683   23.6835  -20.3380 O   0  0  0  0  0  0  0  0  0  0  0  0
   -1.7437   21.8464  -18.4618 N   0  0  0  0  0  0  0  0  0  0  0  0
   -3.4370   20.3959  -17.5318 C   0  0  0  0  0  0  0  0  0  0  0  0
   -2.1699   20.5003  -18.3520 C   0  0  0  0  0  0  0  0  0  0  0  0
   -0.3793   22.1059  -18.1298 C   0  0  0  0  0  0  0  0  0  0  0  0
    0.0316   21.6506  -16.7624 C   0  0  0  0  0  0  0  0  0  0  0  0
 28 29  1  0  0  0
 29 27  1  0  0  0
 27 30  1  0  0  0
 30 31  1  0  0  0
 27 24  1  0  0  0
 24 25  2  0  0  0
 24 26  2  0  0  0
 24 22  1  0  0  0
 22  1  1  0  0  0
  1  2  2  0  0  0
  2  3  1  0  0  0
  3  4  2  0  0  0
  4  5  1  0  0  0
  5  6  1  0  0  0
  6  7  2  0  0  0
  7  8  1  0  0  0
  8  9  1  0  0  0
  7 10  1  0  0  0
 10 11  2  0  0  0
 11 12  1  0  0  0
 11 13  1  0  0  0
 13 18  1  0  0  0
 18 19  1  0  0  0
 13 14  2  0  0  0
 14 15  1  0  0  0
 15 20  1  0  0  0
 20 21  1  0  0  0
 15 16  2  0  0  0
 16 17  1  0  0  0
  9  1  1  0  0  0
 16 10  1  0  0  0
  9  5  2  0  0  0
 22 23  1  0  0  0
M  END
> <minimizedAffinity>
-7.59331

> <CNNscore>
0.2745068371

> <CNNaffinity>
6.5864439011

> <CNN_VS>
1.8080239296

> <CNNaffinity_variance>
0.1461735368

$$$$
[H]c1c(OC([H])([H])[H])c(Cl)c(-c2oc3c(N([H])S(=O)(=O)N(C([H])([H])C([H])([H])[H])C([H])([H])C([H])([H])[H])c([H])c([H])c([H])c3c2[H])c(Cl)c1OC([H])([H])[H]


 31 33  0  0  0  0  0  0  0  0999 V2000
   -4.2329   24.8715  -26.8514 C   0  0  0  0  0  0  0  0  0  0  0  0
   -4.7975   24.7973  -28.0981 C   0  0  0  0  0  0  0  0  0  0  0  0
   -4.6085   23.7566  -28.9807 C   0  0  0  0  0  0  0  0  0  0  0  0
   -3.7855   22.7211  -28.5584 C   0  0  0  0  0  0  0  0  0  0  0  0
   -3.2027   22.7632  -27.3130 C   0  0  0  0  0  0  0  0  0  0  0  0
   -2.3446   21.9131  -26.5922 C   0  0  0  0  0  0  0  0  0  0  0  0
   -2.0724   22.4550  -25.3734 C   0  0  0  0  0  0  0  0  0  0  0  0
   -2.7479   23.5983  -25.3624 O   0  0  0  0  0  0  0  0  0  0  0  0
   -3.4065   23.8069  -26.4571 C   0  0  0  0  0  0  0  0  0  0  0  0
   -1.2477   21.9963  -24.2432 C   0  0  0  0  0  0  0  0  0  0  0  0
   -1.7361   21.5904  -23.0411 C   0  0  0  0  0  0  0  0  0  0  0  0
   -3.4605   21.5705  -22.7026 Cl  0  0  0  0  0  0  0  0  0  0  0  0
   -0.8617   21.1757  -22.0390 C   0  0  0  0  0  0  0  0  0  0  0  0
    0.4944   21.1645  -22.2318 C   0  0  0  0  0  0  0  0  0  0  0  0
    0.9956   21.5701  -23.4355 C   0  0  0  0  0  0  0  0  0  0  0  0
    0.1388   21.9723  -24.4055 C   0  0  0  0  0  0  0  0  0  0  0  0
    0.8182   22.4919  -25.9537 Cl  0  0  0  0  0  0  0  0  0  0  0  0
   -1.3956   20.7723  -20.8362 O   0  0  0  0  0  0  0  0  0  0  0  0
   -1.4847   21.5944  -19.7014 C   0  0  0  0  0  0  0  0  0  0  0  0
    2.3793   21.5777  -23.6847 O   0  0  0  0  0  0  0  0  0  0  0  0
    3.1753   20.6870  -22.9339 C   0  0  0  0  0  0  0  0  0  0  0  0
   -4.4441   25.9530  -25.9489 N   0  0  0  0  0  0  0  0  0  0  0  0
   -3.9172   26.8448  -26.1200 H   0  0  0  0  0  0  0  0  0  0  0  0
   -5.5079   25.8742  -24.6042 S   0  0  0  0  0  0  0  0  0  0  0  0
   -6.2801   27.1306  -24.4648 O   0  0  0  0  0  0  0  0  0  0  0  0
   -4.6856   25.7024  -23.3507 O   0  0  0  0  0  0  0  0  0  0  0  0
   -6.6120   24.5493  -24.7930 N   0  0  0  0  0  0  0  0  0  0  0  0
   -6.1568   22.1768  -24.7782 C   0  0  0  0  0  0  0  0  0  0  0  0
   -6.2323   23.4570  -23.9754 C   0  0  0  0  0  0  0  0  0  0  0  0
   -7.9658   24.9873  -24.6729 C   0  0  0  0  0  0  0  0  0  0  0  0
   -8.5176   24.9470  -23.2802 C   0  0  0  0  0  0  0  0  0  0  0  0
 28 29  1  0  0  0
 29 27  1  0  0  0
 27 30  1  0  0  0
 30 31  1  0  0  0
 27 24  1  0  0  0
 24 25  2  0  0  0
 24 26  2  0  0  0
 24 22  1  0  0  0
 22  1  1  0  0  0
  1  2  2  0  0  0
  2  3  1  0  0  0
  3  4  2  0  0  0
  4  5  1  0  0  0
  5  6  1  0  0  0
  6  7  2  0  0  0
  7  8  1  0  0  0
  8  9  1  0  0  0
  7 10  1  0  0  0
 10 11  2  0  0  0
 11 12  1  0  0  0
 11 13  1  0  0  0
 13 18  1  0  0  0
 18 19  1  0  0  0
 13 14  2  0  0  0
 14 15  1  0  0  0
 15 20  1  0  0  0
 20 21  1  0  0  0
 15 16  2  0  0  0
 16 17  1  0  0  0
  9  1  1  0  0  0
 16 10  1  0  0  0
  9  5  2  0  0  0
 22 23  1  0  0  0
M  END
> <minimizedAffinity>
-7.65880

> <CNNscore>
0.2744030058

> <CNNaffinity>
6.7105584145

> <CNN_VS>
1.8413974047

> <CNNaffinity_variance>
0.2008510381

$$$$
[H]C([H])=C([H])C(=O)N1C([H])([H])C([H])([H])N(c2c(C3([H])C([H])([H])C3([H])[H])nc(-n3c([H])nc4c([H])c(-c5noc(C([H])([H])[H])n5)c([H])c([H])c43)c([H])c2F)C([H])([H])C1([H])[H]


 35 40  0  0  0  0  0  0  0  0999 V2000
   -0.1946   21.8233  -24.1911 C   0  0  0  0  0  0  0  0  0  0  0  0
    1.0181   21.4743  -23.6393 C   0  0  0  0  0  0  0  0  0  0  0  0
    1.1504   21.1822  -22.2998 C   0  0  0  0  0  0  0  0  0  0  0  0
    2.3646   20.8423  -21.7954 F   0  0  0  0  0  0  0  0  0  0  0  0
    0.0346   21.2353  -21.4574 C   0  0  0  0  0  0  0  0  0  0  0  0
   -1.1577   21.5845  -22.0301 C   0  0  0  0  0  0  0  0  0  0  0  0
   -1.2465   21.8662  -23.3606 N   0  0  0  0  0  0  0  0  0  0  0  0
   -3.2575   23.5785  -28.0774 C   0  0  0  0  0  0  0  0  0  0  0  0
   -3.5504   23.4187  -26.7378 C   0  0  0  0  0  0  0  0  0  0  0  0
   -2.6214   22.9402  -25.8410 C   0  0  0  0  0  0  0  0  0  0  0  0
   -1.3529   22.5992  -26.2478 C   0  0  0  0  0  0  0  0  0  0  0  0
   -0.2702   22.1135  -25.5783 N   0  0  0  0  0  0  0  0  0  0  0  0
    0.6925   21.9753  -26.5163 C   0  0  0  0  0  0  0  0  0  0  0  0
    0.2493   22.3507  -27.7118 N   0  0  0  0  0  0  0  0  0  0  0  0
   -1.0368   22.7504  -27.5824 C   0  0  0  0  0  0  0  0  0  0  0  0
   -1.9843   23.2341  -28.4746 C   0  0  0  0  0  0  0  0  0  0  0  0
   -5.7516   26.4063  -31.4126 C   0  0  0  0  0  0  0  0  0  0  0  0
   -5.3326   25.3385  -30.4703 C   0  0  0  0  0  0  0  0  0  0  0  0
   -4.2186   25.2253  -29.7220 N   0  0  0  0  0  0  0  0  0  0  0  0
   -4.2543   24.0863  -29.0093 C   0  0  0  0  0  0  0  0  0  0  0  0
   -5.4191   23.5040  -29.3401 N   0  0  0  0  0  0  0  0  0  0  0  0
   -6.0362   24.2712  -30.2088 O   0  0  0  0  0  0  0  0  0  0  0  0
    0.1882   20.9213  -20.0629 N   0  0  0  0  0  0  0  0  0  0  0  0
   -0.0242   19.5690  -19.6430 C   0  0  0  0  0  0  0  0  0  0  0  0
   -0.8284   19.4605  -18.3870 C   0  0  0  0  0  0  0  0  0  0  0  0
   -0.4200   20.4840  -17.4057 N   0  0  0  0  0  0  0  0  0  0  0  0
   -0.2693   21.8320  -17.8375 C   0  0  0  0  0  0  0  0  0  0  0  0
    0.5588   21.9199  -19.0972 C   0  0  0  0  0  0  0  0  0  0  0  0
   -0.2049   20.0435  -16.0826 C   0  0  0  0  0  0  0  0  0  0  0  0
   -0.3509   18.8179  -15.7654 O   0  0  0  0  0  0  0  0  0  0  0  0
    0.1867   20.9424  -15.0273 C   0  0  0  0  0  0  0  0  0  0  0  0
   -0.7229   21.3163  -14.1235 C   0  0  0  0  0  0  0  0  0  0  0  0
   -2.3923   21.6657  -21.2096 C   0  0  0  0  0  0  0  0  0  0  0  0
   -2.9968   23.0212  -21.0181 C   0  0  0  0  0  0  0  0  0  0  0  0
   -3.7076   21.9534  -21.7816 C   0  0  0  0  0  0  0  0  0  0  0  0
 17 18  1  0  0  0
 18 19  2  0  0  0
 19 20  1  0  0  0
 20 21  2  0  0  0
 21 22  1  0  0  0
 20  8  1  0  0  0
  8  9  2  0  0  0
  9 10  1  0  0  0
 10 11  2  0  0  0
 11 12  1  0  0  0
 12 13  1  0  0  0
 13 14  2  0  0  0
 14 15  1  0  0  0
 15 16  2  0  0  0
 12  1  1  0  0  0
  1  2  2  0  0  0
  2  3  1  0  0  0
  3  4  1  0  0  0
  3  5  2  0  0  0
  5 23  1  0  0  0
 23 24  1  0  0  0
 24 25  1  0  0  0
 25 26  1  0  0  0
 26 27  1  0  0  0
 27 28  1  0  0  0
 26 29  1  0  0  0
 29 30  2  0  0  0
 29 31  1  0  0  0
 31 32  2  0  0  0
  5  6  1  0  0  0
  6  7  2  0  0  0
  6 33  1  0  0  0
 33 34  1  0  0  0
 34 35  1  0  0  0
 22 18  1  0  0  0
 16  8  1  0  0  0
  7  1  1  0  0  0
 35 33  1  0  0  0
 15 11  1  0  0  0
 28 23  1  0  0  0
M  END
> <minimizedAffinity>
-8.73250

> <CNNscore>
0.8380777240

> <CNNaffinity>
7.5256662369

> <CNN_VS>
6.3070931435

> <CNNaffinity_variance>
0.0507554412

$$$$
[H]C([H])=C([H])C(=O)N1C([H])([H])C([H])([H])N(c2c(C3([H])C([H])([H])C3([H])[H])nc(-n3c([H])nc4c([H])c(-c5noc(C([H])([H])[H])n5)c([H])c([H])c43)c([H])c2F)C([H])([H])C1([H])[H]


 35 40  0  0  0  0  0  0  0  0999 V2000
   -0.3627   22.1015  -23.5619 C   0  0  0  0  0  0  0  0  0  0  0  0
   -1.2530   22.8430  -22.8173 C   0  0  0  0  0  0  0  0  0  0  0  0
   -1.2469   22.8182  -21.4401 C   0  0  0  0  0  0  0  0  0  0  0  0
   -2.1422   23.5646  -20.7433 F   0  0  0  0  0  0  0  0  0  0  0  0
   -0.3187   22.0244  -20.7577 C   0  0  0  0  0  0  0  0  0  0  0  0
    0.5543   21.2978  -21.5203 C   0  0  0  0  0  0  0  0  0  0  0  0
    0.5153   21.3501  -22.8816 N   0  0  0  0  0  0  0  0  0  0  0  0
   -3.2852   23.4238  -27.7182 C   0  0  0  0  0  0  0  0  0  0  0  0
   -3.5893   23.5060  -26.3741 C   0  0  0  0  0  0  0  0  0  0  0  0
   -2.6988   23.1120  -25.4004 C   0  0  0  0  0  0  0  0  0  0  0  0
   -1.4595   22.6164  -25.7310 C   0  0  0  0  0  0  0  0  0  0  0  0
   -0.4163   22.1671  -24.9785 N   0  0  0  0  0  0  0  0  0  0  0  0
    0.5332   21.8074  -25.8700 C   0  0  0  0  0  0  0  0  0  0  0  0
    0.1194   22.0152  -27.1158 N   0  0  0  0  0  0  0  0  0  0  0  0
   -1.1330   22.5249  -27.0685 C   0  0  0  0  0  0  0  0  0  0  0  0
   -2.0415   22.9261  -28.0388 C   0  0  0  0  0  0  0  0  0  0  0  0
   -5.5869   25.8873  -31.4563 C   0  0  0  0  0  0  0  0  0  0  0  0
   -5.2345   24.9378  -30.3711 C   0  0  0  0  0  0  0  0  0  0  0  0
   -4.1400   24.8766  -29.5888 N   0  0  0  0  0  0  0  0  0  0  0  0
   -4.2411   23.8458  -28.7321 C   0  0  0  0  0  0  0  0  0  0  0  0
   -5.4261   23.2765  -29.0095 N   0  0  0  0  0  0  0  0  0  0  0  0
   -5.9917   23.9471  -29.9864 O   0  0  0  0  0  0  0  0  0  0  0  0
   -0.3211   22.0146  -19.3201 N   0  0  0  0  0  0  0  0  0  0  0  0
    0.5439   22.9250  -18.6323 C   0  0  0  0  0  0  0  0  0  0  0  0
    1.2620   22.2999  -17.4793 C   0  0  0  0  0  0  0  0  0  0  0  0
    0.3655   21.4114  -16.7150 N   0  0  0  0  0  0  0  0  0  0  0  0
   -0.4442   20.4767  -17.4198 C   0  0  0  0  0  0  0  0  0  0  0  0
   -1.1721   21.1319  -18.5692 C   0  0  0  0  0  0  0  0  0  0  0  0
    0.3765   21.5551  -15.3113 C   0  0  0  0  0  0  0  0  0  0  0  0
    1.1221   22.4193  -14.7444 O   0  0  0  0  0  0  0  0  0  0  0  0
   -0.4435   20.7432  -14.4490 C   0  0  0  0  0  0  0  0  0  0  0  0
   -1.5384   21.2789  -13.9031 C   0  0  0  0  0  0  0  0  0  0  0  0
    1.5721   20.4286  -20.8782 C   0  0  0  0  0  0  0  0  0  0  0  0
    1.2303   18.9804  -20.7185 C   0  0  0  0  0  0  0  0  0  0  0  0
    2.3371   19.4238  -21.6167 C   0  0  0  0  0  0  0  0  0  0  0  0
 17 18  1  0  0  0
 18 19  2  0  0  0
 19 20  1  0  0  0
 20 21  2  0  0  0
 21 22  1  0  0  0
 20  8  1  0  0  0
  8  9  2  0  0  0
  9 10  1  0  0  0
 10 11  2  0  0  0
 11 12  1  0  0  0
 12 13  1  0  0  0
 13 14  2  0  0  0
 14 15  1  0  0  0
 15 16  2  0  0  0
 12  1  1  0  0  0
  1  2  2  0  0  0
  2  3  1  0  0  0
  3  4  1  0  0  0
  3  5  2  0  0  0
  5 23  1  0  0  0
 23 24  1  0  0  0
 24 25  1  0  0  0
 25 26  1  0  0  0
 26 27  1  0  0  0
 27 28  1  0  0  0
 26 29  1  0  0  0
 29 30  2  0  0  0
 29 31  1  0  0  0
 31 32  2  0  0  0
  5  6  1  0  0  0
  6  7  2  0  0  0
  6 33  1  0  0  0
 33 34  1  0  0  0
 34 35  1  0  0  0
 22 18  1  0  0  0
 16  8  1  0  0  0
  7  1  1  0  0  0
 35 33  1  0  0  0
 15 11  1  0  0  0
 28 23  1  0  0  0
M  END
> <minimizedAffinity>
-8.95973

> <CNNscore>
0.6431519389

> <CNNaffinity>
7.3296585083

> <CNN_VS>
4.7140841484

> <CNNaffinity_variance>
0.1127436981

$$$$
[H]C([H])=C([H])C(=O)N1C([H])([H])C([H])([H])N(c2c(C3([H])C([H])([H])C3([H])[H])nc(-n3c([H])nc4c([H])c(-c5noc(C([H])([H])[H])n5)c([H])c([H])c43)c([H])c2F)C([H])([H])C1([H])[H]


 35 40  0  0  0  0  0  0  0  0999 V2000
   -1.4384   22.0375  -23.7014 C   0  0  0  0  0  0  0  0  0  0  0  0
   -2.6392   22.3809  -23.1209 C   0  0  0  0  0  0  0  0  0  0  0  0
   -2.8661   22.2229  -21.7715 C   0  0  0  0  0  0  0  0  0  0  0  0
   -4.0649   22.5739  -21.2385 F   0  0  0  0  0  0  0  0  0  0  0  0
   -1.8624   21.7007  -20.9485 C   0  0  0  0  0  0  0  0  0  0  0  0
   -0.6794   21.3678  -21.5497 C   0  0  0  0  0  0  0  0  0  0  0  0
   -0.4948   21.5397  -22.8890 N   0  0  0  0  0  0  0  0  0  0  0  0
   -3.6919   23.6355  -28.1661 C   0  0  0  0  0  0  0  0  0  0  0  0
   -4.2147   23.5943  -26.8890 C   0  0  0  0  0  0  0  0  0  0  0  0
   -3.4805   23.1414  -25.8156 C   0  0  0  0  0  0  0  0  0  0  0  0
   -2.1852   22.7081  -25.9743 C   0  0  0  0  0  0  0  0  0  0  0  0
   -1.2621   22.2230  -25.0974 N   0  0  0  0  0  0  0  0  0  0  0  0
   -0.1661   21.9656  -25.8445 C   0  0  0  0  0  0  0  0  0  0  0  0
   -0.3785   22.2687  -27.1210 N   0  0  0  0  0  0  0  0  0  0  0  0
   -1.6409   22.7400  -27.2419 C   0  0  0  0  0  0  0  0  0  0  0  0
   -2.3937   23.1992  -28.3144 C   0  0  0  0  0  0  0  0  0  0  0  0
   -6.6564   23.8943  -32.2261 C   0  0  0  0  0  0  0  0  0  0  0  0
   -5.7854   24.2118  -31.0669 C   0  0  0  0  0  0  0  0  0  0  0  0
   -5.1852   23.3959  -30.1793 N   0  0  0  0  0  0  0  0  0  0  0  0
   -4.4850   24.1180  -29.2876 C   0  0  0  0  0  0  0  0  0  0  0  0
   -4.6716   25.3978  -29.6516 N   0  0  0  0  0  0  0  0  0  0  0  0
   -5.4476   25.4207  -30.7105 O   0  0  0  0  0  0  0  0  0  0  0  0
   -2.1127   21.5481  -19.5411 N   0  0  0  0  0  0  0  0  0  0  0  0
   -2.6736   20.3140  -19.0801 C   0  0  0  0  0  0  0  0  0  0  0  0
   -3.7627   20.5006  -18.0726 C   0  0  0  0  0  0  0  0  0  0  0  0
   -3.4162   21.5616  -17.1075 N   0  0  0  0  0  0  0  0  0  0  0  0
   -2.9119   22.8000  -17.5956 C   0  0  0  0  0  0  0  0  0  0  0  0
   -1.8031   22.5887  -18.5986 C   0  0  0  0  0  0  0  0  0  0  0  0
   -3.6147   21.2659  -15.7421 C   0  0  0  0  0  0  0  0  0  0  0  0
   -4.0636   20.1317  -15.3732 O   0  0  0  0  0  0  0  0  0  0  0  0
   -3.3258   22.2172  -14.6998 C   0  0  0  0  0  0  0  0  0  0  0  0
   -4.2690   22.4945  -13.7956 C   0  0  0  0  0  0  0  0  0  0  0  0
    0.4395   20.8069  -20.7513 C   0  0  0  0  0  0  0  0  0  0  0  0
    0.5725   19.3167  -20.7151 C   0  0  0  0  0  0  0  0  0  0  0  0
    1.6098   20.1747  -21.3603 C   0  0  0  0  0  0  0  0  0  0  0  0
 17 18  1  0  0  0
 18 19  2  0  0  0
 19 20  1  0  0  0
 20 21  2  0  0  0
 21 22  1  0  0  0
 20  8  1  0  0  0
  8  9  2  0  0  0
  9 10  1  0  0  0
 10 11  2  0  0  0
 11 12  1  0  0  0
 12 13  1  0  0  0
 13 14  2  0  0  0
 14 15  1  0  0  0
 15 16  2  0  0  0
 12  1  1  0  0  0
  1  2  2  0  0  0
  2  3  1  0  0  0
  3  4  1  0  0  0
  3  5  2  0  0  0
  5 23  1  0  0  0
 23 24  1  0  0  0
 24 25  1  0  0  0
 25 26  1  0  0  0
 26 27  1  0  0  0
 27 28  1  0  0  0
 26 29  1  0  0  0
 29 30  2  0  0  0
 29 31  1  0  0  0
 31 32  2  0  0  0
  5  6  1  0  0  0
  6  7  2  0  0  0
  6 33  1  0  0  0
 33 34  1  0  0  0
 34 35  1  0  0  0
 22 18  1  0  0  0
 16  8  1  0  0  0
  7  1  1  0  0  0
 35 33  1  0  0  0
 15 11  1  0  0  0
 28 23  1  0  0  0
M  END
> <minimizedAffinity>
-7.89521

> <CNNscore>
0.4331317246

> <CNNaffinity>
7.3165712357

> <CNN_VS>
3.1690390110

> <CNNaffinity_variance>
0.2383029908

$$$$
[H]C([H])=C([H])C(=O)N1C([H])([H])C([H])([H])N(c2c(C3([H])C([H])([H])C3([H])[H])nc(-n3c([H])nc4c([H])c(-c5noc(C([H])([H])[H])n5)c([H])c([H])c43)c([H])c2F)C([H])([H])C1([H])[H]


 35 40  0  0  0  0  0  0  0  0999 V2000
   -2.5984   22.7422  -23.6622 C   0  0  0  0  0  0  0  0  0  0  0  0
   -3.5795   23.1806  -24.5237 C   0  0  0  0  0  0  0  0  0  0  0  0
   -4.8351   23.5303  -24.0784 C   0  0  0  0  0  0  0  0  0  0  0  0
   -5.7743   23.9579  -24.9612 F   0  0  0  0  0  0  0  0  0  0  0  0
   -5.1444   23.4456  -22.7166 C   0  0  0  0  0  0  0  0  0  0  0  0
   -4.1527   23.0075  -21.8822 C   0  0  0  0  0  0  0  0  0  0  0  0
   -2.9227   22.6709  -22.3630 N   0  0  0  0  0  0  0  0  0  0  0  0
    2.1377   20.7833  -22.5232 C   0  0  0  0  0  0  0  0  0  0  0  0
    1.0550   20.9915  -21.6923 C   0  0  0  0  0  0  0  0  0  0  0  0
   -0.1285   21.5207  -22.1568 C   0  0  0  0  0  0  0  0  0  0  0  0
   -0.2806   21.8660  -23.4791 C   0  0  0  0  0  0  0  0  0  0  0  0
   -1.3227   22.3958  -24.1788 N   0  0  0  0  0  0  0  0  0  0  0  0
   -0.8734   22.5123  -25.4477 C   0  0  0  0  0  0  0  0  0  0  0  0
    0.3801   22.0824  -25.5500 N   0  0  0  0  0  0  0  0  0  0  0  0
    0.7882   21.6669  -24.3288 C   0  0  0  0  0  0  0  0  0  0  0  0
    1.9751   21.1325  -23.8457 C   0  0  0  0  0  0  0  0  0  0  0  0
    6.2739   17.9833  -21.8973 C   0  0  0  0  0  0  0  0  0  0  0  0
    5.1881   18.9852  -21.7539 C   0  0  0  0  0  0  0  0  0  0  0  0
    4.0994   19.2046  -22.5157 N   0  0  0  0  0  0  0  0  0  0  0  0
    3.3803   20.2225  -22.0120 C   0  0  0  0  0  0  0  0  0  0  0  0
    4.0564   20.6214  -20.9217 N   0  0  0  0  0  0  0  0  0  0  0  0
    5.1243   19.8681  -20.7952 O   0  0  0  0  0  0  0  0  0  0  0  0
   -6.4575   23.8205  -22.2670 N   0  0  0  0  0  0  0  0  0  0  0  0
   -6.7175   25.2041  -22.0054 C   0  0  0  0  0  0  0  0  0  0  0  0
   -7.4860   25.4318  -20.7431 C   0  0  0  0  0  0  0  0  0  0  0  0
   -8.5636   24.4354  -20.5913 N   0  0  0  0  0  0  0  0  0  0  0  0
   -8.2658   23.0597  -20.8032 C   0  0  0  0  0  0  0  0  0  0  0  0
   -7.5041   22.8508  -22.0903 C   0  0  0  0  0  0  0  0  0  0  0  0
   -9.8379   24.9285  -20.2387 C   0  0  0  0  0  0  0  0  0  0  0  0
  -10.0371   26.1760  -20.0711 O   0  0  0  0  0  0  0  0  0  0  0  0
  -10.9724   24.0613  -20.0497 C   0  0  0  0  0  0  0  0  0  0  0  0
  -11.8436   24.3367  -19.0755 C   0  0  0  0  0  0  0  0  0  0  0  0
   -4.3949   22.8872  -20.4225 C   0  0  0  0  0  0  0  0  0  0  0  0
   -4.7527   21.5316  -19.8992 C   0  0  0  0  0  0  0  0  0  0  0  0
   -3.4726   22.1989  -19.5193 C   0  0  0  0  0  0  0  0  0  0  0  0
 17 18  1  0  0  0
 18 19  2  0  0  0
 19 20  1  0  0  0
 20 21  2  0  0  0
 21 22  1  0  0  0
 20  8  1  0  0  0
  8  9  2  0  0  0
  9 10  1  0  0  0
 10 11  2  0  0  0
 11 12  1  0  0  0
 12 13  1  0  0  0
 13 14  2  0  0  0
 14 15  1  0  0  0
 15 16  2  0  0  0
 12  1  1  0  0  0
  1  2  2  0  0  0
  2  3  1  0  0  0
  3  4  1  0  0  0
  3  5  2  0  0  0
  5 23  1  0  0  0
 23 24  1  0  0  0
 24 25  1  0  0  0
 25 26  1  0  0  0
 26 27  1  0  0  0
 27 28  1  0  0  0
 26 29  1  0  0  0
 29 30  2  0  0  0
 29 31  1  0  0  0
 31 32  2  0  0  0
  5  6  1  0  0  0
  6  7  2  0  0  0
  6 33  1  0  0  0
 33 34  1  0  0  0
 34 35  1  0  0  0
 22 18  1  0  0  0
 16  8  1  0  0  0
  7  1  1  0  0  0
 35 33  1  0  0  0
 15 11  1  0  0  0
 28 23  1  0  0  0
M  END
> <minimizedAffinity>
-7.74477

> <CNNscore>
0.2019807100

> <CNNaffinity>
6.5237822533

> <CNN_VS>
1.3176782131

> <CNNaffinity_variance>
0.0692627281

$$$$
[H]C([H])=C([H])C(=O)N1C([H])([H])C([H])([H])N(c2c(C3([H])C([H])([H])C3([H])[H])nc(-n3c([H])nc4c([H])c(-c5noc(C([H])([H])[H])n5)c([H])c([H])c43)c([H])c2F)C([H])([H])C1([H])[H]


 35 40  0  0  0  0  0  0  0  0999 V2000
   -2.5074   21.8153  -22.5404 C   0  0  0  0  0  0  0  0  0  0  0  0
   -1.5310   21.6202  -21.5887 C   0  0  0  0  0  0  0  0  0  0  0  0
   -1.8398   21.3993  -20.2647 C   0  0  0  0  0  0  0  0  0  0  0  0
   -0.8466   21.2116  -19.3577 F   0  0  0  0  0  0  0  0  0  0  0  0
   -3.1764   21.3681  -19.8527 C   0  0  0  0  0  0  0  0  0  0  0  0
   -4.1267   21.5645  -20.8171 C   0  0  0  0  0  0  0  0  0  0  0  0
   -3.7793   21.7801  -22.1172 N   0  0  0  0  0  0  0  0  0  0  0  0
   -4.1136   23.4499  -27.2641 C   0  0  0  0  0  0  0  0  0  0  0  0
   -4.8212   23.3635  -26.0818 C   0  0  0  0  0  0  0  0  0  0  0  0
   -4.2428   22.9075  -24.9183 C   0  0  0  0  0  0  0  0  0  0  0  0
   -2.9248   22.5164  -24.8872 C   0  0  0  0  0  0  0  0  0  0  0  0
   -2.1291   22.0384  -23.8899 N   0  0  0  0  0  0  0  0  0  0  0  0
   -0.9252   21.8309  -24.4673 C   0  0  0  0  0  0  0  0  0  0  0  0
   -0.9527   22.1573  -25.7554 N   0  0  0  0  0  0  0  0  0  0  0  0
   -2.1972   22.5939  -26.0570 C   0  0  0  0  0  0  0  0  0  0  0  0
   -2.7944   23.0557  -27.2223 C   0  0  0  0  0  0  0  0  0  0  0  0
   -5.1502   25.9999  -31.4786 C   0  0  0  0  0  0  0  0  0  0  0  0
   -5.1820   25.0629  -30.3278 C   0  0  0  0  0  0  0  0  0  0  0  0
   -4.3195   24.9106  -29.3047 N   0  0  0  0  0  0  0  0  0  0  0  0
   -4.7442   23.9349  -28.4835 C   0  0  0  0  0  0  0  0  0  0  0  0
   -5.8894   23.4930  -29.0296 N   0  0  0  0  0  0  0  0  0  0  0  0
   -6.1224   24.1819  -30.1228 O   0  0  0  0  0  0  0  0  0  0  0  0
   -3.4823   21.1299  -18.4683 N   0  0  0  0  0  0  0  0  0  0  0  0
   -3.5662   22.2554  -17.5870 C   0  0  0  0  0  0  0  0  0  0  0  0
   -2.8854   22.0295  -16.2749 C   0  0  0  0  0  0  0  0  0  0  0  0
   -3.1522   20.6704  -15.7661 N   0  0  0  0  0  0  0  0  0  0  0  0
   -3.0081   19.5629  -16.6486 C   0  0  0  0  0  0  0  0  0  0  0  0
   -3.7160   19.8054  -17.9603 C   0  0  0  0  0  0  0  0  0  0  0  0
   -3.5382   20.5646  -14.4130 C   0  0  0  0  0  0  0  0  0  0  0  0
   -3.6553   21.6001  -13.6795 O   0  0  0  0  0  0  0  0  0  0  0  0
   -3.8178   19.2961  -13.7904 C   0  0  0  0  0  0  0  0  0  0  0  0
   -5.0294   19.0824  -13.2703 C   0  0  0  0  0  0  0  0  0  0  0  0
   -5.5694   21.5476  -20.4675 C   0  0  0  0  0  0  0  0  0  0  0  0
   -6.2558   22.8709  -20.3370 C   0  0  0  0  0  0  0  0  0  0  0  0
   -6.6205   21.9090  -21.4187 C   0  0  0  0  0  0  0  0  0  0  0  0
 17 18  1  0  0  0
 18 19  2  0  0  0
 19 20  1  0  0  0
 20 21  2  0  0  0
 21 22  1  0  0  0
 20  8  1  0  0  0
  8  9  2  0  0  0
  9 10  1  0  0  0
 10 11  2  0  0  0
 11 12  1  0  0  0
 12 13  1  0  0  0
 13 14  2  0  0  0
 14 15  1  0  0  0
 15 16  2  0  0  0
 12  1  1  0  0  0
  1  2  2  0  0  0
  2  3  1  0  0  0
  3  4  1  0  0  0
  3  5  2  0  0  0
  5 23  1  0  0  0
 23 24  1  0  0  0
 24 25  1  0  0  0
 25 26  1  0  0  0
 26 27  1  0  0  0
 27 28  1  0  0  0
 26 29  1  0  0  0
 29 30  2  0  0  0
 29 31  1  0  0  0
 31 32  2  0  0  0
  5  6  1  0  0  0
  6  7  2  0  0  0
  6 33  1  0  0  0
 33 34  1  0  0  0
 34 35  1  0  0  0
 22 18  1  0  0  0
 16  8  1  0  0  0
  7  1  1  0  0  0
 35 33  1  0  0  0
 15 11  1  0  0  0
 28 23  1  0  0  0
M  END
> <minimizedAffinity>
-7.65415

> <CNNscore>
0.1936782598

> <CNNaffinity>
6.8810410500

> <CNN_VS>
1.3327080011

> <CNNaffinity_variance>
0.3358037174

$$$$
[H]C([H])=C([H])C(=O)N1C([H])([H])C([H])([H])N(c2c(C3([H])C([H])([H])C3([H])[H])nc(-n3c([H])nc4c([H])c(-c5noc(C([H])([H])[H])n5)c([H])c([H])c43)c([H])c2F)C([H])([H])C1([H])[H]


 35 40  0  0  0  0  0  0  0  0999 V2000
   -4.0275   23.7587  -24.4515 C   0  0  0  0  0  0  0  0  0  0  0  0
   -4.5425   24.9241  -24.9744 C   0  0  0  0  0  0  0  0  0  0  0  0
   -5.6832   25.5067  -24.4678 C   0  0  0  0  0  0  0  0  0  0  0  0
   -6.1582   26.6565  -25.0125 F   0  0  0  0  0  0  0  0  0  0  0  0
   -6.3537   24.9150  -23.3918 C   0  0  0  0  0  0  0  0  0  0  0  0
   -5.8217   23.7584  -22.8910 C   0  0  0  0  0  0  0  0  0  0  0  0
   -4.6904   23.2138  -23.4211 N   0  0  0  0  0  0  0  0  0  0  0  0
    0.6274   21.5560  -23.4287 C   0  0  0  0  0  0  0  0  0  0  0  0
   -0.3375   22.0082  -22.5509 C   0  0  0  0  0  0  0  0  0  0  0  0
   -1.5170   22.5672  -22.9897 C   0  0  0  0  0  0  0  0  0  0  0  0
   -1.7834   22.6986  -24.3323 C   0  0  0  0  0  0  0  0  0  0  0  0
   -2.8486   23.2046  -25.0148 N   0  0  0  0  0  0  0  0  0  0  0  0
   -2.5322   23.0605  -26.3206 C   0  0  0  0  0  0  0  0  0  0  0  0
   -1.3370   22.4964  -26.4611 N   0  0  0  0  0  0  0  0  0  0  0  0
   -0.8337   22.2537  -25.2289 C   0  0  0  0  0  0  0  0  0  0  0  0
    0.3509   21.6923  -24.7713 C   0  0  0  0  0  0  0  0  0  0  0  0
    4.1988   19.5448  -20.5064 C   0  0  0  0  0  0  0  0  0  0  0  0
    3.4209   20.0881  -21.6480 C   0  0  0  0  0  0  0  0  0  0  0  0
    2.1709   20.5876  -21.6909 N   0  0  0  0  0  0  0  0  0  0  0  0
    1.8679   20.9679  -22.9440 C   0  0  0  0  0  0  0  0  0  0  0  0
    2.9646   20.6885  -23.6682 N   0  0  0  0  0  0  0  0  0  0  0  0
    3.8685   20.1675  -22.8711 O   0  0  0  0  0  0  0  0  0  0  0  0
   -7.5393   25.5390  -22.8704 N   0  0  0  0  0  0  0  0  0  0  0  0
   -7.4043   26.4374  -21.7636 C   0  0  0  0  0  0  0  0  0  0  0  0
   -8.4481   26.2386  -20.7115 C   0  0  0  0  0  0  0  0  0  0  0  0
   -9.7734   26.0049  -21.3169 N   0  0  0  0  0  0  0  0  0  0  0  0
   -9.8900   25.0654  -22.3798 C   0  0  0  0  0  0  0  0  0  0  0  0
   -8.8373   25.2941  -23.4380 C   0  0  0  0  0  0  0  0  0  0  0  0
  -10.8518   26.7444  -20.7866 C   0  0  0  0  0  0  0  0  0  0  0  0
  -10.6752   27.5764  -19.8375 O   0  0  0  0  0  0  0  0  0  0  0  0
  -12.1974   26.6030  -21.2807 C   0  0  0  0  0  0  0  0  0  0  0  0
  -12.6812   27.5254  -22.1167 C   0  0  0  0  0  0  0  0  0  0  0  0
   -6.4691   23.0638  -21.7498 C   0  0  0  0  0  0  0  0  0  0  0  0
   -7.3519   21.8990  -22.0714 C   0  0  0  0  0  0  0  0  0  0  0  0
   -6.0788   21.7237  -21.3118 C   0  0  0  0  0  0  0  0  0  0  0  0
 17 18  1  0  0  0
 18 19  2  0  0  0
 19 20  1  0  0  0
 20 21  2  0  0  0
 21 22  1  0  0  0
 20  8  1  0  0  0
  8  9  2  0  0  0
  9 10  1  0  0  0
 10 11  2  0  0  0
 11 12  1  0  0  0
 12 13  1  0  0  0
 13 14  2  0  0  0
 14 15  1  0  0  0
 15 16  2  0  0  0
 12  1  1  0  0  0
  1  2  2  0  0  0
  2  3  1  0  0  0
  3  4  1  0  0  0
  3  5  2  0  0  0
  5 23  1  0  0  0
 23 24  1  0  0  0
 24 25  1  0  0  0
 25 26  1  0  0  0
 26 27  1  0  0  0
 27 28  1  0  0  0
 26 29  1  0  0  0
 29 30  2  0  0  0
 29 31  1  0  0  0
 31 32  2  0  0  0
  5  6  1  0  0  0
  6  7  2  0  0  0
  6 33  1  0  0  0
 33 34  1  0  0  0
 34 35  1  0  0  0
 22 18  1  0  0  0
 16  8  1  0  0  0
  7  1  1  0  0  0
 35 33  1  0  0  0
 15 11  1  0  0  0
 28 23  1  0  0  0
M  END
> <minimizedAffinity>
-8.46093

> <CNNscore>
0.1369475871

> <CNNaffinity>
6.7379713058

> <CNN_VS>
0.9227489233

> <CNNaffinity_variance>
0.1085243672

$$$$
[H]C([H])=C([H])C(=O)N1C([H])([H])C([H])([H])N(c2c(C3([H])C([H])([H])C3([H])[H])nc(-n3c([H])nc4c([H])c(-c5noc(C([H])([H])[H])n5)c([H])c([H])c43)c([H])c2F)C([H])([H])C1([H])[H]


 35 40  0  0  0  0  0  0  0  0999 V2000
   -6.5165   23.1811  -21.4799 C   0  0  0  0  0  0  0  0  0  0  0  0
   -5.1723   23.3210  -21.2144 C   0  0  0  0  0  0  0  0  0  0  0  0
   -4.5676   22.6709  -20.1613 C   0  0  0  0  0  0  0  0  0  0  0  0
   -3.2390   22.8359  -19.9339 F   0  0  0  0  0  0  0  0  0  0  0  0
   -5.3211   21.8400  -19.3251 C   0  0  0  0  0  0  0  0  0  0  0  0
   -6.6535   21.7182  -19.6103 C   0  0  0  0  0  0  0  0  0  0  0  0
   -7.2138   22.3789  -20.6624 N   0  0  0  0  0  0  0  0  0  0  0  0
   -6.2314   24.0616  -26.6480 C   0  0  0  0  0  0  0  0  0  0  0  0
   -5.4417   23.2543  -25.8539 C   0  0  0  0  0  0  0  0  0  0  0  0
   -5.6538   23.1342  -24.4986 C   0  0  0  0  0  0  0  0  0  0  0  0
   -6.6701   23.8202  -23.8761 C   0  0  0  0  0  0  0  0  0  0  0  0
   -7.0846   23.8759  -22.5794 N   0  0  0  0  0  0  0  0  0  0  0  0
   -8.1363   24.7242  -22.5808 C   0  0  0  0  0  0  0  0  0  0  0  0
   -8.3771   25.1815  -23.8053 N   0  0  0  0  0  0  0  0  0  0  0  0
   -7.4728   24.6335  -24.6494 C   0  0  0  0  0  0  0  0  0  0  0  0
   -7.2465   24.7444  -26.0148 C   0  0  0  0  0  0  0  0  0  0  0  0
   -5.4310   25.8555  -31.2827 C   0  0  0  0  0  0  0  0  0  0  0  0
   -5.6406   24.9790  -30.1032 C   0  0  0  0  0  0  0  0  0  0  0  0
   -5.8521   25.2937  -28.8109 N   0  0  0  0  0  0  0  0  0  0  0  0
   -5.9904   24.1745  -28.0794 C   0  0  0  0  0  0  0  0  0  0  0  0
   -5.8582   23.1656  -28.9567 N   0  0  0  0  0  0  0  0  0  0  0  0
   -5.6516   23.6749  -30.1491 O   0  0  0  0  0  0  0  0  0  0  0  0
   -4.6737   21.1634  -18.2342 N   0  0  0  0  0  0  0  0  0  0  0  0
   -4.1133   19.8678  -18.4741 C   0  0  0  0  0  0  0  0  0  0  0  0
   -4.4072   18.8867  -17.3846 C   0  0  0  0  0  0  0  0  0  0  0  0
   -4.2757   19.5147  -16.0558 N   0  0  0  0  0  0  0  0  0  0  0  0
   -4.8893   20.7785  -15.8266 C   0  0  0  0  0  0  0  0  0  0  0  0
   -4.5666   21.7581  -16.9296 C   0  0  0  0  0  0  0  0  0  0  0  0
   -3.5366   18.8018  -15.0881 C   0  0  0  0  0  0  0  0  0  0  0  0
   -3.0064   17.6761  -15.3633 O   0  0  0  0  0  0  0  0  0  0  0  0
   -3.3417   19.2987  -13.7502 C   0  0  0  0  0  0  0  0  0  0  0  0
   -2.1668   19.0959  -13.1482 C   0  0  0  0  0  0  0  0  0  0  0  0
   -7.5271   20.8571  -18.7742 C   0  0  0  0  0  0  0  0  0  0  0  0
   -8.2330   21.5098  -17.6273 C   0  0  0  0  0  0  0  0  0  0  0  0
   -8.9867   20.9545  -18.7901 C   0  0  0  0  0  0  0  0  0  0  0  0
 17 18  1  0  0  0
 18 19  2  0  0  0
 19 20  1  0  0  0
 20 21  2  0  0  0
 21 22  1  0  0  0
 20  8  1  0  0  0
  8  9  2  0  0  0
  9 10  1  0  0  0
 10 11  2  0  0  0
 11 12  1  0  0  0
 12 13  1  0  0  0
 13 14  2  0  0  0
 14 15  1  0  0  0
 15 16  2  0  0  0
 12  1  1  0  0  0
  1  2  2  0  0  0
  2  3  1  0  0  0
  3  4  1  0  0  0
  3  5  2  0  0  0
  5 23  1  0  0  0
 23 24  1  0  0  0
 24 25  1  0  0  0
 25 26  1  0  0  0
 26 27  1  0  0  0
 27 28  1  0  0  0
 26 29  1  0  0  0
 29 30  2  0  0  0
 29 31  1  0  0  0
 31 32  2  0  0  0
  5  6  1  0  0  0
  6  7  2  0  0  0
  6 33  1  0  0  0
 33 34  1  0  0  0
 34 35  1  0  0  0
 22 18  1  0  0  0
 16  8  1  0  0  0
  7  1  1  0  0  0
 35 33  1  0  0  0
 15 11  1  0  0  0
 28 23  1  0  0  0
M  END
> <minimizedAffinity>
-7.04834

> <CNNscore>
0.1021833345

> <CNNaffinity>
6.2142443657

> <CNN_VS>
0.6349921823

> <CNNaffinity_variance>
0.1286194324

$$$$
[H]C([H])=C([H])C(=O)N1C([H])([H])C([H])([H])N(c2c(C3([H])C([H])([H])C3([H])[H])nc(-n3c([H])nc4c([H])c(-c5noc(C([H])([H])[H])n5)c([H])c([H])c43)c([H])c2F)C([H])([H])C1([H])[H]


 35 40  0  0  0  0  0  0  0  0999 V2000
   -8.2781   23.3244  -20.4528 C   0  0  0  0  0  0  0  0  0  0  0  0
   -7.1385   22.8543  -19.8385 C   0  0  0  0  0  0  0  0  0  0  0  0
   -7.1937   22.0242  -18.7408 C   0  0  0  0  0  0  0  0  0  0  0  0
   -6.0460   21.5828  -18.1645 F   0  0  0  0  0  0  0  0  0  0  0  0
   -8.4318   21.6347  -18.2184 C   0  0  0  0  0  0  0  0  0  0  0  0
   -9.5480   22.1152  -18.8466 C   0  0  0  0  0  0  0  0  0  0  0  0
   -9.4504   22.9351  -19.9309 N   0  0  0  0  0  0  0  0  0  0  0  0
   -6.3502   23.8185  -25.3112 C   0  0  0  0  0  0  0  0  0  0  0  0
   -6.2600   22.7520  -24.4392 C   0  0  0  0  0  0  0  0  0  0  0  0
   -6.8291   22.7857  -23.1858 C   0  0  0  0  0  0  0  0  0  0  0  0
   -7.5166   23.8934  -22.7484 C   0  0  0  0  0  0  0  0  0  0  0  0
   -8.1593   24.1771  -21.5810 N   0  0  0  0  0  0  0  0  0  0  0  0
   -8.6464   25.4273  -21.7407 C   0  0  0  0  0  0  0  0  0  0  0  0
   -8.3326   25.9108  -22.9383 N   0  0  0  0  0  0  0  0  0  0  0  0
   -7.6201   24.9720  -23.6027 C   0  0  0  0  0  0  0  0  0  0  0  0
   -7.0408   24.9231  -24.8636 C   0  0  0  0  0  0  0  0  0  0  0  0
   -5.6239   23.6239  -30.2886 C   0  0  0  0  0  0  0  0  0  0  0  0
   -5.4425   23.6773  -28.8163 C   0  0  0  0  0  0  0  0  0  0  0  0
   -6.3556   23.7242  -27.8274 N   0  0  0  0  0  0  0  0  0  0  0  0
   -5.7412   23.7625  -26.6325 C   0  0  0  0  0  0  0  0  0  0  0  0
   -4.4278   23.7378  -26.9145 N   0  0  0  0  0  0  0  0  0  0  0  0
   -4.2827   23.6872  -28.2184 O   0  0  0  0  0  0  0  0  0  0  0  0
   -8.4724   20.7626  -17.0762 N   0  0  0  0  0  0  0  0  0  0  0  0
   -8.6030   19.3544  -17.3001 C   0  0  0  0  0  0  0  0  0  0  0  0
   -9.5829   18.6989  -16.3802 C   0  0  0  0  0  0  0  0  0  0  0  0
   -9.4507   19.2201  -15.0061 N   0  0  0  0  0  0  0  0  0  0  0  0
   -9.3782   20.6275  -14.8063 C   0  0  0  0  0  0  0  0  0  0  0  0
   -8.3720   21.2665  -15.7334 C   0  0  0  0  0  0  0  0  0  0  0  0
   -9.4057   18.2656  -13.9678 C   0  0  0  0  0  0  0  0  0  0  0  0
   -9.4684   17.0177  -14.2183 O   0  0  0  0  0  0  0  0  0  0  0  0
   -9.2886   18.6419  -12.5823 C   0  0  0  0  0  0  0  0  0  0  0  0
   -8.1190   18.4701  -11.9607 C   0  0  0  0  0  0  0  0  0  0  0  0
  -10.9022   21.7524  -18.3583 C   0  0  0  0  0  0  0  0  0  0  0  0
  -11.4910   22.6074  -17.2804 C   0  0  0  0  0  0  0  0  0  0  0  0
  -12.0909   22.5549  -18.6463 C   0  0  0  0  0  0  0  0  0  0  0  0
 17 18  1  0  0  0
 18 19  2  0  0  0
 19 20  1  0  0  0
 20 21  2  0  0  0
 21 22  1  0  0  0
 20  8  1  0  0  0
  8  9  2  0  0  0
  9 10  1  0  0  0
 10 11  2  0  0  0
 11 12  1  0  0  0
 12 13  1  0  0  0
 13 14  2  0  0  0
 14 15  1  0  0  0
 15 16  2  0  0  0
 12  1  1  0  0  0
  1  2  2  0  0  0
  2  3  1  0  0  0
  3  4  1  0  0  0
  3  5  2  0  0  0
  5 23  1  0  0  0
 23 24  1  0  0  0
 24 25  1  0  0  0
 25 26  1  0  0  0
 26 27  1  0  0  0
 27 28  1  0  0  0
 26 29  1  0  0  0
 29 30  2  0  0  0
 29 31  1  0  0  0
 31 32  2  0  0  0
  5  6  1  0  0  0
  6  7  2  0  0  0
  6 33  1  0  0  0
 33 34  1  0  0  0
 34 35  1  0  0  0
 22 18  1  0  0  0
 16  8  1  0  0  0
  7  1  1  0  0  0
 35 33  1  0  0  0
 15 11  1  0  0  0
 28 23  1  0  0  0
M  END
> <minimizedAffinity>
-7.04011

> <CNNscore>
0.0952316001

> <CNNaffinity>
5.9803915024

> <CNN_VS>
0.5695222616

> <CNNaffinity_variance>
0.0376692526

$$$$
[H]C([H])=C([H])C(=O)N1C([H])([H])C([H])([H])N(c2c(C3([H])C([H])([H])C3([H])[H])nc(-n3c([H])nc4c([H])c(-c5noc(C([H])([H])[H])n5)c([H])c([H])c43)c([H])c2F)C([H])([H])C1([H])[H]


 35 40  0  0  0  0  0  0  0  0999 V2000
   -7.6657   23.5703  -20.8452 C   0  0  0  0  0  0  0  0  0  0  0  0
   -8.9104   23.0664  -20.5387 C   0  0  0  0  0  0  0  0  0  0  0  0
   -9.1167   22.2528  -19.4466 C   0  0  0  0  0  0  0  0  0  0  0  0
  -10.3602   21.7767  -19.1795 F   0  0  0  0  0  0  0  0  0  0  0  0
   -8.0460   21.9159  -18.6114 C   0  0  0  0  0  0  0  0  0  0  0  0
   -6.8206   22.4292  -18.9378 C   0  0  0  0  0  0  0  0  0  0  0  0
   -6.6583   23.2311  -20.0278 N   0  0  0  0  0  0  0  0  0  0  0  0
   -6.1198   23.7989  -25.8575 C   0  0  0  0  0  0  0  0  0  0  0  0
   -6.1226   22.7235  -24.9918 C   0  0  0  0  0  0  0  0  0  0  0  0
   -6.5666   22.8351  -23.6930 C   0  0  0  0  0  0  0  0  0  0  0  0
   -7.0292   24.0333  -23.2019 C   0  0  0  0  0  0  0  0  0  0  0  0
   -7.5136   24.4040  -21.9836 N   0  0  0  0  0  0  0  0  0  0  0  0
   -7.8094   25.7168  -22.1057 C   0  0  0  0  0  0  0  0  0  0  0  0
   -7.5301   26.1558  -23.3287 N   0  0  0  0  0  0  0  0  0  0  0  0
   -7.0360   25.1225  -24.0489 C   0  0  0  0  0  0  0  0  0  0  0  0
   -6.5852   24.9944  -25.3559 C   0  0  0  0  0  0  0  0  0  0  0  0
   -5.7151   24.0052  -30.8708 C   0  0  0  0  0  0  0  0  0  0  0  0
   -5.4862   23.7595  -29.4249 C   0  0  0  0  0  0  0  0  0  0  0  0
   -6.2429   24.0770  -28.3571 N   0  0  0  0  0  0  0  0  0  0  0  0
   -5.6462   23.6597  -27.2272 C   0  0  0  0  0  0  0  0  0  0  0  0
   -4.5040   23.0782  -27.6301 N   0  0  0  0  0  0  0  0  0  0  0  0
   -4.4377   23.1533  -28.9392 O   0  0  0  0  0  0  0  0  0  0  0  0
   -8.2792   21.0709  -17.4719 N   0  0  0  0  0  0  0  0  0  0  0  0
   -8.2013   19.6523  -17.6500 C   0  0  0  0  0  0  0  0  0  0  0  0
   -9.3058   18.9104  -16.9676 C   0  0  0  0  0  0  0  0  0  0  0  0
   -9.5766   19.4742  -15.6311 N   0  0  0  0  0  0  0  0  0  0  0  0
   -9.7043   20.8849  -15.4906 C   0  0  0  0  0  0  0  0  0  0  0  0
   -8.5710   21.6133  -16.1728 C   0  0  0  0  0  0  0  0  0  0  0  0
   -9.6928   18.5548  -14.5670 C   0  0  0  0  0  0  0  0  0  0  0  0
   -9.5597   17.3025  -14.7622 O   0  0  0  0  0  0  0  0  0  0  0  0
   -9.9658   18.9733  -13.2160 C   0  0  0  0  0  0  0  0  0  0  0  0
   -9.0562   18.7353  -12.2674 C   0  0  0  0  0  0  0  0  0  0  0  0
   -5.6297   22.1224  -18.1062 C   0  0  0  0  0  0  0  0  0  0  0  0
   -4.7205   21.0367  -18.5900 C   0  0  0  0  0  0  0  0  0  0  0  0
   -4.2665   22.4570  -18.5185 C   0  0  0  0  0  0  0  0  0  0  0  0
 17 18  1  0  0  0
 18 19  2  0  0  0
 19 20  1  0  0  0
 20 21  2  0  0  0
 21 22  1  0  0  0
 20  8  1  0  0  0
  8  9  2  0  0  0
  9 10  1  0  0  0
 10 11  2  0  0  0
 11 12  1  0  0  0
 12 13  1  0  0  0
 13 14  2  0  0  0
 14 15  1  0  0  0
 15 16  2  0  0  0
 12  1  1  0  0  0
  1  2  2  0  0  0
  2  3  1  0  0  0
  3  4  1  0  0  0
  3  5  2  0  0  0
  5 23  1  0  0  0
 23 24  1  0  0  0
 24 25  1  0  0  0
 25 26  1  0  0  0
 26 27  1  0  0  0
 27 28  1  0  0  0
 26 29  1  0  0  0
 29 30  2  0  0  0
 29 31  1  0  0  0
 31 32  2  0  0  0
  5  6  1  0  0  0
  6  7  2  0  0  0
  6 33  1  0  0  0
 33 34  1  0  0  0
 34 35  1  0  0  0
 22 18  1  0  0  0
 16  8  1  0  0  0
  7  1  1  0  0  0
 35 33  1  0  0  0
 15 11  1  0  0  0
 28 23  1  0  0  0
M  END
> <minimizedAffinity>
-7.42609

> <CNNscore>
0.0931730494

> <CNNaffinity>
6.0377373695

> <CNN_VS>
0.5625544190

> <CNNaffinity_variance>
0.0836332291

$$$$
[H]c1nc2c([H])c([H])c(N3C([H])([H])C([H])(N(C(=O)N(C([H])([H])[H])C([H])([H])[H])C([H])([H])[H])C3([H])[H])nc2c([H])c1-c1c([H])nn(C([H])([H])[H])c1[H]


 27 30  0  0  0  0  0  0  0  0999 V2000
   -0.8827   21.9531  -24.1135 C   0  0  0  0  0  0  0  0  0  0  0  0
    0.3404   21.7791  -24.7722 C   0  0  0  0  0  0  0  0  0  0  0  0
    0.4678   22.0711  -26.1086 C   0  0  0  0  0  0  0  0  0  0  0  0
   -0.6551   22.5401  -26.7681 C   0  0  0  0  0  0  0  0  0  0  0  0
   -0.5419   22.8294  -28.0761 N   0  0  0  0  0  0  0  0  0  0  0  0
   -1.6204   23.2857  -28.7320 C   0  0  0  0  0  0  0  0  0  0  0  0
   -2.8459   23.4742  -28.1296 C   0  0  0  0  0  0  0  0  0  0  0  0
   -2.9872   23.1852  -26.7914 C   0  0  0  0  0  0  0  0  0  0  0  0
   -1.8592   22.7093  -26.1113 C   0  0  0  0  0  0  0  0  0  0  0  0
   -1.9442   22.4121  -24.8016 N   0  0  0  0  0  0  0  0  0  0  0  0
   -3.9937   23.9810  -28.9130 C   0  0  0  0  0  0  0  0  0  0  0  0
   -5.2496   23.4234  -29.0339 C   0  0  0  0  0  0  0  0  0  0  0  0
   -5.9713   24.2307  -29.8498 N   0  0  0  0  0  0  0  0  0  0  0  0
   -5.2464   25.2569  -30.2462 N   0  0  0  0  0  0  0  0  0  0  0  0
   -5.5993   26.3600  -31.1141 C   0  0  0  0  0  0  0  0  0  0  0  0
   -4.0300   25.1254  -29.6847 C   0  0  0  0  0  0  0  0  0  0  0  0
   -1.1955   21.0852  -20.6935 C   0  0  0  0  0  0  0  0  0  0  0  0
   -1.7138   22.1533  -21.5957 C   0  0  0  0  0  0  0  0  0  0  0  0
   -0.9720   21.6398  -22.7311 N   0  0  0  0  0  0  0  0  0  0  0  0
   -0.3622   20.6736  -21.8530 C   0  0  0  0  0  0  0  0  0  0  0  0
   -0.2643   22.9477  -19.3957 C   0  0  0  0  0  0  0  0  0  0  0  0
   -0.4724   21.5276  -19.4952 N   0  0  0  0  0  0  0  0  0  0  0  0
   -0.0297   20.6053  -18.5432 C   0  0  0  0  0  0  0  0  0  0  0  0
   -0.3030   19.3334  -18.7666 O   0  0  0  0  0  0  0  0  0  0  0  0
    0.6709   20.8381  -17.3714 N   0  0  0  0  0  0  0  0  0  0  0  0
    1.1005   22.1053  -16.8744 C   0  0  0  0  0  0  0  0  0  0  0  0
    1.0140   19.6366  -16.5437 C   0  0  0  0  0  0  0  0  0  0  0  0
 21 22  1  0  0  0
 22 17  1  0  0  0
 17 18  1  0  0  0
 18 19  1  0  0  0
 19 20  1  0  0  0
 19  1  1  0  0  0
  1  2  2  0  0  0
  2  3  1  0  0  0
  3  4  2  0  0  0
  4  5  1  0  0  0
  5  6  2  0  0  0
  6  7  1  0  0  0
  7  8  2  0  0  0
  8  9  1  0  0  0
  9 10  2  0  0  0
  7 11  1  0  0  0
 11 12  1  0  0  0
 12 13  2  0  0  0
 13 14  1  0  0  0
 14 15  1  0  0  0
 14 16  1  0  0  0
 22 23  1  0  0  0
 23 24  2  0  0  0
 23 25  1  0  0  0
 25 26  1  0  0  0
 25 27  1  0  0  0
 20 17  1  0  0  0
 10  1  1  0  0  0
 16 11  2  0  0  0
  9  4  1  0  0  0
M  END
> <minimizedAffinity>
-8.27364

> <CNNscore>
0.8642530441

> <CNNaffinity>
6.7476906776

> <CNN_VS>
5.8317122459

> <CNNaffinity_variance>
0.1162942052

$$$$
[H]c1nc2c([H])c([H])c(N3C([H])([H])C([H])(N(C(=O)N(C([H])([H])[H])C([H])([H])[H])C([H])([H])[H])C3([H])[H])nc2c([H])c1-c1c([H])nn(C([H])([H])[H])c1[H]


 27 30  0  0  0  0  0  0  0  0999 V2000
   -1.2381   22.4396  -23.7390 C   0  0  0  0  0  0  0  0  0  0  0  0
   -0.0467   22.0152  -24.3394 C   0  0  0  0  0  0  0  0  0  0  0  0
    0.1088   22.0601  -25.7037 C   0  0  0  0  0  0  0  0  0  0  0  0
   -0.9537   22.5387  -26.4506 C   0  0  0  0  0  0  0  0  0  0  0  0
   -0.8125   22.5876  -27.7867 N   0  0  0  0  0  0  0  0  0  0  0  0
   -1.8324   23.0492  -28.5271 C   0  0  0  0  0  0  0  0  0  0  0  0
   -3.0247   23.4787  -27.9848 C   0  0  0  0  0  0  0  0  0  0  0  0
   -3.1936   23.4385  -26.6194 C   0  0  0  0  0  0  0  0  0  0  0  0
   -2.1268   22.9560  -25.8509 C   0  0  0  0  0  0  0  0  0  0  0  0
   -2.2409   22.8966  -24.5114 N   0  0  0  0  0  0  0  0  0  0  0  0
   -4.1079   23.9763  -28.8605 C   0  0  0  0  0  0  0  0  0  0  0  0
   -5.3316   23.3910  -29.1109 C   0  0  0  0  0  0  0  0  0  0  0  0
   -5.9959   24.2002  -29.9724 N   0  0  0  0  0  0  0  0  0  0  0  0
   -5.2651   25.2536  -30.2760 N   0  0  0  0  0  0  0  0  0  0  0  0
   -5.5655   26.3689  -31.1481 C   0  0  0  0  0  0  0  0  0  0  0  0
   -4.1032   25.1383  -29.6062 C   0  0  0  0  0  0  0  0  0  0  0  0
   -1.4182   22.3297  -20.2030 C   0  0  0  0  0  0  0  0  0  0  0  0
   -1.1337   21.3689  -21.3074 C   0  0  0  0  0  0  0  0  0  0  0  0
   -1.3581   22.3773  -22.3252 N   0  0  0  0  0  0  0  0  0  0  0  0
   -1.7568   23.2908  -21.2846 C   0  0  0  0  0  0  0  0  0  0  0  0
   -3.7907   21.7826  -19.8998 C   0  0  0  0  0  0  0  0  0  0  0  0
   -2.5051   21.9738  -19.2830 N   0  0  0  0  0  0  0  0  0  0  0  0
   -2.2702   21.8434  -17.9116 C   0  0  0  0  0  0  0  0  0  0  0  0
   -1.0341   22.0406  -17.4925 O   0  0  0  0  0  0  0  0  0  0  0  0
   -3.1678   21.5296  -16.9047 N   0  0  0  0  0  0  0  0  0  0  0  0
   -4.5619   21.2652  -17.0595 C   0  0  0  0  0  0  0  0  0  0  0  0
   -2.6186   21.4635  -15.5116 C   0  0  0  0  0  0  0  0  0  0  0  0
 21 22  1  0  0  0
 22 17  1  0  0  0
 17 18  1  0  0  0
 18 19  1  0  0  0
 19 20  1  0  0  0
 19  1  1  0  0  0
  1  2  2  0  0  0
  2  3  1  0  0  0
  3  4  2  0  0  0
  4  5  1  0  0  0
  5  6  2  0  0  0
  6  7  1  0  0  0
  7  8  2  0  0  0
  8  9  1  0  0  0
  9 10  2  0  0  0
  7 11  1  0  0  0
 11 12  1  0  0  0
 12 13  2  0  0  0
 13 14  1  0  0  0
 14 15  1  0  0  0
 14 16  1  0  0  0
 22 23  1  0  0  0
 23 24  2  0  0  0
 23 25  1  0  0  0
 25 26  1  0  0  0
 25 27  1  0  0  0
 20 17  1  0  0  0
 10  1  1  0  0  0
 16 11  2  0  0  0
  9  4  1  0  0  0
M  END
> <minimizedAffinity>
-8.13736

> <CNNscore>
0.7307183743

> <CNNaffinity>
6.7413063049

> <CNN_VS>
4.9259963036

> <CNNaffinity_variance>
0.2831516564

$$$$
[H]c1nc2c([H])c([H])c(N3C([H])([H])C([H])(N(C(=O)N(C([H])([H])[H])C([H])([H])[H])C([H])([H])[H])C3([H])[H])nc2c([H])c1-c1c([H])nn(C([H])([H])[H])c1[H]


 27 30  0  0  0  0  0  0  0  0999 V2000
   -1.1623   22.2978  -23.5648 C   0  0  0  0  0  0  0  0  0  0  0  0
    0.0470   21.9307  -24.1673 C   0  0  0  0  0  0  0  0  0  0  0  0
    0.2100   22.0179  -25.5286 C   0  0  0  0  0  0  0  0  0  0  0  0
   -0.8632   22.4802  -26.2704 C   0  0  0  0  0  0  0  0  0  0  0  0
   -0.7148   22.5701  -27.6036 N   0  0  0  0  0  0  0  0  0  0  0  0
   -1.7449   23.0166  -28.3392 C   0  0  0  0  0  0  0  0  0  0  0  0
   -2.9549   23.3903  -27.7945 C   0  0  0  0  0  0  0  0  0  0  0  0
   -3.1315   23.3074  -26.4321 C   0  0  0  0  0  0  0  0  0  0  0  0
   -2.0539   22.8408  -25.6687 C   0  0  0  0  0  0  0  0  0  0  0  0
   -2.1749   22.7412  -24.3322 N   0  0  0  0  0  0  0  0  0  0  0  0
   -4.0486   23.8743  -28.6648 C   0  0  0  0  0  0  0  0  0  0  0  0
   -5.3105   23.3386  -28.8172 C   0  0  0  0  0  0  0  0  0  0  0  0
   -5.9697   24.1110  -29.7157 N   0  0  0  0  0  0  0  0  0  0  0  0
   -5.2000   25.0950  -30.1341 N   0  0  0  0  0  0  0  0  0  0  0  0
   -5.4808   26.1513  -31.0828 C   0  0  0  0  0  0  0  0  0  0  0  0
   -4.0171   24.9706  -29.5036 C   0  0  0  0  0  0  0  0  0  0  0  0
   -1.3589   22.0772  -20.0349 C   0  0  0  0  0  0  0  0  0  0  0  0
   -1.1061   21.1439  -21.1699 C   0  0  0  0  0  0  0  0  0  0  0  0
   -1.2895   22.1930  -22.1541 N   0  0  0  0  0  0  0  0  0  0  0  0
   -1.6579   23.0856  -21.0846 C   0  0  0  0  0  0  0  0  0  0  0  0
   -2.1820   20.6660  -18.2043 C   0  0  0  0  0  0  0  0  0  0  0  0
   -2.4614   21.7315  -19.1298 N   0  0  0  0  0  0  0  0  0  0  0  0
   -3.6822   22.4085  -19.1951 C   0  0  0  0  0  0  0  0  0  0  0  0
   -3.7878   23.3716  -20.0915 O   0  0  0  0  0  0  0  0  0  0  0  0
   -4.8245   22.2106  -18.4374 N   0  0  0  0  0  0  0  0  0  0  0  0
   -5.0009   21.2461  -17.4000 C   0  0  0  0  0  0  0  0  0  0  0  0
   -5.9937   23.0981  -18.7400 C   0  0  0  0  0  0  0  0  0  0  0  0
 21 22  1  0  0  0
 22 17  1  0  0  0
 17 18  1  0  0  0
 18 19  1  0  0  0
 19 20  1  0  0  0
 19  1  1  0  0  0
  1  2  2  0  0  0
  2  3  1  0  0  0
  3  4  2  0  0  0
  4  5  1  0  0  0
  5  6  2  0  0  0
  6  7  1  0  0  0
  7  8  2  0  0  0
  8  9  1  0  0  0
  9 10  2  0  0  0
  7 11  1  0  0  0
 11 12  1  0  0  0
 12 13  2  0  0  0
 13 14  1  0  0  0
 14 15  1  0  0  0
 14 16  1  0  0  0
 22 23  1  0  0  0
 23 24  2  0  0  0
 23 25  1  0  0  0
 25 26  1  0  0  0
 25 27  1  0  0  0
 20 17  1  0  0  0
 10  1  1  0  0  0
 16 11  2  0  0  0
  9  4  1  0  0  0
M  END
> <minimizedAffinity>
-8.37687

> <CNNscore>
0.7177172899

> <CNNaffinity>
6.7967972755

> <CNN_VS>
4.8781790733

> <CNNaffinity_variance>
0.2766276896

$$$$
[H]c1nc2c([H])c([H])c(N3C([H])([H])C([H])(N(C(=O)N(C([H])([H])[H])C([H])([H])[H])C([H])([H])[H])C3([H])[H])nc2c([H])c1-c1c([H])nn(C([H])([H])[H])c1[H]


 27 30  0  0  0  0  0  0  0  0999 V2000
   -1.0916   22.1789  -22.7097 C   0  0  0  0  0  0  0  0  0  0  0  0
    0.0988   21.8121  -23.3488 C   0  0  0  0  0  0  0  0  0  0  0  0
    0.1966   21.8307  -24.7190 C   0  0  0  0  0  0  0  0  0  0  0  0
   -0.9224   22.2241  -25.4323 C   0  0  0  0  0  0  0  0  0  0  0  0
   -0.8380   22.2465  -26.7739 N   0  0  0  0  0  0  0  0  0  0  0  0
   -1.9133   22.6257  -27.4821 C   0  0  0  0  0  0  0  0  0  0  0  0
   -3.1072   22.9959  -26.9011 C   0  0  0  0  0  0  0  0  0  0  0  0
   -3.2187   22.9813  -25.5293 C   0  0  0  0  0  0  0  0  0  0  0  0
   -2.0942   22.5848  -24.7945 C   0  0  0  0  0  0  0  0  0  0  0  0
   -2.1508   22.5536  -23.4504 N   0  0  0  0  0  0  0  0  0  0  0  0
   -4.2532   23.4036  -27.7426 C   0  0  0  0  0  0  0  0  0  0  0  0
   -5.5542   23.6368  -27.3477 C   0  0  0  0  0  0  0  0  0  0  0  0
   -6.2542   23.9868  -28.4548 N   0  0  0  0  0  0  0  0  0  0  0  0
   -5.4735   23.9871  -29.5161 N   0  0  0  0  0  0  0  0  0  0  0  0
   -5.7859   24.2939  -30.8956 C   0  0  0  0  0  0  0  0  0  0  0  0
   -4.2419   23.6326  -29.1042 C   0  0  0  0  0  0  0  0  0  0  0  0
   -1.3656   22.0770  -19.1795 C   0  0  0  0  0  0  0  0  0  0  0  0
   -1.3055   23.1283  -20.2352 C   0  0  0  0  0  0  0  0  0  0  0  0
   -1.1509   22.1463  -21.2910 N   0  0  0  0  0  0  0  0  0  0  0  0
   -1.0824   21.1207  -20.2811 C   0  0  0  0  0  0  0  0  0  0  0  0
    0.8464   22.8561  -18.4582 C   0  0  0  0  0  0  0  0  0  0  0  0
   -0.3622   22.1570  -18.1113 N   0  0  0  0  0  0  0  0  0  0  0  0
   -0.5982   21.5794  -16.8608 C   0  0  0  0  0  0  0  0  0  0  0  0
   -1.7600   20.9775  -16.6868 O   0  0  0  0  0  0  0  0  0  0  0  0
    0.2301   21.5463  -15.7513 N   0  0  0  0  0  0  0  0  0  0  0  0
    1.5367   22.1116  -15.6478 C   0  0  0  0  0  0  0  0  0  0  0  0
   -0.2996   20.8434  -14.5381 C   0  0  0  0  0  0  0  0  0  0  0  0
 21 22  1  0  0  0
 22 17  1  0  0  0
 17 18  1  0  0  0
 18 19  1  0  0  0
 19 20  1  0  0  0
 19  1  1  0  0  0
  1  2  2  0  0  0
  2  3  1  0  0  0
  3  4  2  0  0  0
  4  5  1  0  0  0
  5  6  2  0  0  0
  6  7  1  0  0  0
  7  8  2  0  0  0
  8  9  1  0  0  0
  9 10  2  0  0  0
  7 11  1  0  0  0
 11 12  1  0  0  0
 12 13  2  0  0  0
 13 14  1  0  0  0
 14 15  1  0  0  0
 14 16  1  0  0  0
 22 23  1  0  0  0
 23 24  2  0  0  0
 23 25  1  0  0  0
 25 26  1  0  0  0
 25 27  1  0  0  0
 20 17  1  0  0  0
 10  1  1  0  0  0
 16 11  2  0  0  0
  9  4  1  0  0  0
M  END
> <minimizedAffinity>
-7.79877

> <CNNscore>
0.5176727176

> <CNNaffinity>
6.4265298843

> <CNN_VS>
3.3268392086

> <CNNaffinity_variance>
0.5714247823

$$$$
[H]c1nc2c([H])c([H])c(N3C([H])([H])C([H])(N(C(=O)N(C([H])([H])[H])C([H])([H])[H])C([H])([H])[H])C3([H])[H])nc2c([H])c1-c1c([H])nn(C([H])([H])[H])c1[H]


 27 30  0  0  0  0  0  0  0  0999 V2000
   -1.0064   21.2620  -20.0747 C   0  0  0  0  0  0  0  0  0  0  0  0
    0.3102   20.8334  -19.8670 C   0  0  0  0  0  0  0  0  0  0  0  0
    1.2071   20.7860  -20.9066 C   0  0  0  0  0  0  0  0  0  0  0  0
    0.7562   21.1767  -22.1555 C   0  0  0  0  0  0  0  0  0  0  0  0
    1.6255   21.1347  -23.1802 N   0  0  0  0  0  0  0  0  0  0  0  0
    1.2059   21.5103  -24.3985 C   0  0  0  0  0  0  0  0  0  0  0  0
   -0.0787   21.9396  -24.6549 C   0  0  0  0  0  0  0  0  0  0  0  0
   -0.9873   21.9915  -23.6224 C   0  0  0  0  0  0  0  0  0  0  0  0
   -0.5450   21.5986  -22.3529 C   0  0  0  0  0  0  0  0  0  0  0  0
   -1.3939   21.6311  -21.3094 N   0  0  0  0  0  0  0  0  0  0  0  0
   -0.4740   22.3394  -26.0230 C   0  0  0  0  0  0  0  0  0  0  0  0
    0.3478   22.6233  -27.0938 C   0  0  0  0  0  0  0  0  0  0  0  0
   -0.4518   22.9421  -28.1414 N   0  0  0  0  0  0  0  0  0  0  0  0
   -1.7207   22.8753  -27.7931 N   0  0  0  0  0  0  0  0  0  0  0  0
   -2.9108   23.1289  -28.5768 C   0  0  0  0  0  0  0  0  0  0  0  0
   -1.7593   22.5077  -26.4987 C   0  0  0  0  0  0  0  0  0  0  0  0
   -3.1402   21.3367  -17.2483 C   0  0  0  0  0  0  0  0  0  0  0  0
   -2.6859   20.3207  -18.2408 C   0  0  0  0  0  0  0  0  0  0  0  0
   -1.9021   21.2966  -18.9731 N   0  0  0  0  0  0  0  0  0  0  0  0
   -2.4236   22.3193  -18.1022 C   0  0  0  0  0  0  0  0  0  0  0  0
   -5.3922   20.7865  -18.0520 C   0  0  0  0  0  0  0  0  0  0  0  0
   -4.5897   21.5247  -17.1135 N   0  0  0  0  0  0  0  0  0  0  0  0
   -5.1151   22.3717  -16.1340 C   0  0  0  0  0  0  0  0  0  0  0  0
   -4.2533   22.9760  -15.3374 O   0  0  0  0  0  0  0  0  0  0  0  0
   -6.4405   22.6760  -15.8717 N   0  0  0  0  0  0  0  0  0  0  0  0
   -7.5822   22.1741  -16.5660 C   0  0  0  0  0  0  0  0  0  0  0  0
   -6.7006   23.6308  -14.7460 C   0  0  0  0  0  0  0  0  0  0  0  0
 21 22  1  0  0  0
 22 17  1  0  0  0
 17 18  1  0  0  0
 18 19  1  0  0  0
 19 20  1  0  0  0
 19  1  1  0  0  0
  1  2  2  0  0  0
  2  3  1  0  0  0
  3  4  2  0  0  0
  4  5  1  0  0  0
  5  6  2  0  0  0
  6  7  1  0  0  0
  7  8  2  0  0  0
  8  9  1  0  0  0
  9 10  2  0  0  0
  7 11  1  0  0  0
 11 12  1  0  0  0
 12 13  2  0  0  0
 13 14  1  0  0  0
 14 15  1  0  0  0
 14 16  1  0  0  0
 22 23  1  0  0  0
 23 24  2  0  0  0
 23 25  1  0  0  0
 25 26  1  0  0  0
 25 27  1  0  0  0
 20 17  1  0  0  0
 10  1  1  0  0  0
 16 11  2  0  0  0
  9  4  1  0  0  0
M  END
> <minimizedAffinity>
-6.39316

> <CNNscore>
0.4965005815

> <CNNaffinity>
5.9038863182

> <CNN_VS>
2.9312829971

> <CNNaffinity_variance>
0.1498026103

$$$$
[H]c1nc2c([H])c([H])c(N3C([H])([H])C([H])(N(C(=O)N(C([H])([H])[H])C([H])([H])[H])C([H])([H])[H])C3([H])[H])nc2c([H])c1-c1c([H])nn(C([H])([H])[H])c1[H]


 27 30  0  0  0  0  0  0  0  0999 V2000
   -2.6711   22.1096  -23.3520 C   0  0  0  0  0  0  0  0  0  0  0  0
   -1.3401   21.7847  -23.6400 C   0  0  0  0  0  0  0  0  0  0  0  0
   -0.8483   21.8997  -24.9177 C   0  0  0  0  0  0  0  0  0  0  0  0
   -1.7180   22.3464  -25.8973 C   0  0  0  0  0  0  0  0  0  0  0  0
   -1.2473   22.4631  -27.1513 N   0  0  0  0  0  0  0  0  0  0  0  0
   -2.0764   22.8951  -28.1144 C   0  0  0  0  0  0  0  0  0  0  0  0
   -3.3940   23.2274  -27.8825 C   0  0  0  0  0  0  0  0  0  0  0  0
   -3.8994   23.1164  -26.6072 C   0  0  0  0  0  0  0  0  0  0  0  0
   -3.0307   22.6652  -25.6056 C   0  0  0  0  0  0  0  0  0  0  0  0
   -3.4753   22.5394  -24.3417 N   0  0  0  0  0  0  0  0  0  0  0  0
   -4.2524   23.6975  -28.9915 C   0  0  0  0  0  0  0  0  0  0  0  0
   -5.2106   22.9850  -29.6822 C   0  0  0  0  0  0  0  0  0  0  0  0
   -5.7423   23.8195  -30.6091 N   0  0  0  0  0  0  0  0  0  0  0  0
   -5.1773   25.0078  -30.5414 N   0  0  0  0  0  0  0  0  0  0  0  0
   -5.4254   26.1974  -31.3276 C   0  0  0  0  0  0  0  0  0  0  0  0
   -4.2607   24.9571  -29.5569 C   0  0  0  0  0  0  0  0  0  0  0  0
   -3.7878   21.6628  -20.0202 C   0  0  0  0  0  0  0  0  0  0  0  0
   -4.3658   21.5259  -21.3879 C   0  0  0  0  0  0  0  0  0  0  0  0
   -3.1400   21.9772  -22.0179 N   0  0  0  0  0  0  0  0  0  0  0  0
   -2.6006   22.2349  -20.7068 C   0  0  0  0  0  0  0  0  0  0  0  0
   -5.4481   23.4408  -19.7010 C   0  0  0  0  0  0  0  0  0  0  0  0
   -4.4953   22.5520  -19.0912 N   0  0  0  0  0  0  0  0  0  0  0  0
   -4.2322   22.5121  -17.7193 C   0  0  0  0  0  0  0  0  0  0  0  0
   -3.3362   21.6358  -17.3048 O   0  0  0  0  0  0  0  0  0  0  0  0
   -4.7887   23.2768  -16.7076 N   0  0  0  0  0  0  0  0  0  0  0  0
   -5.7768   24.2960  -16.8567 C   0  0  0  0  0  0  0  0  0  0  0  0
   -4.3013   23.0074  -15.3160 C   0  0  0  0  0  0  0  0  0  0  0  0
 21 22  1  0  0  0
 22 17  1  0  0  0
 17 18  1  0  0  0
 18 19  1  0  0  0
 19 20  1  0  0  0
 19  1  1  0  0  0
  1  2  2  0  0  0
  2  3  1  0  0  0
  3  4  2  0  0  0
  4  5  1  0  0  0
  5  6  2  0  0  0
  6  7  1  0  0  0
  7  8  2  0  0  0
  8  9  1  0  0  0
  9 10  2  0  0  0
  7 11  1  0  0  0
 11 12  1  0  0  0
 12 13  2  0  0  0
 13 14  1  0  0  0
 14 15  1  0  0  0
 14 16  1  0  0  0
 22 23  1  0  0  0
 23 24  2  0  0  0
 23 25  1  0  0  0
 25 26  1  0  0  0
 25 27  1  0  0  0
 20 17  1  0  0  0
 10  1  1  0  0  0
 16 11  2  0  0  0
  9  4  1  0  0  0
M  END
> <minimizedAffinity>
-8.17384

> <CNNscore>
0.4289579988

> <CNNaffinity>
6.4133977890

> <CNN_VS>
2.7510783672

> <CNNaffinity_variance>
0.3731179535

$$$$
[H]c1nc2c([H])c([H])c(N3C([H])([H])C([H])(N(C(=O)N(C([H])([H])[H])C([H])([H])[H])C([H])([H])[H])C3([H])[H])nc2c([H])c1-c1c([H])nn(C([H])([H])[H])c1[H]


 27 30  0  0  0  0  0  0  0  0999 V2000
   -2.6829   22.4468  -23.2734 C   0  0  0  0  0  0  0  0  0  0  0  0
   -1.4214   21.9157  -23.5672 C   0  0  0  0  0  0  0  0  0  0  0  0
   -0.9755   21.8372  -24.8643 C   0  0  0  0  0  0  0  0  0  0  0  0
   -1.8201   22.3019  -25.8575 C   0  0  0  0  0  0  0  0  0  0  0  0
   -1.3940   22.2304  -27.1306 N   0  0  0  0  0  0  0  0  0  0  0  0
   -2.1995   22.6766  -28.1071 C   0  0  0  0  0  0  0  0  0  0  0  0
   -3.4493   23.2079  -27.8702 C   0  0  0  0  0  0  0  0  0  0  0  0
   -3.9082   23.2919  -26.5754 C   0  0  0  0  0  0  0  0  0  0  0  0
   -3.0642   22.8250  -25.5599 C   0  0  0  0  0  0  0  0  0  0  0  0
   -3.4653   22.8849  -24.2768 N   0  0  0  0  0  0  0  0  0  0  0  0
   -4.2854   23.6815  -28.9947 C   0  0  0  0  0  0  0  0  0  0  0  0
   -5.2274   22.9704  -29.7086 C   0  0  0  0  0  0  0  0  0  0  0  0
   -5.7414   23.8083  -30.6425 N   0  0  0  0  0  0  0  0  0  0  0  0
   -5.1803   24.9974  -30.5575 N   0  0  0  0  0  0  0  0  0  0  0  0
   -5.4144   26.1901  -31.3431 C   0  0  0  0  0  0  0  0  0  0  0  0
   -4.2843   24.9438  -29.5543 C   0  0  0  0  0  0  0  0  0  0  0  0
   -3.6549   22.7009  -19.8766 C   0  0  0  0  0  0  0  0  0  0  0  0
   -2.7364   21.8473  -20.6834 C   0  0  0  0  0  0  0  0  0  0  0  0
   -3.1059   22.5104  -21.9191 N   0  0  0  0  0  0  0  0  0  0  0  0
   -4.0892   23.2628  -21.1819 C   0  0  0  0  0  0  0  0  0  0  0  0
   -4.9922   20.6725  -19.5343 C   0  0  0  0  0  0  0  0  0  0  0  0
   -4.6821   22.0058  -19.0916 N   0  0  0  0  0  0  0  0  0  0  0  0
   -5.2954   22.6287  -18.0014 C   0  0  0  0  0  0  0  0  0  0  0  0
   -4.8998   23.8535  -17.7086 O   0  0  0  0  0  0  0  0  0  0  0  0
   -6.2818   22.1353  -17.1637 N   0  0  0  0  0  0  0  0  0  0  0  0
   -6.8973   20.8496  -17.2389 C   0  0  0  0  0  0  0  0  0  0  0  0
   -6.7510   23.0455  -16.0692 C   0  0  0  0  0  0  0  0  0  0  0  0
 21 22  1  0  0  0
 22 17  1  0  0  0
 17 18  1  0  0  0
 18 19  1  0  0  0
 19 20  1  0  0  0
 19  1  1  0  0  0
  1  2  2  0  0  0
  2  3  1  0  0  0
  3  4  2  0  0  0
  4  5  1  0  0  0
  5  6  2  0  0  0
  6  7  1  0  0  0
  7  8  2  0  0  0
  8  9  1  0  0  0
  9 10  2  0  0  0
  7 11  1  0  0  0
 11 12  1  0  0  0
 12 13  2  0  0  0
 13 14  1  0  0  0
 14 15  1  0  0  0
 14 16  1  0  0  0
 22 23  1  0  0  0
 23 24  2  0  0  0
 23 25  1  0  0  0
 25 26  1  0  0  0
 25 27  1  0  0  0
 20 17  1  0  0  0
 10  1  1  0  0  0
 16 11  2  0  0  0
  9  4  1  0  0  0
M  END
> <minimizedAffinity>
-7.92749

> <CNNscore>
0.4136151969

> <CNNaffinity>
6.4050507545

> <CNN_VS>
2.6492264271

> <CNNaffinity_variance>
0.3721683323

$$$$
[H]c1nc2c([H])c([H])c(N3C([H])([H])C([H])(N(C(=O)N(C([H])([H])[H])C([H])([H])[H])C([H])([H])[H])C3([H])[H])nc2c([H])c1-c1c([H])nn(C([H])([H])[H])c1[H]


 27 30  0  0  0  0  0  0  0  0999 V2000
   -3.9563   23.4823  -24.7257 C   0  0  0  0  0  0  0  0  0  0  0  0
   -3.7212   23.5197  -26.1053 C   0  0  0  0  0  0  0  0  0  0  0  0
   -2.5211   23.1003  -26.6263 C   0  0  0  0  0  0  0  0  0  0  0  0
   -1.5647   22.6438  -25.7360 C   0  0  0  0  0  0  0  0  0  0  0  0
   -0.3867   22.2304  -26.2348 N   0  0  0  0  0  0  0  0  0  0  0  0
    0.5527   21.7842  -25.3863 C   0  0  0  0  0  0  0  0  0  0  0  0
    0.3706   21.7274  -24.0211 C   0  0  0  0  0  0  0  0  0  0  0  0
   -0.8268   22.1449  -23.4861 C   0  0  0  0  0  0  0  0  0  0  0  0
   -1.8039   22.6098  -24.3753 C   0  0  0  0  0  0  0  0  0  0  0  0
   -2.9922   23.0293  -23.9033 N   0  0  0  0  0  0  0  0  0  0  0  0
    1.4494   21.2237  -23.1435 C   0  0  0  0  0  0  0  0  0  0  0  0
    2.7786   21.0325  -23.4587 C   0  0  0  0  0  0  0  0  0  0  0  0
    3.3917   20.5577  -22.3465 N   0  0  0  0  0  0  0  0  0  0  0  0
    2.5302   20.4401  -21.3567 N   0  0  0  0  0  0  0  0  0  0  0  0
    2.7352   19.9787  -20.0003 C   0  0  0  0  0  0  0  0  0  0  0  0
    1.3326   20.8425  -21.8216 C   0  0  0  0  0  0  0  0  0  0  0  0
   -7.0969   24.6603  -23.5871 C   0  0  0  0  0  0  0  0  0  0  0  0
   -5.6613   24.9699  -23.3291 C   0  0  0  0  0  0  0  0  0  0  0  0
   -5.2107   23.9247  -24.2278 N   0  0  0  0  0  0  0  0  0  0  0  0
   -6.5847   23.5258  -24.3988 C   0  0  0  0  0  0  0  0  0  0  0  0
   -7.6782   22.9993  -21.8774 C   0  0  0  0  0  0  0  0  0  0  0  0
   -7.9160   24.3101  -22.4205 N   0  0  0  0  0  0  0  0  0  0  0  0
   -8.8525   25.2103  -21.9054 C   0  0  0  0  0  0  0  0  0  0  0  0
   -8.9525   26.3819  -22.5051 O   0  0  0  0  0  0  0  0  0  0  0  0
   -9.7113   25.0473  -20.8311 N   0  0  0  0  0  0  0  0  0  0  0  0
   -9.8240   23.8927  -19.9995 C   0  0  0  0  0  0  0  0  0  0  0  0
  -10.6147   26.2000  -20.5122 C   0  0  0  0  0  0  0  0  0  0  0  0
 21 22  1  0  0  0
 22 17  1  0  0  0
 17 18  1  0  0  0
 18 19  1  0  0  0
 19 20  1  0  0  0
 19  1  1  0  0  0
  1  2  2  0  0  0
  2  3  1  0  0  0
  3  4  2  0  0  0
  4  5  1  0  0  0
  5  6  2  0  0  0
  6  7  1  0  0  0
  7  8  2  0  0  0
  8  9  1  0  0  0
  9 10  2  0  0  0
  7 11  1  0  0  0
 11 12  1  0  0  0
 12 13  2  0  0  0
 13 14  1  0  0  0
 14 15  1  0  0  0
 14 16  1  0  0  0
 22 23  1  0  0  0
 23 24  2  0  0  0
 23 25  1  0  0  0
 25 26  1  0  0  0
 25 27  1  0  0  0
 20 17  1  0  0  0
 10  1  1  0  0  0
 16 11  2  0  0  0
  9  4  1  0  0  0
M  END
> <minimizedAffinity>
-7.83742

> <CNNscore>
0.3280135691

> <CNNaffinity>
6.0567011833

> <CNN_VS>
1.9866801500

> <CNNaffinity_variance>
0.1475672424

$$$$
[H]c1nc2c([H])c([H])c(N3C([H])([H])C([H])(N(C(=O)N(C([H])([H])[H])C([H])([H])[H])C([H])([H])[H])C3([H])[H])nc2c([H])c1-c1c([H])nn(C([H])([H])[H])c1[H]


 27 30  0  0  0  0  0  0  0  0999 V2000
    0.2855   21.7741  -24.5120 C   0  0  0  0  0  0  0  0  0  0  0  0
    0.8245   21.8109  -25.8036 C   0  0  0  0  0  0  0  0  0  0  0  0
    0.0611   22.2105  -26.8737 C   0  0  0  0  0  0  0  0  0  0  0  0
   -1.2509   22.5715  -26.6208 C   0  0  0  0  0  0  0  0  0  0  0  0
   -2.0072   22.9647  -27.6605 N   0  0  0  0  0  0  0  0  0  0  0  0
   -3.2819   23.3188  -27.4341 C   0  0  0  0  0  0  0  0  0  0  0  0
   -3.8592   23.3001  -26.1825 C   0  0  0  0  0  0  0  0  0  0  0  0
   -3.1056   22.9014  -25.1020 C   0  0  0  0  0  0  0  0  0  0  0  0
   -1.7761   22.5327  -25.3431 C   0  0  0  0  0  0  0  0  0  0  0  0
   -0.9965   22.1355  -24.3207 N   0  0  0  0  0  0  0  0  0  0  0  0
   -5.2710   23.7038  -26.0046 C   0  0  0  0  0  0  0  0  0  0  0  0
   -6.2743   23.7177  -26.9511 C   0  0  0  0  0  0  0  0  0  0  0  0
   -7.3999   24.1595  -26.3378 N   0  0  0  0  0  0  0  0  0  0  0  0
   -7.1636   24.4225  -25.0686 N   0  0  0  0  0  0  0  0  0  0  0  0
   -8.0590   24.9110  -24.0418 C   0  0  0  0  0  0  0  0  0  0  0  0
   -5.8650   24.1507  -24.8410 C   0  0  0  0  0  0  0  0  0  0  0  0
    2.3487   20.8518  -21.7844 C   0  0  0  0  0  0  0  0  0  0  0  0
    2.5243   21.1042  -23.2435 C   0  0  0  0  0  0  0  0  0  0  0  0
    1.1087   21.3553  -23.4331 N   0  0  0  0  0  0  0  0  0  0  0  0
    0.8945   20.9962  -22.0541 C   0  0  0  0  0  0  0  0  0  0  0  0
    3.2867   18.6409  -22.2863 C   0  0  0  0  0  0  0  0  0  0  0  0
    2.7925   19.5457  -21.2829 N   0  0  0  0  0  0  0  0  0  0  0  0
    2.7207   19.2379  -19.9217 C   0  0  0  0  0  0  0  0  0  0  0  0
    2.2521   20.1743  -19.1180 O   0  0  0  0  0  0  0  0  0  0  0  0
    3.0786   18.0647  -19.2784 N   0  0  0  0  0  0  0  0  0  0  0  0
    3.6118   16.8890  -19.8874 C   0  0  0  0  0  0  0  0  0  0  0  0
    2.8835   18.0265  -17.7929 C   0  0  0  0  0  0  0  0  0  0  0  0
 21 22  1  0  0  0
 22 17  1  0  0  0
 17 18  1  0  0  0
 18 19  1  0  0  0
 19 20  1  0  0  0
 19  1  1  0  0  0
  1  2  2  0  0  0
  2  3  1  0  0  0
  3  4  2  0  0  0
  4  5  1  0  0  0
  5  6  2  0  0  0
  6  7  1  0  0  0
  7  8  2  0  0  0
  8  9  1  0  0  0
  9 10  2  0  0  0
  7 11  1  0  0  0
 11 12  1  0  0  0
 12 13  2  0  0  0
 13 14  1  0  0  0
 14 15  1  0  0  0
 14 16  1  0  0  0
 22 23  1  0  0  0
 23 24  2  0  0  0
 23 25  1  0  0  0
 25 26  1  0  0  0
 25 27  1  0  0  0
 20 17  1  0  0  0
 10  1  1  0  0  0
 16 11  2  0  0  0
  9  4  1  0  0  0
M  END
> <minimizedAffinity>
-7.73467

> <CNNscore>
0.3115430474

> <CNNaffinity>
6.0169591904

> <CNN_VS>
1.8745417595

> <CNNaffinity_variance>
0.0289309416

$$$$
[H]c1nc(N([H])[H])c2c(-c3sc4c(OC([H])([H])[H])c([H])c(C([H])([H])[H])c([H])c4c3[H])c(-c3c([H])c([H])c([H])c(OC(F)(F)F)c3[H])c([H])n2n1


 35 39  0  0  0  0  0  0  0  0999 V2000
   -2.1373   22.7705  -25.2581 C   0  0  0  0  0  0  0  0  0  0  0  0
   -3.4358   23.0648  -25.5835 C   0  0  0  0  0  0  0  0  0  0  0  0
   -3.3943   23.2933  -26.9492 C   0  0  0  0  0  0  0  0  0  0  0  0
   -2.1383   23.1449  -27.4224 N   0  0  0  0  0  0  0  0  0  0  0  0
   -1.5996   23.2570  -28.6378 N   0  0  0  0  0  0  0  0  0  0  0  0
   -0.2952   23.0613  -28.8845 C   0  0  0  0  0  0  0  0  0  0  0  0
    0.4986   22.7374  -27.8513 N   0  0  0  0  0  0  0  0  0  0  0  0
   -0.0250   22.6165  -26.6004 C   0  0  0  0  0  0  0  0  0  0  0  0
    0.8012   22.2765  -25.4902 N   0  0  0  0  0  0  0  0  0  0  0  0
   -1.3686   22.8220  -26.3706 C   0  0  0  0  0  0  0  0  0  0  0  0
    1.2409   21.3257  -25.4586 H   0  0  0  0  0  0  0  0  0  0  0  0
    0.9990   22.9211  -24.6970 H   0  0  0  0  0  0  0  0  0  0  0  0
   -0.6329   22.4351  -20.0348 C   0  0  0  0  0  0  0  0  0  0  0  0
   -0.2385   21.3104  -19.3438 C   0  0  0  0  0  0  0  0  0  0  0  0
   -0.2296   20.1326  -20.0794 C   0  0  0  0  0  0  0  0  0  0  0  0
    0.1945   18.8970  -19.3530 C   0  0  0  0  0  0  0  0  0  0  0  0
   -0.5764   20.0514  -21.3846 C   0  0  0  0  0  0  0  0  0  0  0  0
   -0.9808   21.2010  -22.0959 C   0  0  0  0  0  0  0  0  0  0  0  0
   -1.3472   21.2493  -23.3866 C   0  0  0  0  0  0  0  0  0  0  0  0
   -1.7092   22.4634  -23.9011 C   0  0  0  0  0  0  0  0  0  0  0  0
   -1.5222   23.5080  -22.5452 S   0  0  0  0  0  0  0  0  0  0  0  0
   -0.9949   22.3581  -21.3921 C   0  0  0  0  0  0  0  0  0  0  0  0
    0.3236   24.2899  -18.7354 C   0  0  0  0  0  0  0  0  0  0  0  0
   -0.6976   23.6764  -19.4611 O   0  0  0  0  0  0  0  0  0  0  0  0
   -4.6153   23.1382  -24.7769 C   0  0  0  0  0  0  0  0  0  0  0  0
   -5.6518   23.9955  -25.0862 C   0  0  0  0  0  0  0  0  0  0  0  0
   -6.7760   24.0525  -24.3006 C   0  0  0  0  0  0  0  0  0  0  0  0
   -6.9303   23.2640  -23.1698 C   0  0  0  0  0  0  0  0  0  0  0  0
   -5.9018   22.3992  -22.8454 C   0  0  0  0  0  0  0  0  0  0  0  0
   -4.7587   22.3379  -23.6399 C   0  0  0  0  0  0  0  0  0  0  0  0
   -6.0663   21.6241  -21.7244 O   0  0  0  0  0  0  0  0  0  0  0  0
   -7.1787   21.5924  -20.8884 C   0  0  0  0  0  0  0  0  0  0  0  0
   -8.3701   21.3616  -21.5620 F   0  0  0  0  0  0  0  0  0  0  0  0
   -7.2428   22.7915  -20.1929 F   0  0  0  0  0  0  0  0  0  0  0  0
   -6.9557   20.5950  -19.9374 F   0  0  0  0  0  0  0  0  0  0  0  0
 23 24  1  0  0  0
 24 13  1  0  0  0
 13 14  2  0  0  0
 14 15  1  0  0  0
 15 16  1  0  0  0
 15 17  2  0  0  0
 17 18  1  0  0  0
 18 19  1  0  0  0
 19 20  2  0  0  0
 20 21  1  0  0  0
 21 22  1  0  0  0
 20  1  1  0  0  0
  1  2  1  0  0  0
  2  3  2  0  0  0
  3  4  1  0  0  0
  4  5  1  0  0  0
  5  6  2  0  0  0
  6  7  1  0  0  0
  7  8  2  0  0  0
  8  9  1  0  0  0
  8 10  1  0  0  0
  2 25  1  0  0  0
 25 26  2  0  0  0
 26 27  1  0  0  0
 27 28  2  0  0  0
 28 29  1  0  0  0
 29 31  1  0  0  0
 31 32  1  0  0  0
 32 33  1  0  0  0
 32 34  1  0  0  0
 32 35  1  0  0  0
 29 30  2  0  0  0
 22 13  1  0  0  0
 10  1  2  0  0  0
 30 25  1  0  0  0
 22 18  2  0  0  0
 10  4  1  0  0  0
  9 11  1  0  0  0
  9 12  1  0  0  0
M  END
> <minimizedAffinity>
-8.25285

> <CNNscore>
0.8187287450

> <CNNaffinity>
7.4193496704

> <CNN_VS>
6.0744347572

> <CNNaffinity_variance>
0.0981656015

$$$$
[H]c1nc(N([H])[H])c2c(-c3sc4c(OC([H])([H])[H])c([H])c(C([H])([H])[H])c([H])c4c3[H])c(-c3c([H])c([H])c([H])c(OC(F)(F)F)c3[H])c([H])n2n1


 35 39  0  0  0  0  0  0  0  0999 V2000
   -2.0796   22.6546  -25.3197 C   0  0  0  0  0  0  0  0  0  0  0  0
   -3.4281   22.7723  -25.5346 C   0  0  0  0  0  0  0  0  0  0  0  0
   -3.5271   23.0589  -26.8863 C   0  0  0  0  0  0  0  0  0  0  0  0
   -2.3041   23.1112  -27.4564 N   0  0  0  0  0  0  0  0  0  0  0  0
   -1.8842   23.3479  -28.7004 N   0  0  0  0  0  0  0  0  0  0  0  0
   -0.5887   23.3514  -29.0507 C   0  0  0  0  0  0  0  0  0  0  0  0
    0.3217   23.1037  -28.0956 N   0  0  0  0  0  0  0  0  0  0  0  0
   -0.0794   22.8590  -26.8177 C   0  0  0  0  0  0  0  0  0  0  0  0
    0.8715   22.5970  -25.7891 N   0  0  0  0  0  0  0  0  0  0  0  0
   -1.4161   22.8603  -26.4809 C   0  0  0  0  0  0  0  0  0  0  0  0
    1.4411   21.7186  -25.8378 H   0  0  0  0  0  0  0  0  0  0  0  0
    1.0391   23.2310  -24.9806 H   0  0  0  0  0  0  0  0  0  0  0  0
    0.4330   20.9030  -20.8167 C   0  0  0  0  0  0  0  0  0  0  0  0
    0.3643   21.4431  -19.5512 C   0  0  0  0  0  0  0  0  0  0  0  0
   -0.4440   22.5654  -19.4261 C   0  0  0  0  0  0  0  0  0  0  0  0
   -0.5361   23.1712  -18.0627 C   0  0  0  0  0  0  0  0  0  0  0  0
   -1.1327   23.1213  -20.4494 C   0  0  0  0  0  0  0  0  0  0  0  0
   -1.0650   22.5712  -21.7470 C   0  0  0  0  0  0  0  0  0  0  0  0
   -1.6981   23.0292  -22.8388 C   0  0  0  0  0  0  0  0  0  0  0  0
   -1.5069   22.3581  -24.0147 C   0  0  0  0  0  0  0  0  0  0  0  0
   -0.4350   21.0943  -23.5469 S   0  0  0  0  0  0  0  0  0  0  0  0
   -0.2804   21.4759  -21.8854 C   0  0  0  0  0  0  0  0  0  0  0  0
    0.8374   18.4782  -20.8182 C   0  0  0  0  0  0  0  0  0  0  0  0
    1.1829   19.7969  -21.1139 O   0  0  0  0  0  0  0  0  0  0  0  0
   -4.5389   22.6434  -24.6419 C   0  0  0  0  0  0  0  0  0  0  0  0
   -5.2582   21.4694  -24.5458 C   0  0  0  0  0  0  0  0  0  0  0  0
   -6.3212   21.3641  -23.6838 C   0  0  0  0  0  0  0  0  0  0  0  0
   -6.7253   22.4155  -22.8741 C   0  0  0  0  0  0  0  0  0  0  0  0
   -6.0158   23.5989  -22.9573 C   0  0  0  0  0  0  0  0  0  0  0  0
   -4.9359   23.7105  -23.8310 C   0  0  0  0  0  0  0  0  0  0  0  0
   -6.4250   24.6318  -22.1510 O   0  0  0  0  0  0  0  0  0  0  0  0
   -6.3618   24.6804  -20.7614 C   0  0  0  0  0  0  0  0  0  0  0  0
   -7.4988   24.1846  -20.1386 F   0  0  0  0  0  0  0  0  0  0  0  0
   -6.1347   25.9938  -20.3753 F   0  0  0  0  0  0  0  0  0  0  0  0
   -5.2361   23.9531  -20.3708 F   0  0  0  0  0  0  0  0  0  0  0  0
 23 24  1  0  0  0
 24 13  1  0  0  0
 13 14  2  0  0  0
 14 15  1  0  0  0
 15 16  1  0  0  0
 15 17  2  0  0  0
 17 18  1  0  0  0
 18 19  1  0  0  0
 19 20  2  0  0  0
 20 21  1  0  0  0
 21 22  1  0  0  0
 20  1  1  0  0  0
  1  2  1  0  0  0
  2  3  2  0  0  0
  3  4  1  0  0  0
  4  5  1  0  0  0
  5  6  2  0  0  0
  6  7  1  0  0  0
  7  8  2  0  0  0
  8  9  1  0  0  0
  8 10  1  0  0  0
  2 25  1  0  0  0
 25 26  2  0  0  0
 26 27  1  0  0  0
 27 28  2  0  0  0
 28 29  1  0  0  0
 29 31  1  0  0  0
 31 32  1  0  0  0
 32 33  1  0  0  0
 32 34  1  0  0  0
 32 35  1  0  0  0
 29 30  2  0  0  0
 22 13  1  0  0  0
 10  1  2  0  0  0
 30 25  1  0  0  0
 22 18  2  0  0  0
 10  4  1  0  0  0
  9 11  1  0  0  0
  9 12  1  0  0  0
M  END
> <minimizedAffinity>
-7.97902

> <CNNscore>
0.8066605330

> <CNNaffinity>
7.3508081436

> <CNN_VS>
5.9296069145

> <CNNaffinity_variance>
0.0947670266

$$$$
[H]c1nc(N([H])[H])c2c(-c3sc4c(OC([H])([H])[H])c([H])c(C([H])([H])[H])c([H])c4c3[H])c(-c3c([H])c([H])c([H])c(OC(F)(F)F)c3[H])c([H])n2n1


 35 39  0  0  0  0  0  0  0  0999 V2000
   -2.0330   22.5522  -25.2224 C   0  0  0  0  0  0  0  0  0  0  0  0
   -3.3614   22.6455  -25.5466 C   0  0  0  0  0  0  0  0  0  0  0  0
   -3.3559   22.8963  -26.9090 C   0  0  0  0  0  0  0  0  0  0  0  0
   -2.0921   22.9514  -27.3816 N   0  0  0  0  0  0  0  0  0  0  0  0
   -1.5774   23.1624  -28.5941 N   0  0  0  0  0  0  0  0  0  0  0  0
   -0.2583   23.1751  -28.8406 C   0  0  0  0  0  0  0  0  0  0  0  0
    0.5761   22.9646  -27.8102 N   0  0  0  0  0  0  0  0  0  0  0  0
    0.0776   22.7467  -26.5621 C   0  0  0  0  0  0  0  0  0  0  0  0
    0.9466   22.5242  -25.4548 N   0  0  0  0  0  0  0  0  0  0  0  0
   -1.2816   22.7377  -26.3325 C   0  0  0  0  0  0  0  0  0  0  0  0
    1.5288   21.6529  -25.4350 H   0  0  0  0  0  0  0  0  0  0  0  0
    1.0417   23.1808  -24.6526 H   0  0  0  0  0  0  0  0  0  0  0  0
   -0.4267   22.4034  -20.0209 C   0  0  0  0  0  0  0  0  0  0  0  0
    0.0598   21.3207  -19.3216 C   0  0  0  0  0  0  0  0  0  0  0  0
    0.1435   20.1361  -20.0415 C   0  0  0  0  0  0  0  0  0  0  0  0
    0.6685   18.9455  -19.3059 C   0  0  0  0  0  0  0  0  0  0  0  0
   -0.2167   20.0109  -21.3396 C   0  0  0  0  0  0  0  0  0  0  0  0
   -0.7154   21.1174  -22.0593 C   0  0  0  0  0  0  0  0  0  0  0  0
   -1.1044   21.1201  -23.3443 C   0  0  0  0  0  0  0  0  0  0  0  0
   -1.5624   22.2969  -23.8688 C   0  0  0  0  0  0  0  0  0  0  0  0
   -1.4314   23.3720  -22.5302 S   0  0  0  0  0  0  0  0  0  0  0  0
   -0.8032   22.2805  -21.3708 C   0  0  0  0  0  0  0  0  0  0  0  0
    0.3762   24.2999  -18.6785 C   0  0  0  0  0  0  0  0  0  0  0  0
   -0.5733   23.6448  -19.4627 O   0  0  0  0  0  0  0  0  0  0  0  0
   -4.5381   22.5237  -24.7417 C   0  0  0  0  0  0  0  0  0  0  0  0
   -5.0732   21.2920  -24.4231 C   0  0  0  0  0  0  0  0  0  0  0  0
   -6.2030   21.1944  -23.6497 C   0  0  0  0  0  0  0  0  0  0  0  0
   -6.8595   22.3110  -23.1532 C   0  0  0  0  0  0  0  0  0  0  0  0
   -6.3370   23.5528  -23.4623 C   0  0  0  0  0  0  0  0  0  0  0  0
   -5.1902   23.6568  -24.2471 C   0  0  0  0  0  0  0  0  0  0  0  0
   -6.9953   24.6500  -22.9650 O   0  0  0  0  0  0  0  0  0  0  0  0
   -7.7878   25.5424  -23.6811 C   0  0  0  0  0  0  0  0  0  0  0  0
   -7.0637   26.5551  -24.2949 F   0  0  0  0  0  0  0  0  0  0  0  0
   -8.7350   26.0802  -22.8212 F   0  0  0  0  0  0  0  0  0  0  0  0
   -8.4922   24.8020  -24.6322 F   0  0  0  0  0  0  0  0  0  0  0  0
 23 24  1  0  0  0
 24 13  1  0  0  0
 13 14  2  0  0  0
 14 15  1  0  0  0
 15 16  1  0  0  0
 15 17  2  0  0  0
 17 18  1  0  0  0
 18 19  1  0  0  0
 19 20  2  0  0  0
 20 21  1  0  0  0
 21 22  1  0  0  0
 20  1  1  0  0  0
  1  2  1  0  0  0
  2  3  2  0  0  0
  3  4  1  0  0  0
  4  5  1  0  0  0
  5  6  2  0  0  0
  6  7  1  0  0  0
  7  8  2  0  0  0
  8  9  1  0  0  0
  8 10  1  0  0  0
  2 25  1  0  0  0
 25 26  2  0  0  0
 26 27  1  0  0  0
 27 28  2  0  0  0
 28 29  1  0  0  0
 29 31  1  0  0  0
 31 32  1  0  0  0
 32 33  1  0  0  0
 32 34  1  0  0  0
 32 35  1  0  0  0
 29 30  2  0  0  0
 22 13  1  0  0  0
 10  1  2  0  0  0
 30 25  1  0  0  0
 22 18  2  0  0  0
 10  4  1  0  0  0
  9 11  1  0  0  0
  9 12  1  0  0  0
M  END
> <minimizedAffinity>
-8.75381

> <CNNscore>
0.7980667353

> <CNNaffinity>
7.3602356911

> <CNN_VS>
5.8739590645

> <CNNaffinity_variance>
0.1273901463

$$$$
[H]c1nc(N([H])[H])c2c(-c3sc4c(OC([H])([H])[H])c([H])c(C([H])([H])[H])c([H])c4c3[H])c(-c3c([H])c([H])c([H])c(OC(F)(F)F)c3[H])c([H])n2n1


 35 39  0  0  0  0  0  0  0  0999 V2000
   -1.5130   22.1888  -23.2244 C   0  0  0  0  0  0  0  0  0  0  0  0
   -2.8359   22.5471  -23.2151 C   0  0  0  0  0  0  0  0  0  0  0  0
   -3.1054   22.8642  -24.5364 C   0  0  0  0  0  0  0  0  0  0  0  0
   -2.0044   22.7057  -25.3019 N   0  0  0  0  0  0  0  0  0  0  0  0
   -1.7615   22.8800  -26.6021 N   0  0  0  0  0  0  0  0  0  0  0  0
   -0.5624   22.6577  -27.1621 C   0  0  0  0  0  0  0  0  0  0  0  0
    0.4353   22.2398  -26.3669 N   0  0  0  0  0  0  0  0  0  0  0  0
    0.2149   22.0537  -25.0363 C   0  0  0  0  0  0  0  0  0  0  0  0
    1.2615   21.6136  -24.1751 N   0  0  0  0  0  0  0  0  0  0  0  0
   -1.0256   22.2882  -24.4829 C   0  0  0  0  0  0  0  0  0  0  0  0
    1.6502   20.6486  -24.3026 H   0  0  0  0  0  0  0  0  0  0  0  0
    1.6708   22.1972  -23.4164 H   0  0  0  0  0  0  0  0  0  0  0  0
    1.1446   19.8853  -19.0664 C   0  0  0  0  0  0  0  0  0  0  0  0
    1.6310   20.5016  -17.9344 C   0  0  0  0  0  0  0  0  0  0  0  0
    1.4100   21.8706  -17.8605 C   0  0  0  0  0  0  0  0  0  0  0  0
    1.9279   22.5640  -16.6418 C   0  0  0  0  0  0  0  0  0  0  0  0
    0.7670   22.5870  -18.8112 C   0  0  0  0  0  0  0  0  0  0  0  0
    0.2673   21.9595  -19.9720 C   0  0  0  0  0  0  0  0  0  0  0  0
   -0.3845   22.5583  -20.9815 C   0  0  0  0  0  0  0  0  0  0  0  0
   -0.7934   21.7783  -22.0275 C   0  0  0  0  0  0  0  0  0  0  0  0
   -0.2454   20.2153  -21.5570 S   0  0  0  0  0  0  0  0  0  0  0  0
    0.4750   20.6240  -20.0590 C   0  0  0  0  0  0  0  0  0  0  0  0
    2.3943   17.9197  -19.8528 C   0  0  0  0  0  0  0  0  0  0  0  0
    1.2764   18.5424  -19.2974 O   0  0  0  0  0  0  0  0  0  0  0  0
   -3.7881   22.6062  -22.1487 C   0  0  0  0  0  0  0  0  0  0  0  0
   -4.0911   21.4964  -21.3862 C   0  0  0  0  0  0  0  0  0  0  0  0
   -5.0076   21.5717  -20.3671 C   0  0  0  0  0  0  0  0  0  0  0  0
   -5.6698   22.7492  -20.0520 C   0  0  0  0  0  0  0  0  0  0  0  0
   -5.3781   23.8708  -20.8054 C   0  0  0  0  0  0  0  0  0  0  0  0
   -4.4485   23.7991  -21.8409 C   0  0  0  0  0  0  0  0  0  0  0  0
   -6.0395   25.0299  -20.4838 O   0  0  0  0  0  0  0  0  0  0  0  0
   -7.2353   25.4868  -21.0304 C   0  0  0  0  0  0  0  0  0  0  0  0
   -7.8964   26.4040  -20.2252 F   0  0  0  0  0  0  0  0  0  0  0  0
   -8.0508   24.3933  -21.2851 F   0  0  0  0  0  0  0  0  0  0  0  0
   -6.9357   26.0541  -22.2702 F   0  0  0  0  0  0  0  0  0  0  0  0
 23 24  1  0  0  0
 24 13  1  0  0  0
 13 14  2  0  0  0
 14 15  1  0  0  0
 15 16  1  0  0  0
 15 17  2  0  0  0
 17 18  1  0  0  0
 18 19  1  0  0  0
 19 20  2  0  0  0
 20 21  1  0  0  0
 21 22  1  0  0  0
 20  1  1  0  0  0
  1  2  1  0  0  0
  2  3  2  0  0  0
  3  4  1  0  0  0
  4  5  1  0  0  0
  5  6  2  0  0  0
  6  7  1  0  0  0
  7  8  2  0  0  0
  8  9  1  0  0  0
  8 10  1  0  0  0
  2 25  1  0  0  0
 25 26  2  0  0  0
 26 27  1  0  0  0
 27 28  2  0  0  0
 28 29  1  0  0  0
 29 31  1  0  0  0
 31 32  1  0  0  0
 32 33  1  0  0  0
 32 34  1  0  0  0
 32 35  1  0  0  0
 29 30  2  0  0  0
 22 13  1  0  0  0
 10  1  2  0  0  0
 30 25  1  0  0  0
 22 18  2  0  0  0
 10  4  1  0  0  0
  9 11  1  0  0  0
  9 12  1  0  0  0
M  END
> <minimizedAffinity>
-6.96153

> <CNNscore>
0.4579146802

> <CNNaffinity>
6.8646421432

> <CNN_VS>
3.1434204578

> <CNNaffinity_variance>
0.2648843825

$$$$
[H]c1nc(N([H])[H])c2c(-c3sc4c(OC([H])([H])[H])c([H])c(C([H])([H])[H])c([H])c4c3[H])c(-c3c([H])c([H])c([H])c(OC(F)(F)F)c3[H])c([H])n2n1


 35 39  0  0  0  0  0  0  0  0999 V2000
   -1.9077   22.5315  -24.4368 C   0  0  0  0  0  0  0  0  0  0  0  0
   -0.8433   22.1783  -23.6490 C   0  0  0  0  0  0  0  0  0  0  0  0
    0.2149   22.0877  -24.5383 C   0  0  0  0  0  0  0  0  0  0  0  0
   -0.1892   22.3710  -25.7953 N   0  0  0  0  0  0  0  0  0  0  0  0
    0.4411   22.4169  -26.9702 N   0  0  0  0  0  0  0  0  0  0  0  0
   -0.1730   22.7285  -28.1220 C   0  0  0  0  0  0  0  0  0  0  0  0
   -1.4859   23.0059  -28.0797 N   0  0  0  0  0  0  0  0  0  0  0  0
   -2.1537   22.9664  -26.8939 C   0  0  0  0  0  0  0  0  0  0  0  0
   -3.5478   23.2546  -26.8285 N   0  0  0  0  0  0  0  0  0  0  0  0
   -1.5020   22.6439  -25.7229 C   0  0  0  0  0  0  0  0  0  0  0  0
   -3.8746   24.2267  -27.0441 H   0  0  0  0  0  0  0  0  0  0  0  0
   -4.2730   22.5514  -26.5767 H   0  0  0  0  0  0  0  0  0  0  0  0
   -6.8700   22.5102  -22.1933 C   0  0  0  0  0  0  0  0  0  0  0  0
   -7.7972   23.5291  -22.1929 C   0  0  0  0  0  0  0  0  0  0  0  0
   -7.4049   24.6910  -22.8446 C   0  0  0  0  0  0  0  0  0  0  0  0
   -8.3928   25.8126  -22.8589 C   0  0  0  0  0  0  0  0  0  0  0  0
   -6.2057   24.8525  -23.4500 C   0  0  0  0  0  0  0  0  0  0  0  0
   -5.2534   23.8113  -23.4526 C   0  0  0  0  0  0  0  0  0  0  0  0
   -4.0353   23.8494  -24.0158 C   0  0  0  0  0  0  0  0  0  0  0  0
   -3.2505   22.7345  -23.9125 C   0  0  0  0  0  0  0  0  0  0  0  0
   -4.2557   21.6584  -23.0202 S   0  0  0  0  0  0  0  0  0  0  0  0
   -5.6213   22.6711  -22.8208 C   0  0  0  0  0  0  0  0  0  0  0  0
   -7.1107   21.0604  -20.2225 C   0  0  0  0  0  0  0  0  0  0  0  0
   -7.0956   21.2987  -21.5969 O   0  0  0  0  0  0  0  0  0  0  0  0
   -0.7513   21.9424  -22.2407 C   0  0  0  0  0  0  0  0  0  0  0  0
   -1.0270   22.9337  -21.3209 C   0  0  0  0  0  0  0  0  0  0  0  0
   -0.9333   22.6892  -19.9735 C   0  0  0  0  0  0  0  0  0  0  0  0
   -0.5619   21.4514  -19.4693 C   0  0  0  0  0  0  0  0  0  0  0  0
   -0.2823   20.4467  -20.3766 C   0  0  0  0  0  0  0  0  0  0  0  0
   -0.3761   20.6902  -21.7454 C   0  0  0  0  0  0  0  0  0  0  0  0
    0.0839   19.2263  -19.8656 O   0  0  0  0  0  0  0  0  0  0  0  0
    1.3094   18.5872  -20.0299 C   0  0  0  0  0  0  0  0  0  0  0  0
    1.3810   17.8171  -21.1825 F   0  0  0  0  0  0  0  0  0  0  0  0
    1.5524   17.8034  -18.9108 F   0  0  0  0  0  0  0  0  0  0  0  0
    2.2953   19.5755  -20.0423 F   0  0  0  0  0  0  0  0  0  0  0  0
 23 24  1  0  0  0
 24 13  1  0  0  0
 13 14  2  0  0  0
 14 15  1  0  0  0
 15 16  1  0  0  0
 15 17  2  0  0  0
 17 18  1  0  0  0
 18 19  1  0  0  0
 19 20  2  0  0  0
 20 21  1  0  0  0
 21 22  1  0  0  0
 20  1  1  0  0  0
  1  2  1  0  0  0
  2  3  2  0  0  0
  3  4  1  0  0  0
  4  5  1  0  0  0
  5  6  2  0  0  0
  6  7  1  0  0  0
  7  8  2  0  0  0
  8  9  1  0  0  0
  8 10  1  0  0  0
  2 25  1  0  0  0
 25 26  2  0  0  0
 26 27  1  0  0  0
 27 28  2  0  0  0
 28 29  1  0  0  0
 29 31  1  0  0  0
 31 32  1  0  0  0
 32 33  1  0  0  0
 32 34  1  0  0  0
 32 35  1  0  0  0
 29 30  2  0  0  0
 22 13  1  0  0  0
 10  1  2  0  0  0
 30 25  1  0  0  0
 22 18  2  0  0  0
 10  4  1  0  0  0
  9 11  1  0  0  0
  9 12  1  0  0  0
M  END
> <minimizedAffinity>
-7.95909

> <CNNscore>
0.4215357900

> <CNNaffinity>
7.1920967102

> <CNN_VS>
3.0317261219

> <CNNaffinity_variance>
0.2170477360

$$$$
[H]c1nc(N([H])[H])c2c(-c3sc4c(OC([H])([H])[H])c([H])c(C([H])([H])[H])c([H])c4c3[H])c(-c3c([H])c([H])c([H])c(OC(F)(F)F)c3[H])c([H])n2n1


 35 39  0  0  0  0  0  0  0  0999 V2000
   -1.6819   22.4772  -24.4457 C   0  0  0  0  0  0  0  0  0  0  0  0
   -0.6515   22.0236  -23.6640 C   0  0  0  0  0  0  0  0  0  0  0  0
    0.4006   21.8732  -24.5525 C   0  0  0  0  0  0  0  0  0  0  0  0
    0.0254   22.2176  -25.8031 N   0  0  0  0  0  0  0  0  0  0  0  0
    0.6627   22.2433  -26.9748 N   0  0  0  0  0  0  0  0  0  0  0  0
    0.0798   22.6296  -28.1202 C   0  0  0  0  0  0  0  0  0  0  0  0
   -1.2079   23.0066  -28.0746 N   0  0  0  0  0  0  0  0  0  0  0  0
   -1.8822   22.9899  -26.8920 C   0  0  0  0  0  0  0  0  0  0  0  0
   -3.2502   23.3833  -26.8232 N   0  0  0  0  0  0  0  0  0  0  0  0
   -1.2627   22.5894  -25.7275 C   0  0  0  0  0  0  0  0  0  0  0  0
   -3.4999   24.3828  -27.0155 H   0  0  0  0  0  0  0  0  0  0  0  0
   -4.0287   22.7325  -26.5908 H   0  0  0  0  0  0  0  0  0  0  0  0
   -6.4910   24.3587  -22.7164 C   0  0  0  0  0  0  0  0  0  0  0  0
   -7.4992   23.6501  -22.1007 C   0  0  0  0  0  0  0  0  0  0  0  0
   -7.2438   22.2990  -21.9061 C   0  0  0  0  0  0  0  0  0  0  0  0
   -8.3220   21.5066  -21.2397 C   0  0  0  0  0  0  0  0  0  0  0  0
   -6.0990   21.6824  -22.2798 C   0  0  0  0  0  0  0  0  0  0  0  0
   -5.0640   22.4048  -22.9106 C   0  0  0  0  0  0  0  0  0  0  0  0
   -3.8876   21.9091  -23.3265 C   0  0  0  0  0  0  0  0  0  0  0  0
   -3.0073   22.7707  -23.9201 C   0  0  0  0  0  0  0  0  0  0  0  0
   -3.8659   24.2625  -23.8756 S   0  0  0  0  0  0  0  0  0  0  0  0
   -5.2980   23.7242  -23.1077 C   0  0  0  0  0  0  0  0  0  0  0  0
   -6.8454   26.2624  -24.2311 C   0  0  0  0  0  0  0  0  0  0  0  0
   -6.5791   25.6986  -22.9832 O   0  0  0  0  0  0  0  0  0  0  0  0
   -0.5845   21.7469  -22.2618 C   0  0  0  0  0  0  0  0  0  0  0  0
    0.1962   20.7243  -21.7620 C   0  0  0  0  0  0  0  0  0  0  0  0
    0.2480   20.4733  -20.4135 C   0  0  0  0  0  0  0  0  0  0  0  0
   -0.4701   21.2218  -19.4925 C   0  0  0  0  0  0  0  0  0  0  0  0
   -1.2571   22.2504  -19.9757 C   0  0  0  0  0  0  0  0  0  0  0  0
   -1.3129   22.5090  -21.3438 C   0  0  0  0  0  0  0  0  0  0  0  0
   -1.9627   22.9840  -19.0546 O   0  0  0  0  0  0  0  0  0  0  0  0
   -2.8593   22.4948  -18.1091 C   0  0  0  0  0  0  0  0  0  0  0  0
   -3.5727   21.3868  -18.5451 F   0  0  0  0  0  0  0  0  0  0  0  0
   -3.7273   23.5173  -17.7529 F   0  0  0  0  0  0  0  0  0  0  0  0
   -2.1257   22.1817  -16.9634 F   0  0  0  0  0  0  0  0  0  0  0  0
 23 24  1  0  0  0
 24 13  1  0  0  0
 13 14  2  0  0  0
 14 15  1  0  0  0
 15 16  1  0  0  0
 15 17  2  0  0  0
 17 18  1  0  0  0
 18 19  1  0  0  0
 19 20  2  0  0  0
 20 21  1  0  0  0
 21 22  1  0  0  0
 20  1  1  0  0  0
  1  2  1  0  0  0
  2  3  2  0  0  0
  3  4  1  0  0  0
  4  5  1  0  0  0
  5  6  2  0  0  0
  6  7  1  0  0  0
  7  8  2  0  0  0
  8  9  1  0  0  0
  8 10  1  0  0  0
  2 25  1  0  0  0
 25 26  2  0  0  0
 26 27  1  0  0  0
 27 28  2  0  0  0
 28 29  1  0  0  0
 29 31  1  0  0  0
 31 32  1  0  0  0
 32 33  1  0  0  0
 32 34  1  0  0  0
 32 35  1  0  0  0
 29 30  2  0  0  0
 22 13  1  0  0  0
 10  1  2  0  0  0
 30 25  1  0  0  0
 22 18  2  0  0  0
 10  4  1  0  0  0
  9 11  1  0  0  0
  9 12  1  0  0  0
M  END
> <minimizedAffinity>
-8.19977

> <CNNscore>
0.3509173393

> <CNNaffinity>
7.1187987328

> <CNN_VS>
2.4981098175

> <CNNaffinity_variance>
0.1714064181

$$$$
[H]c1nc(N([H])[H])c2c(-c3sc4c(OC([H])([H])[H])c([H])c(C([H])([H])[H])c([H])c4c3[H])c(-c3c([H])c([H])c([H])c(OC(F)(F)F)c3[H])c([H])n2n1


 35 39  0  0  0  0  0  0  0  0999 V2000
   -1.7358   22.5097  -24.5063 C   0  0  0  0  0  0  0  0  0  0  0  0
   -0.7111   22.0625  -23.7137 C   0  0  0  0  0  0  0  0  0  0  0  0
    0.3438   21.8933  -24.5955 C   0  0  0  0  0  0  0  0  0  0  0  0
   -0.0245   22.2209  -25.8526 N   0  0  0  0  0  0  0  0  0  0  0  0
    0.6176   22.2257  -27.0220 N   0  0  0  0  0  0  0  0  0  0  0  0
    0.0415   22.5979  -28.1754 C   0  0  0  0  0  0  0  0  0  0  0  0
   -1.2444   22.9823  -28.1408 N   0  0  0  0  0  0  0  0  0  0  0  0
   -1.9236   22.9868  -26.9607 C   0  0  0  0  0  0  0  0  0  0  0  0
   -3.2897   23.3884  -26.9034 N   0  0  0  0  0  0  0  0  0  0  0  0
   -1.3109   22.6005  -25.7879 C   0  0  0  0  0  0  0  0  0  0  0  0
   -3.5333   24.3863  -27.1117 H   0  0  0  0  0  0  0  0  0  0  0  0
   -4.0726   22.7452  -26.6645 H   0  0  0  0  0  0  0  0  0  0  0  0
   -6.5450   24.4404  -22.8322 C   0  0  0  0  0  0  0  0  0  0  0  0
   -7.5558   23.7484  -22.2019 C   0  0  0  0  0  0  0  0  0  0  0  0
   -7.3033   22.4018  -21.9747 C   0  0  0  0  0  0  0  0  0  0  0  0
   -8.3843   21.6275  -21.2920 C   0  0  0  0  0  0  0  0  0  0  0  0
   -6.1588   21.7746  -22.3313 C   0  0  0  0  0  0  0  0  0  0  0  0
   -5.1212   22.4798  -22.9770 C   0  0  0  0  0  0  0  0  0  0  0  0
   -3.9448   21.9723  -23.3785 C   0  0  0  0  0  0  0  0  0  0  0  0
   -3.0618   22.8179  -23.9906 C   0  0  0  0  0  0  0  0  0  0  0  0
   -3.9177   24.3119  -23.9833 S   0  0  0  0  0  0  0  0  0  0  0  0
   -5.3523   23.7946  -23.2058 C   0  0  0  0  0  0  0  0  0  0  0  0
   -6.7371   26.3136  -24.4127 C   0  0  0  0  0  0  0  0  0  0  0  0
   -6.6300   25.7738  -23.1309 O   0  0  0  0  0  0  0  0  0  0  0  0
   -0.6511   21.8064  -22.3072 C   0  0  0  0  0  0  0  0  0  0  0  0
   -0.9104   22.7948  -21.3795 C   0  0  0  0  0  0  0  0  0  0  0  0
   -0.8480   22.5309  -20.0340 C   0  0  0  0  0  0  0  0  0  0  0  0
   -0.5257   21.2754  -19.5396 C   0  0  0  0  0  0  0  0  0  0  0  0
   -0.2633   20.2734  -20.4548 C   0  0  0  0  0  0  0  0  0  0  0  0
   -0.3255   20.5367  -21.8218 C   0  0  0  0  0  0  0  0  0  0  0  0
    0.0542   19.0355  -19.9534 O   0  0  0  0  0  0  0  0  0  0  0  0
    1.3244   18.5678  -19.6292 C   0  0  0  0  0  0  0  0  0  0  0  0
    2.3443   19.2261  -20.3024 F   0  0  0  0  0  0  0  0  0  0  0  0
    1.3741   17.2061  -19.8918 F   0  0  0  0  0  0  0  0  0  0  0  0
    1.4803   18.7105  -18.2493 F   0  0  0  0  0  0  0  0  0  0  0  0
 23 24  1  0  0  0
 24 13  1  0  0  0
 13 14  2  0  0  0
 14 15  1  0  0  0
 15 16  1  0  0  0
 15 17  2  0  0  0
 17 18  1  0  0  0
 18 19  1  0  0  0
 19 20  2  0  0  0
 20 21  1  0  0  0
 21 22  1  0  0  0
 20  1  1  0  0  0
  1  2  1  0  0  0
  2  3  2  0  0  0
  3  4  1  0  0  0
  4  5  1  0  0  0
  5  6  2  0  0  0
  6  7  1  0  0  0
  7  8  2  0  0  0
  8  9  1  0  0  0
  8 10  1  0  0  0
  2 25  1  0  0  0
 25 26  2  0  0  0
 26 27  1  0  0  0
 27 28  2  0  0  0
 28 29  1  0  0  0
 29 31  1  0  0  0
 31 32  1  0  0  0
 32 33  1  0  0  0
 32 34  1  0  0  0
 32 35  1  0  0  0
 29 30  2  0  0  0
 22 13  1  0  0  0
 10  1  2  0  0  0
 30 25  1  0  0  0
 22 18  2  0  0  0
 10  4  1  0  0  0
  9 11  1  0  0  0
  9 12  1  0  0  0
M  END
> <minimizedAffinity>
-8.01171

> <CNNscore>
0.3403551877

> <CNNaffinity>
7.1365828514

> <CNN_VS>
2.4289729595

> <CNNaffinity_variance>
0.1661885083

$$$$
[H]c1nc(N([H])[H])c2c(-c3sc4c(OC([H])([H])[H])c([H])c(C([H])([H])[H])c([H])c4c3[H])c(-c3c([H])c([H])c([H])c(OC(F)(F)F)c3[H])c([H])n2n1


 35 39  0  0  0  0  0  0  0  0999 V2000
   -2.0883   22.4249  -23.7071 C   0  0  0  0  0  0  0  0  0  0  0  0
   -1.0179   22.0400  -22.9425 C   0  0  0  0  0  0  0  0  0  0  0  0
   -0.0033   21.8408  -23.8644 C   0  0  0  0  0  0  0  0  0  0  0  0
   -0.4380   22.0921  -25.1180 N   0  0  0  0  0  0  0  0  0  0  0  0
    0.1471   22.0436  -26.3159 N   0  0  0  0  0  0  0  0  0  0  0  0
   -0.4910   22.3416  -27.4582 C   0  0  0  0  0  0  0  0  0  0  0  0
   -1.7812   22.7048  -27.3815 N   0  0  0  0  0  0  0  0  0  0  0  0
   -2.4030   22.7626  -26.1717 C   0  0  0  0  0  0  0  0  0  0  0  0
   -3.7726   23.1428  -26.0694 N   0  0  0  0  0  0  0  0  0  0  0  0
   -1.7272   22.4523  -25.0110 C   0  0  0  0  0  0  0  0  0  0  0  0
   -4.0459   24.1232  -26.3193 H   0  0  0  0  0  0  0  0  0  0  0  0
   -4.5300   22.5002  -25.7580 H   0  0  0  0  0  0  0  0  0  0  0  0
   -7.1051   22.7743  -21.6172 C   0  0  0  0  0  0  0  0  0  0  0  0
   -7.7873   23.9147  -21.2539 C   0  0  0  0  0  0  0  0  0  0  0  0
   -7.1013   25.1062  -21.4493 C   0  0  0  0  0  0  0  0  0  0  0  0
   -7.8193   26.3591  -21.0633 C   0  0  0  0  0  0  0  0  0  0  0  0
   -5.8500   25.1859  -21.9578 C   0  0  0  0  0  0  0  0  0  0  0  0
   -5.1480   24.0202  -22.3311 C   0  0  0  0  0  0  0  0  0  0  0  0
   -3.9083   23.9687  -22.8441 C   0  0  0  0  0  0  0  0  0  0  0  0
   -3.3939   22.7379  -23.1446 C   0  0  0  0  0  0  0  0  0  0  0  0
   -4.6775   21.6826  -22.6937 S   0  0  0  0  0  0  0  0  0  0  0  0
   -5.8038   22.8496  -22.1465 C   0  0  0  0  0  0  0  0  0  0  0  0
   -7.8640   20.8506  -20.2880 C   0  0  0  0  0  0  0  0  0  0  0  0
   -7.6349   21.5183  -21.4911 O   0  0  0  0  0  0  0  0  0  0  0  0
   -0.8855   21.8630  -21.5289 C   0  0  0  0  0  0  0  0  0  0  0  0
   -1.9734   21.5737  -20.7302 C   0  0  0  0  0  0  0  0  0  0  0  0
   -1.8274   21.4074  -19.3756 C   0  0  0  0  0  0  0  0  0  0  0  0
   -0.5974   21.5191  -18.7438 C   0  0  0  0  0  0  0  0  0  0  0  0
    0.5031   21.8082  -19.5286 C   0  0  0  0  0  0  0  0  0  0  0  0
    0.3598   21.9779  -20.9043 C   0  0  0  0  0  0  0  0  0  0  0  0
    1.7145   21.9161  -18.8921 O   0  0  0  0  0  0  0  0  0  0  0  0
    2.2429   23.0556  -18.2923 C   0  0  0  0  0  0  0  0  0  0  0  0
    3.6024   23.2198  -18.5191 F   0  0  0  0  0  0  0  0  0  0  0  0
    1.9851   22.9975  -16.9299 F   0  0  0  0  0  0  0  0  0  0  0  0
    1.5312   24.1517  -18.7831 F   0  0  0  0  0  0  0  0  0  0  0  0
 23 24  1  0  0  0
 24 13  1  0  0  0
 13 14  2  0  0  0
 14 15  1  0  0  0
 15 16  1  0  0  0
 15 17  2  0  0  0
 17 18  1  0  0  0
 18 19  1  0  0  0
 19 20  2  0  0  0
 20 21  1  0  0  0
 21 22  1  0  0  0
 20  1  1  0  0  0
  1  2  1  0  0  0
  2  3  2  0  0  0
  3  4  1  0  0  0
  4  5  1  0  0  0
  5  6  2  0  0  0
  6  7  1  0  0  0
  7  8  2  0  0  0
  8  9  1  0  0  0
  8 10  1  0  0  0
  2 25  1  0  0  0
 25 26  2  0  0  0
 26 27  1  0  0  0
 27 28  2  0  0  0
 28 29  1  0  0  0
 29 31  1  0  0  0
 31 32  1  0  0  0
 32 33  1  0  0  0
 32 34  1  0  0  0
 32 35  1  0  0  0
 29 30  2  0  0  0
 22 13  1  0  0  0
 10  1  2  0  0  0
 30 25  1  0  0  0
 22 18  2  0  0  0
 10  4  1  0  0  0
  9 11  1  0  0  0
  9 12  1  0  0  0
M  END
> <minimizedAffinity>
-7.41405

> <CNNscore>
0.3359385133

> <CNNaffinity>
6.9771299362

> <CNN_VS>
2.3438866138

> <CNNaffinity_variance>
0.2020964622

$$$$
[H]c1nc(N([H])[H])c2c(-c3sc4c(OC([H])([H])[H])c([H])c(C([H])([H])[H])c([H])c4c3[H])c(-c3c([H])c([H])c([H])c(OC(F)(F)F)c3[H])c([H])n2n1


 35 39  0  0  0  0  0  0  0  0999 V2000
   -2.7865   22.7847  -24.5438 C   0  0  0  0  0  0  0  0  0  0  0  0
   -1.5193   22.4586  -24.1361 C   0  0  0  0  0  0  0  0  0  0  0  0
   -0.7900   22.4173  -25.3132 C   0  0  0  0  0  0  0  0  0  0  0  0
   -1.5749   22.7032  -26.3741 N   0  0  0  0  0  0  0  0  0  0  0  0
   -1.3452   22.7871  -27.6856 N   0  0  0  0  0  0  0  0  0  0  0  0
   -2.2974   23.0926  -28.5805 C   0  0  0  0  0  0  0  0  0  0  0  0
   -3.5388   23.3230  -28.1241 N   0  0  0  0  0  0  0  0  0  0  0  0
   -3.8010   23.2440  -26.7904 C   0  0  0  0  0  0  0  0  0  0  0  0
   -5.1125   23.4820  -26.2863 N   0  0  0  0  0  0  0  0  0  0  0  0
   -2.8066   22.9288  -25.8892 C   0  0  0  0  0  0  0  0  0  0  0  0
   -5.5185   24.4449  -26.3659 H   0  0  0  0  0  0  0  0  0  0  0  0
   -5.7018   22.7505  -25.8376 H   0  0  0  0  0  0  0  0  0  0  0  0
   -6.9886   22.5085  -21.0907 C   0  0  0  0  0  0  0  0  0  0  0  0
   -7.6778   23.5555  -20.5192 C   0  0  0  0  0  0  0  0  0  0  0  0
   -7.2364   24.8233  -20.8751 C   0  0  0  0  0  0  0  0  0  0  0  0
   -7.9674   25.9775  -20.2687 C   0  0  0  0  0  0  0  0  0  0  0  0
   -6.2061   25.0577  -21.7201 C   0  0  0  0  0  0  0  0  0  0  0  0
   -5.4978   23.9880  -22.3075 C   0  0  0  0  0  0  0  0  0  0  0  0
   -4.4630   24.0908  -23.1567 C   0  0  0  0  0  0  0  0  0  0  0  0
   -3.9033   22.9333  -23.6220 C   0  0  0  0  0  0  0  0  0  0  0  0
   -4.8555   21.7265  -22.8463 S   0  0  0  0  0  0  0  0  0  0  0  0
   -5.9164   22.7448  -21.9702 C   0  0  0  0  0  0  0  0  0  0  0  0
   -7.6047   20.6521  -19.6015 C   0  0  0  0  0  0  0  0  0  0  0  0
   -7.2936   21.1962  -20.8477 O   0  0  0  0  0  0  0  0  0  0  0  0
   -0.9847   22.2069  -22.8330 C   0  0  0  0  0  0  0  0  0  0  0  0
    0.0672   21.3350  -22.6378 C   0  0  0  0  0  0  0  0  0  0  0  0
    0.5670   21.1057  -21.3801 C   0  0  0  0  0  0  0  0  0  0  0  0
    0.0505   21.7281  -20.2530 C   0  0  0  0  0  0  0  0  0  0  0  0
   -1.0032   22.6049  -20.4302 C   0  0  0  0  0  0  0  0  0  0  0  0
   -1.5139   22.8408  -21.7051 C   0  0  0  0  0  0  0  0  0  0  0  0
   -1.5054   23.2146  -19.3075 O   0  0  0  0  0  0  0  0  0  0  0  0
   -2.0831   22.5889  -18.2065 C   0  0  0  0  0  0  0  0  0  0  0  0
   -3.0251   23.3737  -17.5559 F   0  0  0  0  0  0  0  0  0  0  0  0
   -1.0739   22.2200  -17.3283 F   0  0  0  0  0  0  0  0  0  0  0  0
   -2.6656   21.4041  -18.6599 F   0  0  0  0  0  0  0  0  0  0  0  0
 23 24  1  0  0  0
 24 13  1  0  0  0
 13 14  2  0  0  0
 14 15  1  0  0  0
 15 16  1  0  0  0
 15 17  2  0  0  0
 17 18  1  0  0  0
 18 19  1  0  0  0
 19 20  2  0  0  0
 20 21  1  0  0  0
 21 22  1  0  0  0
 20  1  1  0  0  0
  1  2  1  0  0  0
  2  3  2  0  0  0
  3  4  1  0  0  0
  4  5  1  0  0  0
  5  6  2  0  0  0
  6  7  1  0  0  0
  7  8  2  0  0  0
  8  9  1  0  0  0
  8 10  1  0  0  0
  2 25  1  0  0  0
 25 26  2  0  0  0
 26 27  1  0  0  0
 27 28  2  0  0  0
 28 29  1  0  0  0
 29 31  1  0  0  0
 31 32  1  0  0  0
 32 33  1  0  0  0
 32 34  1  0  0  0
 32 35  1  0  0  0
 29 30  2  0  0  0
 22 13  1  0  0  0
 10  1  2  0  0  0
 30 25  1  0  0  0
 22 18  2  0  0  0
 10  4  1  0  0  0
  9 11  1  0  0  0
  9 12  1  0  0  0
M  END
> <minimizedAffinity>
-8.09032

> <CNNscore>
0.3069796264

> <CNNaffinity>
7.0201544762

> <CNN_VS>
2.1550443172

> <CNNaffinity_variance>
0.2729193568

$$$$
[H]c1c([H])c([H])c2c([H])c([H])c(-c3nc4c([H])c(C([H])([H])[H])c(OC([H])([H])[H])c([H])c4n3[H])nc2c1N(C([H])([H])[H])S(=O)(=O)N([H])C([H])([H])[H]


 31 34  0  0  0  0  0  0  0  0999 V2000
   -5.3116   24.7185  -26.8950 C   0  0  0  0  0  0  0  0  0  0  0  0
   -6.0761   25.2224  -27.9291 C   0  0  0  0  0  0  0  0  0  0  0  0
   -5.6864   25.1248  -29.2523 C   0  0  0  0  0  0  0  0  0  0  0  0
   -4.4892   24.4991  -29.5340 C   0  0  0  0  0  0  0  0  0  0  0  0
   -3.6906   23.9788  -28.5273 C   0  0  0  0  0  0  0  0  0  0  0  0
   -2.4981   23.3572  -28.8270 C   0  0  0  0  0  0  0  0  0  0  0  0
   -1.7563   22.8639  -27.7741 C   0  0  0  0  0  0  0  0  0  0  0  0
   -2.1743   22.9781  -26.4638 C   0  0  0  0  0  0  0  0  0  0  0  0
   -3.3422   23.5906  -26.2127 N   0  0  0  0  0  0  0  0  0  0  0  0
   -4.1202   24.0989  -27.2120 C   0  0  0  0  0  0  0  0  0  0  0  0
   -1.3480   22.4371  -25.3906 C   0  0  0  0  0  0  0  0  0  0  0  0
   -0.0100   22.3088  -25.3488 N   0  0  0  0  0  0  0  0  0  0  0  0
    0.3878   21.7609  -24.1803 C   0  0  0  0  0  0  0  0  0  0  0  0
    1.6173   21.4213  -23.6390 C   0  0  0  0  0  0  0  0  0  0  0  0
    1.6775   20.8538  -22.3630 C   0  0  0  0  0  0  0  0  0  0  0  0
    2.9738   20.4772  -21.7504 C   0  0  0  0  0  0  0  0  0  0  0  0
    0.5274   20.6284  -21.6371 C   0  0  0  0  0  0  0  0  0  0  0  0
   -0.6870   20.9756  -22.1984 C   0  0  0  0  0  0  0  0  0  0  0  0
   -0.7598   21.5397  -23.4643 C   0  0  0  0  0  0  0  0  0  0  0  0
   -1.7873   21.9564  -24.2183 N   0  0  0  0  0  0  0  0  0  0  0  0
   -2.7881   21.9033  -23.9113 H   0  0  0  0  0  0  0  0  0  0  0  0
    0.6219   20.0641  -20.3745 O   0  0  0  0  0  0  0  0  0  0  0  0
   -0.4009   20.0895  -19.4261 C   0  0  0  0  0  0  0  0  0  0  0  0
   -5.7425   24.8363  -25.5457 N   0  0  0  0  0  0  0  0  0  0  0  0
   -6.5837   23.7803  -24.9711 C   0  0  0  0  0  0  0  0  0  0  0  0
   -5.3238   26.1712  -24.5358 S   0  0  0  0  0  0  0  0  0  0  0  0
   -6.5104   27.1013  -24.4835 O   0  0  0  0  0  0  0  0  0  0  0  0
   -4.1482   26.8867  -25.1555 O   0  0  0  0  0  0  0  0  0  0  0  0
   -3.6718   24.8569  -22.9649 C   0  0  0  0  0  0  0  0  0  0  0  0
   -4.9224   25.5761  -22.9617 N   0  0  0  0  0  0  0  0  0  0  0  0
   -4.8212   26.3995  -22.3302 H   0  0  0  0  0  0  0  0  0  0  0  0
 29 30  1  0  0  0
 30 26  1  0  0  0
 26 27  2  0  0  0
 26 28  2  0  0  0
 26 24  1  0  0  0
 24 25  1  0  0  0
 24  1  1  0  0  0
  1  2  2  0  0  0
  2  3  1  0  0  0
  3  4  2  0  0  0
  4  5  1  0  0  0
  5  6  2  0  0  0
  6  7  1  0  0  0
  7  8  2  0  0  0
  8  9  1  0  0  0
  9 10  2  0  0  0
  8 11  1  0  0  0
 11 12  2  0  0  0
 12 13  1  0  0  0
 13 14  2  0  0  0
 14 15  1  0  0  0
 15 16  1  0  0  0
 15 17  2  0  0  0
 17 22  1  0  0  0
 22 23  1  0  0  0
 17 18  1  0  0  0
 18 19  2  0  0  0
 19 20  1  0  0  0
 10  1  1  0  0  0
 20 11  1  0  0  0
 10  5  1  0  0  0
 19 13  1  0  0  0
 30 31  1  0  0  0
 20 21  1  0  0  0
M  END
> <minimizedAffinity>
-8.71984

> <CNNscore>
0.5848954320

> <CNNaffinity>
7.0471739769

> <CNN_VS>
4.1218600273

> <CNNaffinity_variance>
0.1151561290

$$$$
[H]c1c([H])c([H])c2c([H])c([H])c(-c3nc4c([H])c(C([H])([H])[H])c(OC([H])([H])[H])c([H])c4n3[H])nc2c1N(C([H])([H])[H])S(=O)(=O)N([H])C([H])([H])[H]


 31 34  0  0  0  0  0  0  0  0999 V2000
   -5.0376   25.2636  -26.8553 C   0  0  0  0  0  0  0  0  0  0  0  0
   -5.8367   25.7353  -27.8784 C   0  0  0  0  0  0  0  0  0  0  0  0
   -5.6943   25.3068  -29.1855 C   0  0  0  0  0  0  0  0  0  0  0  0
   -4.7150   24.3748  -29.4620 C   0  0  0  0  0  0  0  0  0  0  0  0
   -3.8907   23.8744  -28.4659 C   0  0  0  0  0  0  0  0  0  0  0  0
   -2.9180   22.9441  -28.7603 C   0  0  0  0  0  0  0  0  0  0  0  0
   -2.1355   22.4915  -27.7187 C   0  0  0  0  0  0  0  0  0  0  0  0
   -2.3039   22.9401  -26.4245 C   0  0  0  0  0  0  0  0  0  0  0  0
   -3.2627   23.8470  -26.1782 N   0  0  0  0  0  0  0  0  0  0  0  0
   -4.0683   24.3324  -27.1668 C   0  0  0  0  0  0  0  0  0  0  0  0
   -1.4465   22.4257  -25.3626 C   0  0  0  0  0  0  0  0  0  0  0  0
   -0.1098   22.2784  -25.3645 N   0  0  0  0  0  0  0  0  0  0  0  0
    0.3228   21.7671  -24.1917 C   0  0  0  0  0  0  0  0  0  0  0  0
    1.5664   21.4285  -23.6831 C   0  0  0  0  0  0  0  0  0  0  0  0
    1.6653   20.9066  -22.3901 C   0  0  0  0  0  0  0  0  0  0  0  0
    2.9777   20.5326  -21.8113 C   0  0  0  0  0  0  0  0  0  0  0  0
    0.5395   20.7253  -21.6154 C   0  0  0  0  0  0  0  0  0  0  0  0
   -0.6896   21.0706  -22.1449 C   0  0  0  0  0  0  0  0  0  0  0  0
   -0.8009   21.5895  -23.4272 C   0  0  0  0  0  0  0  0  0  0  0  0
   -1.8493   21.9945  -24.1584 N   0  0  0  0  0  0  0  0  0  0  0  0
   -2.8388   21.9679  -23.8138 H   0  0  0  0  0  0  0  0  0  0  0  0
    0.6722   20.2056  -20.3372 O   0  0  0  0  0  0  0  0  0  0  0  0
   -0.2983   20.3169  -19.3412 C   0  0  0  0  0  0  0  0  0  0  0  0
   -5.2114   25.7260  -25.5226 N   0  0  0  0  0  0  0  0  0  0  0  0
   -4.7863   27.0877  -25.1793 C   0  0  0  0  0  0  0  0  0  0  0  0
   -5.9041   24.7593  -24.2725 S   0  0  0  0  0  0  0  0  0  0  0  0
   -6.9753   23.8980  -24.8941 O   0  0  0  0  0  0  0  0  0  0  0  0
   -6.5255   25.6782  -23.2491 O   0  0  0  0  0  0  0  0  0  0  0  0
   -3.8850   24.5446  -22.5987 C   0  0  0  0  0  0  0  0  0  0  0  0
   -4.6585   23.7944  -23.5580 N   0  0  0  0  0  0  0  0  0  0  0  0
   -5.1201   23.0055  -23.0562 H   0  0  0  0  0  0  0  0  0  0  0  0
 29 30  1  0  0  0
 30 26  1  0  0  0
 26 27  2  0  0  0
 26 28  2  0  0  0
 26 24  1  0  0  0
 24 25  1  0  0  0
 24  1  1  0  0  0
  1  2  2  0  0  0
  2  3  1  0  0  0
  3  4  2  0  0  0
  4  5  1  0  0  0
  5  6  2  0  0  0
  6  7  1  0  0  0
  7  8  2  0  0  0
  8  9  1  0  0  0
  9 10  2  0  0  0
  8 11  1  0  0  0
 11 12  2  0  0  0
 12 13  1  0  0  0
 13 14  2  0  0  0
 14 15  1  0  0  0
 15 16  1  0  0  0
 15 17  2  0  0  0
 17 22  1  0  0  0
 22 23  1  0  0  0
 17 18  1  0  0  0
 18 19  2  0  0  0
 19 20  1  0  0  0
 10  1  1  0  0  0
 20 11  1  0  0  0
 10  5  1  0  0  0
 19 13  1  0  0  0
 30 31  1  0  0  0
 20 21  1  0  0  0
M  END
> <minimizedAffinity>
-8.53365

> <CNNscore>
0.5306892991

> <CNNaffinity>
6.9903349876

> <CNN_VS>
3.7096960545

> <CNNaffinity_variance>
0.2126024067

$$$$
[H]c1c([H])c([H])c2c([H])c([H])c(-c3nc4c([H])c(C([H])([H])[H])c(OC([H])([H])[H])c([H])c4n3[H])nc2c1N(C([H])([H])[H])S(=O)(=O)N([H])C([H])([H])[H]


 31 34  0  0  0  0  0  0  0  0999 V2000
    0.7079   21.2089  -20.3362 C   0  0  0  0  0  0  0  0  0  0  0  0
    1.7604   20.8477  -19.5178 C   0  0  0  0  0  0  0  0  0  0  0  0
    3.0154   20.5488  -20.0157 C   0  0  0  0  0  0  0  0  0  0  0  0
    3.2079   20.6183  -21.3804 C   0  0  0  0  0  0  0  0  0  0  0  0
    2.1798   20.9766  -22.2386 C   0  0  0  0  0  0  0  0  0  0  0  0
    2.3901   21.0408  -23.5987 C   0  0  0  0  0  0  0  0  0  0  0  0
    1.3210   21.4043  -24.3906 C   0  0  0  0  0  0  0  0  0  0  0  0
    0.0805   21.6964  -23.8612 C   0  0  0  0  0  0  0  0  0  0  0  0
   -0.0844   21.6224  -22.5310 N   0  0  0  0  0  0  0  0  0  0  0  0
    0.9351   21.2685  -21.6958 C   0  0  0  0  0  0  0  0  0  0  0  0
   -1.0140   22.0754  -24.7478 C   0  0  0  0  0  0  0  0  0  0  0  0
   -1.0037   22.1894  -26.0877 N   0  0  0  0  0  0  0  0  0  0  0  0
   -2.2156   22.5639  -26.5513 C   0  0  0  0  0  0  0  0  0  0  0  0
   -2.7347   22.8168  -27.8109 C   0  0  0  0  0  0  0  0  0  0  0  0
   -4.0732   23.1973  -27.9430 C   0  0  0  0  0  0  0  0  0  0  0  0
   -4.6645   23.4763  -29.2733 C   0  0  0  0  0  0  0  0  0  0  0  0
   -4.8826   23.3236  -26.8342 C   0  0  0  0  0  0  0  0  0  0  0  0
   -4.3419   23.0658  -25.5886 C   0  0  0  0  0  0  0  0  0  0  0  0
   -3.0145   22.6875  -25.4443 C   0  0  0  0  0  0  0  0  0  0  0  0
   -2.2637   22.3873  -24.3747 N   0  0  0  0  0  0  0  0  0  0  0  0
   -2.6268   22.4016  -23.3916 H   0  0  0  0  0  0  0  0  0  0  0  0
   -6.2056   23.7026  -26.9998 O   0  0  0  0  0  0  0  0  0  0  0  0
   -6.8364   24.6952  -26.2493 C   0  0  0  0  0  0  0  0  0  0  0  0
   -0.5696   21.5096  -19.7905 N   0  0  0  0  0  0  0  0  0  0  0  0
   -1.4356   20.4085  -19.3544 C   0  0  0  0  0  0  0  0  0  0  0  0
   -1.1627   23.1201  -19.6118 S   0  0  0  0  0  0  0  0  0  0  0  0
   -0.0063   23.9950  -19.1960 O   0  0  0  0  0  0  0  0  0  0  0  0
   -2.2133   23.1229  -18.5282 O   0  0  0  0  0  0  0  0  0  0  0  0
   -3.1884   23.1770  -21.2903 C   0  0  0  0  0  0  0  0  0  0  0  0
   -1.8323   23.6390  -21.1202 N   0  0  0  0  0  0  0  0  0  0  0  0
   -1.8430   24.6816  -21.1179 H   0  0  0  0  0  0  0  0  0  0  0  0
 29 30  1  0  0  0
 30 26  1  0  0  0
 26 27  2  0  0  0
 26 28  2  0  0  0
 26 24  1  0  0  0
 24 25  1  0  0  0
 24  1  1  0  0  0
  1  2  2  0  0  0
  2  3  1  0  0  0
  3  4  2  0  0  0
  4  5  1  0  0  0
  5  6  2  0  0  0
  6  7  1  0  0  0
  7  8  2  0  0  0
  8  9  1  0  0  0
  9 10  2  0  0  0
  8 11  1  0  0  0
 11 12  2  0  0  0
 12 13  1  0  0  0
 13 14  2  0  0  0
 14 15  1  0  0  0
 15 16  1  0  0  0
 15 17  2  0  0  0
 17 22  1  0  0  0
 22 23  1  0  0  0
 17 18  1  0  0  0
 18 19  2  0  0  0
 19 20  1  0  0  0
 10  1  1  0  0  0
 20 11  1  0  0  0
 10  5  1  0  0  0
 19 13  1  0  0  0
 30 31  1  0  0  0
 20 21  1  0  0  0
M  END
> <minimizedAffinity>
-8.13288

> <CNNscore>
0.4951183200

> <CNNaffinity>
6.7167525291

> <CNN_VS>
3.3255872726

> <CNNaffinity_variance>
0.1821524203

$$$$
[H]c1c([H])c([H])c2c([H])c([H])c(-c3nc4c([H])c(C([H])([H])[H])c(OC([H])([H])[H])c([H])c4n3[H])nc2c1N(C([H])([H])[H])S(=O)(=O)N([H])C([H])([H])[H]


 31 34  0  0  0  0  0  0  0  0999 V2000
   -4.1043   22.9556  -26.0293 C   0  0  0  0  0  0  0  0  0  0  0  0
   -4.8690   23.3362  -27.1148 C   0  0  0  0  0  0  0  0  0  0  0  0
   -4.3291   23.5060  -28.3765 C   0  0  0  0  0  0  0  0  0  0  0  0
   -2.9772   23.2837  -28.5415 C   0  0  0  0  0  0  0  0  0  0  0  0
   -2.1723   22.9004  -27.4798 C   0  0  0  0  0  0  0  0  0  0  0  0
   -0.8242   22.6828  -27.6629 C   0  0  0  0  0  0  0  0  0  0  0  0
   -0.0863   22.3037  -26.5611 C   0  0  0  0  0  0  0  0  0  0  0  0
   -0.6566   22.1431  -25.3148 C   0  0  0  0  0  0  0  0  0  0  0  0
   -1.9735   22.3647  -25.1770 N   0  0  0  0  0  0  0  0  0  0  0  0
   -2.7560   22.7416  -26.2295 C   0  0  0  0  0  0  0  0  0  0  0  0
    0.1736   21.7403  -24.1851 C   0  0  0  0  0  0  0  0  0  0  0  0
    1.4987   21.5126  -24.1603 N   0  0  0  0  0  0  0  0  0  0  0  0
    1.9057   21.1556  -22.9231 C   0  0  0  0  0  0  0  0  0  0  0  0
    3.1291   20.8205  -22.3653 C   0  0  0  0  0  0  0  0  0  0  0  0
    3.2030   20.4914  -21.0088 C   0  0  0  0  0  0  0  0  0  0  0  0
    4.4933   20.1276  -20.3761 C   0  0  0  0  0  0  0  0  0  0  0  0
    2.0726   20.4966  -20.2198 C   0  0  0  0  0  0  0  0  0  0  0  0
    0.8640   20.8342  -20.7991 C   0  0  0  0  0  0  0  0  0  0  0  0
    0.7775   21.1628  -22.1447 C   0  0  0  0  0  0  0  0  0  0  0  0
   -0.2482   21.5183  -22.9317 N   0  0  0  0  0  0  0  0  0  0  0  0
   -1.2355   21.6040  -22.5905 H   0  0  0  0  0  0  0  0  0  0  0  0
    2.1803   20.1653  -18.8781 O   0  0  0  0  0  0  0  0  0  0  0  0
    1.8509   21.0247  -17.8297 C   0  0  0  0  0  0  0  0  0  0  0  0
   -4.6922   22.7903  -24.7458 N   0  0  0  0  0  0  0  0  0  0  0  0
   -5.1395   21.4553  -24.3332 C   0  0  0  0  0  0  0  0  0  0  0  0
   -4.9101   24.0920  -23.6344 S   0  0  0  0  0  0  0  0  0  0  0  0
   -4.2866   23.6881  -22.3215 O   0  0  0  0  0  0  0  0  0  0  0  0
   -6.3910   24.3123  -23.4437 O   0  0  0  0  0  0  0  0  0  0  0  0
   -5.1188   26.4117  -24.8589 C   0  0  0  0  0  0  0  0  0  0  0  0
   -4.1548   25.5087  -24.2789 N   0  0  0  0  0  0  0  0  0  0  0  0
   -3.6836   26.0010  -23.4897 H   0  0  0  0  0  0  0  0  0  0  0  0
 29 30  1  0  0  0
 30 26  1  0  0  0
 26 27  2  0  0  0
 26 28  2  0  0  0
 26 24  1  0  0  0
 24 25  1  0  0  0
 24  1  1  0  0  0
  1  2  2  0  0  0
  2  3  1  0  0  0
  3  4  2  0  0  0
  4  5  1  0  0  0
  5  6  2  0  0  0
  6  7  1  0  0  0
  7  8  2  0  0  0
  8  9  1  0  0  0
  9 10  2  0  0  0
  8 11  1  0  0  0
 11 12  2  0  0  0
 12 13  1  0  0  0
 13 14  2  0  0  0
 14 15  1  0  0  0
 15 16  1  0  0  0
 15 17  2  0  0  0
 17 22  1  0  0  0
 22 23  1  0  0  0
 17 18  1  0  0  0
 18 19  2  0  0  0
 19 20  1  0  0  0
 10  1  1  0  0  0
 20 11  1  0  0  0
 10  5  1  0  0  0
 19 13  1  0  0  0
 30 31  1  0  0  0
 20 21  1  0  0  0
M  END
> <minimizedAffinity>
-8.01971

> <CNNscore>
0.4436961412

> <CNNaffinity>
6.7013854980

> <CNN_VS>
2.9733788967

> <CNNaffinity_variance>
0.0717583522

$$$$
[H]c1c([H])c([H])c2c([H])c([H])c(-c3nc4c([H])c(C([H])([H])[H])c(OC([H])([H])[H])c([H])c4n3[H])nc2c1N(C([H])([H])[H])S(=O)(=O)N([H])C([H])([H])[H]


 31 34  0  0  0  0  0  0  0  0999 V2000
   -5.1629   24.3699  -26.6615 C   0  0  0  0  0  0  0  0  0  0  0  0
   -5.9158   24.8284  -27.7249 C   0  0  0  0  0  0  0  0  0  0  0  0
   -5.4854   24.7245  -29.0349 C   0  0  0  0  0  0  0  0  0  0  0  0
   -4.2582   24.1398  -29.2725 C   0  0  0  0  0  0  0  0  0  0  0  0
   -3.4698   23.6659  -28.2354 C   0  0  0  0  0  0  0  0  0  0  0  0
   -2.2470   23.0848  -28.4912 C   0  0  0  0  0  0  0  0  0  0  0  0
   -1.5178   22.6365  -27.4099 C   0  0  0  0  0  0  0  0  0  0  0  0
   -1.9768   22.7556  -26.1139 C   0  0  0  0  0  0  0  0  0  0  0  0
   -3.1733   23.3277  -25.9058 N   0  0  0  0  0  0  0  0  0  0  0  0
   -3.9408   23.7906  -26.9347 C   0  0  0  0  0  0  0  0  0  0  0  0
   -1.1618   22.2631  -25.0091 C   0  0  0  0  0  0  0  0  0  0  0  0
   -1.5587   21.8822  -23.7819 N   0  0  0  0  0  0  0  0  0  0  0  0
   -0.5067   21.4850  -23.0341 C   0  0  0  0  0  0  0  0  0  0  0  0
   -0.3625   21.0115  -21.7399 C   0  0  0  0  0  0  0  0  0  0  0  0
    0.9092   20.6815  -21.2626 C   0  0  0  0  0  0  0  0  0  0  0  0
    1.1037   20.1720  -19.8842 C   0  0  0  0  0  0  0  0  0  0  0  0
    2.0213   20.8217  -22.0651 C   0  0  0  0  0  0  0  0  0  0  0  0
    1.8519   21.2959  -23.3523 C   0  0  0  0  0  0  0  0  0  0  0  0
    0.5946   21.6270  -23.8377 C   0  0  0  0  0  0  0  0  0  0  0  0
    0.1688   22.0968  -25.0191 N   0  0  0  0  0  0  0  0  0  0  0  0
    0.8079   22.2986  -25.8250 H   0  0  0  0  0  0  0  0  0  0  0  0
    3.2681   20.4853  -21.5612 O   0  0  0  0  0  0  0  0  0  0  0  0
    4.0567   19.4440  -22.0513 C   0  0  0  0  0  0  0  0  0  0  0  0
   -5.6361   24.4929  -25.3269 N   0  0  0  0  0  0  0  0  0  0  0  0
   -6.4159   23.3957  -24.7431 C   0  0  0  0  0  0  0  0  0  0  0  0
   -5.3385   25.8805  -24.3455 S   0  0  0  0  0  0  0  0  0  0  0  0
   -6.5807   26.7362  -24.3660 O   0  0  0  0  0  0  0  0  0  0  0  0
   -4.1859   26.6490  -24.9446 O   0  0  0  0  0  0  0  0  0  0  0  0
   -3.6789   24.7017  -22.6781 C   0  0  0  0  0  0  0  0  0  0  0  0
   -4.9620   25.3582  -22.7397 N   0  0  0  0  0  0  0  0  0  0  0  0
   -4.9217   26.2061  -22.1342 H   0  0  0  0  0  0  0  0  0  0  0  0
 29 30  1  0  0  0
 30 26  1  0  0  0
 26 27  2  0  0  0
 26 28  2  0  0  0
 26 24  1  0  0  0
 24 25  1  0  0  0
 24  1  1  0  0  0
  1  2  2  0  0  0
  2  3  1  0  0  0
  3  4  2  0  0  0
  4  5  1  0  0  0
  5  6  2  0  0  0
  6  7  1  0  0  0
  7  8  2  0  0  0
  8  9  1  0  0  0
  9 10  2  0  0  0
  8 11  1  0  0  0
 11 12  2  0  0  0
 12 13  1  0  0  0
 13 14  2  0  0  0
 14 15  1  0  0  0
 15 16  1  0  0  0
 15 17  2  0  0  0
 17 22  1  0  0  0
 22 23  1  0  0  0
 17 18  1  0  0  0
 18 19  2  0  0  0
 19 20  1  0  0  0
 10  1  1  0  0  0
 20 11  1  0  0  0
 10  5  1  0  0  0
 19 13  1  0  0  0
 30 31  1  0  0  0
 20 21  1  0  0  0
M  END
> <minimizedAffinity>
-8.68080

> <CNNscore>
0.4375409782

> <CNNaffinity>
6.7814254761

> <CNN_VS>
2.9671516418

> <CNNaffinity_variance>
0.0752682760

$$$$
[H]c1c([H])c([H])c2c([H])c([H])c(-c3nc4c([H])c(C([H])([H])[H])c(OC([H])([H])[H])c([H])c4n3[H])nc2c1N(C([H])([H])[H])S(=O)(=O)N([H])C([H])([H])[H]


 31 34  0  0  0  0  0  0  0  0999 V2000
   -1.7185   22.0426  -23.1578 C   0  0  0  0  0  0  0  0  0  0  0  0
   -0.7957   21.5991  -22.2307 C   0  0  0  0  0  0  0  0  0  0  0  0
    0.5151   21.3170  -22.5687 C   0  0  0  0  0  0  0  0  0  0  0  0
    0.9002   21.4895  -23.8825 C   0  0  0  0  0  0  0  0  0  0  0  0
    0.0072   21.9327  -24.8458 C   0  0  0  0  0  0  0  0  0  0  0  0
    0.4092   22.0992  -26.1531 C   0  0  0  0  0  0  0  0  0  0  0  0
   -0.5338   22.5431  -27.0563 C   0  0  0  0  0  0  0  0  0  0  0  0
   -1.8349   22.8157  -26.6857 C   0  0  0  0  0  0  0  0  0  0  0  0
   -2.1878   22.6408  -25.4023 N   0  0  0  0  0  0  0  0  0  0  0  0
   -1.2999   22.2041  -24.4626 C   0  0  0  0  0  0  0  0  0  0  0  0
   -2.7895   23.2828  -27.6848 C   0  0  0  0  0  0  0  0  0  0  0  0
   -3.4500   22.5650  -28.6105 N   0  0  0  0  0  0  0  0  0  0  0  0
   -4.2496   23.3565  -29.3573 C   0  0  0  0  0  0  0  0  0  0  0  0
   -5.1190   23.1341  -30.4131 C   0  0  0  0  0  0  0  0  0  0  0  0
   -5.8135   24.2093  -30.9746 C   0  0  0  0  0  0  0  0  0  0  0  0
   -6.7520   24.0112  -32.1049 C   0  0  0  0  0  0  0  0  0  0  0  0
   -5.6433   25.4885  -30.4896 C   0  0  0  0  0  0  0  0  0  0  0  0
   -4.7708   25.6850  -29.4359 C   0  0  0  0  0  0  0  0  0  0  0  0
   -4.0754   24.6257  -28.8700 C   0  0  0  0  0  0  0  0  0  0  0  0
   -3.1915   24.5495  -27.8647 N   0  0  0  0  0  0  0  0  0  0  0  0
   -2.8739   25.3803  -27.3102 H   0  0  0  0  0  0  0  0  0  0  0  0
   -6.3473   26.5327  -31.0689 O   0  0  0  0  0  0  0  0  0  0  0  0
   -5.7906   27.7714  -31.3881 C   0  0  0  0  0  0  0  0  0  0  0  0
   -3.0585   22.3231  -22.7757 N   0  0  0  0  0  0  0  0  0  0  0  0
   -4.0268   21.2227  -22.7115 C   0  0  0  0  0  0  0  0  0  0  0  0
   -3.6130   23.9080  -22.3786 S   0  0  0  0  0  0  0  0  0  0  0  0
   -2.4087   24.8130  -22.3003 O   0  0  0  0  0  0  0  0  0  0  0  0
   -4.2908   23.8516  -21.0312 O   0  0  0  0  0  0  0  0  0  0  0  0
   -4.1567   25.4938  -24.4069 C   0  0  0  0  0  0  0  0  0  0  0  0
   -4.7169   24.4360  -23.6016 N   0  0  0  0  0  0  0  0  0  0  0  0
   -4.9098   23.6221  -24.2242 H   0  0  0  0  0  0  0  0  0  0  0  0
 29 30  1  0  0  0
 30 26  1  0  0  0
 26 27  2  0  0  0
 26 28  2  0  0  0
 26 24  1  0  0  0
 24 25  1  0  0  0
 24  1  1  0  0  0
  1  2  2  0  0  0
  2  3  1  0  0  0
  3  4  2  0  0  0
  4  5  1  0  0  0
  5  6  2  0  0  0
  6  7  1  0  0  0
  7  8  2  0  0  0
  8  9  1  0  0  0
  9 10  2  0  0  0
  8 11  1  0  0  0
 11 12  2  0  0  0
 12 13  1  0  0  0
 13 14  2  0  0  0
 14 15  1  0  0  0
 15 16  1  0  0  0
 15 17  2  0  0  0
 17 22  1  0  0  0
 22 23  1  0  0  0
 17 18  1  0  0  0
 18 19  2  0  0  0
 19 20  1  0  0  0
 10  1  1  0  0  0
 20 11  1  0  0  0
 10  5  1  0  0  0
 19 13  1  0  0  0
 30 31  1  0  0  0
 20 21  1  0  0  0
M  END
> <minimizedAffinity>
-7.73131

> <CNNscore>
0.4022299945

> <CNNaffinity>
7.0388169289

> <CNN_VS>
2.8312232494

> <CNNaffinity_variance>
0.1411025971

$$$$
[H]c1c([H])c([H])c2c([H])c([H])c(-c3nc4c([H])c(C([H])([H])[H])c(OC([H])([H])[H])c([H])c4n3[H])nc2c1N(C([H])([H])[H])S(=O)(=O)N([H])C([H])([H])[H]


 31 34  0  0  0  0  0  0  0  0999 V2000
   -5.1073   25.5111  -27.2137 C   0  0  0  0  0  0  0  0  0  0  0  0
   -5.8240   25.9890  -28.2935 C   0  0  0  0  0  0  0  0  0  0  0  0
   -5.6467   25.4983  -29.5742 C   0  0  0  0  0  0  0  0  0  0  0  0
   -4.7176   24.4960  -29.7645 C   0  0  0  0  0  0  0  0  0  0  0  0
   -3.9764   23.9869  -28.7094 C   0  0  0  0  0  0  0  0  0  0  0  0
   -3.0528   22.9860  -28.9180 C   0  0  0  0  0  0  0  0  0  0  0  0
   -2.3524   22.5289  -27.8214 C   0  0  0  0  0  0  0  0  0  0  0  0
   -2.5536   23.0407  -26.5556 C   0  0  0  0  0  0  0  0  0  0  0  0
   -3.4625   24.0154  -26.3933 N   0  0  0  0  0  0  0  0  0  0  0  0
   -4.1864   24.5088  -27.4395 C   0  0  0  0  0  0  0  0  0  0  0  0
   -1.7835   22.5181  -25.4326 C   0  0  0  0  0  0  0  0  0  0  0  0
   -2.2314   22.0833  -24.2415 N   0  0  0  0  0  0  0  0  0  0  0  0
   -1.2093   21.6737  -23.4597 C   0  0  0  0  0  0  0  0  0  0  0  0
   -1.1183   21.1522  -22.1792 C   0  0  0  0  0  0  0  0  0  0  0  0
    0.1349   20.8238  -21.6543 C   0  0  0  0  0  0  0  0  0  0  0  0
    0.2727   20.2638  -20.2887 C   0  0  0  0  0  0  0  0  0  0  0  0
    1.2812   21.0128  -22.3964 C   0  0  0  0  0  0  0  0  0  0  0  0
    1.1647   21.5344  -23.6710 C   0  0  0  0  0  0  0  0  0  0  0  0
   -0.0737   21.8645  -24.2033 C   0  0  0  0  0  0  0  0  0  0  0  0
   -0.4512   22.3734  -25.3849 N   0  0  0  0  0  0  0  0  0  0  0  0
    0.2219   22.6167  -26.1507 H   0  0  0  0  0  0  0  0  0  0  0  0
    2.5084   20.6767  -21.8463 O   0  0  0  0  0  0  0  0  0  0  0  0
    3.4409   19.8414  -22.4620 C   0  0  0  0  0  0  0  0  0  0  0  0
   -5.3149   26.0386  -25.9103 N   0  0  0  0  0  0  0  0  0  0  0  0
   -4.6355   27.2814  -25.5276 C   0  0  0  0  0  0  0  0  0  0  0  0
   -6.3357   25.2857  -24.7406 S   0  0  0  0  0  0  0  0  0  0  0  0
   -7.4650   24.6108  -25.4787 O   0  0  0  0  0  0  0  0  0  0  0  0
   -6.8930   26.3569  -23.8352 O   0  0  0  0  0  0  0  0  0  0  0  0
   -4.6405   24.7791  -22.7927 C   0  0  0  0  0  0  0  0  0  0  0  0
   -5.4023   24.1416  -23.8390 N   0  0  0  0  0  0  0  0  0  0  0  0
   -6.0676   23.4732  -23.3942 H   0  0  0  0  0  0  0  0  0  0  0  0
 29 30  1  0  0  0
 30 26  1  0  0  0
 26 27  2  0  0  0
 26 28  2  0  0  0
 26 24  1  0  0  0
 24 25  1  0  0  0
 24  1  1  0  0  0
  1  2  2  0  0  0
  2  3  1  0  0  0
  3  4  2  0  0  0
  4  5  1  0  0  0
  5  6  2  0  0  0
  6  7  1  0  0  0
  7  8  2  0  0  0
  8  9  1  0  0  0
  9 10  2  0  0  0
  8 11  1  0  0  0
 11 12  2  0  0  0
 12 13  1  0  0  0
 13 14  2  0  0  0
 14 15  1  0  0  0
 15 16  1  0  0  0
 15 17  2  0  0  0
 17 22  1  0  0  0
 22 23  1  0  0  0
 17 18  1  0  0  0
 18 19  2  0  0  0
 19 20  1  0  0  0
 10  1  1  0  0  0
 20 11  1  0  0  0
 10  5  1  0  0  0
 19 13  1  0  0  0
 30 31  1  0  0  0
 20 21  1  0  0  0
M  END
> <minimizedAffinity>
-8.67648

> <CNNscore>
0.3918715119

> <CNNaffinity>
6.8435659409

> <CNN_VS>
2.6817984581

> <CNNaffinity_variance>
0.2767161727

$$$$
[H]c1c([H])c([H])c2c([H])c([H])c(-c3nc4c([H])c(C([H])([H])[H])c(OC([H])([H])[H])c([H])c4n3[H])nc2c1N(C([H])([H])[H])S(=O)(=O)N([H])C([H])([H])[H]


 31 34  0  0  0  0  0  0  0  0999 V2000
   -3.6687   23.2272  -26.2399 C   0  0  0  0  0  0  0  0  0  0  0  0
   -4.3722   23.6314  -27.3578 C   0  0  0  0  0  0  0  0  0  0  0  0
   -3.7894   23.7112  -28.6093 C   0  0  0  0  0  0  0  0  0  0  0  0
   -2.4573   23.3719  -28.7300 C   0  0  0  0  0  0  0  0  0  0  0  0
   -1.7134   22.9610  -27.6347 C   0  0  0  0  0  0  0  0  0  0  0  0
   -0.3842   22.6260  -27.7738 C   0  0  0  0  0  0  0  0  0  0  0  0
    0.2924   22.2262  -26.6404 C   0  0  0  0  0  0  0  0  0  0  0  0
   -0.3196   22.1575  -25.4054 C   0  0  0  0  0  0  0  0  0  0  0  0
   -1.6163   22.4922  -25.3109 N   0  0  0  0  0  0  0  0  0  0  0  0
   -2.3386   22.8953  -26.3962 C   0  0  0  0  0  0  0  0  0  0  0  0
    0.4462   21.7274  -24.2409 C   0  0  0  0  0  0  0  0  0  0  0  0
    0.0100   21.5057  -22.9883 N   0  0  0  0  0  0  0  0  0  0  0  0
    1.0229   21.1163  -22.1844 C   0  0  0  0  0  0  0  0  0  0  0  0
    1.1191   20.7719  -20.8457 C   0  0  0  0  0  0  0  0  0  0  0  0
    2.3588   20.4055  -20.3139 C   0  0  0  0  0  0  0  0  0  0  0  0
    2.5016   20.0306  -18.8868 C   0  0  0  0  0  0  0  0  0  0  0  0
    3.4866   20.3829  -21.1064 C   0  0  0  0  0  0  0  0  0  0  0  0
    3.3652   20.7305  -22.4385 C   0  0  0  0  0  0  0  0  0  0  0  0
    2.1401   21.0962  -22.9783 C   0  0  0  0  0  0  0  0  0  0  0  0
    1.7616   21.4684  -24.2096 N   0  0  0  0  0  0  0  0  0  0  0  0
    2.4221   21.5396  -25.0203 H   0  0  0  0  0  0  0  0  0  0  0  0
    4.7007   20.0147  -20.5478 O   0  0  0  0  0  0  0  0  0  0  0  0
    5.7262   19.3808  -21.2498 C   0  0  0  0  0  0  0  0  0  0  0  0
   -4.2994   23.1566  -24.9681 N   0  0  0  0  0  0  0  0  0  0  0  0
   -5.1093   21.9784  -24.6385 C   0  0  0  0  0  0  0  0  0  0  0  0
   -4.1613   24.3977  -23.7775 S   0  0  0  0  0  0  0  0  0  0  0  0
   -5.3380   24.2736  -22.8417 O   0  0  0  0  0  0  0  0  0  0  0  0
   -4.2102   25.7349  -24.4758 O   0  0  0  0  0  0  0  0  0  0  0  0
   -2.8175   23.3725  -21.7607 C   0  0  0  0  0  0  0  0  0  0  0  0
   -2.6641   24.1979  -22.9339 N   0  0  0  0  0  0  0  0  0  0  0  0
   -1.9995   23.7215  -23.5807 H   0  0  0  0  0  0  0  0  0  0  0  0
 29 30  1  0  0  0
 30 26  1  0  0  0
 26 27  2  0  0  0
 26 28  2  0  0  0
 26 24  1  0  0  0
 24 25  1  0  0  0
 24  1  1  0  0  0
  1  2  2  0  0  0
  2  3  1  0  0  0
  3  4  2  0  0  0
  4  5  1  0  0  0
  5  6  2  0  0  0
  6  7  1  0  0  0
  7  8  2  0  0  0
  8  9  1  0  0  0
  9 10  2  0  0  0
  8 11  1  0  0  0
 11 12  2  0  0  0
 12 13  1  0  0  0
 13 14  2  0  0  0
 14 15  1  0  0  0
 15 16  1  0  0  0
 15 17  2  0  0  0
 17 22  1  0  0  0
 22 23  1  0  0  0
 17 18  1  0  0  0
 18 19  2  0  0  0
 19 20  1  0  0  0
 10  1  1  0  0  0
 20 11  1  0  0  0
 10  5  1  0  0  0
 19 13  1  0  0  0
 30 31  1  0  0  0
 20 21  1  0  0  0
M  END
> <minimizedAffinity>
-8.26651

> <CNNscore>
0.3267235458

> <CNNaffinity>
6.4639854431

> <CNN_VS>
2.1119363308

> <CNNaffinity_variance>
0.0662173778

$$$$
[H]c1c([H])c([H])c2c([H])c([H])c(-c3nc4c([H])c(C([H])([H])[H])c(OC([H])([H])[H])c([H])c4n3[H])nc2c1N(C([H])([H])[H])S(=O)(=O)N([H])C([H])([H])[H]


 31 34  0  0  0  0  0  0  0  0999 V2000
    0.6979   21.0383  -20.2741 C   0  0  0  0  0  0  0  0  0  0  0  0
    1.8354   20.6780  -19.5784 C   0  0  0  0  0  0  0  0  0  0  0  0
    3.0550   20.4893  -20.2023 C   0  0  0  0  0  0  0  0  0  0  0  0
    3.1224   20.6710  -21.5686 C   0  0  0  0  0  0  0  0  0  0  0  0
    2.0057   21.0326  -22.3061 C   0  0  0  0  0  0  0  0  0  0  0  0
    2.0914   21.2097  -23.6698 C   0  0  0  0  0  0  0  0  0  0  0  0
    0.9396   21.5693  -24.3376 C   0  0  0  0  0  0  0  0  0  0  0  0
   -0.2626   21.7498  -23.6842 C   0  0  0  0  0  0  0  0  0  0  0  0
   -0.3053   21.5677  -22.3548 N   0  0  0  0  0  0  0  0  0  0  0  0
    0.8006   21.2117  -21.6391 C   0  0  0  0  0  0  0  0  0  0  0  0
   -1.4489   22.1303  -24.4428 C   0  0  0  0  0  0  0  0  0  0  0  0
   -2.7028   22.3192  -23.9951 N   0  0  0  0  0  0  0  0  0  0  0  0
   -3.5302   22.6666  -25.0044 C   0  0  0  0  0  0  0  0  0  0  0  0
   -4.8802   22.9668  -25.0900 C   0  0  0  0  0  0  0  0  0  0  0  0
   -5.4376   23.2962  -26.3288 C   0  0  0  0  0  0  0  0  0  0  0  0
   -6.8774   23.6233  -26.4605 C   0  0  0  0  0  0  0  0  0  0  0  0
   -4.6592   23.3258  -27.4662 C   0  0  0  0  0  0  0  0  0  0  0  0
   -3.3153   23.0226  -27.3553 C   0  0  0  0  0  0  0  0  0  0  0  0
   -2.7502   22.6940  -26.1311 C   0  0  0  0  0  0  0  0  0  0  0  0
   -1.5034   22.3671  -25.7616 N   0  0  0  0  0  0  0  0  0  0  0  0
   -0.6985   22.3110  -26.4305 H   0  0  0  0  0  0  0  0  0  0  0  0
   -5.2430   23.6565  -28.6792 O   0  0  0  0  0  0  0  0  0  0  0  0
   -5.2539   22.8221  -29.7971 C   0  0  0  0  0  0  0  0  0  0  0  0
   -0.5400   21.2240  -19.6007 N   0  0  0  0  0  0  0  0  0  0  0  0
   -1.3281   20.0465  -19.2199 C   0  0  0  0  0  0  0  0  0  0  0  0
   -1.1722   22.7793  -19.2028 S   0  0  0  0  0  0  0  0  0  0  0  0
   -2.1126   23.1926  -20.3075 O   0  0  0  0  0  0  0  0  0  0  0  0
   -0.0233   23.7550  -19.1262 O   0  0  0  0  0  0  0  0  0  0  0  0
   -3.4275   22.6892  -17.8499 C   0  0  0  0  0  0  0  0  0  0  0  0
   -1.9944   22.6758  -17.6841 N   0  0  0  0  0  0  0  0  0  0  0  0
   -1.7277   21.7696  -17.2428 H   0  0  0  0  0  0  0  0  0  0  0  0
 29 30  1  0  0  0
 30 26  1  0  0  0
 26 27  2  0  0  0
 26 28  2  0  0  0
 26 24  1  0  0  0
 24 25  1  0  0  0
 24  1  1  0  0  0
  1  2  2  0  0  0
  2  3  1  0  0  0
  3  4  2  0  0  0
  4  5  1  0  0  0
  5  6  2  0  0  0
  6  7  1  0  0  0
  7  8  2  0  0  0
  8  9  1  0  0  0
  9 10  2  0  0  0
  8 11  1  0  0  0
 11 12  2  0  0  0
 12 13  1  0  0  0
 13 14  2  0  0  0
 14 15  1  0  0  0
 15 16  1  0  0  0
 15 17  2  0  0  0
 17 22  1  0  0  0
 22 23  1  0  0  0
 17 18  1  0  0  0
 18 19  2  0  0  0
 19 20  1  0  0  0
 10  1  1  0  0  0
 20 11  1  0  0  0
 10  5  1  0  0  0
 19 13  1  0  0  0
 30 31  1  0  0  0
 20 21  1  0  0  0
M  END
> <minimizedAffinity>
-7.55476

> <CNNscore>
0.2895201147

> <CNNaffinity>
6.4185853004

> <CNN_VS>
1.8583095074

> <CNNaffinity_variance>
0.1407893598

$$$$
[H]OC([H])([H])c1c(-c2c([H])c3c([H])c([H])c(N4C([H])([H])C([H])([H])N(C([H])([H])[H])C([H])([H])C4([H])[H])c([H])c3n2[H])c(=O)n([H])c2c([H])c([H])c(F)c([H])c12


 33 37  0  0  0  0  0  0  0  0999 V2000
    1.3344   20.5084  -21.4889 C   0  0  0  0  0  0  0  0  0  0  0  0
    0.1080   20.2752  -20.9105 C   0  0  0  0  0  0  0  0  0  0  0  0
   -1.0758   20.6646  -21.5068 C   0  0  0  0  0  0  0  0  0  0  0  0
   -1.0403   21.3169  -22.7370 C   0  0  0  0  0  0  0  0  0  0  0  0
   -2.0532   21.8110  -23.5508 C   0  0  0  0  0  0  0  0  0  0  0  0
   -1.4099   22.3701  -24.6727 C   0  0  0  0  0  0  0  0  0  0  0  0
   -0.1069   22.1953  -24.4921 N   0  0  0  0  0  0  0  0  0  0  0  0
    0.1660   21.5532  -23.3187 C   0  0  0  0  0  0  0  0  0  0  0  0
    1.3466   21.1628  -22.7201 C   0  0  0  0  0  0  0  0  0  0  0  0
    0.7235   22.4780  -25.0726 H   0  0  0  0  0  0  0  0  0  0  0  0
   -2.1590   22.9055  -25.7958 C   0  0  0  0  0  0  0  0  0  0  0  0
   -3.3325   23.6628  -25.7016 C   0  0  0  0  0  0  0  0  0  0  0  0
   -3.9332   24.0725  -26.8905 C   0  0  0  0  0  0  0  0  0  0  0  0
   -5.0938   24.8179  -26.8885 C   0  0  0  0  0  0  0  0  0  0  0  0
   -5.6528   25.1967  -28.1158 C   0  0  0  0  0  0  0  0  0  0  0  0
   -6.7906   25.9264  -28.0687 F   0  0  0  0  0  0  0  0  0  0  0  0
   -5.1165   24.8719  -29.3307 C   0  0  0  0  0  0  0  0  0  0  0  0
   -3.9595   24.1282  -29.3295 C   0  0  0  0  0  0  0  0  0  0  0  0
   -3.3880   23.7417  -28.1359 C   0  0  0  0  0  0  0  0  0  0  0  0
   -2.2791   23.0235  -28.1900 N   0  0  0  0  0  0  0  0  0  0  0  0
   -1.6810   22.6160  -27.0871 C   0  0  0  0  0  0  0  0  0  0  0  0
   -0.6209   21.9210  -27.1633 O   0  0  0  0  0  0  0  0  0  0  0  0
   -1.8330   22.7506  -29.1151 H   0  0  0  0  0  0  0  0  0  0  0  0
   -3.8586   23.9394  -24.3814 C   0  0  0  0  0  0  0  0  0  0  0  0
   -3.7599   25.1897  -23.8323 O   0  0  0  0  0  0  0  0  0  0  0  0
   -4.4755   25.3607  -23.1738 H   0  0  0  0  0  0  0  0  0  0  0  0
    6.0439   18.9265  -18.8621 C   0  0  0  0  0  0  0  0  0  0  0  0
    5.0260   19.3558  -19.7683 N   0  0  0  0  0  0  0  0  0  0  0  0
    4.4707   20.6403  -19.3786 C   0  0  0  0  0  0  0  0  0  0  0  0
    3.4878   21.0926  -20.4199 C   0  0  0  0  0  0  0  0  0  0  0  0
    2.5573   20.1081  -20.8707 N   0  0  0  0  0  0  0  0  0  0  0  0
    2.8388   18.7160  -20.7154 C   0  0  0  0  0  0  0  0  0  0  0  0
    3.9809   18.3521  -19.8339 C   0  0  0  0  0  0  0  0  0  0  0  0
 27 28  1  0  0  0
 28 29  1  0  0  0
 29 30  1  0  0  0
 30 31  1  0  0  0
 31 32  1  0  0  0
 32 33  1  0  0  0
 31  1  1  0  0  0
  1  2  2  0  0  0
  2  3  1  0  0  0
  3  4  2  0  0  0
  4  5  1  0  0  0
  5  6  2  0  0  0
  6  7  1  0  0  0
  7  8  1  0  0  0
  8  9  2  0  0  0
  6 11  1  0  0  0
 11 12  2  0  0  0
 12 24  1  0  0  0
 24 25  1  0  0  0
 12 13  1  0  0  0
 13 14  2  0  0  0
 14 15  1  0  0  0
 15 16  1  0  0  0
 15 17  2  0  0  0
 17 18  1  0  0  0
 18 19  2  0  0  0
 19 20  1  0  0  0
 20 21  1  0  0  0
 21 22  2  0  0  0
 33 28  1  0  0  0
  9  1  1  0  0  0
 21 11  1  0  0  0
  8  4  1  0  0  0
 19 13  1  0  0  0
  7 10  1  0  0  0
 25 26  1  0  0  0
 20 23  1  0  0  0
M  END
> <minimizedAffinity>
-8.19605

> <CNNscore>
0.6119921803

> <CNNaffinity>
6.5408449173

> <CNN_VS>
4.0029459000

> <CNNaffinity_variance>
0.3546714187

$$$$
[H]OC([H])([H])c1c(-c2c([H])c3c([H])c([H])c(N4C([H])([H])C([H])([H])N(C([H])([H])[H])C([H])([H])C4([H])[H])c([H])c3n2[H])c(=O)n([H])c2c([H])c([H])c(F)c([H])c12


 33 37  0  0  0  0  0  0  0  0999 V2000
   -0.0388   20.9334  -18.9106 C   0  0  0  0  0  0  0  0  0  0  0  0
   -0.4104   22.2350  -18.6638 C   0  0  0  0  0  0  0  0  0  0  0  0
   -0.8914   23.0667  -19.6565 C   0  0  0  0  0  0  0  0  0  0  0  0
   -1.0094   22.5827  -20.9573 C   0  0  0  0  0  0  0  0  0  0  0  0
   -1.4536   23.1825  -22.1300 C   0  0  0  0  0  0  0  0  0  0  0  0
   -1.3446   22.1989  -23.1329 C   0  0  0  0  0  0  0  0  0  0  0  0
   -0.8651   21.1087  -22.5478 N   0  0  0  0  0  0  0  0  0  0  0  0
   -0.6452   21.2978  -21.2138 C   0  0  0  0  0  0  0  0  0  0  0  0
   -0.1651   20.4697  -20.2196 C   0  0  0  0  0  0  0  0  0  0  0  0
   -0.6150   20.1617  -22.9316 H   0  0  0  0  0  0  0  0  0  0  0  0
   -1.8101   22.4340  -24.4883 C   0  0  0  0  0  0  0  0  0  0  0  0
   -3.1442   22.6248  -24.8667 C   0  0  0  0  0  0  0  0  0  0  0  0
   -3.4101   22.8116  -26.2219 C   0  0  0  0  0  0  0  0  0  0  0  0
   -4.6967   23.0022  -26.6812 C   0  0  0  0  0  0  0  0  0  0  0  0
   -4.9015   23.1806  -28.0554 C   0  0  0  0  0  0  0  0  0  0  0  0
   -6.1780   23.3639  -28.4632 F   0  0  0  0  0  0  0  0  0  0  0  0
   -3.8971   23.1781  -28.9827 C   0  0  0  0  0  0  0  0  0  0  0  0
   -2.6153   22.9874  -28.5218 C   0  0  0  0  0  0  0  0  0  0  0  0
   -2.3851   22.8091  -27.1742 C   0  0  0  0  0  0  0  0  0  0  0  0
   -1.1354   22.6245  -26.7837 N   0  0  0  0  0  0  0  0  0  0  0  0
   -0.8429   22.4435  -25.5103 C   0  0  0  0  0  0  0  0  0  0  0  0
    0.3637   22.2607  -25.1591 O   0  0  0  0  0  0  0  0  0  0  0  0
   -0.3281   22.6152  -27.4748 H   0  0  0  0  0  0  0  0  0  0  0  0
   -4.1566   22.5819  -23.8325 C   0  0  0  0  0  0  0  0  0  0  0  0
   -4.7517   21.4006  -23.4790 O   0  0  0  0  0  0  0  0  0  0  0  0
   -5.0777   21.4165  -22.5471 H   0  0  0  0  0  0  0  0  0  0  0  0
    2.1289   17.6360  -14.9094 C   0  0  0  0  0  0  0  0  0  0  0  0
    1.3253   18.3232  -15.8706 N   0  0  0  0  0  0  0  0  0  0  0  0
    1.7912   18.0842  -17.2255 C   0  0  0  0  0  0  0  0  0  0  0  0
    0.8505   18.7380  -18.1964 C   0  0  0  0  0  0  0  0  0  0  0  0
    0.4606   20.0756  -17.8848 N   0  0  0  0  0  0  0  0  0  0  0  0
    0.5590   20.5692  -16.5476 C   0  0  0  0  0  0  0  0  0  0  0  0
    1.3287   19.7438  -15.5779 C   0  0  0  0  0  0  0  0  0  0  0  0
 27 28  1  0  0  0
 28 29  1  0  0  0
 29 30  1  0  0  0
 30 31  1  0  0  0
 31 32  1  0  0  0
 32 33  1  0  0  0
 31  1  1  0  0  0
  1  2  2  0  0  0
  2  3  1  0  0  0
  3  4  2  0  0  0
  4  5  1  0  0  0
  5  6  2  0  0  0
  6  7  1  0  0  0
  7  8  1  0  0  0
  8  9  2  0  0  0
  6 11  1  0  0  0
 11 12  2  0  0  0
 12 24  1  0  0  0
 24 25  1  0  0  0
 12 13  1  0  0  0
 13 14  2  0  0  0
 14 15  1  0  0  0
 15 16  1  0  0  0
 15 17  2  0  0  0
 17 18  1  0  0  0
 18 19  2  0  0  0
 19 20  1  0  0  0
 20 21  1  0  0  0
 21 22  2  0  0  0
 33 28  1  0  0  0
  9  1  1  0  0  0
 21 11  1  0  0  0
  8  4  1  0  0  0
 19 13  1  0  0  0
  7 10  1  0  0  0
 25 26  1  0  0  0
 20 23  1  0  0  0
M  END
> <minimizedAffinity>
-7.82302

> <CNNscore>
0.4088593125

> <CNNaffinity>
6.0632920265

> <CNN_VS>
2.4790334702

> <CNNaffinity_variance>
0.3557458520

$$$$
[H]OC([H])([H])c1c(-c2c([H])c3c([H])c([H])c(N4C([H])([H])C([H])([H])N(C([H])([H])[H])C([H])([H])C4([H])[H])c([H])c3n2[H])c(=O)n([H])c2c([H])c([H])c(F)c([H])c12


 33 37  0  0  0  0  0  0  0  0999 V2000
    0.5607   21.6462  -18.7601 C   0  0  0  0  0  0  0  0  0  0  0  0
    0.4694   20.3205  -19.1166 C   0  0  0  0  0  0  0  0  0  0  0  0
   -0.0275   19.9174  -20.3410 C   0  0  0  0  0  0  0  0  0  0  0  0
   -0.4544   20.8771  -21.2558 C   0  0  0  0  0  0  0  0  0  0  0  0
   -0.9865   20.7626  -22.5350 C   0  0  0  0  0  0  0  0  0  0  0  0
   -1.2296   22.0798  -22.9721 C   0  0  0  0  0  0  0  0  0  0  0  0
   -0.8517   22.8848  -21.9871 N   0  0  0  0  0  0  0  0  0  0  0  0
   -0.3693   22.1909  -20.9150 C   0  0  0  0  0  0  0  0  0  0  0  0
    0.1277   22.5899  -19.6909 C   0  0  0  0  0  0  0  0  0  0  0  0
   -0.8804   23.9318  -21.8898 H   0  0  0  0  0  0  0  0  0  0  0  0
   -1.7036   22.3647  -24.3149 C   0  0  0  0  0  0  0  0  0  0  0  0
   -3.0429   22.5384  -24.6832 C   0  0  0  0  0  0  0  0  0  0  0  0
   -3.3160   22.7803  -26.0282 C   0  0  0  0  0  0  0  0  0  0  0  0
   -4.6079   22.9586  -26.4774 C   0  0  0  0  0  0  0  0  0  0  0  0
   -4.8199   23.1945  -27.8417 C   0  0  0  0  0  0  0  0  0  0  0  0
   -6.1014   23.3635  -28.2398 F   0  0  0  0  0  0  0  0  0  0  0  0
   -3.8175   23.2602  -28.7690 C   0  0  0  0  0  0  0  0  0  0  0  0
   -2.5303   23.0815  -28.3183 C   0  0  0  0  0  0  0  0  0  0  0  0
   -2.2931   22.8476  -26.9804 C   0  0  0  0  0  0  0  0  0  0  0  0
   -1.0384   22.6774  -26.5997 N   0  0  0  0  0  0  0  0  0  0  0  0
   -0.7389   22.4458  -25.3361 C   0  0  0  0  0  0  0  0  0  0  0  0
    0.4727   22.2781  -24.9945 O   0  0  0  0  0  0  0  0  0  0  0  0
   -0.2324   22.7205  -27.2911 H   0  0  0  0  0  0  0  0  0  0  0  0
   -4.0519   22.4222  -23.6514 C   0  0  0  0  0  0  0  0  0  0  0  0
   -4.4792   23.5228  -22.9579 O   0  0  0  0  0  0  0  0  0  0  0  0
   -5.3987   23.4094  -22.6167 H   0  0  0  0  0  0  0  0  0  0  0  0
    2.7068   23.1071  -13.7760 C   0  0  0  0  0  0  0  0  0  0  0  0
    1.9733   22.9637  -14.9938 N   0  0  0  0  0  0  0  0  0  0  0  0
    1.2626   21.6978  -15.0437 C   0  0  0  0  0  0  0  0  0  0  0  0
    0.4260   21.6472  -16.2897 C   0  0  0  0  0  0  0  0  0  0  0  0
    1.0719   22.0616  -17.4936 N   0  0  0  0  0  0  0  0  0  0  0  0
    2.2291   22.8984  -17.4474 C   0  0  0  0  0  0  0  0  0  0  0  0
    2.8785   23.0802  -16.1211 C   0  0  0  0  0  0  0  0  0  0  0  0
 27 28  1  0  0  0
 28 29  1  0  0  0
 29 30  1  0  0  0
 30 31  1  0  0  0
 31 32  1  0  0  0
 32 33  1  0  0  0
 31  1  1  0  0  0
  1  2  2  0  0  0
  2  3  1  0  0  0
  3  4  2  0  0  0
  4  5  1  0  0  0
  5  6  2  0  0  0
  6  7  1  0  0  0
  7  8  1  0  0  0
  8  9  2  0  0  0
  6 11  1  0  0  0
 11 12  2  0  0  0
 12 24  1  0  0  0
 24 25  1  0  0  0
 12 13  1  0  0  0
 13 14  2  0  0  0
 14 15  1  0  0  0
 15 16  1  0  0  0
 15 17  2  0  0  0
 17 18  1  0  0  0
 18 19  2  0  0  0
 19 20  1  0  0  0
 20 21  1  0  0  0
 21 22  2  0  0  0
 33 28  1  0  0  0
  9  1  1  0  0  0
 21 11  1  0  0  0
  8  4  1  0  0  0
 19 13  1  0  0  0
  7 10  1  0  0  0
 25 26  1  0  0  0
 20 23  1  0  0  0
M  END
> <minimizedAffinity>
-8.14602

> <CNNscore>
0.4000065625

> <CNNaffinity>
6.0720014572

> <CNN_VS>
2.4288403988

> <CNNaffinity_variance>
0.3832177222

$$$$
[H]OC([H])([H])c1c(-c2c([H])c3c([H])c([H])c(N4C([H])([H])C([H])([H])N(C([H])([H])[H])C([H])([H])C4([H])[H])c([H])c3n2[H])c(=O)n([H])c2c([H])c([H])c(F)c([H])c12


 33 37  0  0  0  0  0  0  0  0999 V2000
    0.6981   21.0948  -17.1705 C   0  0  0  0  0  0  0  0  0  0  0  0
    0.5463   19.7698  -17.5087 C   0  0  0  0  0  0  0  0  0  0  0  0
    0.2992   19.3622  -18.8054 C   0  0  0  0  0  0  0  0  0  0  0  0
    0.1982   20.3162  -19.8152 C   0  0  0  0  0  0  0  0  0  0  0  0
   -0.0391   20.1963  -21.1797 C   0  0  0  0  0  0  0  0  0  0  0  0
   -0.0318   21.5094  -21.6904 C   0  0  0  0  0  0  0  0  0  0  0  0
    0.1981   22.3173  -20.6631 N   0  0  0  0  0  0  0  0  0  0  0  0
    0.3463   21.6292  -19.4934 C   0  0  0  0  0  0  0  0  0  0  0  0
    0.5930   22.0328  -18.1969 C   0  0  0  0  0  0  0  0  0  0  0  0
    0.2624   23.3653  -20.5985 H   0  0  0  0  0  0  0  0  0  0  0  0
   -0.1549   21.7776  -23.1124 C   0  0  0  0  0  0  0  0  0  0  0  0
   -1.3494   22.0621  -23.7844 C   0  0  0  0  0  0  0  0  0  0  0  0
   -1.2820   22.2681  -25.1610 C   0  0  0  0  0  0  0  0  0  0  0  0
   -2.4118   22.5490  -25.9008 C   0  0  0  0  0  0  0  0  0  0  0  0
   -2.2813   22.7423  -27.2820 C   0  0  0  0  0  0  0  0  0  0  0  0
   -3.4136   23.0153  -27.9695 F   0  0  0  0  0  0  0  0  0  0  0  0
   -1.0926   22.6698  -27.9532 C   0  0  0  0  0  0  0  0  0  0  0  0
    0.0322   22.3890  -27.2130 C   0  0  0  0  0  0  0  0  0  0  0  0
   -0.0676   22.1941  -25.8518 C   0  0  0  0  0  0  0  0  0  0  0  0
    1.0427   21.9217  -25.1874 N   0  0  0  0  0  0  0  0  0  0  0  0
    1.0204   21.7196  -23.8840 C   0  0  0  0  0  0  0  0  0  0  0  0
    2.0980   21.4521  -23.2677 O   0  0  0  0  0  0  0  0  0  0  0  0
    1.9851   21.8560  -25.6742 H   0  0  0  0  0  0  0  0  0  0  0  0
   -2.5736   22.0898  -23.0118 C   0  0  0  0  0  0  0  0  0  0  0  0
   -3.3902   20.9927  -22.9476 O   0  0  0  0  0  0  0  0  0  0  0  0
   -3.9219   20.9770  -22.1158 H   0  0  0  0  0  0  0  0  0  0  0  0
    1.5775   22.9328  -11.9332 C   0  0  0  0  0  0  0  0  0  0  0  0
    1.5407   22.2452  -13.1852 N   0  0  0  0  0  0  0  0  0  0  0  0
    2.1033   23.0516  -14.2545 C   0  0  0  0  0  0  0  0  0  0  0  0
    2.1391   22.2432  -15.5195 C   0  0  0  0  0  0  0  0  0  0  0  0
    0.9507   21.5153  -15.8299 N   0  0  0  0  0  0  0  0  0  0  0  0
    0.0062   21.1942  -14.8071 C   0  0  0  0  0  0  0  0  0  0  0  0
    0.1725   21.8772  -13.4957 C   0  0  0  0  0  0  0  0  0  0  0  0
 27 28  1  0  0  0
 28 29  1  0  0  0
 29 30  1  0  0  0
 30 31  1  0  0  0
 31 32  1  0  0  0
 32 33  1  0  0  0
 31  1  1  0  0  0
  1  2  2  0  0  0
  2  3  1  0  0  0
  3  4  2  0  0  0
  4  5  1  0  0  0
  5  6  2  0  0  0
  6  7  1  0  0  0
  7  8  1  0  0  0
  8  9  2  0  0  0
  6 11  1  0  0  0
 11 12  2  0  0  0
 12 24  1  0  0  0
 24 25  1  0  0  0
 12 13  1  0  0  0
 13 14  2  0  0  0
 14 15  1  0  0  0
 15 16  1  0  0  0
 15 17  2  0  0  0
 17 18  1  0  0  0
 18 19  2  0  0  0
 19 20  1  0  0  0
 20 21  1  0  0  0
 21 22  2  0  0  0
 33 28  1  0  0  0
  9  1  1  0  0  0
 21 11  1  0  0  0
  8  4  1  0  0  0
 19 13  1  0  0  0
  7 10  1  0  0  0
 25 26  1  0  0  0
 20 23  1  0  0  0
M  END
> <minimizedAffinity>
-8.03000

> <CNNscore>
0.3527840972

> <CNNaffinity>
5.7376408577

> <CNN_VS>
2.0241484642

> <CNNaffinity_variance>
0.0336709358

$$$$
[H]OC([H])([H])c1c(-c2c([H])c3c([H])c([H])c(N4C([H])([H])C([H])([H])N(C([H])([H])[H])C([H])([H])C4([H])[H])c([H])c3n2[H])c(=O)n([H])c2c([H])c([H])c(F)c([H])c12


 33 37  0  0  0  0  0  0  0  0999 V2000
   -5.4392   23.7874  -22.3491 C   0  0  0  0  0  0  0  0  0  0  0  0
   -5.7072   22.7440  -23.2050 C   0  0  0  0  0  0  0  0  0  0  0  0
   -4.7344   21.8482  -23.6048 C   0  0  0  0  0  0  0  0  0  0  0  0
   -3.4325   21.9954  -23.1319 C   0  0  0  0  0  0  0  0  0  0  0  0
   -2.2768   21.2580  -23.3616 C   0  0  0  0  0  0  0  0  0  0  0  0
   -1.2624   21.8849  -22.6111 C   0  0  0  0  0  0  0  0  0  0  0  0
   -1.8254   22.9170  -21.9957 N   0  0  0  0  0  0  0  0  0  0  0  0
   -3.1552   23.0230  -22.2854 C   0  0  0  0  0  0  0  0  0  0  0  0
   -4.1295   23.9160  -21.8881 C   0  0  0  0  0  0  0  0  0  0  0  0
   -1.4267   23.6543  -21.3601 H   0  0  0  0  0  0  0  0  0  0  0  0
    0.0788   21.3342  -22.5283 C   0  0  0  0  0  0  0  0  0  0  0  0
    0.5543   20.5054  -21.5053 C   0  0  0  0  0  0  0  0  0  0  0  0
    1.8829   20.0907  -21.5758 C   0  0  0  0  0  0  0  0  0  0  0  0
    2.4331   19.2770  -20.6075 C   0  0  0  0  0  0  0  0  0  0  0  0
    3.7756   18.8966  -20.7309 C   0  0  0  0  0  0  0  0  0  0  0  0
    4.2753   18.0987  -19.7599 F   0  0  0  0  0  0  0  0  0  0  0  0
    4.5864   19.2841  -21.7611 C   0  0  0  0  0  0  0  0  0  0  0  0
    4.0351   20.0959  -22.7249 C   0  0  0  0  0  0  0  0  0  0  0  0
    2.7162   20.4855  -22.6281 C   0  0  0  0  0  0  0  0  0  0  0  0
    2.2364   21.2704  -23.5779 N   0  0  0  0  0  0  0  0  0  0  0  0
    0.9844   21.6849  -23.5466 C   0  0  0  0  0  0  0  0  0  0  0  0
    0.5473   22.4443  -24.4657 O   0  0  0  0  0  0  0  0  0  0  0  0
    2.8359   21.5933  -24.3938 H   0  0  0  0  0  0  0  0  0  0  0  0
   -0.3535   20.1639  -20.4303 C   0  0  0  0  0  0  0  0  0  0  0  0
   -0.6980   21.0876  -19.4801 O   0  0  0  0  0  0  0  0  0  0  0  0
   -1.5824   20.8972  -19.0846 H   0  0  0  0  0  0  0  0  0  0  0  0
   -9.5278   27.2657  -20.6858 C   0  0  0  0  0  0  0  0  0  0  0  0
   -8.3496   26.6340  -21.1904 N   0  0  0  0  0  0  0  0  0  0  0  0
   -8.6426   25.7987  -22.3422 C   0  0  0  0  0  0  0  0  0  0  0  0
   -7.3595   25.2486  -22.8954 C   0  0  0  0  0  0  0  0  0  0  0  0
   -6.4445   24.7141  -21.9387 N   0  0  0  0  0  0  0  0  0  0  0  0
   -6.5184   25.1022  -20.5656 C   0  0  0  0  0  0  0  0  0  0  0  0
   -7.7335   25.8474  -20.1389 C   0  0  0  0  0  0  0  0  0  0  0  0
 27 28  1  0  0  0
 28 29  1  0  0  0
 29 30  1  0  0  0
 30 31  1  0  0  0
 31 32  1  0  0  0
 32 33  1  0  0  0
 31  1  1  0  0  0
  1  2  2  0  0  0
  2  3  1  0  0  0
  3  4  2  0  0  0
  4  5  1  0  0  0
  5  6  2  0  0  0
  6  7  1  0  0  0
  7  8  1  0  0  0
  8  9  2  0  0  0
  6 11  1  0  0  0
 11 12  2  0  0  0
 12 24  1  0  0  0
 24 25  1  0  0  0
 12 13  1  0  0  0
 13 14  2  0  0  0
 14 15  1  0  0  0
 15 16  1  0  0  0
 15 17  2  0  0  0
 17 18  1  0  0  0
 18 19  2  0  0  0
 19 20  1  0  0  0
 20 21  1  0  0  0
 21 22  2  0  0  0
 33 28  1  0  0  0
  9  1  1  0  0  0
 21 11  1  0  0  0
  8  4  1  0  0  0
 19 13  1  0  0  0
  7 10  1  0  0  0
 25 26  1  0  0  0
 20 23  1  0  0  0
M  END
> <minimizedAffinity>
-6.98790

> <CNNscore>
0.3184919357

> <CNNaffinity>
5.8148603439

> <CNN_VS>
1.8519861698

> <CNNaffinity_variance>
0.1958126575

$$$$
[H]OC([H])([H])c1c(-c2c([H])c3c([H])c([H])c(N4C([H])([H])C([H])([H])N(C([H])([H])[H])C([H])([H])C4([H])[H])c([H])c3n2[H])c(=O)n([H])c2c([H])c([H])c(F)c([H])c12


 33 37  0  0  0  0  0  0  0  0999 V2000
   -7.2507   24.3206  -22.0777 C   0  0  0  0  0  0  0  0  0  0  0  0
   -7.5657   22.9817  -22.1143 C   0  0  0  0  0  0  0  0  0  0  0  0
   -6.6090   22.0028  -22.3010 C   0  0  0  0  0  0  0  0  0  0  0  0
   -5.2749   22.3708  -22.4587 C   0  0  0  0  0  0  0  0  0  0  0  0
   -4.1250   21.6155  -22.6576 C   0  0  0  0  0  0  0  0  0  0  0  0
   -3.0655   22.5400  -22.7467 C   0  0  0  0  0  0  0  0  0  0  0  0
   -3.5989   23.7468  -22.6042 N   0  0  0  0  0  0  0  0  0  0  0  0
   -4.9510   23.6912  -22.4245 C   0  0  0  0  0  0  0  0  0  0  0  0
   -5.9095   24.6665  -22.2378 C   0  0  0  0  0  0  0  0  0  0  0  0
   -3.1710   24.7074  -22.6267 H   0  0  0  0  0  0  0  0  0  0  0  0
   -1.6831   22.1102  -22.8622 C   0  0  0  0  0  0  0  0  0  0  0  0
   -0.8817   21.6615  -21.8058 C   0  0  0  0  0  0  0  0  0  0  0  0
    0.4356   21.3131  -22.0982 C   0  0  0  0  0  0  0  0  0  0  0  0
    1.2944   20.8656  -21.1160 C   0  0  0  0  0  0  0  0  0  0  0  0
    2.6085   20.5342  -21.4705 C   0  0  0  0  0  0  0  0  0  0  0  0
    3.4173   20.1001  -20.4773 F   0  0  0  0  0  0  0  0  0  0  0  0
    3.1016   20.6265  -22.7422 C   0  0  0  0  0  0  0  0  0  0  0  0
    2.2430   21.0735  -23.7194 C   0  0  0  0  0  0  0  0  0  0  0  0
    0.9443   21.4067  -23.3982 C   0  0  0  0  0  0  0  0  0  0  0  0
    0.1612   21.8360  -24.3733 N   0  0  0  0  0  0  0  0  0  0  0  0
   -1.0912   22.1761  -24.1370 C   0  0  0  0  0  0  0  0  0  0  0  0
   -1.8228   22.5927  -25.0877 O   0  0  0  0  0  0  0  0  0  0  0  0
    0.5086   21.9221  -25.3740 H   0  0  0  0  0  0  0  0  0  0  0  0
   -1.4638   21.6218  -20.4807 C   0  0  0  0  0  0  0  0  0  0  0  0
   -1.9342   20.4490  -19.9536 O   0  0  0  0  0  0  0  0  0  0  0  0
   -1.9089   20.4521  -18.9666 H   0  0  0  0  0  0  0  0  0  0  0  0
  -11.2552   28.1635  -21.1958 C   0  0  0  0  0  0  0  0  0  0  0  0
  -10.1331   27.3860  -21.6177 N   0  0  0  0  0  0  0  0  0  0  0  0
  -10.5496   26.1604  -22.2769 C   0  0  0  0  0  0  0  0  0  0  0  0
   -9.3384   25.4386  -22.7937 C   0  0  0  0  0  0  0  0  0  0  0  0
   -8.2404   25.3316  -21.8875 N   0  0  0  0  0  0  0  0  0  0  0  0
   -8.1148   26.2342  -20.7871 C   0  0  0  0  0  0  0  0  0  0  0  0
   -9.2946   27.0848  -20.4731 C   0  0  0  0  0  0  0  0  0  0  0  0
 27 28  1  0  0  0
 28 29  1  0  0  0
 29 30  1  0  0  0
 30 31  1  0  0  0
 31 32  1  0  0  0
 32 33  1  0  0  0
 31  1  1  0  0  0
  1  2  2  0  0  0
  2  3  1  0  0  0
  3  4  2  0  0  0
  4  5  1  0  0  0
  5  6  2  0  0  0
  6  7  1  0  0  0
  7  8  1  0  0  0
  8  9  2  0  0  0
  6 11  1  0  0  0
 11 12  2  0  0  0
 12 24  1  0  0  0
 24 25  1  0  0  0
 12 13  1  0  0  0
 13 14  2  0  0  0
 14 15  1  0  0  0
 15 16  1  0  0  0
 15 17  2  0  0  0
 17 18  1  0  0  0
 18 19  2  0  0  0
 19 20  1  0  0  0
 20 21  1  0  0  0
 21 22  2  0  0  0
 33 28  1  0  0  0
  9  1  1  0  0  0
 21 11  1  0  0  0
  8  4  1  0  0  0
 19 13  1  0  0  0
  7 10  1  0  0  0
 25 26  1  0  0  0
 20 23  1  0  0  0
M  END
> <minimizedAffinity>
-7.90028

> <CNNscore>
0.2328496277

> <CNNaffinity>
5.6191987991

> <CNN_VS>
1.3084284067

> <CNNaffinity_variance>
0.0364271998

$$$$
[H]OC([H])([H])c1c(-c2c([H])c3c([H])c([H])c(N4C([H])([H])C([H])([H])N(C([H])([H])[H])C([H])([H])C4([H])[H])c([H])c3n2[H])c(=O)n([H])c2c([H])c([H])c(F)c([H])c12


 33 37  0  0  0  0  0  0  0  0999 V2000
    3.0482   20.5837  -17.1577 C   0  0  0  0  0  0  0  0  0  0  0  0
    2.9976   19.2617  -17.5356 C   0  0  0  0  0  0  0  0  0  0  0  0
    2.4015   18.8523  -18.7128 C   0  0  0  0  0  0  0  0  0  0  0  0
    1.8280   19.8015  -19.5557 C   0  0  0  0  0  0  0  0  0  0  0  0
    1.1747   19.6790  -20.7765 C   0  0  0  0  0  0  0  0  0  0  0  0
    0.8122   20.9871  -21.1541 C   0  0  0  0  0  0  0  0  0  0  0  0
    1.2422   21.7949  -20.1931 N   0  0  0  0  0  0  0  0  0  0  0  0
    1.8716   21.1114  -19.1930 C   0  0  0  0  0  0  0  0  0  0  0  0
    2.4680   21.5167  -18.0162 C   0  0  0  0  0  0  0  0  0  0  0  0
    1.1632   22.8363  -20.0678 H   0  0  0  0  0  0  0  0  0  0  0  0
    0.1869   21.2679  -22.4345 C   0  0  0  0  0  0  0  0  0  0  0  0
    0.8650   21.4635  -23.6434 C   0  0  0  0  0  0  0  0  0  0  0  0
    0.1007   21.7504  -24.7728 C   0  0  0  0  0  0  0  0  0  0  0  0
    0.6886   21.9616  -26.0026 C   0  0  0  0  0  0  0  0  0  0  0  0
   -0.1320   22.2502  -27.1005 C   0  0  0  0  0  0  0  0  0  0  0  0
    0.4849   22.4505  -28.2873 F   0  0  0  0  0  0  0  0  0  0  0  0
   -1.4946   22.3375  -27.0321 C   0  0  0  0  0  0  0  0  0  0  0  0
   -2.0780   22.1270  -25.8044 C   0  0  0  0  0  0  0  0  0  0  0  0
   -1.2940   21.8413  -24.7069 C   0  0  0  0  0  0  0  0  0  0  0  0
   -1.9037   21.6527  -23.5489 N   0  0  0  0  0  0  0  0  0  0  0  0
   -1.2156   21.3799  -22.4570 C   0  0  0  0  0  0  0  0  0  0  0  0
   -1.8218   21.2098  -21.3543 O   0  0  0  0  0  0  0  0  0  0  0  0
   -2.9606   21.7133  -23.4559 H   0  0  0  0  0  0  0  0  0  0  0  0
    2.3109   21.3879  -23.6314 C   0  0  0  0  0  0  0  0  0  0  0  0
    2.9524   20.1785  -23.6562 O   0  0  0  0  0  0  0  0  0  0  0  0
    3.8537   20.2475  -24.0536 H   0  0  0  0  0  0  0  0  0  0  0  0
    5.6607   22.1979  -12.4512 C   0  0  0  0  0  0  0  0  0  0  0  0
    4.7474   21.8316  -13.4873 N   0  0  0  0  0  0  0  0  0  0  0  0
    4.8934   20.4350  -13.8593 C   0  0  0  0  0  0  0  0  0  0  0  0
    3.8413   20.0778  -14.8695 C   0  0  0  0  0  0  0  0  0  0  0  0
    3.6620   21.0054  -15.9399 N   0  0  0  0  0  0  0  0  0  0  0  0
    4.0868   22.3629  -15.8050 C   0  0  0  0  0  0  0  0  0  0  0  0
    4.9550   22.6863  -14.6406 C   0  0  0  0  0  0  0  0  0  0  0  0
 27 28  1  0  0  0
 28 29  1  0  0  0
 29 30  1  0  0  0
 30 31  1  0  0  0
 31 32  1  0  0  0
 32 33  1  0  0  0
 31  1  1  0  0  0
  1  2  2  0  0  0
  2  3  1  0  0  0
  3  4  2  0  0  0
  4  5  1  0  0  0
  5  6  2  0  0  0
  6  7  1  0  0  0
  7  8  1  0  0  0
  8  9  2  0  0  0
  6 11  1  0  0  0
 11 12  2  0  0  0
 12 24  1  0  0  0
 24 25  1  0  0  0
 12 13  1  0  0  0
 13 14  2  0  0  0
 14 15  1  0  0  0
 15 16  1  0  0  0
 15 17  2  0  0  0
 17 18  1  0  0  0
 18 19  2  0  0  0
 19 20  1  0  0  0
 20 21  1  0  0  0
 21 22  2  0  0  0
 33 28  1  0  0  0
  9  1  1  0  0  0
 21 11  1  0  0  0
  8  4  1  0  0  0
 19 13  1  0  0  0
  7 10  1  0  0  0
 25 26  1  0  0  0
 20 23  1  0  0  0
M  END
> <minimizedAffinity>
-7.13502

> <CNNscore>
0.2322957814

> <CNNaffinity>
5.2103924751

> <CNN_VS>
1.2103521824

> <CNNaffinity_variance>
0.1426683962

$$$$
[H]OC([H])([H])c1c(-c2c([H])c3c([H])c([H])c(N4C([H])([H])C([H])([H])N(C([H])([H])[H])C([H])([H])C4([H])[H])c([H])c3n2[H])c(=O)n([H])c2c([H])c([H])c(F)c([H])c12


 33 37  0  0  0  0  0  0  0  0999 V2000
   -4.0186   22.1701  -24.1028 C   0  0  0  0  0  0  0  0  0  0  0  0
   -5.3382   22.2062  -24.4905 C   0  0  0  0  0  0  0  0  0  0  0  0
   -6.3767   22.1703  -23.5801 C   0  0  0  0  0  0  0  0  0  0  0  0
   -6.0912   22.0950  -22.2188 C   0  0  0  0  0  0  0  0  0  0  0  0
   -6.9179   22.0462  -21.1023 C   0  0  0  0  0  0  0  0  0  0  0  0
   -6.0589   21.9760  -19.9877 C   0  0  0  0  0  0  0  0  0  0  0  0
   -4.8189   21.9858  -20.4603 N   0  0  0  0  0  0  0  0  0  0  0  0
   -4.7906   22.0586  -21.8232 C   0  0  0  0  0  0  0  0  0  0  0  0
   -3.7557   22.0947  -22.7355 C   0  0  0  0  0  0  0  0  0  0  0  0
   -3.8862   21.9278  -19.9773 H   0  0  0  0  0  0  0  0  0  0  0  0
   -6.5670   22.0052  -18.6276 C   0  0  0  0  0  0  0  0  0  0  0  0
   -7.4483   21.0714  -18.0701 C   0  0  0  0  0  0  0  0  0  0  0  0
   -7.8525   21.2727  -16.7517 C   0  0  0  0  0  0  0  0  0  0  0  0
   -8.7223   20.4034  -16.1270 C   0  0  0  0  0  0  0  0  0  0  0  0
   -9.0953   20.6607  -14.8016 C   0  0  0  0  0  0  0  0  0  0  0  0
   -9.9498   19.7838  -14.2270 F   0  0  0  0  0  0  0  0  0  0  0  0
   -8.6481   21.7306  -14.0776 C   0  0  0  0  0  0  0  0  0  0  0  0
   -7.7813   22.5961  -14.7032 C   0  0  0  0  0  0  0  0  0  0  0  0
   -7.3977   22.3668  -16.0075 C   0  0  0  0  0  0  0  0  0  0  0  0
   -6.5669   23.2316  -16.5644 N   0  0  0  0  0  0  0  0  0  0  0  0
   -6.1615   23.0764  -17.8101 C   0  0  0  0  0  0  0  0  0  0  0  0
   -5.3691   23.9235  -18.3268 O   0  0  0  0  0  0  0  0  0  0  0  0
   -6.1984   24.0756  -16.0341 H   0  0  0  0  0  0  0  0  0  0  0  0
   -7.9043   19.9827  -18.9086 C   0  0  0  0  0  0  0  0  0  0  0  0
   -7.2852   18.7619  -18.8753 O   0  0  0  0  0  0  0  0  0  0  0  0
   -7.8960   18.0316  -19.1370 H   0  0  0  0  0  0  0  0  0  0  0  0
    0.2254   22.5207  -27.7698 C   0  0  0  0  0  0  0  0  0  0  0  0
   -0.8758   22.1503  -26.9380 N   0  0  0  0  0  0  0  0  0  0  0  0
   -2.0673   22.9180  -27.2556 C   0  0  0  0  0  0  0  0  0  0  0  0
   -3.2166   22.4146  -26.4304 C   0  0  0  0  0  0  0  0  0  0  0  0
   -2.9462   22.2046  -25.0444 N   0  0  0  0  0  0  0  0  0  0  0  0
   -1.6061   22.0209  -24.5843 C   0  0  0  0  0  0  0  0  0  0  0  0
   -0.5135   22.3319  -25.5453 C   0  0  0  0  0  0  0  0  0  0  0  0
 27 28  1  0  0  0
 28 29  1  0  0  0
 29 30  1  0  0  0
 30 31  1  0  0  0
 31 32  1  0  0  0
 32 33  1  0  0  0
 31  1  1  0  0  0
  1  2  2  0  0  0
  2  3  1  0  0  0
  3  4  2  0  0  0
  4  5  1  0  0  0
  5  6  2  0  0  0
  6  7  1  0  0  0
  7  8  1  0  0  0
  8  9  2  0  0  0
  6 11  1  0  0  0
 11 12  2  0  0  0
 12 24  1  0  0  0
 24 25  1  0  0  0
 12 13  1  0  0  0
 13 14  2  0  0  0
 14 15  1  0  0  0
 15 16  1  0  0  0
 15 17  2  0  0  0
 17 18  1  0  0  0
 18 19  2  0  0  0
 19 20  1  0  0  0
 20 21  1  0  0  0
 21 22  2  0  0  0
 33 28  1  0  0  0
  9  1  1  0  0  0
 21 11  1  0  0  0
  8  4  1  0  0  0
 19 13  1  0  0  0
  7 10  1  0  0  0
 25 26  1  0  0  0
 20 23  1  0  0  0
M  END
> <minimizedAffinity>
-6.77590

> <CNNscore>
0.1984687895

> <CNNaffinity>
5.3712811470

> <CNN_VS>
1.0660316944

> <CNNaffinity_variance>
0.0225363262

$$$$
[H]OC([H])([H])c1c(-c2c([H])c3c([H])c([H])c(N4C([H])([H])C([H])([H])N(C([H])([H])[H])C([H])([H])C4([H])[H])c([H])c3n2[H])c(=O)n([H])c2c([H])c([H])c(F)c([H])c12


 33 37  0  0  0  0  0  0  0  0999 V2000
   -6.6236   22.7415  -19.1788 C   0  0  0  0  0  0  0  0  0  0  0  0
   -7.4302   21.8085  -19.7887 C   0  0  0  0  0  0  0  0  0  0  0  0
   -7.3020   21.4820  -21.1249 C   0  0  0  0  0  0  0  0  0  0  0  0
   -6.3256   22.1122  -21.8928 C   0  0  0  0  0  0  0  0  0  0  0  0
   -5.9773   21.9833  -23.2324 C   0  0  0  0  0  0  0  0  0  0  0  0
   -4.9117   22.8806  -23.4430 C   0  0  0  0  0  0  0  0  0  0  0  0
   -4.6793   23.4770  -22.2806 N   0  0  0  0  0  0  0  0  0  0  0  0
   -5.5222   23.0364  -21.3013 C   0  0  0  0  0  0  0  0  0  0  0  0
   -5.6531   23.3600  -19.9661 C   0  0  0  0  0  0  0  0  0  0  0  0
   -3.9912   24.2225  -22.0025 H   0  0  0  0  0  0  0  0  0  0  0  0
   -4.2164   22.9569  -24.7158 C   0  0  0  0  0  0  0  0  0  0  0  0
   -2.8737   22.6233  -24.9285 C   0  0  0  0  0  0  0  0  0  0  0  0
   -2.3651   22.7841  -26.2160 C   0  0  0  0  0  0  0  0  0  0  0  0
   -1.0518   22.4834  -26.5115 C   0  0  0  0  0  0  0  0  0  0  0  0
   -0.5972   22.6695  -27.8233 C   0  0  0  0  0  0  0  0  0  0  0  0
    0.6967   22.3628  -28.0700 F   0  0  0  0  0  0  0  0  0  0  0  0
   -1.3799   23.1358  -28.8427 C   0  0  0  0  0  0  0  0  0  0  0  0
   -2.6888   23.4353  -28.5449 C   0  0  0  0  0  0  0  0  0  0  0  0
   -3.1625   23.2616  -27.2618 C   0  0  0  0  0  0  0  0  0  0  0  0
   -4.4268   23.5693  -27.0269 N   0  0  0  0  0  0  0  0  0  0  0  0
   -4.9454   23.4317  -25.8218 C   0  0  0  0  0  0  0  0  0  0  0  0
   -6.1601   23.7404  -25.6178 O   0  0  0  0  0  0  0  0  0  0  0  0
   -5.0659   23.9353  -27.7931 H   0  0  0  0  0  0  0  0  0  0  0  0
   -2.0988   22.1675  -23.7936 C   0  0  0  0  0  0  0  0  0  0  0  0
   -1.5166   23.0607  -22.9346 O   0  0  0  0  0  0  0  0  0  0  0  0
   -1.3939   22.6784  -22.0326 H   0  0  0  0  0  0  0  0  0  0  0  0
   -6.9819   23.9468  -13.7015 C   0  0  0  0  0  0  0  0  0  0  0  0
   -7.1455   23.7968  -15.1131 N   0  0  0  0  0  0  0  0  0  0  0  0
   -7.3530   22.4073  -15.4824 C   0  0  0  0  0  0  0  0  0  0  0  0
   -7.6264   22.3212  -16.9565 C   0  0  0  0  0  0  0  0  0  0  0  0
   -6.7586   23.0802  -17.7986 N   0  0  0  0  0  0  0  0  0  0  0  0
   -6.0219   24.1869  -17.2753 C   0  0  0  0  0  0  0  0  0  0  0  0
   -5.9832   24.3332  -15.7951 C   0  0  0  0  0  0  0  0  0  0  0  0
 27 28  1  0  0  0
 28 29  1  0  0  0
 29 30  1  0  0  0
 30 31  1  0  0  0
 31 32  1  0  0  0
 32 33  1  0  0  0
 31  1  1  0  0  0
  1  2  2  0  0  0
  2  3  1  0  0  0
  3  4  2  0  0  0
  4  5  1  0  0  0
  5  6  2  0  0  0
  6  7  1  0  0  0
  7  8  1  0  0  0
  8  9  2  0  0  0
  6 11  1  0  0  0
 11 12  2  0  0  0
 12 24  1  0  0  0
 24 25  1  0  0  0
 12 13  1  0  0  0
 13 14  2  0  0  0
 14 15  1  0  0  0
 15 16  1  0  0  0
 15 17  2  0  0  0
 17 18  1  0  0  0
 18 19  2  0  0  0
 19 20  1  0  0  0
 20 21  1  0  0  0
 21 22  2  0  0  0
 33 28  1  0  0  0
  9  1  1  0  0  0
 21 11  1  0  0  0
  8  4  1  0  0  0
 19 13  1  0  0  0
  7 10  1  0  0  0
 25 26  1  0  0  0
 20 23  1  0  0  0
M  END
> <minimizedAffinity>
-8.24725

> <CNNscore>
0.1854987144

> <CNNaffinity>
5.8675980568

> <CNN_VS>
1.0884319544

> <CNNaffinity_variance>
0.0130819259

$$$$
