[H]C([H])=C([H])C(=O)N1C([H])([H])C([H])([H])N(C([H])([H])c2c(-c3sc4c(OC([H])([H])[H])c([H])c(C([H])([H])[H])c([H])c4c3[H])c3c(N([H])[H])nc([H])nn3c2[H])C([H])([H])C1([H])[H]


 35 39  0  0  0  0  0  0  0  0999 V2000
   -2.0104   22.3036  -24.9080 C   0  0  0  0  0  0  0  0  0  0  0  0
   -3.3435   22.2839  -25.3545 C   0  0  0  0  0  0  0  0  0  0  0  0
   -3.3609   22.5561  -26.6904 C   0  0  0  0  0  0  0  0  0  0  0  0
   -2.0849   22.7402  -27.0644 N   0  0  0  0  0  0  0  0  0  0  0  0
   -1.6016   23.0373  -28.2526 N   0  0  0  0  0  0  0  0  0  0  0  0
   -0.2883   23.2027  -28.4403 C   0  0  0  0  0  0  0  0  0  0  0  0
    0.5832   23.0772  -27.4446 N   0  0  0  0  0  0  0  0  0  0  0  0
    0.1176   22.7686  -26.1952 C   0  0  0  0  0  0  0  0  0  0  0  0
    1.0720   22.6964  -25.1487 N   0  0  0  0  0  0  0  0  0  0  0  0
   -1.2314   22.5940  -25.9963 C   0  0  0  0  0  0  0  0  0  0  0  0
    1.1550   23.4644  -24.4264 H   0  0  0  0  0  0  0  0  0  0  0  0
    1.6990   21.8654  -25.1358 H   0  0  0  0  0  0  0  0  0  0  0  0
   -0.9316   22.0775  -19.5409 C   0  0  0  0  0  0  0  0  0  0  0  0
   -0.1626   21.1477  -18.8906 C   0  0  0  0  0  0  0  0  0  0  0  0
    0.4185   20.1714  -19.6460 C   0  0  0  0  0  0  0  0  0  0  0  0
    1.2612   19.1496  -18.9463 C   0  0  0  0  0  0  0  0  0  0  0  0
    0.2432   20.1204  -20.9933 C   0  0  0  0  0  0  0  0  0  0  0  0
   -0.5379   21.0532  -21.7069 C   0  0  0  0  0  0  0  0  0  0  0  0
   -0.7788   21.1002  -23.0244 C   0  0  0  0  0  0  0  0  0  0  0  0
   -1.5769   22.1086  -23.5177 C   0  0  0  0  0  0  0  0  0  0  0  0
   -1.9570   22.9519  -22.0808 S   0  0  0  0  0  0  0  0  0  0  0  0
   -1.1121   22.0241  -20.9329 C   0  0  0  0  0  0  0  0  0  0  0  0
   -2.6742   22.9044  -18.0275 C   0  0  0  0  0  0  0  0  0  0  0  0
   -1.5727   23.1152  -18.8871 O   0  0  0  0  0  0  0  0  0  0  0  0
   -4.4675   21.9610  -24.4548 C   0  0  0  0  0  0  0  0  0  0  0  0
   -5.4908   23.0282  -24.4458 N   0  0  0  0  0  0  0  0  0  0  0  0
   -5.0138   24.2481  -24.0023 C   0  0  0  0  0  0  0  0  0  0  0  0
   -5.4763   24.7248  -22.6524 C   0  0  0  0  0  0  0  0  0  0  0  0
   -6.8762   24.3390  -22.4678 N   0  0  0  0  0  0  0  0  0  0  0  0
   -7.0986   22.9106  -22.5747 C   0  0  0  0  0  0  0  0  0  0  0  0
   -6.6926   22.4920  -23.9538 C   0  0  0  0  0  0  0  0  0  0  0  0
   -7.8843   25.2934  -22.2119 C   0  0  0  0  0  0  0  0  0  0  0  0
   -7.5499   26.4991  -22.1447 O   0  0  0  0  0  0  0  0  0  0  0  0
   -9.2788   24.9442  -22.0250 C   0  0  0  0  0  0  0  0  0  0  0  0
  -10.2290   25.6315  -22.6301 C   0  0  0  0  0  0  0  0  0  0  0  0
 23 24  1  0  0  0
 24 13  1  0  0  0
 13 14  2  0  0  0
 14 15  1  0  0  0
 15 16  1  0  0  0
 15 17  2  0  0  0
 17 18  1  0  0  0
 18 19  1  0  0  0
 19 20  2  0  0  0
 20 21  1  0  0  0
 21 22  1  0  0  0
 20  1  1  0  0  0
  1  2  1  0  0  0
  2 25  1  0  0  0
 25 26  1  0  0  0
 26 27  1  0  0  0
 27 28  1  0  0  0
 28 29  1  0  0  0
 29 30  1  0  0  0
 30 31  1  0  0  0
 29 32  1  0  0  0
 32 33  2  0  0  0
 32 34  1  0  0  0
 34 35  2  0  0  0
  2  3  2  0  0  0
  3  4  1  0  0  0
  4  5  1  0  0  0
  5  6  2  0  0  0
  6  7  1  0  0  0
  7  8  2  0  0  0
  8  9  1  0  0  0
  8 10  1  0  0  0
 22 13  1  0  0  0
 10  1  2  0  0  0
 22 18  2  0  0  0
 31 26  1  0  0  0
 10  4  1  0  0  0
  9 11  1  0  0  0
  9 12  1  0  0  0
M  END
> <minimizedAffinity>
-8.56533

> <CNNscore>
0.6104024053

> <CNNaffinity>
7.1595735550

> <CNN_VS>
4.3702211380

> <CNNaffinity_variance>
0.0309237130

$$$$
[H]C([H])=C([H])C(=O)N1C([H])([H])C([H])([H])N(C([H])([H])c2c(-c3sc4c(OC([H])([H])[H])c([H])c(C([H])([H])[H])c([H])c4c3[H])c3c(N([H])[H])nc([H])nn3c2[H])C([H])([H])C1([H])[H]


 35 39  0  0  0  0  0  0  0  0999 V2000
   -1.8679   21.8296  -23.7395 C   0  0  0  0  0  0  0  0  0  0  0  0
   -3.2682   21.8888  -23.8529 C   0  0  0  0  0  0  0  0  0  0  0  0
   -3.5897   22.1898  -25.1431 C   0  0  0  0  0  0  0  0  0  0  0  0
   -2.4321   22.3151  -25.8112 N   0  0  0  0  0  0  0  0  0  0  0  0
   -2.2316   22.6118  -27.0783 N   0  0  0  0  0  0  0  0  0  0  0  0
   -0.9942   22.7125  -27.5746 C   0  0  0  0  0  0  0  0  0  0  0  0
    0.0819   22.5208  -26.8184 N   0  0  0  0  0  0  0  0  0  0  0  0
   -0.0875   22.2104  -25.4962 C   0  0  0  0  0  0  0  0  0  0  0  0
    1.0841   22.0664  -24.7103 N   0  0  0  0  0  0  0  0  0  0  0  0
   -1.3572   22.1021  -24.9805 C   0  0  0  0  0  0  0  0  0  0  0  0
    1.3802   22.8135  -24.0228 H   0  0  0  0  0  0  0  0  0  0  0  0
    1.6487   21.2038  -24.8551 H   0  0  0  0  0  0  0  0  0  0  0  0
    0.6917   21.6091  -18.9000 C   0  0  0  0  0  0  0  0  0  0  0  0
    1.1970   20.4950  -18.2819 C   0  0  0  0  0  0  0  0  0  0  0  0
    1.0720   19.3024  -18.9328 C   0  0  0  0  0  0  0  0  0  0  0  0
    1.6205   18.0777  -18.2671 C   0  0  0  0  0  0  0  0  0  0  0  0
    0.4694   19.2193  -20.1487 C   0  0  0  0  0  0  0  0  0  0  0  0
   -0.0655   20.3362  -20.8240 C   0  0  0  0  0  0  0  0  0  0  0  0
   -0.6765   20.3722  -22.0162 C   0  0  0  0  0  0  0  0  0  0  0  0
   -1.1259   21.5828  -22.4956 C   0  0  0  0  0  0  0  0  0  0  0  0
   -0.6616   22.6260  -21.2241 S   0  0  0  0  0  0  0  0  0  0  0  0
    0.0693   21.5225  -20.1562 C   0  0  0  0  0  0  0  0  0  0  0  0
    1.9302   23.6604  -18.3809 C   0  0  0  0  0  0  0  0  0  0  0  0
    0.7566   22.8744  -18.3429 O   0  0  0  0  0  0  0  0  0  0  0  0
   -4.1603   21.6058  -22.7122 C   0  0  0  0  0  0  0  0  0  0  0  0
   -4.6108   22.8453  -22.0436 N   0  0  0  0  0  0  0  0  0  0  0  0
   -4.3168   22.8834  -20.6929 C   0  0  0  0  0  0  0  0  0  0  0  0
   -5.4641   22.7486  -19.7291 C   0  0  0  0  0  0  0  0  0  0  0  0
   -6.6281   23.4464  -20.2776 N   0  0  0  0  0  0  0  0  0  0  0  0
   -7.0340   22.9538  -21.5791 C   0  0  0  0  0  0  0  0  0  0  0  0
   -5.8910   23.1718  -22.5213 C   0  0  0  0  0  0  0  0  0  0  0  0
   -7.2672   24.4927  -19.5780 C   0  0  0  0  0  0  0  0  0  0  0  0
   -6.8094   24.8174  -18.4578 O   0  0  0  0  0  0  0  0  0  0  0  0
   -8.4207   25.2034  -20.0935 C   0  0  0  0  0  0  0  0  0  0  0  0
   -8.2731   26.3531  -20.7244 C   0  0  0  0  0  0  0  0  0  0  0  0
 23 24  1  0  0  0
 24 13  1  0  0  0
 13 14  2  0  0  0
 14 15  1  0  0  0
 15 16  1  0  0  0
 15 17  2  0  0  0
 17 18  1  0  0  0
 18 19  1  0  0  0
 19 20  2  0  0  0
 20 21  1  0  0  0
 21 22  1  0  0  0
 20  1  1  0  0  0
  1  2  1  0  0  0
  2 25  1  0  0  0
 25 26  1  0  0  0
 26 27  1  0  0  0
 27 28  1  0  0  0
 28 29  1  0  0  0
 29 30  1  0  0  0
 30 31  1  0  0  0
 29 32  1  0  0  0
 32 33  2  0  0  0
 32 34  1  0  0  0
 34 35  2  0  0  0
  2  3  2  0  0  0
  3  4  1  0  0  0
  4  5  1  0  0  0
  5  6  2  0  0  0
  6  7  1  0  0  0
  7  8  2  0  0  0
  8  9  1  0  0  0
  8 10  1  0  0  0
 22 13  1  0  0  0
 10  1  2  0  0  0
 22 18  2  0  0  0
 31 26  1  0  0  0
 10  4  1  0  0  0
  9 11  1  0  0  0
  9 12  1  0  0  0
M  END
> <minimizedAffinity>
-7.59459

> <CNNscore>
0.4934574068

> <CNNaffinity>
6.8924140930

> <CNN_VS>
3.4011127949

> <CNNaffinity_variance>
0.1082869396

$$$$
[H]C([H])=C([H])C(=O)N1C([H])([H])C([H])([H])N(C([H])([H])c2c(-c3sc4c(OC([H])([H])[H])c([H])c(C([H])([H])[H])c([H])c4c3[H])c3c(N([H])[H])nc([H])nn3c2[H])C([H])([H])C1([H])[H]


 35 39  0  0  0  0  0  0  0  0999 V2000
   -3.5691   22.6214  -25.1288 C   0  0  0  0  0  0  0  0  0  0  0  0
   -4.9674   22.7689  -25.1301 C   0  0  0  0  0  0  0  0  0  0  0  0
   -5.3696   23.1092  -26.3876 C   0  0  0  0  0  0  0  0  0  0  0  0
   -4.2624   23.1728  -27.1440 N   0  0  0  0  0  0  0  0  0  0  0  0
   -4.1437   23.4760  -28.4198 N   0  0  0  0  0  0  0  0  0  0  0  0
   -2.9453   23.5076  -29.0116 C   0  0  0  0  0  0  0  0  0  0  0  0
   -1.8273   23.2378  -28.3452 N   0  0  0  0  0  0  0  0  0  0  0  0
   -1.9116   22.9182  -27.0171 C   0  0  0  0  0  0  0  0  0  0  0  0
   -0.6933   22.6897  -26.3281 N   0  0  0  0  0  0  0  0  0  0  0  0
   -3.1413   22.8808  -26.4035 C   0  0  0  0  0  0  0  0  0  0  0  0
   -0.2977   23.4063  -25.6585 H   0  0  0  0  0  0  0  0  0  0  0  0
   -0.1973   21.7961  -26.5262 H   0  0  0  0  0  0  0  0  0  0  0  0
   -0.2574   20.8670  -21.1318 C   0  0  0  0  0  0  0  0  0  0  0  0
    0.1174   21.5548  -20.0070 C   0  0  0  0  0  0  0  0  0  0  0  0
   -0.3900   22.8100  -19.8380 C   0  0  0  0  0  0  0  0  0  0  0  0
    0.0125   23.5714  -18.6124 C   0  0  0  0  0  0  0  0  0  0  0  0
   -1.2357   23.3602  -20.7493 C   0  0  0  0  0  0  0  0  0  0  0  0
   -1.6499   22.6928  -21.9208 C   0  0  0  0  0  0  0  0  0  0  0  0
   -2.4736   23.1341  -22.8815 C   0  0  0  0  0  0  0  0  0  0  0  0
   -2.7487   22.3099  -23.9503 C   0  0  0  0  0  0  0  0  0  0  0  0
   -1.8182   20.9348  -23.5456 S   0  0  0  0  0  0  0  0  0  0  0  0
   -1.1312   21.4362  -22.0729 C   0  0  0  0  0  0  0  0  0  0  0  0
    0.1599   18.5453  -20.4633 C   0  0  0  0  0  0  0  0  0  0  0  0
    0.1885   19.5880  -21.4164 O   0  0  0  0  0  0  0  0  0  0  0  0
   -5.7832   22.5242  -23.9253 C   0  0  0  0  0  0  0  0  0  0  0  0
   -5.8988   23.7335  -23.0825 N   0  0  0  0  0  0  0  0  0  0  0  0
   -5.6387   23.5020  -21.7442 C   0  0  0  0  0  0  0  0  0  0  0  0
   -6.8030   23.5497  -20.7927 C   0  0  0  0  0  0  0  0  0  0  0  0
   -7.7218   24.6058  -21.2208 N   0  0  0  0  0  0  0  0  0  0  0  0
   -8.2135   24.4278  -22.5727 C   0  0  0  0  0  0  0  0  0  0  0  0
   -7.0314   24.4576  -23.4911 C   0  0  0  0  0  0  0  0  0  0  0  0
   -8.0718   25.6778  -20.3718 C   0  0  0  0  0  0  0  0  0  0  0  0
   -7.5709   25.7071  -19.2236 O   0  0  0  0  0  0  0  0  0  0  0  0
   -8.9778   26.7388  -20.7655 C   0  0  0  0  0  0  0  0  0  0  0  0
  -10.2564   26.6823  -20.4440 C   0  0  0  0  0  0  0  0  0  0  0  0
 23 24  1  0  0  0
 24 13  1  0  0  0
 13 14  2  0  0  0
 14 15  1  0  0  0
 15 16  1  0  0  0
 15 17  2  0  0  0
 17 18  1  0  0  0
 18 19  1  0  0  0
 19 20  2  0  0  0
 20 21  1  0  0  0
 21 22  1  0  0  0
 20  1  1  0  0  0
  1  2  1  0  0  0
  2 25  1  0  0  0
 25 26  1  0  0  0
 26 27  1  0  0  0
 27 28  1  0  0  0
 28 29  1  0  0  0
 29 30  1  0  0  0
 30 31  1  0  0  0
 29 32  1  0  0  0
 32 33  2  0  0  0
 32 34  1  0  0  0
 34 35  2  0  0  0
  2  3  2  0  0  0
  3  4  1  0  0  0
  4  5  1  0  0  0
  5  6  2  0  0  0
  6  7  1  0  0  0
  7  8  2  0  0  0
  8  9  1  0  0  0
  8 10  1  0  0  0
 22 13  1  0  0  0
 10  1  2  0  0  0
 22 18  2  0  0  0
 31 26  1  0  0  0
 10  4  1  0  0  0
  9 11  1  0  0  0
  9 12  1  0  0  0
M  END
> <minimizedAffinity>
-7.06614

> <CNNscore>
0.3752907813

> <CNNaffinity>
7.1217241287

> <CNN_VS>
2.6727173328

> <CNNaffinity_variance>
0.5159038305

$$$$
[H]C([H])=C([H])C(=O)N1C([H])([H])C([H])([H])N(C([H])([H])c2c(-c3sc4c(OC([H])([H])[H])c([H])c(C([H])([H])[H])c([H])c4c3[H])c3c(N([H])[H])nc([H])nn3c2[H])C([H])([H])C1([H])[H]


 35 39  0  0  0  0  0  0  0  0999 V2000
   -2.2903   22.7917  -24.1452 C   0  0  0  0  0  0  0  0  0  0  0  0
   -1.1276   22.6529  -23.3668 C   0  0  0  0  0  0  0  0  0  0  0  0
   -0.0565   22.5243  -24.2004 C   0  0  0  0  0  0  0  0  0  0  0  0
   -0.5331   22.5796  -25.4541 N   0  0  0  0  0  0  0  0  0  0  0  0
    0.1172   22.4881  -26.5954 N   0  0  0  0  0  0  0  0  0  0  0  0
   -0.5301   22.5478  -27.7636 C   0  0  0  0  0  0  0  0  0  0  0  0
   -1.8490   22.6999  -27.8270 N   0  0  0  0  0  0  0  0  0  0  0  0
   -2.5586   22.7990  -26.6610 C   0  0  0  0  0  0  0  0  0  0  0  0
   -3.9686   22.9062  -26.7689 N   0  0  0  0  0  0  0  0  0  0  0  0
   -1.8985   22.7417  -25.4564 C   0  0  0  0  0  0  0  0  0  0  0  0
   -4.6007   22.0881  -26.5464 H   0  0  0  0  0  0  0  0  0  0  0  0
   -4.3508   23.8178  -27.0955 H   0  0  0  0  0  0  0  0  0  0  0  0
   -7.2652   22.5293  -21.8643 C   0  0  0  0  0  0  0  0  0  0  0  0
   -8.1676   23.5520  -21.7287 C   0  0  0  0  0  0  0  0  0  0  0  0
   -7.8135   24.7739  -22.2219 C   0  0  0  0  0  0  0  0  0  0  0  0
   -8.7917   25.8995  -22.0795 C   0  0  0  0  0  0  0  0  0  0  0  0
   -6.6115   24.9724  -22.8256 C   0  0  0  0  0  0  0  0  0  0  0  0
   -5.6509   23.9526  -22.9886 C   0  0  0  0  0  0  0  0  0  0  0  0
   -4.4428   24.0330  -23.5631 C   0  0  0  0  0  0  0  0  0  0  0  0
   -3.6573   22.9028  -23.6183 C   0  0  0  0  0  0  0  0  0  0  0  0
   -4.6722   21.7662  -22.8446 S   0  0  0  0  0  0  0  0  0  0  0  0
   -6.0236   22.7351  -22.4882 C   0  0  0  0  0  0  0  0  0  0  0  0
   -7.6273   20.9416  -20.0315 C   0  0  0  0  0  0  0  0  0  0  0  0
   -7.5066   21.2458  -21.4060 O   0  0  0  0  0  0  0  0  0  0  0  0
   -1.1602   22.7017  -21.8924 C   0  0  0  0  0  0  0  0  0  0  0  0
   -1.5308   21.3962  -21.3055 N   0  0  0  0  0  0  0  0  0  0  0  0
   -2.1074   21.4967  -20.0526 C   0  0  0  0  0  0  0  0  0  0  0  0
   -1.2936   21.0335  -18.8751 C   0  0  0  0  0  0  0  0  0  0  0  0
   -0.5205   19.8542  -19.2680 N   0  0  0  0  0  0  0  0  0  0  0  0
    0.3587   20.0917  -20.3957 C   0  0  0  0  0  0  0  0  0  0  0  0
   -0.4966   20.4803  -21.5615 C   0  0  0  0  0  0  0  0  0  0  0  0
   -0.6455   18.6221  -18.5906 C   0  0  0  0  0  0  0  0  0  0  0  0
   -1.4461   18.5577  -17.6288 O   0  0  0  0  0  0  0  0  0  0  0  0
    0.1048   17.4365  -18.9549 C   0  0  0  0  0  0  0  0  0  0  0  0
   -0.5191   16.3457  -19.3580 C   0  0  0  0  0  0  0  0  0  0  0  0
 23 24  1  0  0  0
 24 13  1  0  0  0
 13 14  2  0  0  0
 14 15  1  0  0  0
 15 16  1  0  0  0
 15 17  2  0  0  0
 17 18  1  0  0  0
 18 19  1  0  0  0
 19 20  2  0  0  0
 20 21  1  0  0  0
 21 22  1  0  0  0
 20  1  1  0  0  0
  1  2  1  0  0  0
  2 25  1  0  0  0
 25 26  1  0  0  0
 26 27  1  0  0  0
 27 28  1  0  0  0
 28 29  1  0  0  0
 29 30  1  0  0  0
 30 31  1  0  0  0
 29 32  1  0  0  0
 32 33  2  0  0  0
 32 34  1  0  0  0
 34 35  2  0  0  0
  2  3  2  0  0  0
  3  4  1  0  0  0
  4  5  1  0  0  0
  5  6  2  0  0  0
  6  7  1  0  0  0
  7  8  2  0  0  0
  8  9  1  0  0  0
  8 10  1  0  0  0
 22 13  1  0  0  0
 10  1  2  0  0  0
 22 18  2  0  0  0
 31 26  1  0  0  0
 10  4  1  0  0  0
  9 11  1  0  0  0
  9 12  1  0  0  0
M  END
> <minimizedAffinity>
-7.26631

> <CNNscore>
0.3275865018

> <CNNaffinity>
6.9082231522

> <CNN_VS>
2.2630405426

> <CNNaffinity_variance>
0.3191390038

$$$$
[H]C([H])=C([H])C(=O)N1C([H])([H])C([H])([H])N(C([H])([H])c2c(-c3sc4c(OC([H])([H])[H])c([H])c(C([H])([H])[H])c([H])c4c3[H])c3c(N([H])[H])nc([H])nn3c2[H])C([H])([H])C1([H])[H]


 35 39  0  0  0  0  0  0  0  0999 V2000
   -3.1530   23.4817  -25.0556 C   0  0  0  0  0  0  0  0  0  0  0  0
   -4.1140   24.3550  -24.5164 C   0  0  0  0  0  0  0  0  0  0  0  0
   -4.8320   24.8999  -25.5394 C   0  0  0  0  0  0  0  0  0  0  0  0
   -4.3366   24.3862  -26.6764 N   0  0  0  0  0  0  0  0  0  0  0  0
   -4.6967   24.6214  -27.9209 N   0  0  0  0  0  0  0  0  0  0  0  0
   -4.0727   24.0262  -28.9426 C   0  0  0  0  0  0  0  0  0  0  0  0
   -3.0678   23.1775  -28.7515 N   0  0  0  0  0  0  0  0  0  0  0  0
   -2.6660   22.9082  -27.4712 C   0  0  0  0  0  0  0  0  0  0  0  0
   -1.5563   22.0398  -27.3106 N   0  0  0  0  0  0  0  0  0  0  0  0
   -3.3056   23.5144  -26.4161 C   0  0  0  0  0  0  0  0  0  0  0  0
   -0.6028   22.4102  -27.0423 H   0  0  0  0  0  0  0  0  0  0  0  0
   -1.7179   21.0268  -27.4881 H   0  0  0  0  0  0  0  0  0  0  0  0
    1.1061   21.1152  -22.5494 C   0  0  0  0  0  0  0  0  0  0  0  0
    1.0742   20.3404  -21.4192 C   0  0  0  0  0  0  0  0  0  0  0  0
   -0.1432   20.1093  -20.8483 C   0  0  0  0  0  0  0  0  0  0  0  0
   -0.1906   19.2638  -19.6125 C   0  0  0  0  0  0  0  0  0  0  0  0
   -1.2834   20.6265  -21.3783 C   0  0  0  0  0  0  0  0  0  0  0  0
   -1.3016   21.4286  -22.5384 C   0  0  0  0  0  0  0  0  0  0  0  0
   -2.3575   21.9878  -23.1455 C   0  0  0  0  0  0  0  0  0  0  0  0
   -2.1491   22.7399  -24.2805 C   0  0  0  0  0  0  0  0  0  0  0  0
   -0.4515   22.6235  -24.4379 S   0  0  0  0  0  0  0  0  0  0  0  0
   -0.0723   21.6492  -23.0965 C   0  0  0  0  0  0  0  0  0  0  0  0
    3.4990   20.7640  -22.9518 C   0  0  0  0  0  0  0  0  0  0  0  0
    2.2773   21.4213  -23.2202 O   0  0  0  0  0  0  0  0  0  0  0  0
   -4.2733   24.5448  -23.0619 C   0  0  0  0  0  0  0  0  0  0  0  0
   -5.6135   24.1297  -22.5951 N   0  0  0  0  0  0  0  0  0  0  0  0
   -6.4169   25.1871  -22.2096 C   0  0  0  0  0  0  0  0  0  0  0  0
   -6.6962   25.3465  -20.7399 C   0  0  0  0  0  0  0  0  0  0  0  0
   -6.8387   24.0197  -20.1381 N   0  0  0  0  0  0  0  0  0  0  0  0
   -5.6719   23.1783  -20.3167 C   0  0  0  0  0  0  0  0  0  0  0  0
   -5.4730   22.9880  -21.7885 C   0  0  0  0  0  0  0  0  0  0  0  0
   -8.0134   23.6328  -19.4577 C   0  0  0  0  0  0  0  0  0  0  0  0
   -8.9481   24.4633  -19.3778 O   0  0  0  0  0  0  0  0  0  0  0  0
   -8.1859   22.3272  -18.8516 C   0  0  0  0  0  0  0  0  0  0  0  0
   -8.7084   21.3313  -19.5420 C   0  0  0  0  0  0  0  0  0  0  0  0
 23 24  1  0  0  0
 24 13  1  0  0  0
 13 14  2  0  0  0
 14 15  1  0  0  0
 15 16  1  0  0  0
 15 17  2  0  0  0
 17 18  1  0  0  0
 18 19  1  0  0  0
 19 20  2  0  0  0
 20 21  1  0  0  0
 21 22  1  0  0  0
 20  1  1  0  0  0
  1  2  1  0  0  0
  2 25  1  0  0  0
 25 26  1  0  0  0
 26 27  1  0  0  0
 27 28  1  0  0  0
 28 29  1  0  0  0
 29 30  1  0  0  0
 30 31  1  0  0  0
 29 32  1  0  0  0
 32 33  2  0  0  0
 32 34  1  0  0  0
 34 35  2  0  0  0
  2  3  2  0  0  0
  3  4  1  0  0  0
  4  5  1  0  0  0
  5  6  2  0  0  0
  6  7  1  0  0  0
  7  8  2  0  0  0
  8  9  1  0  0  0
  8 10  1  0  0  0
 22 13  1  0  0  0
 10  1  2  0  0  0
 22 18  2  0  0  0
 31 26  1  0  0  0
 10  4  1  0  0  0
  9 11  1  0  0  0
  9 12  1  0  0  0
M  END
> <minimizedAffinity>
-7.79966

> <CNNscore>
0.2782172561

> <CNNaffinity>
6.9619431496

> <CNN_VS>
1.9369326830

> <CNNaffinity_variance>
0.4668133855

$$$$
[H]C([H])=C([H])C(=O)N1C([H])([H])C([H])([H])N(C([H])([H])c2c(-c3sc4c(OC([H])([H])[H])c([H])c(C([H])([H])[H])c([H])c4c3[H])c3c(N([H])[H])nc([H])nn3c2[H])C([H])([H])C1([H])[H]


 35 39  0  0  0  0  0  0  0  0999 V2000
   -2.1864   22.2822  -24.1492 C   0  0  0  0  0  0  0  0  0  0  0  0
   -2.7065   21.6807  -22.9896 C   0  0  0  0  0  0  0  0  0  0  0  0
   -1.6811   21.1087  -22.2967 C   0  0  0  0  0  0  0  0  0  0  0  0
   -0.5612   21.3435  -22.9987 N   0  0  0  0  0  0  0  0  0  0  0  0
    0.6760   20.9770  -22.7369 N   0  0  0  0  0  0  0  0  0  0  0  0
    1.6767   21.2878  -23.5673 C   0  0  0  0  0  0  0  0  0  0  0  0
    1.4709   21.9744  -24.6867 N   0  0  0  0  0  0  0  0  0  0  0  0
    0.1975   22.3728  -24.9917 C   0  0  0  0  0  0  0  0  0  0  0  0
    0.0103   23.0559  -26.2202 N   0  0  0  0  0  0  0  0  0  0  0  0
   -0.8353   22.0592  -24.1403 C   0  0  0  0  0  0  0  0  0  0  0  0
   -0.4321   22.5777  -27.0533 H   0  0  0  0  0  0  0  0  0  0  0  0
    0.3455   24.0402  -26.2709 H   0  0  0  0  0  0  0  0  0  0  0  0
   -5.0320   25.4353  -27.6106 C   0  0  0  0  0  0  0  0  0  0  0  0
   -5.4501   25.1077  -28.8741 C   0  0  0  0  0  0  0  0  0  0  0  0
   -5.1470   23.8594  -29.3339 C   0  0  0  0  0  0  0  0  0  0  0  0
   -5.5987   23.4900  -30.7136 C   0  0  0  0  0  0  0  0  0  0  0  0
   -4.4566   22.9718  -28.5696 C   0  0  0  0  0  0  0  0  0  0  0  0
   -4.0057   23.2621  -27.2652 C   0  0  0  0  0  0  0  0  0  0  0  0
   -3.3220   22.4709  -26.4269 C   0  0  0  0  0  0  0  0  0  0  0  0
   -2.9799   22.9581  -25.1847 C   0  0  0  0  0  0  0  0  0  0  0  0
   -3.6450   24.5304  -25.2601 S   0  0  0  0  0  0  0  0  0  0  0  0
   -4.3188   24.5178  -26.8216 C   0  0  0  0  0  0  0  0  0  0  0  0
   -5.9142   26.8045  -25.7780 C   0  0  0  0  0  0  0  0  0  0  0  0
   -5.2772   26.6685  -27.0319 O   0  0  0  0  0  0  0  0  0  0  0  0
   -4.1386   21.7549  -22.6422 C   0  0  0  0  0  0  0  0  0  0  0  0
   -4.4675   23.0040  -21.9225 N   0  0  0  0  0  0  0  0  0  0  0  0
   -4.3659   22.8934  -20.5478 C   0  0  0  0  0  0  0  0  0  0  0  0
   -5.6446   22.8960  -19.7552 C   0  0  0  0  0  0  0  0  0  0  0  0
   -6.5870   23.8262  -20.3793 N   0  0  0  0  0  0  0  0  0  0  0  0
   -6.8801   23.5069  -21.7625 C   0  0  0  0  0  0  0  0  0  0  0  0
   -5.5949   23.5853  -22.5266 C   0  0  0  0  0  0  0  0  0  0  0  0
   -7.1364   24.9168  -19.6713 C   0  0  0  0  0  0  0  0  0  0  0  0
   -6.7947   25.0749  -18.4762 O   0  0  0  0  0  0  0  0  0  0  0  0
   -8.0711   25.8554  -20.2602 C   0  0  0  0  0  0  0  0  0  0  0  0
   -9.3651   25.5968  -20.2690 C   0  0  0  0  0  0  0  0  0  0  0  0
 23 24  1  0  0  0
 24 13  1  0  0  0
 13 14  2  0  0  0
 14 15  1  0  0  0
 15 16  1  0  0  0
 15 17  2  0  0  0
 17 18  1  0  0  0
 18 19  1  0  0  0
 19 20  2  0  0  0
 20 21  1  0  0  0
 21 22  1  0  0  0
 20  1  1  0  0  0
  1  2  1  0  0  0
  2 25  1  0  0  0
 25 26  1  0  0  0
 26 27  1  0  0  0
 27 28  1  0  0  0
 28 29  1  0  0  0
 29 30  1  0  0  0
 30 31  1  0  0  0
 29 32  1  0  0  0
 32 33  2  0  0  0
 32 34  1  0  0  0
 34 35  2  0  0  0
  2  3  2  0  0  0
  3  4  1  0  0  0
  4  5  1  0  0  0
  5  6  2  0  0  0
  6  7  1  0  0  0
  7  8  2  0  0  0
  8  9  1  0  0  0
  8 10  1  0  0  0
 22 13  1  0  0  0
 10  1  2  0  0  0
 22 18  2  0  0  0
 31 26  1  0  0  0
 10  4  1  0  0  0
  9 11  1  0  0  0
  9 12  1  0  0  0
M  END
> <minimizedAffinity>
-8.69662

> <CNNscore>
0.2677443326

> <CNNaffinity>
7.0337610245

> <CNN_VS>
1.8832496405

> <CNNaffinity_variance>
0.1344449520

$$$$
[H]C([H])=C([H])C(=O)N1C([H])([H])C([H])([H])N(C([H])([H])c2c(-c3sc4c(OC([H])([H])[H])c([H])c(C([H])([H])[H])c([H])c4c3[H])c3c(N([H])[H])nc([H])nn3c2[H])C([H])([H])C1([H])[H]


 35 39  0  0  0  0  0  0  0  0999 V2000
   -2.0881   22.2740  -24.0165 C   0  0  0  0  0  0  0  0  0  0  0  0
   -1.0496   21.6705  -23.2857 C   0  0  0  0  0  0  0  0  0  0  0  0
    0.0214   21.4960  -24.1111 C   0  0  0  0  0  0  0  0  0  0  0  0
   -0.3357   21.9725  -25.3142 N   0  0  0  0  0  0  0  0  0  0  0  0
    0.3583   22.0105  -26.4325 N   0  0  0  0  0  0  0  0  0  0  0  0
   -0.1697   22.5114  -27.5541 C   0  0  0  0  0  0  0  0  0  0  0  0
   -1.4095   22.9890  -27.5925 N   0  0  0  0  0  0  0  0  0  0  0  0
   -2.1611   22.9662  -26.4489 C   0  0  0  0  0  0  0  0  0  0  0  0
   -3.4963   23.4347  -26.5430 N   0  0  0  0  0  0  0  0  0  0  0  0
   -1.6228   22.4556  -25.2916 C   0  0  0  0  0  0  0  0  0  0  0  0
   -4.3149   22.7652  -26.5461 H   0  0  0  0  0  0  0  0  0  0  0  0
   -3.6326   24.4632  -26.6290 H   0  0  0  0  0  0  0  0  0  0  0  0
   -7.1120   22.6845  -21.8687 C   0  0  0  0  0  0  0  0  0  0  0  0
   -7.7974   23.8365  -21.5827 C   0  0  0  0  0  0  0  0  0  0  0  0
   -7.1850   25.0214  -21.8700 C   0  0  0  0  0  0  0  0  0  0  0  0
   -7.9244   26.2873  -21.5618 C   0  0  0  0  0  0  0  0  0  0  0  0
   -5.9419   25.0609  -22.4193 C   0  0  0  0  0  0  0  0  0  0  0  0
   -5.1978   23.9041  -22.7311 C   0  0  0  0  0  0  0  0  0  0  0  0
   -3.9735   23.8238  -23.2704 C   0  0  0  0  0  0  0  0  0  0  0  0
   -3.4276   22.5794  -23.4956 C   0  0  0  0  0  0  0  0  0  0  0  0
   -4.6822   21.5685  -22.9261 S   0  0  0  0  0  0  0  0  0  0  0  0
   -5.8278   22.7261  -22.4362 C   0  0  0  0  0  0  0  0  0  0  0  0
   -8.1795   21.0577  -20.3769 C   0  0  0  0  0  0  0  0  0  0  0  0
   -7.6247   21.4223  -21.6243 O   0  0  0  0  0  0  0  0  0  0  0  0
   -1.1787   21.3606  -21.8489 C   0  0  0  0  0  0  0  0  0  0  0  0
    0.0614   21.6685  -21.1047 N   0  0  0  0  0  0  0  0  0  0  0  0
    0.8736   20.5676  -20.9036 C   0  0  0  0  0  0  0  0  0  0  0  0
    0.9708   20.0234  -19.5044 C   0  0  0  0  0  0  0  0  0  0  0  0
    0.9507   21.1408  -18.5590 N   0  0  0  0  0  0  0  0  0  0  0  0
   -0.2342   21.9684  -18.6711 C   0  0  0  0  0  0  0  0  0  0  0  0
   -0.2536   22.5450  -20.0528 C   0  0  0  0  0  0  0  0  0  0  0  0
    2.0011   21.3595  -17.6418 C   0  0  0  0  0  0  0  0  0  0  0  0
    2.9683   20.5630  -17.6537 O   0  0  0  0  0  0  0  0  0  0  0  0
    2.0114   22.4561  -16.6937 C   0  0  0  0  0  0  0  0  0  0  0  0
    2.9474   23.3846  -16.7527 C   0  0  0  0  0  0  0  0  0  0  0  0
 23 24  1  0  0  0
 24 13  1  0  0  0
 13 14  2  0  0  0
 14 15  1  0  0  0
 15 16  1  0  0  0
 15 17  2  0  0  0
 17 18  1  0  0  0
 18 19  1  0  0  0
 19 20  2  0  0  0
 20 21  1  0  0  0
 21 22  1  0  0  0
 20  1  1  0  0  0
  1  2  1  0  0  0
  2 25  1  0  0  0
 25 26  1  0  0  0
 26 27  1  0  0  0
 27 28  1  0  0  0
 28 29  1  0  0  0
 29 30  1  0  0  0
 30 31  1  0  0  0
 29 32  1  0  0  0
 32 33  2  0  0  0
 32 34  1  0  0  0
 34 35  2  0  0  0
  2  3  2  0  0  0
  3  4  1  0  0  0
  4  5  1  0  0  0
  5  6  2  0  0  0
  6  7  1  0  0  0
  7  8  2  0  0  0
  8  9  1  0  0  0
  8 10  1  0  0  0
 22 13  1  0  0  0
 10  1  2  0  0  0
 22 18  2  0  0  0
 31 26  1  0  0  0
 10  4  1  0  0  0
  9 11  1  0  0  0
  9 12  1  0  0  0
M  END
> <minimizedAffinity>
-7.53299

> <CNNscore>
0.2561087310

> <CNNaffinity>
6.7785253525

> <CNN_VS>
1.7360395193

> <CNNaffinity_variance>
0.1082796007

$$$$
[H]C([H])=C([H])C(=O)N1C([H])([H])C([H])([H])N(C([H])([H])c2c(-c3sc4c(OC([H])([H])[H])c([H])c(C([H])([H])[H])c([H])c4c3[H])c3c(N([H])[H])nc([H])nn3c2[H])C([H])([H])C1([H])[H]


 35 39  0  0  0  0  0  0  0  0999 V2000
   -2.5703   22.8767  -24.9752 C   0  0  0  0  0  0  0  0  0  0  0  0
   -1.1696   22.7541  -24.9761 C   0  0  0  0  0  0  0  0  0  0  0  0
   -0.7326   22.7452  -26.2675 C   0  0  0  0  0  0  0  0  0  0  0  0
   -1.8211   22.8572  -27.0451 N   0  0  0  0  0  0  0  0  0  0  0  0
   -1.9051   22.8814  -28.3589 N   0  0  0  0  0  0  0  0  0  0  0  0
   -3.0892   22.9820  -28.9715 C   0  0  0  0  0  0  0  0  0  0  0  0
   -4.2270   23.0604  -28.2889 N   0  0  0  0  0  0  0  0  0  0  0  0
   -4.1788   23.0386  -26.9214 C   0  0  0  0  0  0  0  0  0  0  0  0
   -5.4166   23.0700  -26.2299 N   0  0  0  0  0  0  0  0  0  0  0  0
   -2.9642   22.9387  -26.2853 C   0  0  0  0  0  0  0  0  0  0  0  0
   -5.8123   22.2030  -25.7714 H   0  0  0  0  0  0  0  0  0  0  0  0
   -5.9262   23.9776  -26.2116 H   0  0  0  0  0  0  0  0  0  0  0  0
   -5.4514   22.1773  -20.3675 C   0  0  0  0  0  0  0  0  0  0  0  0
   -6.1618   23.1296  -19.6839 C   0  0  0  0  0  0  0  0  0  0  0  0
   -6.1778   24.3932  -20.1982 C   0  0  0  0  0  0  0  0  0  0  0  0
   -6.9509   25.4426  -19.4597 C   0  0  0  0  0  0  0  0  0  0  0  0
   -5.5150   24.6992  -21.3452 C   0  0  0  0  0  0  0  0  0  0  0  0
   -4.7713   23.7550  -22.0833 C   0  0  0  0  0  0  0  0  0  0  0  0
   -4.0836   23.9425  -23.2182 C   0  0  0  0  0  0  0  0  0  0  0  0
   -3.4229   22.8716  -23.7787 C   0  0  0  0  0  0  0  0  0  0  0  0
   -3.8058   21.6357  -22.6623 S   0  0  0  0  0  0  0  0  0  0  0  0
   -4.7670   22.4942  -21.5525 C   0  0  0  0  0  0  0  0  0  0  0  0
   -4.6357   20.4818  -18.7955 C   0  0  0  0  0  0  0  0  0  0  0  0
   -5.3587   20.8614  -19.9487 O   0  0  0  0  0  0  0  0  0  0  0  0
   -0.3860   22.7010  -23.7270 C   0  0  0  0  0  0  0  0  0  0  0  0
    0.0440   21.3237  -23.4038 N   0  0  0  0  0  0  0  0  0  0  0  0
   -0.2803   20.9303  -22.1184 C   0  0  0  0  0  0  0  0  0  0  0  0
    0.8456   20.7918  -21.1302 C   0  0  0  0  0  0  0  0  0  0  0  0
    2.0186   20.2534  -21.8209 N   0  0  0  0  0  0  0  0  0  0  0  0
    2.4557   21.0707  -22.9355 C   0  0  0  0  0  0  0  0  0  0  0  0
    1.3332   21.1231  -23.9249 C   0  0  0  0  0  0  0  0  0  0  0  0
    2.6372   19.0522  -21.4125 C   0  0  0  0  0  0  0  0  0  0  0  0
    2.1530   18.4456  -20.4289 O   0  0  0  0  0  0  0  0  0  0  0  0
    3.7989   18.4927  -22.0750 C   0  0  0  0  0  0  0  0  0  0  0  0
    3.7433   17.2963  -22.6293 C   0  0  0  0  0  0  0  0  0  0  0  0
 23 24  1  0  0  0
 24 13  1  0  0  0
 13 14  2  0  0  0
 14 15  1  0  0  0
 15 16  1  0  0  0
 15 17  2  0  0  0
 17 18  1  0  0  0
 18 19  1  0  0  0
 19 20  2  0  0  0
 20 21  1  0  0  0
 21 22  1  0  0  0
 20  1  1  0  0  0
  1  2  1  0  0  0
  2 25  1  0  0  0
 25 26  1  0  0  0
 26 27  1  0  0  0
 27 28  1  0  0  0
 28 29  1  0  0  0
 29 30  1  0  0  0
 30 31  1  0  0  0
 29 32  1  0  0  0
 32 33  2  0  0  0
 32 34  1  0  0  0
 34 35  2  0  0  0
  2  3  2  0  0  0
  3  4  1  0  0  0
  4  5  1  0  0  0
  5  6  2  0  0  0
  6  7  1  0  0  0
  7  8  2  0  0  0
  8  9  1  0  0  0
  8 10  1  0  0  0
 22 13  1  0  0  0
 10  1  2  0  0  0
 22 18  2  0  0  0
 31 26  1  0  0  0
 10  4  1  0  0  0
  9 11  1  0  0  0
  9 12  1  0  0  0
M  END
> <minimizedAffinity>
-7.28545

> <CNNscore>
0.1230173483

> <CNNaffinity>
6.8555769920

> <CNN_VS>
0.8433548808

> <CNNaffinity_variance>
0.2832313478

$$$$
[H]C([H])=C([H])C(=O)N1C([H])([H])C([H])([H])N(C([H])([H])c2c(-c3sc4c(OC([H])([H])[H])c([H])c(C([H])([H])[H])c([H])c4c3[H])c3c(N([H])[H])nc([H])nn3c2[H])C([H])([H])C1([H])[H]


 35 39  0  0  0  0  0  0  0  0999 V2000
   -4.2649   23.5807  -26.0312 C   0  0  0  0  0  0  0  0  0  0  0  0
   -3.2487   22.6787  -26.3928 C   0  0  0  0  0  0  0  0  0  0  0  0
   -2.8580   22.9500  -27.6705 C   0  0  0  0  0  0  0  0  0  0  0  0
   -3.6039   23.9833  -28.0920 N   0  0  0  0  0  0  0  0  0  0  0  0
   -3.5981   24.5907  -29.2603 N   0  0  0  0  0  0  0  0  0  0  0  0
   -4.4328   25.6039  -29.5140 C   0  0  0  0  0  0  0  0  0  0  0  0
   -5.3007   26.0407  -28.6070 N   0  0  0  0  0  0  0  0  0  0  0  0
   -5.3354   25.4337  -27.3809 C   0  0  0  0  0  0  0  0  0  0  0  0
   -6.3111   25.8922  -26.4594 N   0  0  0  0  0  0  0  0  0  0  0  0
   -4.4774   24.3936  -27.1126 C   0  0  0  0  0  0  0  0  0  0  0  0
   -7.1805   25.3268  -26.2526 H   0  0  0  0  0  0  0  0  0  0  0  0
   -6.1429   26.8173  -26.0125 H   0  0  0  0  0  0  0  0  0  0  0  0
   -7.1791   22.8859  -21.4437 C   0  0  0  0  0  0  0  0  0  0  0  0
   -7.1319   23.6545  -20.3098 C   0  0  0  0  0  0  0  0  0  0  0  0
   -6.2832   24.7228  -20.3079 C   0  0  0  0  0  0  0  0  0  0  0  0
   -6.2230   25.5702  -19.0741 C   0  0  0  0  0  0  0  0  0  0  0  0
   -5.5123   25.0163  -21.3887 C   0  0  0  0  0  0  0  0  0  0  0  0
   -5.5258   24.2563  -22.5768 C   0  0  0  0  0  0  0  0  0  0  0  0
   -4.8145   24.4509  -23.6959 C   0  0  0  0  0  0  0  0  0  0  0  0
   -4.9845   23.5810  -24.7503 C   0  0  0  0  0  0  0  0  0  0  0  0
   -6.1527   22.5143  -24.1037 S   0  0  0  0  0  0  0  0  0  0  0  0
   -6.3824   23.1898  -22.5599 C   0  0  0  0  0  0  0  0  0  0  0  0
   -8.7467   21.2614  -20.4871 C   0  0  0  0  0  0  0  0  0  0  0  0
   -7.9983   21.7774  -21.5689 O   0  0  0  0  0  0  0  0  0  0  0  0
   -2.7240   21.6699  -25.4524 C   0  0  0  0  0  0  0  0  0  0  0  0
   -1.8399   22.2738  -24.4326 N   0  0  0  0  0  0  0  0  0  0  0  0
   -0.4947   22.0575  -24.6688 C   0  0  0  0  0  0  0  0  0  0  0  0
    0.2259   21.1046  -23.7544 C   0  0  0  0  0  0  0  0  0  0  0  0
   -0.2949   21.2665  -22.3959 N   0  0  0  0  0  0  0  0  0  0  0  0
   -1.7232   21.0402  -22.2963 C   0  0  0  0  0  0  0  0  0  0  0  0
   -2.4029   22.0531  -23.1645 C   0  0  0  0  0  0  0  0  0  0  0  0
    0.5429   21.6101  -21.3131 C   0  0  0  0  0  0  0  0  0  0  0  0
    1.7633   21.7765  -21.5428 O   0  0  0  0  0  0  0  0  0  0  0  0
    0.0585   21.7782  -19.9571 C   0  0  0  0  0  0  0  0  0  0  0  0
   -0.3020   22.9689  -19.5167 C   0  0  0  0  0  0  0  0  0  0  0  0
 23 24  1  0  0  0
 24 13  1  0  0  0
 13 14  2  0  0  0
 14 15  1  0  0  0
 15 16  1  0  0  0
 15 17  2  0  0  0
 17 18  1  0  0  0
 18 19  1  0  0  0
 19 20  2  0  0  0
 20 21  1  0  0  0
 21 22  1  0  0  0
 20  1  1  0  0  0
  1  2  1  0  0  0
  2 25  1  0  0  0
 25 26  1  0  0  0
 26 27  1  0  0  0
 27 28  1  0  0  0
 28 29  1  0  0  0
 29 30  1  0  0  0
 30 31  1  0  0  0
 29 32  1  0  0  0
 32 33  2  0  0  0
 32 34  1  0  0  0
 34 35  2  0  0  0
  2  3  2  0  0  0
  3  4  1  0  0  0
  4  5  1  0  0  0
  5  6  2  0  0  0
  6  7  1  0  0  0
  7  8  2  0  0  0
  8  9  1  0  0  0
  8 10  1  0  0  0
 22 13  1  0  0  0
 10  1  2  0  0  0
 22 18  2  0  0  0
 31 26  1  0  0  0
 10  4  1  0  0  0
  9 11  1  0  0  0
  9 12  1  0  0  0
M  END
> <minimizedAffinity>
-7.16177

> <CNNscore>
0.1059111357

> <CNNaffinity>
6.9327445030

> <CNN_VS>
0.7342548370

> <CNNaffinity_variance>
0.4376111925

$$$$
[H]c1nc(N([H])[H])c(C([H])(C([H])([H])[H])C([H])([H])[H])c(N2C([H])([H])C([H])([H])N(C([H])([H])c3c(-c4sc5c(OC([H])([H])[H])c([H])c(C([H])([H])[H])c([H])c5c4[H])c4c(N([H])[H])nc([H])nn4c3[H])C([H])([H])C2([H])[H])n1


 43 48  0  0  0  0  0  0  0  0999 V2000
   -1.4883   22.0036  -25.1776 C   0  0  0  0  0  0  0  0  0  0  0  0
   -2.8158   21.5835  -25.4532 C   0  0  0  0  0  0  0  0  0  0  0  0
   -3.0482   21.8950  -26.7653 C   0  0  0  0  0  0  0  0  0  0  0  0
   -1.9407   22.4760  -27.2781 N   0  0  0  0  0  0  0  0  0  0  0  0
   -1.7910   22.9396  -28.5127 N   0  0  0  0  0  0  0  0  0  0  0  0
   -0.6246   23.5135  -28.8095 C   0  0  0  0  0  0  0  0  0  0  0  0
    0.3662   23.6322  -27.9245 N   0  0  0  0  0  0  0  0  0  0  0  0
    0.2095   23.1544  -26.6556 C   0  0  0  0  0  0  0  0  0  0  0  0
    1.2480   23.3628  -25.7171 N   0  0  0  0  0  0  0  0  0  0  0  0
   -0.9917   22.5486  -26.3231 C   0  0  0  0  0  0  0  0  0  0  0  0
    1.1740   24.1389  -25.0458 H   0  0  0  0  0  0  0  0  0  0  0  0
    2.0651   22.7394  -25.7136 H   0  0  0  0  0  0  0  0  0  0  0  0
   -0.1585   22.0767  -19.8876 C   0  0  0  0  0  0  0  0  0  0  0  0
    0.7237   21.2618  -19.2116 C   0  0  0  0  0  0  0  0  0  0  0  0
    1.3796   20.3306  -19.9827 C   0  0  0  0  0  0  0  0  0  0  0  0
    2.3414   19.4444  -19.2319 C   0  0  0  0  0  0  0  0  0  0  0  0
    1.1979   20.1927  -21.3199 C   0  0  0  0  0  0  0  0  0  0  0  0
    0.2966   21.0223  -22.0184 C   0  0  0  0  0  0  0  0  0  0  0  0
    0.0241   20.9818  -23.3427 C   0  0  0  0  0  0  0  0  0  0  0  0
   -0.8809   21.8638  -23.8494 C   0  0  0  0  0  0  0  0  0  0  0  0
   -1.3397   22.7436  -22.4219 S   0  0  0  0  0  0  0  0  0  0  0  0
   -0.3656   21.9532  -21.2764 C   0  0  0  0  0  0  0  0  0  0  0  0
   -1.9261   22.7791  -18.3421 C   0  0  0  0  0  0  0  0  0  0  0  0
   -0.9110   23.0783  -19.2735 O   0  0  0  0  0  0  0  0  0  0  0  0
   -3.7127   20.9464  -24.4634 C   0  0  0  0  0  0  0  0  0  0  0  0
   -4.8102   21.7692  -24.1248 N   0  0  0  0  0  0  0  0  0  0  0  0
   -4.5289   23.1544  -24.0196 C   0  0  0  0  0  0  0  0  0  0  0  0
   -4.7490   23.6437  -22.5835 C   0  0  0  0  0  0  0  0  0  0  0  0
   -6.1329   23.4472  -22.2666 N   0  0  0  0  0  0  0  0  0  0  0  0
   -6.7822   22.2966  -22.9037 C   0  0  0  0  0  0  0  0  0  0  0  0
   -5.6632   21.2692  -23.0731 C   0  0  0  0  0  0  0  0  0  0  0  0
   -6.8151   24.3009  -21.3813 C   0  0  0  0  0  0  0  0  0  0  0  0
   -6.3414   24.3354  -20.1038 N   0  0  0  0  0  0  0  0  0  0  0  0
   -6.8690   25.0930  -19.1504 C   0  0  0  0  0  0  0  0  0  0  0  0
   -7.9177   25.8635  -19.4530 N   0  0  0  0  0  0  0  0  0  0  0  0
   -8.4676   25.9003  -20.7082 C   0  0  0  0  0  0  0  0  0  0  0  0
   -9.5576   26.7550  -20.9563 N   0  0  0  0  0  0  0  0  0  0  0  0
   -7.9102   25.1141  -21.6682 C   0  0  0  0  0  0  0  0  0  0  0  0
  -10.5073   26.4844  -20.6659 H   0  0  0  0  0  0  0  0  0  0  0  0
   -9.4014   27.6614  -21.4244 H   0  0  0  0  0  0  0  0  0  0  0  0
   -8.4153   25.0747  -23.0441 C   0  0  0  0  0  0  0  0  0  0  0  0
   -9.8538   25.4894  -23.2386 C   0  0  0  0  0  0  0  0  0  0  0  0
   -7.6079   25.9667  -23.9951 C   0  0  0  0  0  0  0  0  0  0  0  0
 23 24  1  0  0  0
 24 13  1  0  0  0
 13 14  2  0  0  0
 14 15  1  0  0  0
 15 16  1  0  0  0
 15 17  2  0  0  0
 17 18  1  0  0  0
 18 19  1  0  0  0
 19 20  2  0  0  0
 20 21  1  0  0  0
 21 22  1  0  0  0
 20  1  1  0  0  0
  1  2  1  0  0  0
  2 25  1  0  0  0
 25 26  1  0  0  0
 26 27  1  0  0  0
 27 28  1  0  0  0
 28 29  1  0  0  0
 29 30  1  0  0  0
 30 31  1  0  0  0
 29 32  1  0  0  0
 32 33  2  0  0  0
 33 34  1  0  0  0
 34 35  2  0  0  0
 35 36  1  0  0  0
 36 37  1  0  0  0
 36 38  2  0  0  0
 38 41  1  0  0  0
 41 42  1  0  0  0
 41 43  1  0  0  0
  2  3  2  0  0  0
  3  4  1  0  0  0
  4  5  1  0  0  0
  5  6  2  0  0  0
  6  7  1  0  0  0
  7  8  2  0  0  0
  8  9  1  0  0  0
  8 10  1  0  0  0
 22 13  1  0  0  0
 10  1  2  0  0  0
 22 18  2  0  0  0
 31 26  1  0  0  0
 38 32  1  0  0  0
 10  4  1  0  0  0
 37 39  1  0  0  0
 37 40  1  0  0  0
  9 11  1  0  0  0
  9 12  1  0  0  0
M  END
> <minimizedAffinity>
-7.74812

> <CNNscore>
0.3681249321

> <CNNaffinity>
7.3288078308

> <CNN_VS>
2.6979169846

> <CNNaffinity_variance>
0.0550063029

$$$$
[H]c1nc(N([H])[H])c(C([H])(C([H])([H])[H])C([H])([H])[H])c(N2C([H])([H])C([H])([H])N(C([H])([H])c3c(-c4sc5c(OC([H])([H])[H])c([H])c(C([H])([H])[H])c([H])c5c4[H])c4c(N([H])[H])nc([H])nn4c3[H])C([H])([H])C2([H])[H])n1


 43 48  0  0  0  0  0  0  0  0999 V2000
   -1.7892   22.0772  -24.5949 C   0  0  0  0  0  0  0  0  0  0  0  0
   -3.1517   22.0167  -24.9878 C   0  0  0  0  0  0  0  0  0  0  0  0
   -3.1755   22.3134  -26.3235 C   0  0  0  0  0  0  0  0  0  0  0  0
   -1.9114   22.5485  -26.7403 N   0  0  0  0  0  0  0  0  0  0  0  0
   -1.5343   22.8926  -27.9654 N   0  0  0  0  0  0  0  0  0  0  0  0
   -0.2344   23.1159  -28.1614 C   0  0  0  0  0  0  0  0  0  0  0  0
    0.6704   23.0075  -27.1875 N   0  0  0  0  0  0  0  0  0  0  0  0
    0.2798   22.6534  -25.9286 C   0  0  0  0  0  0  0  0  0  0  0  0
    1.2502   22.6210  -24.8990 N   0  0  0  0  0  0  0  0  0  0  0  0
   -1.0652   22.4105  -25.6997 C   0  0  0  0  0  0  0  0  0  0  0  0
    1.3325   23.4209  -24.2572 H   0  0  0  0  0  0  0  0  0  0  0  0
    1.8628   21.8017  -24.8009 H   0  0  0  0  0  0  0  0  0  0  0  0
   -1.0302   21.9746  -19.1938 C   0  0  0  0  0  0  0  0  0  0  0  0
   -0.3900   21.0199  -18.4336 C   0  0  0  0  0  0  0  0  0  0  0  0
    0.1591   19.9731  -19.1370 C   0  0  0  0  0  0  0  0  0  0  0  0
    0.8560   18.9346  -18.2944 C   0  0  0  0  0  0  0  0  0  0  0  0
    0.0959   19.8532  -20.4867 C   0  0  0  0  0  0  0  0  0  0  0  0
   -0.5578   20.8256  -21.2713 C   0  0  0  0  0  0  0  0  0  0  0  0
   -0.6929   20.8183  -22.6171 C   0  0  0  0  0  0  0  0  0  0  0  0
   -1.3607   21.8454  -23.2109 C   0  0  0  0  0  0  0  0  0  0  0  0
   -1.7954   22.8141  -21.8344 S   0  0  0  0  0  0  0  0  0  0  0  0
   -1.1100   21.8728  -20.5974 C   0  0  0  0  0  0  0  0  0  0  0  0
   -2.8602   23.0256  -17.9477 C   0  0  0  0  0  0  0  0  0  0  0  0
   -1.6442   23.1064  -18.6563 O   0  0  0  0  0  0  0  0  0  0  0  0
   -4.2708   21.6946  -24.0746 C   0  0  0  0  0  0  0  0  0  0  0  0
   -5.1149   22.8045  -23.8467 N   0  0  0  0  0  0  0  0  0  0  0  0
   -5.1305   23.3009  -22.5191 C   0  0  0  0  0  0  0  0  0  0  0  0
   -6.5209   23.1339  -21.8953 C   0  0  0  0  0  0  0  0  0  0  0  0
   -7.4397   23.9138  -22.6710 N   0  0  0  0  0  0  0  0  0  0  0  0
   -7.1355   24.0336  -24.1008 C   0  0  0  0  0  0  0  0  0  0  0  0
   -6.4228   22.7280  -24.4525 C   0  0  0  0  0  0  0  0  0  0  0  0
   -8.5739   24.5098  -22.0908 C   0  0  0  0  0  0  0  0  0  0  0  0
   -9.1238   25.5451  -22.7861 N   0  0  0  0  0  0  0  0  0  0  0  0
  -10.1984   26.2086  -22.3782 C   0  0  0  0  0  0  0  0  0  0  0  0
  -10.7749   25.8469  -21.2284 N   0  0  0  0  0  0  0  0  0  0  0  0
  -10.2988   24.8189  -20.4564 C   0  0  0  0  0  0  0  0  0  0  0  0
  -10.9741   24.4813  -19.2690 N   0  0  0  0  0  0  0  0  0  0  0  0
   -9.1955   24.1548  -20.8948 C   0  0  0  0  0  0  0  0  0  0  0  0
  -10.8379   25.0411  -18.4161 H   0  0  0  0  0  0  0  0  0  0  0  0
  -11.6156   23.6730  -19.2567 H   0  0  0  0  0  0  0  0  0  0  0  0
   -8.6013   23.0396  -20.1513 C   0  0  0  0  0  0  0  0  0  0  0  0
   -8.0531   23.3670  -18.7833 C   0  0  0  0  0  0  0  0  0  0  0  0
   -9.5894   21.8890  -19.9234 C   0  0  0  0  0  0  0  0  0  0  0  0
 23 24  1  0  0  0
 24 13  1  0  0  0
 13 14  2  0  0  0
 14 15  1  0  0  0
 15 16  1  0  0  0
 15 17  2  0  0  0
 17 18  1  0  0  0
 18 19  1  0  0  0
 19 20  2  0  0  0
 20 21  1  0  0  0
 21 22  1  0  0  0
 20  1  1  0  0  0
  1  2  1  0  0  0
  2 25  1  0  0  0
 25 26  1  0  0  0
 26 27  1  0  0  0
 27 28  1  0  0  0
 28 29  1  0  0  0
 29 30  1  0  0  0
 30 31  1  0  0  0
 29 32  1  0  0  0
 32 33  2  0  0  0
 33 34  1  0  0  0
 34 35  2  0  0  0
 35 36  1  0  0  0
 36 37  1  0  0  0
 36 38  2  0  0  0
 38 41  1  0  0  0
 41 42  1  0  0  0
 41 43  1  0  0  0
  2  3  2  0  0  0
  3  4  1  0  0  0
  4  5  1  0  0  0
  5  6  2  0  0  0
  6  7  1  0  0  0
  7  8  2  0  0  0
  8  9  1  0  0  0
  8 10  1  0  0  0
 22 13  1  0  0  0
 10  1  2  0  0  0
 22 18  2  0  0  0
 31 26  1  0  0  0
 38 32  1  0  0  0
 10  4  1  0  0  0
 37 39  1  0  0  0
 37 40  1  0  0  0
  9 11  1  0  0  0
  9 12  1  0  0  0
M  END
> <minimizedAffinity>
-8.58089

> <CNNscore>
0.2186608464

> <CNNaffinity>
7.1261649132

> <CNN_VS>
1.5582132339

> <CNNaffinity_variance>
0.1068573818

$$$$
[H]c1nc(N([H])[H])c(C([H])(C([H])([H])[H])C([H])([H])[H])c(N2C([H])([H])C([H])([H])N(C([H])([H])c3c(-c4sc5c(OC([H])([H])[H])c([H])c(C([H])([H])[H])c([H])c5c4[H])c4c(N([H])[H])nc([H])nn4c3[H])C([H])([H])C2([H])[H])n1


 43 48  0  0  0  0  0  0  0  0999 V2000
   -1.3048   22.2043  -23.2254 C   0  0  0  0  0  0  0  0  0  0  0  0
   -2.6348   22.6890  -23.3277 C   0  0  0  0  0  0  0  0  0  0  0  0
   -2.8422   22.9526  -24.6544 C   0  0  0  0  0  0  0  0  0  0  0  0
   -1.7150   22.6565  -25.3390 N   0  0  0  0  0  0  0  0  0  0  0  0
   -1.5207   22.8045  -26.6436 N   0  0  0  0  0  0  0  0  0  0  0  0
   -0.3163   22.4862  -27.1190 C   0  0  0  0  0  0  0  0  0  0  0  0
    0.6702   22.0377  -26.3413 N   0  0  0  0  0  0  0  0  0  0  0  0
    0.4675   21.8864  -25.0001 C   0  0  0  0  0  0  0  0  0  0  0  0
    1.5545   21.4821  -24.1892 N   0  0  0  0  0  0  0  0  0  0  0  0
   -0.7774   22.2052  -24.4815 C   0  0  0  0  0  0  0  0  0  0  0  0
    2.0826   22.1906  -23.6622 H   0  0  0  0  0  0  0  0  0  0  0  0
    1.8071   20.4874  -24.1333 H   0  0  0  0  0  0  0  0  0  0  0  0
    1.2340   19.8715  -18.9981 C   0  0  0  0  0  0  0  0  0  0  0  0
    1.7343   20.4671  -17.8604 C   0  0  0  0  0  0  0  0  0  0  0  0
    1.5344   21.8248  -17.7659 C   0  0  0  0  0  0  0  0  0  0  0  0
    2.0869   22.4653  -16.5174 C   0  0  0  0  0  0  0  0  0  0  0  0
    0.8935   22.5621  -18.7069 C   0  0  0  0  0  0  0  0  0  0  0  0
    0.3794   21.9600  -19.8738 C   0  0  0  0  0  0  0  0  0  0  0  0
   -0.2712   22.5827  -20.8830 C   0  0  0  0  0  0  0  0  0  0  0  0
   -0.6995   21.8389  -21.9398 C   0  0  0  0  0  0  0  0  0  0  0  0
   -0.1621   20.2502  -21.4821 S   0  0  0  0  0  0  0  0  0  0  0  0
    0.5648   20.6155  -19.9907 C   0  0  0  0  0  0  0  0  0  0  0  0
    2.5132   17.9457  -19.8114 C   0  0  0  0  0  0  0  0  0  0  0  0
    1.3403   18.5064  -19.2661 O   0  0  0  0  0  0  0  0  0  0  0  0
   -3.5542   22.8540  -22.1799 C   0  0  0  0  0  0  0  0  0  0  0  0
   -4.7687   23.4746  -22.5489 N   0  0  0  0  0  0  0  0  0  0  0  0
   -4.9892   24.7640  -22.0031 C   0  0  0  0  0  0  0  0  0  0  0  0
   -6.2070   24.7563  -21.0719 C   0  0  0  0  0  0  0  0  0  0  0  0
   -7.3521   24.4068  -21.8598 N   0  0  0  0  0  0  0  0  0  0  0  0
   -7.1076   23.4936  -22.9812 C   0  0  0  0  0  0  0  0  0  0  0  0
   -5.9361   22.6261  -22.5218 C   0  0  0  0  0  0  0  0  0  0  0  0
   -8.6339   24.8999  -21.5569 C   0  0  0  0  0  0  0  0  0  0  0  0
   -9.0450   25.9764  -22.2848 N   0  0  0  0  0  0  0  0  0  0  0  0
  -10.2284   26.5556  -22.1257 C   0  0  0  0  0  0  0  0  0  0  0  0
  -11.0636   26.0619  -21.2071 N   0  0  0  0  0  0  0  0  0  0  0  0
  -10.7442   24.9824  -20.4247 C   0  0  0  0  0  0  0  0  0  0  0  0
  -11.6859   24.5053  -19.4943 N   0  0  0  0  0  0  0  0  0  0  0  0
   -9.5251   24.4066  -20.6055 C   0  0  0  0  0  0  0  0  0  0  0  0
  -11.8144   24.9840  -18.5923 H   0  0  0  0  0  0  0  0  0  0  0  0
  -12.2561   23.6758  -19.7223 H   0  0  0  0  0  0  0  0  0  0  0  0
   -9.0791   23.2476  -19.8261 C   0  0  0  0  0  0  0  0  0  0  0  0
   -9.8205   22.9852  -18.5374 C   0  0  0  0  0  0  0  0  0  0  0  0
   -9.1687   21.9357  -20.6153 C   0  0  0  0  0  0  0  0  0  0  0  0
 23 24  1  0  0  0
 24 13  1  0  0  0
 13 14  2  0  0  0
 14 15  1  0  0  0
 15 16  1  0  0  0
 15 17  2  0  0  0
 17 18  1  0  0  0
 18 19  1  0  0  0
 19 20  2  0  0  0
 20 21  1  0  0  0
 21 22  1  0  0  0
 20  1  1  0  0  0
  1  2  1  0  0  0
  2 25  1  0  0  0
 25 26  1  0  0  0
 26 27  1  0  0  0
 27 28  1  0  0  0
 28 29  1  0  0  0
 29 30  1  0  0  0
 30 31  1  0  0  0
 29 32  1  0  0  0
 32 33  2  0  0  0
 33 34  1  0  0  0
 34 35  2  0  0  0
 35 36  1  0  0  0
 36 37  1  0  0  0
 36 38  2  0  0  0
 38 41  1  0  0  0
 41 42  1  0  0  0
 41 43  1  0  0  0
  2  3  2  0  0  0
  3  4  1  0  0  0
  4  5  1  0  0  0
  5  6  2  0  0  0
  6  7  1  0  0  0
  7  8  2  0  0  0
  8  9  1  0  0  0
  8 10  1  0  0  0
 22 13  1  0  0  0
 10  1  2  0  0  0
 22 18  2  0  0  0
 31 26  1  0  0  0
 38 32  1  0  0  0
 10  4  1  0  0  0
 37 39  1  0  0  0
 37 40  1  0  0  0
  9 11  1  0  0  0
  9 12  1  0  0  0
M  END
> <minimizedAffinity>
-7.68620

> <CNNscore>
0.1937345713

> <CNNaffinity>
7.0481300354

> <CNN_VS>
1.3654664755

> <CNNaffinity_variance>
0.0831817985

$$$$
[H]c1nc(N([H])[H])c(C([H])(C([H])([H])[H])C([H])([H])[H])c(N2C([H])([H])C([H])([H])N(C([H])([H])c3c(-c4sc5c(OC([H])([H])[H])c([H])c(C([H])([H])[H])c([H])c5c4[H])c4c(N([H])[H])nc([H])nn4c3[H])C([H])([H])C2([H])[H])n1


 43 48  0  0  0  0  0  0  0  0999 V2000
   -1.9051   21.9278  -23.4055 C   0  0  0  0  0  0  0  0  0  0  0  0
   -3.2933   22.1628  -23.2259 C   0  0  0  0  0  0  0  0  0  0  0  0
   -3.7757   22.5426  -24.4489 C   0  0  0  0  0  0  0  0  0  0  0  0
   -2.7563   22.5494  -25.3365 N   0  0  0  0  0  0  0  0  0  0  0  0
   -2.8261   22.8893  -26.6176 N   0  0  0  0  0  0  0  0  0  0  0  0
   -1.6907   22.8634  -27.3163 C   0  0  0  0  0  0  0  0  0  0  0  0
   -0.5208   22.5168  -26.7779 N   0  0  0  0  0  0  0  0  0  0  0  0
   -0.4520   22.1676  -25.4603 C   0  0  0  0  0  0  0  0  0  0  0  0
    0.8143   21.8788  -24.8982 N   0  0  0  0  0  0  0  0  0  0  0  0
   -1.6190   22.1811  -24.7130 C   0  0  0  0  0  0  0  0  0  0  0  0
    1.3043   22.6043  -24.3577 H   0  0  0  0  0  0  0  0  0  0  0  0
    1.2330   20.9501  -25.0340 H   0  0  0  0  0  0  0  0  0  0  0  0
    0.9592   21.4061  -18.7923 C   0  0  0  0  0  0  0  0  0  0  0  0
    1.5553   20.2770  -18.2735 C   0  0  0  0  0  0  0  0  0  0  0  0
    1.4401   19.1409  -19.0404 C   0  0  0  0  0  0  0  0  0  0  0  0
    2.0956   17.9120  -18.4621 C   0  0  0  0  0  0  0  0  0  0  0  0
    0.7923   19.0948  -20.2313 C   0  0  0  0  0  0  0  0  0  0  0  0
    0.1794   20.2457  -20.7683 C   0  0  0  0  0  0  0  0  0  0  0  0
   -0.4970   20.3283  -21.9367 C   0  0  0  0  0  0  0  0  0  0  0  0
   -1.0274   21.5285  -22.2996 C   0  0  0  0  0  0  0  0  0  0  0  0
   -0.5568   22.5314  -20.9598 S   0  0  0  0  0  0  0  0  0  0  0  0
    0.2797   21.3841  -20.0270 C   0  0  0  0  0  0  0  0  0  0  0  0
    2.0589   23.5384  -18.2920 C   0  0  0  0  0  0  0  0  0  0  0  0
    0.9738   22.6485  -18.1576 O   0  0  0  0  0  0  0  0  0  0  0  0
   -4.0064   22.0108  -21.9381 C   0  0  0  0  0  0  0  0  0  0  0  0
   -5.2904   22.5999  -21.9620 N   0  0  0  0  0  0  0  0  0  0  0  0
   -5.4734   23.7071  -21.0961 C   0  0  0  0  0  0  0  0  0  0  0  0
   -6.5205   23.3875  -20.0230 C   0  0  0  0  0  0  0  0  0  0  0  0
   -7.7633   23.1377  -20.6918 N   0  0  0  0  0  0  0  0  0  0  0  0
   -7.6672   22.5297  -22.0231 C   0  0  0  0  0  0  0  0  0  0  0  0
   -6.4001   21.6769  -21.9654 C   0  0  0  0  0  0  0  0  0  0  0  0
   -8.9980   23.4431  -20.0917 C   0  0  0  0  0  0  0  0  0  0  0  0
   -9.4787   22.5175  -19.2142 N   0  0  0  0  0  0  0  0  0  0  0  0
  -10.6251   22.6582  -18.5607 C   0  0  0  0  0  0  0  0  0  0  0  0
  -11.3487   23.7619  -18.7692 N   0  0  0  0  0  0  0  0  0  0  0  0
  -10.9520   24.7515  -19.6311 C   0  0  0  0  0  0  0  0  0  0  0  0
  -11.7569   25.8960  -19.7806 N   0  0  0  0  0  0  0  0  0  0  0  0
   -9.7739   24.5839  -20.2902 C   0  0  0  0  0  0  0  0  0  0  0  0
  -12.5980   25.8665  -20.3731 H   0  0  0  0  0  0  0  0  0  0  0  0
  -11.5061   26.7666  -19.2863 H   0  0  0  0  0  0  0  0  0  0  0  0
   -9.2521   25.5774  -21.2338 C   0  0  0  0  0  0  0  0  0  0  0  0
  -10.1245   25.8875  -22.4262 C   0  0  0  0  0  0  0  0  0  0  0  0
   -8.9793   26.9337  -20.5720 C   0  0  0  0  0  0  0  0  0  0  0  0
 23 24  1  0  0  0
 24 13  1  0  0  0
 13 14  2  0  0  0
 14 15  1  0  0  0
 15 16  1  0  0  0
 15 17  2  0  0  0
 17 18  1  0  0  0
 18 19  1  0  0  0
 19 20  2  0  0  0
 20 21  1  0  0  0
 21 22  1  0  0  0
 20  1  1  0  0  0
  1  2  1  0  0  0
  2 25  1  0  0  0
 25 26  1  0  0  0
 26 27  1  0  0  0
 27 28  1  0  0  0
 28 29  1  0  0  0
 29 30  1  0  0  0
 30 31  1  0  0  0
 29 32  1  0  0  0
 32 33  2  0  0  0
 33 34  1  0  0  0
 34 35  2  0  0  0
 35 36  1  0  0  0
 36 37  1  0  0  0
 36 38  2  0  0  0
 38 41  1  0  0  0
 41 42  1  0  0  0
 41 43  1  0  0  0
  2  3  2  0  0  0
  3  4  1  0  0  0
  4  5  1  0  0  0
  5  6  2  0  0  0
  6  7  1  0  0  0
  7  8  2  0  0  0
  8  9  1  0  0  0
  8 10  1  0  0  0
 22 13  1  0  0  0
 10  1  2  0  0  0
 22 18  2  0  0  0
 31 26  1  0  0  0
 38 32  1  0  0  0
 10  4  1  0  0  0
 37 39  1  0  0  0
 37 40  1  0  0  0
  9 11  1  0  0  0
  9 12  1  0  0  0
M  END
> <minimizedAffinity>
-7.97452

> <CNNscore>
0.1528119892

> <CNNaffinity>
6.8413648605

> <CNN_VS>
1.0454425812

> <CNNaffinity_variance>
0.0692880154

$$$$
[H]c1nc(N([H])[H])c(C([H])(C([H])([H])[H])C([H])([H])[H])c(N2C([H])([H])C([H])([H])N(C([H])([H])c3c(-c4sc5c(OC([H])([H])[H])c([H])c(C([H])([H])[H])c([H])c5c4[H])c4c(N([H])[H])nc([H])nn4c3[H])C([H])([H])C2([H])[H])n1


 43 48  0  0  0  0  0  0  0  0999 V2000
   -2.2002   22.2179  -24.2347 C   0  0  0  0  0  0  0  0  0  0  0  0
   -2.7468   21.6263  -23.0660 C   0  0  0  0  0  0  0  0  0  0  0  0
   -1.6865   21.1179  -22.3660 C   0  0  0  0  0  0  0  0  0  0  0  0
   -0.5498   21.3703  -23.0524 N   0  0  0  0  0  0  0  0  0  0  0  0
    0.6794   21.0088  -22.7061 N   0  0  0  0  0  0  0  0  0  0  0  0
    1.6657   21.3257  -23.5455 C   0  0  0  0  0  0  0  0  0  0  0  0
    1.4563   21.9759  -24.6911 N   0  0  0  0  0  0  0  0  0  0  0  0
    0.1912   22.3465  -25.0446 C   0  0  0  0  0  0  0  0  0  0  0  0
   -0.0100   22.9666  -26.3007 N   0  0  0  0  0  0  0  0  0  0  0  0
   -0.8512   22.0337  -24.1868 C   0  0  0  0  0  0  0  0  0  0  0  0
   -0.3425   22.4031  -27.0947 H   0  0  0  0  0  0  0  0  0  0  0  0
    0.1771   23.9713  -26.4095 H   0  0  0  0  0  0  0  0  0  0  0  0
   -5.1029   25.5298  -27.4540 C   0  0  0  0  0  0  0  0  0  0  0  0
   -5.5207   25.3196  -28.7503 C   0  0  0  0  0  0  0  0  0  0  0  0
   -5.1897   24.0976  -29.2884 C   0  0  0  0  0  0  0  0  0  0  0  0
   -5.6514   23.8796  -30.7074 C   0  0  0  0  0  0  0  0  0  0  0  0
   -4.5004   23.1390  -28.6208 C   0  0  0  0  0  0  0  0  0  0  0  0
   -4.0691   23.3469  -27.2944 C   0  0  0  0  0  0  0  0  0  0  0  0
   -3.3740   22.4768  -26.5267 C   0  0  0  0  0  0  0  0  0  0  0  0
   -3.0385   22.8483  -25.2606 C   0  0  0  0  0  0  0  0  0  0  0  0
   -3.7182   24.4463  -25.1799 S   0  0  0  0  0  0  0  0  0  0  0  0
   -4.3849   24.5500  -26.7390 C   0  0  0  0  0  0  0  0  0  0  0  0
   -6.0930   26.7098  -25.5477 C   0  0  0  0  0  0  0  0  0  0  0  0
   -5.3477   26.7059  -26.7444 O   0  0  0  0  0  0  0  0  0  0  0  0
   -4.1901   21.5997  -22.7402 C   0  0  0  0  0  0  0  0  0  0  0  0
   -4.5422   22.5736  -21.7791 N   0  0  0  0  0  0  0  0  0  0  0  0
   -3.6168   22.7536  -20.7207 C   0  0  0  0  0  0  0  0  0  0  0  0
   -4.2466   22.3625  -19.3789 C   0  0  0  0  0  0  0  0  0  0  0  0
   -5.3573   23.2391  -19.1504 N   0  0  0  0  0  0  0  0  0  0  0  0
   -6.0712   23.6992  -20.3462 C   0  0  0  0  0  0  0  0  0  0  0  0
   -5.9197   22.5549  -21.3481 C   0  0  0  0  0  0  0  0  0  0  0  0
   -5.7446   23.6154  -17.8517 C   0  0  0  0  0  0  0  0  0  0  0  0
   -5.2341   24.7942  -17.3963 N   0  0  0  0  0  0  0  0  0  0  0  0
   -5.5067   25.2923  -16.1968 C   0  0  0  0  0  0  0  0  0  0  0  0
   -6.3234   24.6078  -15.3908 N   0  0  0  0  0  0  0  0  0  0  0  0
   -6.8883   23.4132  -15.7557 C   0  0  0  0  0  0  0  0  0  0  0  0
   -7.7574   22.7621  -14.8609 N   0  0  0  0  0  0  0  0  0  0  0  0
   -6.5928   22.9225  -16.9896 C   0  0  0  0  0  0  0  0  0  0  0  0
   -7.3803   22.2190  -14.0720 H   0  0  0  0  0  0  0  0  0  0  0  0
   -8.7782   22.8371  -14.9924 H   0  0  0  0  0  0  0  0  0  0  0  0
   -7.1408   21.6558  -17.4844 C   0  0  0  0  0  0  0  0  0  0  0  0
   -6.8858   20.4390  -16.6280 C   0  0  0  0  0  0  0  0  0  0  0  0
   -8.6622   21.7038  -17.6715 C   0  0  0  0  0  0  0  0  0  0  0  0
 23 24  1  0  0  0
 24 13  1  0  0  0
 13 14  2  0  0  0
 14 15  1  0  0  0
 15 16  1  0  0  0
 15 17  2  0  0  0
 17 18  1  0  0  0
 18 19  1  0  0  0
 19 20  2  0  0  0
 20 21  1  0  0  0
 21 22  1  0  0  0
 20  1  1  0  0  0
  1  2  1  0  0  0
  2 25  1  0  0  0
 25 26  1  0  0  0
 26 27  1  0  0  0
 27 28  1  0  0  0
 28 29  1  0  0  0
 29 30  1  0  0  0
 30 31  1  0  0  0
 29 32  1  0  0  0
 32 33  2  0  0  0
 33 34  1  0  0  0
 34 35  2  0  0  0
 35 36  1  0  0  0
 36 37  1  0  0  0
 36 38  2  0  0  0
 38 41  1  0  0  0
 41 42  1  0  0  0
 41 43  1  0  0  0
  2  3  2  0  0  0
  3  4  1  0  0  0
  4  5  1  0  0  0
  5  6  2  0  0  0
  6  7  1  0  0  0
  7  8  2  0  0  0
  8  9  1  0  0  0
  8 10  1  0  0  0
 22 13  1  0  0  0
 10  1  2  0  0  0
 22 18  2  0  0  0
 31 26  1  0  0  0
 38 32  1  0  0  0
 10  4  1  0  0  0
 37 39  1  0  0  0
 37 40  1  0  0  0
  9 11  1  0  0  0
  9 12  1  0  0  0
M  END
> <minimizedAffinity>
-8.84282

> <CNNscore>
0.1020412594

> <CNNaffinity>
7.1587195396

> <CNN_VS>
0.7304847836

> <CNNaffinity_variance>
0.1415186971

$$$$
[H]c1nc(N([H])[H])c(C([H])(C([H])([H])[H])C([H])([H])[H])c(N2C([H])([H])C([H])([H])N(C([H])([H])c3c(-c4sc5c(OC([H])([H])[H])c([H])c(C([H])([H])[H])c([H])c5c4[H])c4c(N([H])[H])nc([H])nn4c3[H])C([H])([H])C2([H])[H])n1


 43 48  0  0  0  0  0  0  0  0999 V2000
   -3.1318   23.3943  -25.1219 C   0  0  0  0  0  0  0  0  0  0  0  0
   -4.1237   24.2475  -24.5716 C   0  0  0  0  0  0  0  0  0  0  0  0
   -4.7545   24.8326  -25.6357 C   0  0  0  0  0  0  0  0  0  0  0  0
   -4.1927   24.3793  -26.7785 N   0  0  0  0  0  0  0  0  0  0  0  0
   -4.5169   24.7373  -28.0147 N   0  0  0  0  0  0  0  0  0  0  0  0
   -3.8115   24.1972  -29.0090 C   0  0  0  0  0  0  0  0  0  0  0  0
   -2.8169   23.3334  -28.8007 N   0  0  0  0  0  0  0  0  0  0  0  0
   -2.4857   22.9669  -27.5283 C   0  0  0  0  0  0  0  0  0  0  0  0
   -1.3773   22.1087  -27.3343 N   0  0  0  0  0  0  0  0  0  0  0  0
   -3.2072   23.5099  -26.4772 C   0  0  0  0  0  0  0  0  0  0  0  0
   -0.4682   22.5101  -27.0682 H   0  0  0  0  0  0  0  0  0  0  0  0
   -1.4888   21.0948  -27.4603 H   0  0  0  0  0  0  0  0  0  0  0  0
    1.0790   21.1360  -22.4900 C   0  0  0  0  0  0  0  0  0  0  0  0
    1.0682   20.3882  -21.3324 C   0  0  0  0  0  0  0  0  0  0  0  0
   -0.1742   20.1531  -20.7908 C   0  0  0  0  0  0  0  0  0  0  0  0
   -0.1732   19.3347  -19.5242 C   0  0  0  0  0  0  0  0  0  0  0  0
   -1.3326   20.6089  -21.3296 C   0  0  0  0  0  0  0  0  0  0  0  0
   -1.3296   21.3751  -22.5134 C   0  0  0  0  0  0  0  0  0  0  0  0
   -2.4102   21.8890  -23.1440 C   0  0  0  0  0  0  0  0  0  0  0  0
   -2.2188   22.6095  -24.2833 C   0  0  0  0  0  0  0  0  0  0  0  0
   -0.4886   22.5498  -24.4410 S   0  0  0  0  0  0  0  0  0  0  0  0
   -0.1107   21.6216  -23.0693 C   0  0  0  0  0  0  0  0  0  0  0  0
    3.4121   20.6902  -23.0934 C   0  0  0  0  0  0  0  0  0  0  0  0
    2.2431   21.4732  -23.1812 O   0  0  0  0  0  0  0  0  0  0  0  0
   -4.3649   24.4215  -23.1219 C   0  0  0  0  0  0  0  0  0  0  0  0
   -5.7017   24.1393  -22.7618 N   0  0  0  0  0  0  0  0  0  0  0  0
   -6.3427   25.1209  -21.9652 C   0  0  0  0  0  0  0  0  0  0  0  0
   -6.6969   24.5520  -20.5865 C   0  0  0  0  0  0  0  0  0  0  0  0
   -7.6187   23.4731  -20.7873 N   0  0  0  0  0  0  0  0  0  0  0  0
   -7.4554   22.7092  -22.0287 C   0  0  0  0  0  0  0  0  0  0  0  0
   -5.9593   22.7854  -22.3326 C   0  0  0  0  0  0  0  0  0  0  0  0
   -8.6064   23.1603  -19.8361 C   0  0  0  0  0  0  0  0  0  0  0  0
   -9.7962   23.8100  -19.9776 N   0  0  0  0  0  0  0  0  0  0  0  0
  -10.8305   23.6224  -19.1675 C   0  0  0  0  0  0  0  0  0  0  0  0
  -10.7048   22.7530  -18.1608 N   0  0  0  0  0  0  0  0  0  0  0  0
   -9.5501   22.0497  -17.9340 C   0  0  0  0  0  0  0  0  0  0  0  0
   -9.5015   21.1340  -16.8666 N   0  0  0  0  0  0  0  0  0  0  0  0
   -8.5034   22.2600  -18.7770 C   0  0  0  0  0  0  0  0  0  0  0  0
   -9.3606   21.4660  -15.9026 H   0  0  0  0  0  0  0  0  0  0  0  0
   -9.6163   20.1252  -17.0517 H   0  0  0  0  0  0  0  0  0  0  0  0
   -7.2223   21.5624  -18.6298 C   0  0  0  0  0  0  0  0  0  0  0  0
   -6.4685   21.8159  -17.3465 C   0  0  0  0  0  0  0  0  0  0  0  0
   -7.3667   20.0381  -18.7165 C   0  0  0  0  0  0  0  0  0  0  0  0
 23 24  1  0  0  0
 24 13  1  0  0  0
 13 14  2  0  0  0
 14 15  1  0  0  0
 15 16  1  0  0  0
 15 17  2  0  0  0
 17 18  1  0  0  0
 18 19  1  0  0  0
 19 20  2  0  0  0
 20 21  1  0  0  0
 21 22  1  0  0  0
 20  1  1  0  0  0
  1  2  1  0  0  0
  2 25  1  0  0  0
 25 26  1  0  0  0
 26 27  1  0  0  0
 27 28  1  0  0  0
 28 29  1  0  0  0
 29 30  1  0  0  0
 30 31  1  0  0  0
 29 32  1  0  0  0
 32 33  2  0  0  0
 33 34  1  0  0  0
 34 35  2  0  0  0
 35 36  1  0  0  0
 36 37  1  0  0  0
 36 38  2  0  0  0
 38 41  1  0  0  0
 41 42  1  0  0  0
 41 43  1  0  0  0
  2  3  2  0  0  0
  3  4  1  0  0  0
  4  5  1  0  0  0
  5  6  2  0  0  0
  6  7  1  0  0  0
  7  8  2  0  0  0
  8  9  1  0  0  0
  8 10  1  0  0  0
 22 13  1  0  0  0
 10  1  2  0  0  0
 22 18  2  0  0  0
 31 26  1  0  0  0
 38 32  1  0  0  0
 10  4  1  0  0  0
 37 39  1  0  0  0
 37 40  1  0  0  0
  9 11  1  0  0  0
  9 12  1  0  0  0
M  END
> <minimizedAffinity>
-8.19956

> <CNNscore>
0.0946978107

> <CNNaffinity>
7.1306061745

> <CNN_VS>
0.6752527952

> <CNNaffinity_variance>
0.3474188745

$$$$
[H]c1nc(N([H])[H])c(C([H])(C([H])([H])[H])C([H])([H])[H])c(N2C([H])([H])C([H])([H])N(C([H])([H])c3c(-c4sc5c(OC([H])([H])[H])c([H])c(C([H])([H])[H])c([H])c5c4[H])c4c(N([H])[H])nc([H])nn4c3[H])C([H])([H])C2([H])[H])n1


 43 48  0  0  0  0  0  0  0  0999 V2000
   -2.1588   22.3526  -23.9117 C   0  0  0  0  0  0  0  0  0  0  0  0
   -1.2311   21.7065  -23.0535 C   0  0  0  0  0  0  0  0  0  0  0  0
   -0.1099   21.4827  -23.8054 C   0  0  0  0  0  0  0  0  0  0  0  0
   -0.3218   21.9537  -25.0545 N   0  0  0  0  0  0  0  0  0  0  0  0
    0.5244   21.8949  -26.0754 N   0  0  0  0  0  0  0  0  0  0  0  0
    0.1056   22.3879  -27.2414 C   0  0  0  0  0  0  0  0  0  0  0  0
   -1.1058   22.9214  -27.4052 N   0  0  0  0  0  0  0  0  0  0  0  0
   -1.9738   22.9807  -26.3535 C   0  0  0  0  0  0  0  0  0  0  0  0
   -3.2785   23.4818  -26.5757 N   0  0  0  0  0  0  0  0  0  0  0  0
   -1.5609   22.4799  -25.1291 C   0  0  0  0  0  0  0  0  0  0  0  0
   -4.0564   22.8224  -26.7123 H   0  0  0  0  0  0  0  0  0  0  0  0
   -3.4381   24.4967  -26.5990 H   0  0  0  0  0  0  0  0  0  0  0  0
   -7.1854   22.6905  -21.8196 C   0  0  0  0  0  0  0  0  0  0  0  0
   -7.9265   23.8184  -21.5406 C   0  0  0  0  0  0  0  0  0  0  0  0
   -7.3300   25.0144  -21.8662 C   0  0  0  0  0  0  0  0  0  0  0  0
   -8.1500   26.2413  -21.5555 C   0  0  0  0  0  0  0  0  0  0  0  0
   -6.0984   25.1179  -22.4251 C   0  0  0  0  0  0  0  0  0  0  0  0
   -5.3339   23.9684  -22.7130 C   0  0  0  0  0  0  0  0  0  0  0  0
   -4.0981   23.9386  -23.2619 C   0  0  0  0  0  0  0  0  0  0  0  0
   -3.5057   22.7304  -23.4690 C   0  0  0  0  0  0  0  0  0  0  0  0
   -4.7233   21.6435  -22.8705 S   0  0  0  0  0  0  0  0  0  0  0  0
   -5.9033   22.7712  -22.3995 C   0  0  0  0  0  0  0  0  0  0  0  0
   -8.0865   21.0050  -20.2855 C   0  0  0  0  0  0  0  0  0  0  0  0
   -7.6267   21.3925  -21.5606 O   0  0  0  0  0  0  0  0  0  0  0  0
   -1.4979   21.3697  -21.6373 C   0  0  0  0  0  0  0  0  0  0  0  0
   -0.5557   21.9514  -20.7598 N   0  0  0  0  0  0  0  0  0  0  0  0
    0.4900   21.0971  -20.3288 C   0  0  0  0  0  0  0  0  0  0  0  0
    0.4168   20.8739  -18.8139 C   0  0  0  0  0  0  0  0  0  0  0  0
    0.5946   22.1469  -18.1798 N   0  0  0  0  0  0  0  0  0  0  0  0
    0.0840   23.3091  -18.9144 C   0  0  0  0  0  0  0  0  0  0  0  0
   -1.1069   22.7700  -19.7065 C   0  0  0  0  0  0  0  0  0  0  0  0
    1.2066   22.2635  -16.9189 C   0  0  0  0  0  0  0  0  0  0  0  0
    0.4972   21.7700  -15.8648 N   0  0  0  0  0  0  0  0  0  0  0  0
    0.9367   21.7975  -14.6129 C   0  0  0  0  0  0  0  0  0  0  0  0
    2.1354   22.3345  -14.3677 N   0  0  0  0  0  0  0  0  0  0  0  0
    2.9257   22.8570  -15.3586 C   0  0  0  0  0  0  0  0  0  0  0  0
    4.1868   23.3847  -15.0253 N   0  0  0  0  0  0  0  0  0  0  0  0
    2.4530   22.8184  -16.6335 C   0  0  0  0  0  0  0  0  0  0  0  0
    4.2651   24.3258  -14.6158 H   0  0  0  0  0  0  0  0  0  0  0  0
    5.0364   22.8209  -15.1849 H   0  0  0  0  0  0  0  0  0  0  0  0
    3.2130   23.3465  -17.7707 C   0  0  0  0  0  0  0  0  0  0  0  0
    3.9482   24.6441  -17.5366 C   0  0  0  0  0  0  0  0  0  0  0  0
    4.2791   22.3659  -18.2746 C   0  0  0  0  0  0  0  0  0  0  0  0
 23 24  1  0  0  0
 24 13  1  0  0  0
 13 14  2  0  0  0
 14 15  1  0  0  0
 15 16  1  0  0  0
 15 17  2  0  0  0
 17 18  1  0  0  0
 18 19  1  0  0  0
 19 20  2  0  0  0
 20 21  1  0  0  0
 21 22  1  0  0  0
 20  1  1  0  0  0
  1  2  1  0  0  0
  2 25  1  0  0  0
 25 26  1  0  0  0
 26 27  1  0  0  0
 27 28  1  0  0  0
 28 29  1  0  0  0
 29 30  1  0  0  0
 30 31  1  0  0  0
 29 32  1  0  0  0
 32 33  2  0  0  0
 33 34  1  0  0  0
 34 35  2  0  0  0
 35 36  1  0  0  0
 36 37  1  0  0  0
 36 38  2  0  0  0
 38 41  1  0  0  0
 41 42  1  0  0  0
 41 43  1  0  0  0
  2  3  2  0  0  0
  3  4  1  0  0  0
  4  5  1  0  0  0
  5  6  2  0  0  0
  6  7  1  0  0  0
  7  8  2  0  0  0
  8  9  1  0  0  0
  8 10  1  0  0  0
 22 13  1  0  0  0
 10  1  2  0  0  0
 22 18  2  0  0  0
 31 26  1  0  0  0
 38 32  1  0  0  0
 10  4  1  0  0  0
 37 39  1  0  0  0
 37 40  1  0  0  0
  9 11  1  0  0  0
  9 12  1  0  0  0
M  END
> <minimizedAffinity>
-8.48579

> <CNNscore>
0.0818359181

> <CNNaffinity>
6.7762289047

> <CNN_VS>
0.5545389056

> <CNNaffinity_variance>
0.0717334375

$$$$
[H]c1nc(N([H])[H])c(C([H])(C([H])([H])[H])C([H])([H])[H])c(N2C([H])([H])C([H])([H])N(C([H])([H])c3c(-c4sc5c(OC([H])([H])[H])c([H])c(C([H])([H])[H])c([H])c5c4[H])c4c(N([H])[H])nc([H])nn4c3[H])C([H])([H])C2([H])[H])n1


 43 48  0  0  0  0  0  0  0  0999 V2000
   -1.7703   22.5355  -24.0173 C   0  0  0  0  0  0  0  0  0  0  0  0
   -0.6195   22.2603  -23.2334 C   0  0  0  0  0  0  0  0  0  0  0  0
    0.4033   22.0549  -24.1190 C   0  0  0  0  0  0  0  0  0  0  0  0
   -0.0752   22.1885  -25.3760 N   0  0  0  0  0  0  0  0  0  0  0  0
    0.6096   22.0359  -26.5027 N   0  0  0  0  0  0  0  0  0  0  0  0
   -0.0619   22.1761  -27.6461 C   0  0  0  0  0  0  0  0  0  0  0  0
   -1.3654   22.4556  -27.6869 N   0  0  0  0  0  0  0  0  0  0  0  0
   -2.0671   22.6120  -26.5267 C   0  0  0  0  0  0  0  0  0  0  0  0
   -3.4631   22.8321  -26.6004 N   0  0  0  0  0  0  0  0  0  0  0  0
   -1.3913   22.4768  -25.3245 C   0  0  0  0  0  0  0  0  0  0  0  0
   -4.1071   22.0423  -26.4588 H   0  0  0  0  0  0  0  0  0  0  0  0
   -3.8213   23.7756  -26.7941 H   0  0  0  0  0  0  0  0  0  0  0  0
   -6.6583   24.3927  -22.4629 C   0  0  0  0  0  0  0  0  0  0  0  0
   -7.6852   23.7050  -21.8532 C   0  0  0  0  0  0  0  0  0  0  0  0
   -7.4267   22.3841  -21.5692 C   0  0  0  0  0  0  0  0  0  0  0  0
   -8.5579   21.6419  -20.9030 C   0  0  0  0  0  0  0  0  0  0  0  0
   -6.2540   21.7648  -21.8541 C   0  0  0  0  0  0  0  0  0  0  0  0
   -5.1989   22.4616  -22.4783 C   0  0  0  0  0  0  0  0  0  0  0  0
   -3.9898   21.9590  -22.8174 C   0  0  0  0  0  0  0  0  0  0  0  0
   -3.0869   22.7818  -23.4186 C   0  0  0  0  0  0  0  0  0  0  0  0
   -3.9796   24.2714  -23.4986 S   0  0  0  0  0  0  0  0  0  0  0  0
   -5.4306   23.7720  -22.7698 C   0  0  0  0  0  0  0  0  0  0  0  0
   -6.9132   26.1384  -24.1641 C   0  0  0  0  0  0  0  0  0  0  0  0
   -6.7367   25.7382  -22.8239 O   0  0  0  0  0  0  0  0  0  0  0  0
   -0.6075   22.2164  -21.7542 C   0  0  0  0  0  0  0  0  0  0  0  0
   -0.6870   20.8971  -21.2549 N   0  0  0  0  0  0  0  0  0  0  0  0
   -1.4854   20.7268  -20.0962 C   0  0  0  0  0  0  0  0  0  0  0  0
   -0.6284   20.2666  -18.9114 C   0  0  0  0  0  0  0  0  0  0  0  0
   -0.0657   18.9935  -19.2530 N   0  0  0  0  0  0  0  0  0  0  0  0
    0.2264   18.7790  -20.6742 C   0  0  0  0  0  0  0  0  0  0  0  0
    0.5594   20.1704  -21.2122 C   0  0  0  0  0  0  0  0  0  0  0  0
    0.2048   18.0203  -18.2743 C   0  0  0  0  0  0  0  0  0  0  0  0
    1.3934   18.1485  -17.6198 N   0  0  0  0  0  0  0  0  0  0  0  0
    1.7944   17.3173  -16.6661 C   0  0  0  0  0  0  0  0  0  0  0  0
    0.9957   16.3016  -16.3258 N   0  0  0  0  0  0  0  0  0  0  0  0
   -0.2190   16.0868  -16.9237 C   0  0  0  0  0  0  0  0  0  0  0  0
   -1.0151   15.0086  -16.4950 N   0  0  0  0  0  0  0  0  0  0  0  0
   -0.6076   16.9515  -17.8993 C   0  0  0  0  0  0  0  0  0  0  0  0
   -0.8103   14.0517  -16.8143 H   0  0  0  0  0  0  0  0  0  0  0  0
   -1.8028   15.1782  -15.8502 H   0  0  0  0  0  0  0  0  0  0  0  0
   -1.8858   16.8186  -18.6051 C   0  0  0  0  0  0  0  0  0  0  0  0
   -2.1225   15.5075  -19.3150 C   0  0  0  0  0  0  0  0  0  0  0  0
   -3.0938   16.9969  -17.6771 C   0  0  0  0  0  0  0  0  0  0  0  0
 23 24  1  0  0  0
 24 13  1  0  0  0
 13 14  2  0  0  0
 14 15  1  0  0  0
 15 16  1  0  0  0
 15 17  2  0  0  0
 17 18  1  0  0  0
 18 19  1  0  0  0
 19 20  2  0  0  0
 20 21  1  0  0  0
 21 22  1  0  0  0
 20  1  1  0  0  0
  1  2  1  0  0  0
  2 25  1  0  0  0
 25 26  1  0  0  0
 26 27  1  0  0  0
 27 28  1  0  0  0
 28 29  1  0  0  0
 29 30  1  0  0  0
 30 31  1  0  0  0
 29 32  1  0  0  0
 32 33  2  0  0  0
 33 34  1  0  0  0
 34 35  2  0  0  0
 35 36  1  0  0  0
 36 37  1  0  0  0
 36 38  2  0  0  0
 38 41  1  0  0  0
 41 42  1  0  0  0
 41 43  1  0  0  0
  2  3  2  0  0  0
  3  4  1  0  0  0
  4  5  1  0  0  0
  5  6  2  0  0  0
  6  7  1  0  0  0
  7  8  2  0  0  0
  8  9  1  0  0  0
  8 10  1  0  0  0
 22 13  1  0  0  0
 10  1  2  0  0  0
 22 18  2  0  0  0
 31 26  1  0  0  0
 38 32  1  0  0  0
 10  4  1  0  0  0
 37 39  1  0  0  0
 37 40  1  0  0  0
  9 11  1  0  0  0
  9 12  1  0  0  0
M  END
> <minimizedAffinity>
-7.29145

> <CNNscore>
0.0816007033

> <CNNaffinity>
6.9312295914

> <CNN_VS>
0.5655931830

> <CNNaffinity_variance>
0.0631196350

$$$$
[H]c1nc(N([H])[H])c(C([H])(C([H])([H])[H])C([H])([H])[H])c(N2C([H])([H])C([H])([H])N(C([H])([H])c3c(-c4sc5c(OC([H])([H])[H])c([H])c(C([H])([H])[H])c([H])c5c4[H])c4c(N([H])[H])nc([H])nn4c3[H])C([H])([H])C2([H])[H])n1


 43 48  0  0  0  0  0  0  0  0999 V2000
   -8.0681   23.4931  -20.2739 C   0  0  0  0  0  0  0  0  0  0  0  0
   -7.3266   24.2915  -21.1834 C   0  0  0  0  0  0  0  0  0  0  0  0
   -8.2413   25.0711  -21.8378 C   0  0  0  0  0  0  0  0  0  0  0  0
   -9.4759   24.7782  -21.3723 N   0  0  0  0  0  0  0  0  0  0  0  0
  -10.6215   25.3085  -21.7821 N   0  0  0  0  0  0  0  0  0  0  0  0
  -11.7395   24.8529  -21.2161 C   0  0  0  0  0  0  0  0  0  0  0  0
  -11.7378   23.9051  -20.2777 N   0  0  0  0  0  0  0  0  0  0  0  0
  -10.5583   23.3616  -19.8580 C   0  0  0  0  0  0  0  0  0  0  0  0
  -10.5928   22.3049  -18.9174 N   0  0  0  0  0  0  0  0  0  0  0  0
   -9.3813   23.8216  -20.4268 C   0  0  0  0  0  0  0  0  0  0  0  0
  -10.5061   21.3336  -19.2454 H   0  0  0  0  0  0  0  0  0  0  0  0
  -10.7038   22.5152  -17.9175 H   0  0  0  0  0  0  0  0  0  0  0  0
   -5.9891   20.5223  -16.1983 C   0  0  0  0  0  0  0  0  0  0  0  0
   -5.6762   19.1802  -16.1855 C   0  0  0  0  0  0  0  0  0  0  0  0
   -5.8847   18.5122  -17.3698 C   0  0  0  0  0  0  0  0  0  0  0  0
   -5.5395   17.0444  -17.3432 C   0  0  0  0  0  0  0  0  0  0  0  0
   -6.3639   19.0990  -18.4949 C   0  0  0  0  0  0  0  0  0  0  0  0
   -6.6868   20.4715  -18.5156 C   0  0  0  0  0  0  0  0  0  0  0  0
   -7.1743   21.1694  -19.5667 C   0  0  0  0  0  0  0  0  0  0  0  0
   -7.4316   22.4966  -19.4053 C   0  0  0  0  0  0  0  0  0  0  0  0
   -6.9772   22.7351  -17.7443 S   0  0  0  0  0  0  0  0  0  0  0  0
   -6.4889   21.1554  -17.3542 C   0  0  0  0  0  0  0  0  0  0  0  0
   -4.7167   21.2842  -14.2472 C   0  0  0  0  0  0  0  0  0  0  0  0
   -5.8422   21.3605  -15.0927 O   0  0  0  0  0  0  0  0  0  0  0  0
   -5.8561   24.2323  -21.3399 C   0  0  0  0  0  0  0  0  0  0  0  0
   -5.4498   24.4282  -22.6788 N   0  0  0  0  0  0  0  0  0  0  0  0
   -5.8412   23.4178  -23.5926 C   0  0  0  0  0  0  0  0  0  0  0  0
   -4.6130   22.7039  -24.1687 C   0  0  0  0  0  0  0  0  0  0  0  0
   -3.8439   23.6772  -24.8867 N   0  0  0  0  0  0  0  0  0  0  0  0
   -3.8896   25.0469  -24.3643 C   0  0  0  0  0  0  0  0  0  0  0  0
   -4.0899   24.8773  -22.8585 C   0  0  0  0  0  0  0  0  0  0  0  0
   -3.0784   23.3270  -26.0134 C   0  0  0  0  0  0  0  0  0  0  0  0
   -3.6893   23.4866  -27.2212 N   0  0  0  0  0  0  0  0  0  0  0  0
   -3.1020   23.2079  -28.3782 C   0  0  0  0  0  0  0  0  0  0  0  0
   -1.8477   22.7478  -28.3641 N   0  0  0  0  0  0  0  0  0  0  0  0
   -1.1469   22.5532  -27.2020 C   0  0  0  0  0  0  0  0  0  0  0  0
    0.1792   22.0874  -27.2689 N   0  0  0  0  0  0  0  0  0  0  0  0
   -1.7706   22.8448  -26.0288 C   0  0  0  0  0  0  0  0  0  0  0  0
    0.3724   21.0886  -27.4254 H   0  0  0  0  0  0  0  0  0  0  0  0
    0.9615   22.7531  -27.1687 H   0  0  0  0  0  0  0  0  0  0  0  0
   -1.1171   22.6762  -24.7272 C   0  0  0  0  0  0  0  0  0  0  0  0
   -1.3122   21.3407  -24.0509 C   0  0  0  0  0  0  0  0  0  0  0  0
    0.4023   22.8716  -24.7999 C   0  0  0  0  0  0  0  0  0  0  0  0
 23 24  1  0  0  0
 24 13  1  0  0  0
 13 14  2  0  0  0
 14 15  1  0  0  0
 15 16  1  0  0  0
 15 17  2  0  0  0
 17 18  1  0  0  0
 18 19  1  0  0  0
 19 20  2  0  0  0
 20 21  1  0  0  0
 21 22  1  0  0  0
 20  1  1  0  0  0
  1  2  1  0  0  0
  2 25  1  0  0  0
 25 26  1  0  0  0
 26 27  1  0  0  0
 27 28  1  0  0  0
 28 29  1  0  0  0
 29 30  1  0  0  0
 30 31  1  0  0  0
 29 32  1  0  0  0
 32 33  2  0  0  0
 33 34  1  0  0  0
 34 35  2  0  0  0
 35 36  1  0  0  0
 36 37  1  0  0  0
 36 38  2  0  0  0
 38 41  1  0  0  0
 41 42  1  0  0  0
 41 43  1  0  0  0
  2  3  2  0  0  0
  3  4  1  0  0  0
  4  5  1  0  0  0
  5  6  2  0  0  0
  6  7  1  0  0  0
  7  8  2  0  0  0
  8  9  1  0  0  0
  8 10  1  0  0  0
 22 13  1  0  0  0
 10  1  2  0  0  0
 22 18  2  0  0  0
 31 26  1  0  0  0
 38 32  1  0  0  0
 10  4  1  0  0  0
 37 39  1  0  0  0
 37 40  1  0  0  0
  9 11  1  0  0  0
  9 12  1  0  0  0
M  END
> <minimizedAffinity>
-7.54324

> <CNNscore>
0.0441051275

> <CNNaffinity>
6.6254491806

> <CNN_VS>
0.2922162712

> <CNNaffinity_variance>
0.1173999310

$$$$
[H]C([H])=C([H])C(=O)N1C([H])([H])C([H])([H])N(C([H])([H])c2c(-c3sc4c(OC([H])([H])[H])c([H])c(C([H])([H])[H])c([H])c4c3[H])c3c(N([H])[H])nc([H])nn3c2C([H])([H])N2C([H])([H])C([H])([H])OC([H])([H])C2([H])[H])C([H])([H])C1([H])[H]


 42 47  0  0  0  0  0  0  0  0999 V2000
   -1.9937   22.6037  -24.8635 C   0  0  0  0  0  0  0  0  0  0  0  0
   -3.3115   22.4119  -25.3051 C   0  0  0  0  0  0  0  0  0  0  0  0
   -3.2696   22.5667  -26.6614 C   0  0  0  0  0  0  0  0  0  0  0  0
   -1.9963   22.8144  -27.0199 N   0  0  0  0  0  0  0  0  0  0  0  0
   -1.3627   22.9549  -28.2082 N   0  0  0  0  0  0  0  0  0  0  0  0
   -0.0693   23.1077  -28.3617 C   0  0  0  0  0  0  0  0  0  0  0  0
    0.7224   23.1363  -27.2960 N   0  0  0  0  0  0  0  0  0  0  0  0
    0.1528   22.9972  -26.0571 C   0  0  0  0  0  0  0  0  0  0  0  0
    1.1152   22.9128  -25.0341 N   0  0  0  0  0  0  0  0  0  0  0  0
   -1.2080   22.8425  -25.9475 C   0  0  0  0  0  0  0  0  0  0  0  0
    1.1528   21.9461  -24.5288 H   0  0  0  0  0  0  0  0  0  0  0  0
    1.7649   23.5889  -24.6728 H   0  0  0  0  0  0  0  0  0  0  0  0
   -0.7622   20.5334  -20.0367 C   0  0  0  0  0  0  0  0  0  0  0  0
   -1.1883   21.0049  -18.8168 C   0  0  0  0  0  0  0  0  0  0  0  0
   -1.7616   22.2453  -18.7977 C   0  0  0  0  0  0  0  0  0  0  0  0
   -2.4664   22.7289  -17.5378 C   0  0  0  0  0  0  0  0  0  0  0  0
   -1.9304   23.0268  -19.8913 C   0  0  0  0  0  0  0  0  0  0  0  0
   -1.5157   22.5819  -21.1831 C   0  0  0  0  0  0  0  0  0  0  0  0
   -1.7893   23.1520  -22.3859 C   0  0  0  0  0  0  0  0  0  0  0  0
   -1.4691   22.3923  -23.5048 C   0  0  0  0  0  0  0  0  0  0  0  0
   -0.7983   20.9922  -22.8201 S   0  0  0  0  0  0  0  0  0  0  0  0
   -0.9584   21.3791  -21.1817 C   0  0  0  0  0  0  0  0  0  0  0  0
    0.3949   18.3026  -20.7166 C   0  0  0  0  0  0  0  0  0  0  0  0
   -0.1837   19.4102  -20.3925 O   0  0  0  0  0  0  0  0  0  0  0  0
   -4.3795   22.3155  -24.3112 C   0  0  0  0  0  0  0  0  0  0  0  0
   -5.1118   23.3102  -23.7645 N   0  0  0  0  0  0  0  0  0  0  0  0
   -4.8784   24.5298  -23.2300 C   0  0  0  0  0  0  0  0  0  0  0  0
   -6.1098   24.9791  -22.3902 C   0  0  0  0  0  0  0  0  0  0  0  0
   -6.2127   23.9179  -21.3149 N   0  0  0  0  0  0  0  0  0  0  0  0
   -6.5325   22.6361  -21.8555 C   0  0  0  0  0  0  0  0  0  0  0  0
   -6.4435   22.7522  -23.3784 C   0  0  0  0  0  0  0  0  0  0  0  0
   -6.0784   24.3225  -20.0375 C   0  0  0  0  0  0  0  0  0  0  0  0
   -6.1385   25.6566  -19.8952 O   0  0  0  0  0  0  0  0  0  0  0  0
   -5.8754   23.6820  -18.7353 C   0  0  0  0  0  0  0  0  0  0  0  0
   -5.8840   24.3660  -17.5735 C   0  0  0  0  0  0  0  0  0  0  0  0
   -4.4128   22.5415  -27.6328 C   0  0  0  0  0  0  0  0  0  0  0  0
   -4.7369   23.9523  -27.9379 N   0  0  0  0  0  0  0  0  0  0  0  0
   -5.2675   24.0610  -29.3016 C   0  0  0  0  0  0  0  0  0  0  0  0
   -5.3993   25.5883  -29.4729 C   0  0  0  0  0  0  0  0  0  0  0  0
   -6.4751   26.0048  -28.7302 O   0  0  0  0  0  0  0  0  0  0  0  0
   -6.1224   25.8624  -27.4014 C   0  0  0  0  0  0  0  0  0  0  0  0
   -5.8304   24.4349  -27.0637 C   0  0  0  0  0  0  0  0  0  0  0  0
 23 24  1  0  0  0
 24 13  1  0  0  0
 13 14  2  0  0  0
 14 15  1  0  0  0
 15 16  1  0  0  0
 15 17  2  0  0  0
 17 18  1  0  0  0
 18 19  1  0  0  0
 19 20  2  0  0  0
 20 21  1  0  0  0
 21 22  1  0  0  0
 20  1  1  0  0  0
  1  2  1  0  0  0
  2 25  1  0  0  0
 25 26  1  0  0  0
 26 27  1  0  0  0
 27 28  1  0  0  0
 28 29  1  0  0  0
 29 30  1  0  0  0
 30 31  1  0  0  0
 29 32  1  0  0  0
 32 33  2  0  0  0
 32 34  1  0  0  0
 34 35  2  0  0  0
  2  3  2  0  0  0
  3 36  1  0  0  0
 36 37  1  0  0  0
 37 38  1  0  0  0
 38 39  1  0  0  0
 39 40  1  0  0  0
 40 41  1  0  0  0
 41 42  1  0  0  0
  3  4  1  0  0  0
  4  5  1  0  0  0
  5  6  2  0  0  0
  6  7  1  0  0  0
  7  8  2  0  0  0
  8  9  1  0  0  0
  8 10  1  0  0  0
 22 13  1  0  0  0
 10  1  2  0  0  0
 22 18  2  0  0  0
 31 26  1  0  0  0
 42 37  1  0  0  0
 10  4  1  0  0  0
  9 11  1  0  0  0
  9 12  1  0  0  0
M  END
> <minimizedAffinity>
-8.79060

> <CNNscore>
0.6738513708

> <CNNaffinity>
7.8613252640

> <CNN_VS>
5.2973647118

> <CNNaffinity_variance>
0.0644570217

$$$$
[H]C([H])=C([H])C(=O)N1C([H])([H])C([H])([H])N(C([H])([H])c2c(-c3sc4c(OC([H])([H])[H])c([H])c(C([H])([H])[H])c([H])c4c3[H])c3c(N([H])[H])nc([H])nn3c2C([H])([H])N2C([H])([H])C([H])([H])OC([H])([H])C2([H])[H])C([H])([H])C1([H])[H]


 42 47  0  0  0  0  0  0  0  0999 V2000
   -1.5905   22.0451  -23.9361 C   0  0  0  0  0  0  0  0  0  0  0  0
   -2.9555   21.9166  -24.2343 C   0  0  0  0  0  0  0  0  0  0  0  0
   -3.0611   22.1507  -25.5756 C   0  0  0  0  0  0  0  0  0  0  0  0
   -1.8285   22.3840  -26.0629 N   0  0  0  0  0  0  0  0  0  0  0  0
   -1.3281   22.5775  -27.3060 N   0  0  0  0  0  0  0  0  0  0  0  0
   -0.0557   22.7033  -27.5975 C   0  0  0  0  0  0  0  0  0  0  0  0
    0.8513   22.6464  -26.6294 N   0  0  0  0  0  0  0  0  0  0  0  0
    0.4203   22.4494  -25.3432 C   0  0  0  0  0  0  0  0  0  0  0  0
    1.4882   22.2775  -24.4433 N   0  0  0  0  0  0  0  0  0  0  0  0
   -0.9241   22.3262  -25.0877 C   0  0  0  0  0  0  0  0  0  0  0  0
    1.5492   21.2818  -24.0006 H   0  0  0  0  0  0  0  0  0  0  0  0
    2.1972   22.9126  -24.1212 H   0  0  0  0  0  0  0  0  0  0  0  0
    0.1045   19.6572  -19.4056 C   0  0  0  0  0  0  0  0  0  0  0  0
   -0.1654   20.0666  -18.1205 C   0  0  0  0  0  0  0  0  0  0  0  0
   -0.6903   21.3189  -17.9663 C   0  0  0  0  0  0  0  0  0  0  0  0
   -1.2321   21.7457  -16.6090 C   0  0  0  0  0  0  0  0  0  0  0  0
   -0.9542   22.1687  -18.9878 C   0  0  0  0  0  0  0  0  0  0  0  0
   -0.7028   21.7905  -20.3415 C   0  0  0  0  0  0  0  0  0  0  0  0
   -1.0904   22.4387  -21.4712 C   0  0  0  0  0  0  0  0  0  0  0  0
   -0.9241   21.7386  -22.6603 C   0  0  0  0  0  0  0  0  0  0  0  0
   -0.2286   20.2822  -22.1365 S   0  0  0  0  0  0  0  0  0  0  0  0
   -0.1902   20.5748  -20.4713 C   0  0  0  0  0  0  0  0  0  0  0  0
    1.1143   17.4537  -20.3557 C   0  0  0  0  0  0  0  0  0  0  0  0
    0.6007   18.5418  -19.8877 O   0  0  0  0  0  0  0  0  0  0  0  0
   -3.9076   21.7907  -23.1319 C   0  0  0  0  0  0  0  0  0  0  0  0
   -4.9054   22.6313  -22.7824 N   0  0  0  0  0  0  0  0  0  0  0  0
   -6.1596   22.9061  -23.2057 C   0  0  0  0  0  0  0  0  0  0  0  0
   -6.6125   24.2858  -22.6448 C   0  0  0  0  0  0  0  0  0  0  0  0
   -5.6088   25.2551  -23.2330 N   0  0  0  0  0  0  0  0  0  0  0  0
   -4.2893   25.0262  -22.7389 C   0  0  0  0  0  0  0  0  0  0  0  0
   -4.3249   23.7216  -21.9408 C   0  0  0  0  0  0  0  0  0  0  0  0
   -6.0869   26.2176  -24.0446 C   0  0  0  0  0  0  0  0  0  0  0  0
   -7.4240   26.3343  -23.9975 O   0  0  0  0  0  0  0  0  0  0  0  0
   -5.5257   27.1882  -24.9880 C   0  0  0  0  0  0  0  0  0  0  0  0
   -4.2004   27.3962  -25.1231 C   0  0  0  0  0  0  0  0  0  0  0  0
   -4.3065   22.2152  -26.4099 C   0  0  0  0  0  0  0  0  0  0  0  0
   -4.2137   23.4564  -27.2093 N   0  0  0  0  0  0  0  0  0  0  0  0
   -4.0696   23.1268  -28.6319 C   0  0  0  0  0  0  0  0  0  0  0  0
   -3.8450   24.5171  -29.2613 C   0  0  0  0  0  0  0  0  0  0  0  0
   -5.0459   25.1808  -29.2578 O   0  0  0  0  0  0  0  0  0  0  0  0
   -5.3377   25.4717  -27.9385 C   0  0  0  0  0  0  0  0  0  0  0  0
   -5.4759   24.2261  -27.1222 C   0  0  0  0  0  0  0  0  0  0  0  0
 23 24  1  0  0  0
 24 13  1  0  0  0
 13 14  2  0  0  0
 14 15  1  0  0  0
 15 16  1  0  0  0
 15 17  2  0  0  0
 17 18  1  0  0  0
 18 19  1  0  0  0
 19 20  2  0  0  0
 20 21  1  0  0  0
 21 22  1  0  0  0
 20  1  1  0  0  0
  1  2  1  0  0  0
  2 25  1  0  0  0
 25 26  1  0  0  0
 26 27  1  0  0  0
 27 28  1  0  0  0
 28 29  1  0  0  0
 29 30  1  0  0  0
 30 31  1  0  0  0
 29 32  1  0  0  0
 32 33  2  0  0  0
 32 34  1  0  0  0
 34 35  2  0  0  0
  2  3  2  0  0  0
  3 36  1  0  0  0
 36 37  1  0  0  0
 37 38  1  0  0  0
 38 39  1  0  0  0
 39 40  1  0  0  0
 40 41  1  0  0  0
 41 42  1  0  0  0
  3  4  1  0  0  0
  4  5  1  0  0  0
  5  6  2  0  0  0
  6  7  1  0  0  0
  7  8  2  0  0  0
  8  9  1  0  0  0
  8 10  1  0  0  0
 22 13  1  0  0  0
 10  1  2  0  0  0
 22 18  2  0  0  0
 31 26  1  0  0  0
 42 37  1  0  0  0
 10  4  1  0  0  0
  9 11  1  0  0  0
  9 12  1  0  0  0
M  END
> <minimizedAffinity>
-8.50525

> <CNNscore>
0.5873691440

> <CNNaffinity>
7.7188119888

> <CNN_VS>
4.5337920189

> <CNNaffinity_variance>
0.0598049536

$$$$
[H]C([H])=C([H])C(=O)N1C([H])([H])C([H])([H])N(C([H])([H])c2c(-c3sc4c(OC([H])([H])[H])c([H])c(C([H])([H])[H])c([H])c4c3[H])c3c(N([H])[H])nc([H])nn3c2C([H])([H])N2C([H])([H])C([H])([H])OC([H])([H])C2([H])[H])C([H])([H])C1([H])[H]


 42 47  0  0  0  0  0  0  0  0999 V2000
   -1.6908   21.8022  -23.5911 C   0  0  0  0  0  0  0  0  0  0  0  0
   -3.0739   21.8122  -23.8272 C   0  0  0  0  0  0  0  0  0  0  0  0
   -3.2174   22.1152  -25.1511 C   0  0  0  0  0  0  0  0  0  0  0  0
   -1.9915   22.2570  -25.6881 N   0  0  0  0  0  0  0  0  0  0  0  0
   -1.5317   22.4599  -26.9454 N   0  0  0  0  0  0  0  0  0  0  0  0
   -0.2675   22.4822  -27.2934 C   0  0  0  0  0  0  0  0  0  0  0  0
    0.6729   22.2993  -26.3739 N   0  0  0  0  0  0  0  0  0  0  0  0
    0.2836   22.0846  -25.0773 C   0  0  0  0  0  0  0  0  0  0  0  0
    1.3702   21.7757  -24.2384 N   0  0  0  0  0  0  0  0  0  0  0  0
   -1.0535   22.0731  -24.7615 C   0  0  0  0  0  0  0  0  0  0  0  0
    1.3580   20.7597  -23.8402 H   0  0  0  0  0  0  0  0  0  0  0  0
    2.1491   22.3284  -23.9258 H   0  0  0  0  0  0  0  0  0  0  0  0
    1.7627   21.3417  -19.4727 C   0  0  0  0  0  0  0  0  0  0  0  0
    2.5900   20.2721  -19.2208 C   0  0  0  0  0  0  0  0  0  0  0  0
    2.3446   19.1215  -19.9162 C   0  0  0  0  0  0  0  0  0  0  0  0
    3.3545   17.9832  -19.8677 C   0  0  0  0  0  0  0  0  0  0  0  0
    1.3491   18.9734  -20.8230 C   0  0  0  0  0  0  0  0  0  0  0  0
    0.4683   20.0545  -21.1299 C   0  0  0  0  0  0  0  0  0  0  0  0
   -0.4375   20.1274  -22.1403 C   0  0  0  0  0  0  0  0  0  0  0  0
   -0.9992   21.3790  -22.3630 C   0  0  0  0  0  0  0  0  0  0  0  0
   -0.2704   22.3294  -21.1611 S   0  0  0  0  0  0  0  0  0  0  0  0
    0.7186   21.1605  -20.4431 C   0  0  0  0  0  0  0  0  0  0  0  0
    1.6651   23.7599  -18.5134 C   0  0  0  0  0  0  0  0  0  0  0  0
    1.7271   22.5602  -18.9860 O   0  0  0  0  0  0  0  0  0  0  0  0
   -3.9830   21.7241  -22.6856 C   0  0  0  0  0  0  0  0  0  0  0  0
   -4.8424   22.6569  -22.2209 N   0  0  0  0  0  0  0  0  0  0  0  0
   -6.1711   22.8970  -22.2885 C   0  0  0  0  0  0  0  0  0  0  0  0
   -6.4576   24.3763  -21.8976 C   0  0  0  0  0  0  0  0  0  0  0  0
   -5.7012   25.1722  -22.9405 N   0  0  0  0  0  0  0  0  0  0  0  0
   -4.2896   24.9878  -22.8357 C   0  0  0  0  0  0  0  0  0  0  0  0
   -4.0538   23.8634  -21.8256 C   0  0  0  0  0  0  0  0  0  0  0  0
   -6.4235   25.9798  -23.7402 C   0  0  0  0  0  0  0  0  0  0  0  0
   -7.6841   26.1589  -23.3130 O   0  0  0  0  0  0  0  0  0  0  0  0
   -6.1970   26.7270  -24.9801 C   0  0  0  0  0  0  0  0  0  0  0  0
   -5.0929   27.4703  -25.1960 C   0  0  0  0  0  0  0  0  0  0  0  0
   -4.4876   22.3305  -25.9202 C   0  0  0  0  0  0  0  0  0  0  0  0
   -4.1341   23.1602  -27.0928 N   0  0  0  0  0  0  0  0  0  0  0  0
   -4.9820   22.8007  -28.2351 C   0  0  0  0  0  0  0  0  0  0  0  0
   -4.3708   23.6513  -29.3675 C   0  0  0  0  0  0  0  0  0  0  0  0
   -4.7372   24.9570  -29.1591 O   0  0  0  0  0  0  0  0  0  0  0  0
   -4.0582   25.3880  -28.0350 C   0  0  0  0  0  0  0  0  0  0  0  0
   -4.4337   24.5864  -26.8293 C   0  0  0  0  0  0  0  0  0  0  0  0
 23 24  1  0  0  0
 24 13  1  0  0  0
 13 14  2  0  0  0
 14 15  1  0  0  0
 15 16  1  0  0  0
 15 17  2  0  0  0
 17 18  1  0  0  0
 18 19  1  0  0  0
 19 20  2  0  0  0
 20 21  1  0  0  0
 21 22  1  0  0  0
 20  1  1  0  0  0
  1  2  1  0  0  0
  2 25  1  0  0  0
 25 26  1  0  0  0
 26 27  1  0  0  0
 27 28  1  0  0  0
 28 29  1  0  0  0
 29 30  1  0  0  0
 30 31  1  0  0  0
 29 32  1  0  0  0
 32 33  2  0  0  0
 32 34  1  0  0  0
 34 35  2  0  0  0
  2  3  2  0  0  0
  3 36  1  0  0  0
 36 37  1  0  0  0
 37 38  1  0  0  0
 38 39  1  0  0  0
 39 40  1  0  0  0
 40 41  1  0  0  0
 41 42  1  0  0  0
  3  4  1  0  0  0
  4  5  1  0  0  0
  5  6  2  0  0  0
  6  7  1  0  0  0
  7  8  2  0  0  0
  8  9  1  0  0  0
  8 10  1  0  0  0
 22 13  1  0  0  0
 10  1  2  0  0  0
 22 18  2  0  0  0
 31 26  1  0  0  0
 42 37  1  0  0  0
 10  4  1  0  0  0
  9 11  1  0  0  0
  9 12  1  0  0  0
M  END
> <minimizedAffinity>
-8.30709

> <CNNscore>
0.4977711439

> <CNNaffinity>
7.7500715256

> <CNN_VS>
3.8577618599

> <CNNaffinity_variance>
0.0103509575

$$$$
[H]C([H])=C([H])C(=O)N1C([H])([H])C([H])([H])N(C([H])([H])c2c(-c3sc4c(OC([H])([H])[H])c([H])c(C([H])([H])[H])c([H])c4c3[H])c3c(N([H])[H])nc([H])nn3c2C([H])([H])N2C([H])([H])C([H])([H])OC([H])([H])C2([H])[H])C([H])([H])C1([H])[H]


 42 47  0  0  0  0  0  0  0  0999 V2000
   -1.6729   22.2355  -23.9091 C   0  0  0  0  0  0  0  0  0  0  0  0
   -3.0460   22.2161  -24.1969 C   0  0  0  0  0  0  0  0  0  0  0  0
   -3.1424   22.4534  -25.5384 C   0  0  0  0  0  0  0  0  0  0  0  0
   -1.8988   22.5853  -26.0354 N   0  0  0  0  0  0  0  0  0  0  0  0
   -1.3938   22.7338  -27.2829 N   0  0  0  0  0  0  0  0  0  0  0  0
   -0.1177   22.7560  -27.5840 C   0  0  0  0  0  0  0  0  0  0  0  0
    0.7891   22.6297  -26.6222 N   0  0  0  0  0  0  0  0  0  0  0  0
    0.3533   22.4723  -25.3323 C   0  0  0  0  0  0  0  0  0  0  0  0
    1.4107   22.2182  -24.4394 N   0  0  0  0  0  0  0  0  0  0  0  0
   -0.9946   22.4583  -25.0665 C   0  0  0  0  0  0  0  0  0  0  0  0
    1.3949   21.2223  -23.9932 H   0  0  0  0  0  0  0  0  0  0  0  0
    2.1708   22.7953  -24.1249 H   0  0  0  0  0  0  0  0  0  0  0  0
   -0.0793   19.6982  -19.4232 C   0  0  0  0  0  0  0  0  0  0  0  0
   -0.3436   20.0880  -18.1308 C   0  0  0  0  0  0  0  0  0  0  0  0
   -0.8299   21.3526  -17.9520 C   0  0  0  0  0  0  0  0  0  0  0  0
   -1.3657   21.7668  -16.5885 C   0  0  0  0  0  0  0  0  0  0  0  0
   -1.0612   22.2322  -18.9562 C   0  0  0  0  0  0  0  0  0  0  0  0
   -0.8141   21.8755  -20.3165 C   0  0  0  0  0  0  0  0  0  0  0  0
   -1.1747   22.5599  -21.4338 C   0  0  0  0  0  0  0  0  0  0  0  0
   -1.0236   21.8807  -22.6369 C   0  0  0  0  0  0  0  0  0  0  0  0
   -0.3771   20.3922  -22.1414 S   0  0  0  0  0  0  0  0  0  0  0  0
   -0.3390   20.6474  -20.4701 C   0  0  0  0  0  0  0  0  0  0  0  0
    0.8615   17.4913  -20.4340 C   0  0  0  0  0  0  0  0  0  0  0  0
    0.3845   18.5784  -19.9270 O   0  0  0  0  0  0  0  0  0  0  0  0
   -3.9968   22.1708  -23.0872 C   0  0  0  0  0  0  0  0  0  0  0  0
   -4.8023   23.1536  -22.6293 N   0  0  0  0  0  0  0  0  0  0  0  0
   -4.6519   24.3925  -22.1097 C   0  0  0  0  0  0  0  0  0  0  0  0
   -5.9623   24.8211  -21.3867 C   0  0  0  0  0  0  0  0  0  0  0  0
   -6.1219   23.7830  -20.2959 N   0  0  0  0  0  0  0  0  0  0  0  0
   -6.3559   22.4789  -20.8271 C   0  0  0  0  0  0  0  0  0  0  0  0
   -6.1438   22.5616  -22.3399 C   0  0  0  0  0  0  0  0  0  0  0  0
   -6.1071   24.2220  -19.0229 C   0  0  0  0  0  0  0  0  0  0  0  0
   -6.2199   25.5564  -18.9213 O   0  0  0  0  0  0  0  0  0  0  0  0
   -5.9939   23.6196  -17.6920 C   0  0  0  0  0  0  0  0  0  0  0  0
   -4.8848   22.9799  -17.2696 C   0  0  0  0  0  0  0  0  0  0  0  0
   -4.3849   22.6149  -26.3639 C   0  0  0  0  0  0  0  0  0  0  0  0
   -4.3872   24.0114  -26.8520 N   0  0  0  0  0  0  0  0  0  0  0  0
   -5.1874   24.1126  -28.0778 C   0  0  0  0  0  0  0  0  0  0  0  0
   -4.9468   25.5774  -28.4970 C   0  0  0  0  0  0  0  0  0  0  0  0
   -5.6571   26.3828  -27.6431 O   0  0  0  0  0  0  0  0  0  0  0  0
   -5.0403   26.2992  -26.4090 C   0  0  0  0  0  0  0  0  0  0  0  0
   -5.0643   24.9003  -25.8801 C   0  0  0  0  0  0  0  0  0  0  0  0
 23 24  1  0  0  0
 24 13  1  0  0  0
 13 14  2  0  0  0
 14 15  1  0  0  0
 15 16  1  0  0  0
 15 17  2  0  0  0
 17 18  1  0  0  0
 18 19  1  0  0  0
 19 20  2  0  0  0
 20 21  1  0  0  0
 21 22  1  0  0  0
 20  1  1  0  0  0
  1  2  1  0  0  0
  2 25  1  0  0  0
 25 26  1  0  0  0
 26 27  1  0  0  0
 27 28  1  0  0  0
 28 29  1  0  0  0
 29 30  1  0  0  0
 30 31  1  0  0  0
 29 32  1  0  0  0
 32 33  2  0  0  0
 32 34  1  0  0  0
 34 35  2  0  0  0
  2  3  2  0  0  0
  3 36  1  0  0  0
 36 37  1  0  0  0
 37 38  1  0  0  0
 38 39  1  0  0  0
 39 40  1  0  0  0
 40 41  1  0  0  0
 41 42  1  0  0  0
  3  4  1  0  0  0
  4  5  1  0  0  0
  5  6  2  0  0  0
  6  7  1  0  0  0
  7  8  2  0  0  0
  8  9  1  0  0  0
  8 10  1  0  0  0
 22 13  1  0  0  0
 10  1  2  0  0  0
 22 18  2  0  0  0
 31 26  1  0  0  0
 42 37  1  0  0  0
 10  4  1  0  0  0
  9 11  1  0  0  0
  9 12  1  0  0  0
M  END
> <minimizedAffinity>
-8.49506

> <CNNscore>
0.4260639548

> <CNNaffinity>
7.4417657852

> <CNN_VS>
3.1706681252

> <CNNaffinity_variance>
0.1087682396

$$$$
[H]C([H])=C([H])C(=O)N1C([H])([H])C([H])([H])N(C([H])([H])c2c(-c3sc4c(OC([H])([H])[H])c([H])c(C([H])([H])[H])c([H])c4c3[H])c3c(N([H])[H])nc([H])nn3c2C([H])([H])N2C([H])([H])C([H])([H])OC([H])([H])C2([H])[H])C([H])([H])C1([H])[H]


 42 47  0  0  0  0  0  0  0  0999 V2000
   -1.7971   21.9839  -23.7239 C   0  0  0  0  0  0  0  0  0  0  0  0
   -3.1700   22.0503  -24.0058 C   0  0  0  0  0  0  0  0  0  0  0  0
   -3.2570   22.3311  -25.3395 C   0  0  0  0  0  0  0  0  0  0  0  0
   -2.0094   22.4068  -25.8383 N   0  0  0  0  0  0  0  0  0  0  0  0
   -1.5006   22.5623  -27.0835 N   0  0  0  0  0  0  0  0  0  0  0  0
   -0.2262   22.5210  -27.3898 C   0  0  0  0  0  0  0  0  0  0  0  0
    0.6749   22.3161  -26.4363 N   0  0  0  0  0  0  0  0  0  0  0  0
    0.2349   22.1467  -25.1493 C   0  0  0  0  0  0  0  0  0  0  0  0
    1.2789   21.8078  -24.2689 N   0  0  0  0  0  0  0  0  0  0  0  0
   -1.1109   22.2012  -24.8777 C   0  0  0  0  0  0  0  0  0  0  0  0
    1.2081   20.8019  -23.8512 H   0  0  0  0  0  0  0  0  0  0  0  0
    2.0714   22.3318  -23.9417 H   0  0  0  0  0  0  0  0  0  0  0  0
    1.5023   21.4528  -19.4893 C   0  0  0  0  0  0  0  0  0  0  0  0
    2.2672   20.3501  -19.1875 C   0  0  0  0  0  0  0  0  0  0  0  0
    1.9861   19.1967  -19.8645 C   0  0  0  0  0  0  0  0  0  0  0  0
    2.9360   18.0117  -19.7587 C   0  0  0  0  0  0  0  0  0  0  0  0
    1.0124   19.0761  -20.7988 C   0  0  0  0  0  0  0  0  0  0  0  0
    0.1964   20.1915  -21.1574 C   0  0  0  0  0  0  0  0  0  0  0  0
   -0.6735   20.2847  -22.1972 C   0  0  0  0  0  0  0  0  0  0  0  0
   -1.1651   21.5567  -22.4654 C   0  0  0  0  0  0  0  0  0  0  0  0
   -0.4267   22.4985  -21.2626 S   0  0  0  0  0  0  0  0  0  0  0  0
    0.4805   21.2999  -20.4879 C   0  0  0  0  0  0  0  0  0  0  0  0
    1.5456   23.8866  -18.5661 C   0  0  0  0  0  0  0  0  0  0  0  0
    1.5127   22.6828  -19.0313 O   0  0  0  0  0  0  0  0  0  0  0  0
   -4.1184   22.0270  -22.8933 C   0  0  0  0  0  0  0  0  0  0  0  0
   -4.9094   23.0243  -22.4416 N   0  0  0  0  0  0  0  0  0  0  0  0
   -4.7428   24.2772  -21.9618 C   0  0  0  0  0  0  0  0  0  0  0  0
   -6.0319   24.7293  -21.2154 C   0  0  0  0  0  0  0  0  0  0  0  0
   -6.1629   23.7229  -20.0915 N   0  0  0  0  0  0  0  0  0  0  0  0
   -6.4136   22.4048  -20.5786 C   0  0  0  0  0  0  0  0  0  0  0  0
   -6.2434   22.4440  -22.0984 C   0  0  0  0  0  0  0  0  0  0  0  0
   -6.1122   24.1979  -18.8324 C   0  0  0  0  0  0  0  0  0  0  0  0
   -6.2200   25.5350  -18.7658 O   0  0  0  0  0  0  0  0  0  0  0  0
   -5.9631   23.6334  -17.4885 C   0  0  0  0  0  0  0  0  0  0  0  0
   -5.0414   24.0724  -16.6078 C   0  0  0  0  0  0  0  0  0  0  0  0
   -4.4908   22.5862  -26.1543 C   0  0  0  0  0  0  0  0  0  0  0  0
   -4.4362   24.0055  -26.5676 N   0  0  0  0  0  0  0  0  0  0  0  0
   -5.0044   24.1583  -27.9117 C   0  0  0  0  0  0  0  0  0  0  0  0
   -4.7248   25.6457  -28.2101 C   0  0  0  0  0  0  0  0  0  0  0  0
   -5.5952   26.3970  -27.4616 O   0  0  0  0  0  0  0  0  0  0  0  0
   -5.2092   26.2589  -26.1417 C   0  0  0  0  0  0  0  0  0  0  0  0
   -5.2970   24.8347  -25.6931 C   0  0  0  0  0  0  0  0  0  0  0  0
 23 24  1  0  0  0
 24 13  1  0  0  0
 13 14  2  0  0  0
 14 15  1  0  0  0
 15 16  1  0  0  0
 15 17  2  0  0  0
 17 18  1  0  0  0
 18 19  1  0  0  0
 19 20  2  0  0  0
 20 21  1  0  0  0
 21 22  1  0  0  0
 20  1  1  0  0  0
  1  2  1  0  0  0
  2 25  1  0  0  0
 25 26  1  0  0  0
 26 27  1  0  0  0
 27 28  1  0  0  0
 28 29  1  0  0  0
 29 30  1  0  0  0
 30 31  1  0  0  0
 29 32  1  0  0  0
 32 33  2  0  0  0
 32 34  1  0  0  0
 34 35  2  0  0  0
  2  3  2  0  0  0
  3 36  1  0  0  0
 36 37  1  0  0  0
 37 38  1  0  0  0
 38 39  1  0  0  0
 39 40  1  0  0  0
 40 41  1  0  0  0
 41 42  1  0  0  0
  3  4  1  0  0  0
  4  5  1  0  0  0
  5  6  2  0  0  0
  6  7  1  0  0  0
  7  8  2  0  0  0
  8  9  1  0  0  0
  8 10  1  0  0  0
 22 13  1  0  0  0
 10  1  2  0  0  0
 22 18  2  0  0  0
 31 26  1  0  0  0
 42 37  1  0  0  0
 10  4  1  0  0  0
  9 11  1  0  0  0
  9 12  1  0  0  0
M  END
> <minimizedAffinity>
-8.52091

> <CNNscore>
0.3458781838

> <CNNaffinity>
7.4295578003

> <CNN_VS>
2.5697219372

> <CNNaffinity_variance>
0.0530851968

$$$$
[H]C([H])=C([H])C(=O)N1C([H])([H])C([H])([H])N(C([H])([H])c2c(-c3sc4c(OC([H])([H])[H])c([H])c(C([H])([H])[H])c([H])c4c3[H])c3c(N([H])[H])nc([H])nn3c2C([H])([H])N2C([H])([H])C([H])([H])OC([H])([H])C2([H])[H])C([H])([H])C1([H])[H]


 42 47  0  0  0  0  0  0  0  0999 V2000
   -1.5929   21.9986  -23.3288 C   0  0  0  0  0  0  0  0  0  0  0  0
   -2.9766   22.1935  -23.4555 C   0  0  0  0  0  0  0  0  0  0  0  0
   -3.1869   22.4807  -24.7740 C   0  0  0  0  0  0  0  0  0  0  0  0
   -2.0019   22.4387  -25.4105 N   0  0  0  0  0  0  0  0  0  0  0  0
   -1.6246   22.5452  -26.7065 N   0  0  0  0  0  0  0  0  0  0  0  0
   -0.4023   22.3843  -27.1535 C   0  0  0  0  0  0  0  0  0  0  0  0
    0.5776   22.0961  -26.3049 N   0  0  0  0  0  0  0  0  0  0  0  0
    0.2716   21.9693  -24.9749 C   0  0  0  0  0  0  0  0  0  0  0  0
    1.3721   21.5342  -24.2136 N   0  0  0  0  0  0  0  0  0  0  0  0
   -1.0239   22.1500  -24.5546 C   0  0  0  0  0  0  0  0  0  0  0  0
    1.2554   20.5396  -23.7796 H   0  0  0  0  0  0  0  0  0  0  0  0
    2.2419   21.9817  -23.9832 H   0  0  0  0  0  0  0  0  0  0  0  0
    2.0509   21.2405  -19.4239 C   0  0  0  0  0  0  0  0  0  0  0  0
    2.8039   20.1071  -19.2230 C   0  0  0  0  0  0  0  0  0  0  0  0
    2.4269   18.9838  -19.9041 C   0  0  0  0  0  0  0  0  0  0  0  0
    3.3440   17.7687  -19.9172 C   0  0  0  0  0  0  0  0  0  0  0  0
    1.3707   18.9207  -20.7502 C   0  0  0  0  0  0  0  0  0  0  0  0
    0.5622   20.0702  -21.0028 C   0  0  0  0  0  0  0  0  0  0  0  0
   -0.3931   20.2209  -21.9573 C   0  0  0  0  0  0  0  0  0  0  0  0
   -0.8656   21.5144  -22.1446 C   0  0  0  0  0  0  0  0  0  0  0  0
    0.0065   22.3966  -20.9869 S   0  0  0  0  0  0  0  0  0  0  0  0
    0.9401   21.1486  -20.3307 C   0  0  0  0  0  0  0  0  0  0  0  0
    2.2095   23.6438  -18.4357 C   0  0  0  0  0  0  0  0  0  0  0  0
    2.1413   22.4550  -18.9344 O   0  0  0  0  0  0  0  0  0  0  0  0
   -3.7916   22.2597  -22.2435 C   0  0  0  0  0  0  0  0  0  0  0  0
   -5.1192   22.0496  -22.1102 N   0  0  0  0  0  0  0  0  0  0  0  0
   -6.2367   22.3052  -22.8268 C   0  0  0  0  0  0  0  0  0  0  0  0
   -7.4877   22.1888  -21.9077 C   0  0  0  0  0  0  0  0  0  0  0  0
   -7.2547   23.2517  -20.8546 N   0  0  0  0  0  0  0  0  0  0  0  0
   -6.1200   22.9591  -20.0394 C   0  0  0  0  0  0  0  0  0  0  0  0
   -5.4050   21.7633  -20.6714 C   0  0  0  0  0  0  0  0  0  0  0  0
   -8.1592   24.2462  -20.7747 C   0  0  0  0  0  0  0  0  0  0  0  0
   -9.2812   23.9991  -21.4703 O   0  0  0  0  0  0  0  0  0  0  0  0
   -8.2451   25.5550  -20.1214 C   0  0  0  0  0  0  0  0  0  0  0  0
   -9.1350   26.4993  -20.4878 C   0  0  0  0  0  0  0  0  0  0  0  0
   -4.4756   22.8500  -25.4479 C   0  0  0  0  0  0  0  0  0  0  0  0
   -4.3490   24.2683  -25.8494 N   0  0  0  0  0  0  0  0  0  0  0  0
   -5.4331   24.6269  -26.7708 C   0  0  0  0  0  0  0  0  0  0  0  0
   -5.0457   26.0637  -27.1769 C   0  0  0  0  0  0  0  0  0  0  0  0
   -5.3109   26.8888  -26.1132 O   0  0  0  0  0  0  0  0  0  0  0  0
   -4.3930   26.5778  -25.1277 C   0  0  0  0  0  0  0  0  0  0  0  0
   -4.5329   25.1576  -24.6796 C   0  0  0  0  0  0  0  0  0  0  0  0
 23 24  1  0  0  0
 24 13  1  0  0  0
 13 14  2  0  0  0
 14 15  1  0  0  0
 15 16  1  0  0  0
 15 17  2  0  0  0
 17 18  1  0  0  0
 18 19  1  0  0  0
 19 20  2  0  0  0
 20 21  1  0  0  0
 21 22  1  0  0  0
 20  1  1  0  0  0
  1  2  1  0  0  0
  2 25  1  0  0  0
 25 26  1  0  0  0
 26 27  1  0  0  0
 27 28  1  0  0  0
 28 29  1  0  0  0
 29 30  1  0  0  0
 30 31  1  0  0  0
 29 32  1  0  0  0
 32 33  2  0  0  0
 32 34  1  0  0  0
 34 35  2  0  0  0
  2  3  2  0  0  0
  3 36  1  0  0  0
 36 37  1  0  0  0
 37 38  1  0  0  0
 38 39  1  0  0  0
 39 40  1  0  0  0
 40 41  1  0  0  0
 41 42  1  0  0  0
  3  4  1  0  0  0
  4  5  1  0  0  0
  5  6  2  0  0  0
  6  7  1  0  0  0
  7  8  2  0  0  0
  8  9  1  0  0  0
  8 10  1  0  0  0
 22 13  1  0  0  0
 10  1  2  0  0  0
 22 18  2  0  0  0
 31 26  1  0  0  0
 42 37  1  0  0  0
 10  4  1  0  0  0
  9 11  1  0  0  0
  9 12  1  0  0  0
M  END
> <minimizedAffinity>
-8.20410

> <CNNscore>
0.2807622552

> <CNNaffinity>
7.1996946335

> <CNN_VS>
2.0214025974

> <CNNaffinity_variance>
0.0401726477

$$$$
[H]C([H])=C([H])C(=O)N1C([H])([H])C([H])([H])N(C([H])([H])c2c(-c3sc4c(OC([H])([H])[H])c([H])c(C([H])([H])[H])c([H])c4c3[H])c3c(N([H])[H])nc([H])nn3c2C([H])([H])N2C([H])([H])C([H])([H])OC([H])([H])C2([H])[H])C([H])([H])C1([H])[H]


 42 47  0  0  0  0  0  0  0  0999 V2000
   -1.5094   21.9496  -23.5093 C   0  0  0  0  0  0  0  0  0  0  0  0
   -2.2339   21.6245  -22.3526 C   0  0  0  0  0  0  0  0  0  0  0  0
   -1.3220   21.0913  -21.4870 C   0  0  0  0  0  0  0  0  0  0  0  0
   -0.1133   21.1145  -22.0783 N   0  0  0  0  0  0  0  0  0  0  0  0
    1.1411   20.8097  -21.6697 N   0  0  0  0  0  0  0  0  0  0  0  0
    2.2305   20.9863  -22.3781 C   0  0  0  0  0  0  0  0  0  0  0  0
    2.1466   21.4989  -23.6002 N   0  0  0  0  0  0  0  0  0  0  0  0
    0.9084   21.8355  -24.0821 C   0  0  0  0  0  0  0  0  0  0  0  0
    0.9797   22.4862  -25.3276 N   0  0  0  0  0  0  0  0  0  0  0  0
   -0.2042   21.6287  -23.3029 C   0  0  0  0  0  0  0  0  0  0  0  0
    0.6596   23.5295  -25.3104 H   0  0  0  0  0  0  0  0  0  0  0  0
    1.2574   22.1584  -26.2360 H   0  0  0  0  0  0  0  0  0  0  0  0
   -4.4504   24.8930  -26.9427 C   0  0  0  0  0  0  0  0  0  0  0  0
   -4.9857   24.4598  -28.1334 C   0  0  0  0  0  0  0  0  0  0  0  0
   -4.5312   23.2661  -28.6194 C   0  0  0  0  0  0  0  0  0  0  0  0
   -5.2425   22.6132  -29.7965 C   0  0  0  0  0  0  0  0  0  0  0  0
   -3.5976   22.4973  -28.0088 C   0  0  0  0  0  0  0  0  0  0  0  0
   -3.0171   22.8947  -26.7663 C   0  0  0  0  0  0  0  0  0  0  0  0
   -2.2296   22.1546  -25.9424 C   0  0  0  0  0  0  0  0  0  0  0  0
   -1.9920   22.6938  -24.6837 C   0  0  0  0  0  0  0  0  0  0  0  0
   -2.8318   24.1667  -24.7491 S   0  0  0  0  0  0  0  0  0  0  0  0
   -3.4667   24.0564  -26.3126 C   0  0  0  0  0  0  0  0  0  0  0  0
   -4.8633   27.0431  -25.5342 C   0  0  0  0  0  0  0  0  0  0  0  0
   -4.6635   25.9692  -26.2221 O   0  0  0  0  0  0  0  0  0  0  0  0
   -3.6930   21.7097  -22.3892 C   0  0  0  0  0  0  0  0  0  0  0  0
   -4.4876   22.7164  -21.9653 N   0  0  0  0  0  0  0  0  0  0  0  0
   -4.5310   23.5648  -20.9136 C   0  0  0  0  0  0  0  0  0  0  0  0
   -5.9504   24.1948  -20.8058 C   0  0  0  0  0  0  0  0  0  0  0  0
   -6.8538   22.9996  -20.5859 N   0  0  0  0  0  0  0  0  0  0  0  0
   -6.8775   22.1300  -21.7176 C   0  0  0  0  0  0  0  0  0  0  0  0
   -5.7944   22.6145  -22.6833 C   0  0  0  0  0  0  0  0  0  0  0  0
   -7.5512   22.9601  -19.4345 C   0  0  0  0  0  0  0  0  0  0  0  0
   -7.5416   24.1267  -18.7690 O   0  0  0  0  0  0  0  0  0  0  0  0
   -8.3299   21.9617  -18.6971 C   0  0  0  0  0  0  0  0  0  0  0  0
   -9.5648   21.5724  -19.0731 C   0  0  0  0  0  0  0  0  0  0  0  0
   -1.5671   20.5053  -20.1276 C   0  0  0  0  0  0  0  0  0  0  0  0
   -0.2599   20.0142  -19.6392 N   0  0  0  0  0  0  0  0  0  0  0  0
    0.0243   20.5782  -18.3148 C   0  0  0  0  0  0  0  0  0  0  0  0
    1.4593   20.0759  -18.0544 C   0  0  0  0  0  0  0  0  0  0  0  0
    1.3919   18.7357  -17.7686 O   0  0  0  0  0  0  0  0  0  0  0  0
    1.0377   18.0946  -18.9408 C   0  0  0  0  0  0  0  0  0  0  0  0
   -0.3012   18.5488  -19.4288 C   0  0  0  0  0  0  0  0  0  0  0  0
 23 24  1  0  0  0
 24 13  1  0  0  0
 13 14  2  0  0  0
 14 15  1  0  0  0
 15 16  1  0  0  0
 15 17  2  0  0  0
 17 18  1  0  0  0
 18 19  1  0  0  0
 19 20  2  0  0  0
 20 21  1  0  0  0
 21 22  1  0  0  0
 20  1  1  0  0  0
  1  2  1  0  0  0
  2 25  1  0  0  0
 25 26  1  0  0  0
 26 27  1  0  0  0
 27 28  1  0  0  0
 28 29  1  0  0  0
 29 30  1  0  0  0
 30 31  1  0  0  0
 29 32  1  0  0  0
 32 33  2  0  0  0
 32 34  1  0  0  0
 34 35  2  0  0  0
  2  3  2  0  0  0
  3 36  1  0  0  0
 36 37  1  0  0  0
 37 38  1  0  0  0
 38 39  1  0  0  0
 39 40  1  0  0  0
 40 41  1  0  0  0
 41 42  1  0  0  0
  3  4  1  0  0  0
  4  5  1  0  0  0
  5  6  2  0  0  0
  6  7  1  0  0  0
  7  8  2  0  0  0
  8  9  1  0  0  0
  8 10  1  0  0  0
 22 13  1  0  0  0
 10  1  2  0  0  0
 22 18  2  0  0  0
 31 26  1  0  0  0
 42 37  1  0  0  0
 10  4  1  0  0  0
  9 11  1  0  0  0
  9 12  1  0  0  0
M  END
> <minimizedAffinity>
-8.10127

> <CNNscore>
0.2462438941

> <CNNaffinity>
7.4089112282

> <CNN_VS>
1.8243991137

> <CNNaffinity_variance>
0.2680161595

$$$$
[H]C([H])=C([H])C(=O)N1C([H])([H])C([H])([H])N(C([H])([H])c2c(-c3sc4c(OC([H])([H])[H])c([H])c(C([H])([H])[H])c([H])c4c3[H])c3c(N([H])[H])nc([H])nn3c2C([H])([H])N2C([H])([H])C([H])([H])OC([H])([H])C2([H])[H])C([H])([H])C1([H])[H]


 42 47  0  0  0  0  0  0  0  0999 V2000
   -1.5487   21.9777  -23.8550 C   0  0  0  0  0  0  0  0  0  0  0  0
   -2.2355   21.5181  -22.7211 C   0  0  0  0  0  0  0  0  0  0  0  0
   -1.2823   20.9648  -21.9146 C   0  0  0  0  0  0  0  0  0  0  0  0
   -0.0865   21.1032  -22.5164 N   0  0  0  0  0  0  0  0  0  0  0  0
    1.1890   20.8342  -22.1502 N   0  0  0  0  0  0  0  0  0  0  0  0
    2.2555   21.1284  -22.8543 C   0  0  0  0  0  0  0  0  0  0  0  0
    2.1241   21.7360  -24.0277 N   0  0  0  0  0  0  0  0  0  0  0  0
    0.8619   22.0437  -24.4645 C   0  0  0  0  0  0  0  0  0  0  0  0
    0.8777   22.7991  -25.6514 N   0  0  0  0  0  0  0  0  0  0  0  0
   -0.2250   21.7122  -23.6921 C   0  0  0  0  0  0  0  0  0  0  0  0
    0.5028   23.8183  -25.5425 H   0  0  0  0  0  0  0  0  0  0  0  0
    1.1574   22.5640  -26.5876 H   0  0  0  0  0  0  0  0  0  0  0  0
   -4.6950   25.0415  -26.9877 C   0  0  0  0  0  0  0  0  0  0  0  0
   -5.2329   24.6804  -28.2011 C   0  0  0  0  0  0  0  0  0  0  0  0
   -4.7319   23.5538  -28.7905 C   0  0  0  0  0  0  0  0  0  0  0  0
   -5.4347   22.9643  -30.0056 C   0  0  0  0  0  0  0  0  0  0  0  0
   -3.7506   22.7849  -28.2601 C   0  0  0  0  0  0  0  0  0  0  0  0
   -3.1649   23.1083  -26.9988 C   0  0  0  0  0  0  0  0  0  0  0  0
   -2.3266   22.3435  -26.2512 C   0  0  0  0  0  0  0  0  0  0  0  0
   -2.0897   22.7900  -24.9565 C   0  0  0  0  0  0  0  0  0  0  0  0
   -2.9999   24.2203  -24.8874 S   0  0  0  0  0  0  0  0  0  0  0  0
   -3.6601   24.2059  -26.4442 C   0  0  0  0  0  0  0  0  0  0  0  0
   -5.1648   27.0398  -25.3866 C   0  0  0  0  0  0  0  0  0  0  0  0
   -4.9447   26.0440  -26.1781 O   0  0  0  0  0  0  0  0  0  0  0  0
   -3.6975   21.5264  -22.7327 C   0  0  0  0  0  0  0  0  0  0  0  0
   -4.5437   21.9615  -21.7741 N   0  0  0  0  0  0  0  0  0  0  0  0
   -5.7438   21.5916  -21.2735 C   0  0  0  0  0  0  0  0  0  0  0  0
   -6.3651   22.7730  -20.4725 C   0  0  0  0  0  0  0  0  0  0  0  0
   -6.5153   23.8656  -21.5101 N   0  0  0  0  0  0  0  0  0  0  0  0
   -5.2526   24.3206  -21.9961 C   0  0  0  0  0  0  0  0  0  0  0  0
   -4.1864   23.3741  -21.4412 C   0  0  0  0  0  0  0  0  0  0  0  0
   -7.7629   24.3040  -21.7647 C   0  0  0  0  0  0  0  0  0  0  0  0
   -8.6653   23.8880  -20.8611 O   0  0  0  0  0  0  0  0  0  0  0  0
   -8.4122   25.1271  -22.7884 C   0  0  0  0  0  0  0  0  0  0  0  0
   -8.1629   24.9884  -24.1061 C   0  0  0  0  0  0  0  0  0  0  0  0
   -1.4732   20.2548  -20.6067 C   0  0  0  0  0  0  0  0  0  0  0  0
   -1.4577   21.2965  -19.5563 N   0  0  0  0  0  0  0  0  0  0  0  0
   -2.6721   21.2012  -18.7381 C   0  0  0  0  0  0  0  0  0  0  0  0
   -2.5373   22.4339  -17.8207 C   0  0  0  0  0  0  0  0  0  0  0  0
   -1.5638   22.1644  -16.8922 O   0  0  0  0  0  0  0  0  0  0  0  0
   -0.3601   22.1394  -17.5711 C   0  0  0  0  0  0  0  0  0  0  0  0
   -0.3417   21.0643  -18.6109 C   0  0  0  0  0  0  0  0  0  0  0  0
 23 24  1  0  0  0
 24 13  1  0  0  0
 13 14  2  0  0  0
 14 15  1  0  0  0
 15 16  1  0  0  0
 15 17  2  0  0  0
 17 18  1  0  0  0
 18 19  1  0  0  0
 19 20  2  0  0  0
 20 21  1  0  0  0
 21 22  1  0  0  0
 20  1  1  0  0  0
  1  2  1  0  0  0
  2 25  1  0  0  0
 25 26  1  0  0  0
 26 27  1  0  0  0
 27 28  1  0  0  0
 28 29  1  0  0  0
 29 30  1  0  0  0
 30 31  1  0  0  0
 29 32  1  0  0  0
 32 33  2  0  0  0
 32 34  1  0  0  0
 34 35  2  0  0  0
  2  3  2  0  0  0
  3 36  1  0  0  0
 36 37  1  0  0  0
 37 38  1  0  0  0
 38 39  1  0  0  0
 39 40  1  0  0  0
 40 41  1  0  0  0
 41 42  1  0  0  0
  3  4  1  0  0  0
  4  5  1  0  0  0
  5  6  2  0  0  0
  6  7  1  0  0  0
  7  8  2  0  0  0
  8  9  1  0  0  0
  8 10  1  0  0  0
 22 13  1  0  0  0
 10  1  2  0  0  0
 22 18  2  0  0  0
 31 26  1  0  0  0
 42 37  1  0  0  0
 10  4  1  0  0  0
  9 11  1  0  0  0
  9 12  1  0  0  0
M  END
> <minimizedAffinity>
-8.21976

> <CNNscore>
0.2409186661

> <CNNaffinity>
7.2998795509

> <CNN_VS>
1.7586772442

> <CNNaffinity_variance>
0.1187345758

$$$$
[H]C([H])=C([H])C(=O)N1C([H])([H])C([H])([H])N(C([H])([H])c2c(-c3sc4c(OC([H])([H])[H])c([H])c(C([H])([H])[H])c([H])c4c3[H])c3c(N([H])[H])nc([H])nn3c2C([H])([H])N2C([H])([H])C([H])([H])OC([H])([H])C2([H])[H])C([H])([H])C1([H])[H]


 42 47  0  0  0  0  0  0  0  0999 V2000
   -1.6212   21.8022  -22.6411 C   0  0  0  0  0  0  0  0  0  0  0  0
   -1.7872   21.5027  -21.2805 C   0  0  0  0  0  0  0  0  0  0  0  0
   -0.5674   21.0644  -20.8503 C   0  0  0  0  0  0  0  0  0  0  0  0
    0.2909   21.1182  -21.8854 N   0  0  0  0  0  0  0  0  0  0  0  0
    1.6207   20.9009  -22.0187 N   0  0  0  0  0  0  0  0  0  0  0  0
    2.3120   21.0952  -23.1160 C   0  0  0  0  0  0  0  0  0  0  0  0
    1.7023   21.5364  -24.2101 N   0  0  0  0  0  0  0  0  0  0  0  0
    0.3552   21.7823  -24.1513 C   0  0  0  0  0  0  0  0  0  0  0  0
   -0.1321   22.3681  -25.3341 N   0  0  0  0  0  0  0  0  0  0  0  0
   -0.3263   21.5606  -22.9790 C   0  0  0  0  0  0  0  0  0  0  0  0
   -0.4887   23.3929  -25.2163 H   0  0  0  0  0  0  0  0  0  0  0  0
   -0.2266   22.0068  -26.2670 H   0  0  0  0  0  0  0  0  0  0  0  0
   -4.0100   24.2299  -26.8244 C   0  0  0  0  0  0  0  0  0  0  0  0
   -4.4951   25.5168  -26.8492 C   0  0  0  0  0  0  0  0  0  0  0  0
   -4.6172   26.1565  -25.6478 C   0  0  0  0  0  0  0  0  0  0  0  0
   -4.9175   27.6487  -25.6170 C   0  0  0  0  0  0  0  0  0  0  0  0
   -4.2960   25.6063  -24.4522 C   0  0  0  0  0  0  0  0  0  0  0  0
   -3.7786   24.2780  -24.3702 C   0  0  0  0  0  0  0  0  0  0  0  0
   -3.2321   23.6642  -23.2880 C   0  0  0  0  0  0  0  0  0  0  0  0
   -2.5904   22.4563  -23.5347 C   0  0  0  0  0  0  0  0  0  0  0  0
   -2.8174   22.2524  -25.2038 S   0  0  0  0  0  0  0  0  0  0  0  0
   -3.6711   23.6719  -25.5444 C   0  0  0  0  0  0  0  0  0  0  0  0
   -3.5766   22.5030  -28.7236 C   0  0  0  0  0  0  0  0  0  0  0  0
   -3.7781   23.3586  -27.7782 O   0  0  0  0  0  0  0  0  0  0  0  0
   -3.1368   21.5104  -20.7181 C   0  0  0  0  0  0  0  0  0  0  0  0
   -3.5993   22.1974  -19.6511 N   0  0  0  0  0  0  0  0  0  0  0  0
   -3.4167   22.1825  -18.3117 C   0  0  0  0  0  0  0  0  0  0  0  0
   -4.5783   22.9495  -17.6149 C   0  0  0  0  0  0  0  0  0  0  0  0
   -5.8106   22.1635  -18.0106 N   0  0  0  0  0  0  0  0  0  0  0  0
   -6.0610   22.2299  -19.4143 C   0  0  0  0  0  0  0  0  0  0  0  0
   -4.8500   22.9072  -20.0585 C   0  0  0  0  0  0  0  0  0  0  0  0
   -6.5249   21.5998  -17.0178 C   0  0  0  0  0  0  0  0  0  0  0  0
   -6.1815   22.0463  -15.7986 O   0  0  0  0  0  0  0  0  0  0  0  0
   -7.5958   20.6054  -16.9110 C   0  0  0  0  0  0  0  0  0  0  0  0
   -8.7671   20.7170  -17.5694 C   0  0  0  0  0  0  0  0  0  0  0  0
   -0.1964   20.5404  -19.4941 C   0  0  0  0  0  0  0  0  0  0  0  0
   -0.6927   19.1482  -19.4308 N   0  0  0  0  0  0  0  0  0  0  0  0
    0.4325   18.2106  -19.5191 C   0  0  0  0  0  0  0  0  0  0  0  0
   -0.2898   16.8492  -19.5837 C   0  0  0  0  0  0  0  0  0  0  0  0
   -0.7767   16.5700  -18.3318 O   0  0  0  0  0  0  0  0  0  0  0  0
   -1.8033   17.4643  -18.0938 C   0  0  0  0  0  0  0  0  0  0  0  0
   -1.3125   18.8771  -18.1134 C   0  0  0  0  0  0  0  0  0  0  0  0
 23 24  1  0  0  0
 24 13  1  0  0  0
 13 14  2  0  0  0
 14 15  1  0  0  0
 15 16  1  0  0  0
 15 17  2  0  0  0
 17 18  1  0  0  0
 18 19  1  0  0  0
 19 20  2  0  0  0
 20 21  1  0  0  0
 21 22  1  0  0  0
 20  1  1  0  0  0
  1  2  1  0  0  0
  2 25  1  0  0  0
 25 26  1  0  0  0
 26 27  1  0  0  0
 27 28  1  0  0  0
 28 29  1  0  0  0
 29 30  1  0  0  0
 30 31  1  0  0  0
 29 32  1  0  0  0
 32 33  2  0  0  0
 32 34  1  0  0  0
 34 35  2  0  0  0
  2  3  2  0  0  0
  3 36  1  0  0  0
 36 37  1  0  0  0
 37 38  1  0  0  0
 38 39  1  0  0  0
 39 40  1  0  0  0
 40 41  1  0  0  0
 41 42  1  0  0  0
  3  4  1  0  0  0
  4  5  1  0  0  0
  5  6  2  0  0  0
  6  7  1  0  0  0
  7  8  2  0  0  0
  8  9  1  0  0  0
  8 10  1  0  0  0
 22 13  1  0  0  0
 10  1  2  0  0  0
 22 18  2  0  0  0
 31 26  1  0  0  0
 42 37  1  0  0  0
 10  4  1  0  0  0
  9 11  1  0  0  0
  9 12  1  0  0  0
M  END
> <minimizedAffinity>
-7.25409

> <CNNscore>
0.2154261321

> <CNNaffinity>
7.0504279137

> <CNN_VS>
1.5188463926

> <CNNaffinity_variance>
0.1647589505

$$$$
[H]c1nc(N([H])[H])c2c(-c3sc4c(OC([H])([H])[H])c([H])c(C([H])([H])[H])c([H])c4c3[H])c(C([H])([H])N3C([H])([H])C([H])([H])OC([H])([H])C3([H])[H])c([H])n2n1


 31 35  0  0  0  0  0  0  0  0999 V2000
   -1.6734   21.8176  -24.0497 C   0  0  0  0  0  0  0  0  0  0  0  0
   -3.0261   21.7466  -24.2491 C   0  0  0  0  0  0  0  0  0  0  0  0
   -3.2257   22.0436  -25.5770 C   0  0  0  0  0  0  0  0  0  0  0  0
   -2.0636   22.2924  -26.1901 N   0  0  0  0  0  0  0  0  0  0  0  0
   -1.7857   22.6264  -27.4383 N   0  0  0  0  0  0  0  0  0  0  0  0
   -0.5276   22.8453  -27.8157 C   0  0  0  0  0  0  0  0  0  0  0  0
    0.4617   22.7325  -26.9460 N   0  0  0  0  0  0  0  0  0  0  0  0
    0.2161   22.3894  -25.6484 C   0  0  0  0  0  0  0  0  0  0  0  0
    1.2983   22.3407  -24.7559 N   0  0  0  0  0  0  0  0  0  0  0  0
   -1.0674   22.1566  -25.2405 C   0  0  0  0  0  0  0  0  0  0  0  0
    1.9927   21.5729  -24.7806 H   0  0  0  0  0  0  0  0  0  0  0  0
    1.4293   23.1048  -24.0631 H   0  0  0  0  0  0  0  0  0  0  0  0
    0.3576   21.6960  -18.9848 C   0  0  0  0  0  0  0  0  0  0  0  0
    0.8024   20.5781  -18.2717 C   0  0  0  0  0  0  0  0  0  0  0  0
    0.7224   19.3800  -18.9526 C   0  0  0  0  0  0  0  0  0  0  0  0
    1.1974   18.1797  -18.1936 C   0  0  0  0  0  0  0  0  0  0  0  0
    0.2563   19.2403  -20.2177 C   0  0  0  0  0  0  0  0  0  0  0  0
   -0.1928   20.3604  -20.9408 C   0  0  0  0  0  0  0  0  0  0  0  0
   -0.6780   20.3670  -22.1947 C   0  0  0  0  0  0  0  0  0  0  0  0
   -1.0685   21.5783  -22.7310 C   0  0  0  0  0  0  0  0  0  0  0  0
   -0.7240   22.6377  -21.4175 S   0  0  0  0  0  0  0  0  0  0  0  0
   -0.1185   21.5442  -20.2803 C   0  0  0  0  0  0  0  0  0  0  0  0
    1.6034   23.6660  -18.4575 C   0  0  0  0  0  0  0  0  0  0  0  0
    0.3653   22.9754  -18.4591 O   0  0  0  0  0  0  0  0  0  0  0  0
   -4.1170   21.4640  -23.3364 C   0  0  0  0  0  0  0  0  0  0  0  0
   -5.0516   22.5996  -23.2141 N   0  0  0  0  0  0  0  0  0  0  0  0
   -4.3915   23.4861  -22.2280 C   0  0  0  0  0  0  0  0  0  0  0  0
   -5.4454   24.2675  -21.4712 C   0  0  0  0  0  0  0  0  0  0  0  0
   -6.5717   24.4999  -22.2152 O   0  0  0  0  0  0  0  0  0  0  0  0
   -7.2338   23.3604  -22.6413 C   0  0  0  0  0  0  0  0  0  0  0  0
   -6.3057   22.1948  -22.5907 C   0  0  0  0  0  0  0  0  0  0  0  0
 23 24  1  0  0  0
 24 13  1  0  0  0
 13 14  2  0  0  0
 14 15  1  0  0  0
 15 16  1  0  0  0
 15 17  2  0  0  0
 17 18  1  0  0  0
 18 19  1  0  0  0
 19 20  2  0  0  0
 20 21  1  0  0  0
 21 22  1  0  0  0
 20  1  1  0  0  0
  1  2  1  0  0  0
  2 25  1  0  0  0
 25 26  1  0  0  0
 26 27  1  0  0  0
 27 28  1  0  0  0
 28 29  1  0  0  0
 29 30  1  0  0  0
 30 31  1  0  0  0
  2  3  2  0  0  0
  3  4  1  0  0  0
  4  5  1  0  0  0
  5  6  2  0  0  0
  6  7  1  0  0  0
  7  8  2  0  0  0
  8  9  1  0  0  0
  8 10  1  0  0  0
 22 13  1  0  0  0
 10  1  2  0  0  0
 22 18  2  0  0  0
 31 26  1  0  0  0
 10  4  1  0  0  0
  9 11  1  0  0  0
  9 12  1  0  0  0
M  END
> <minimizedAffinity>
-7.06650

> <CNNscore>
0.7076295614

> <CNNaffinity>
6.7723970413

> <CNN_VS>
4.7923483849

> <CNNaffinity_variance>
0.1290820688

$$$$
[H]c1nc(N([H])[H])c2c(-c3sc4c(OC([H])([H])[H])c([H])c(C([H])([H])[H])c([H])c4c3[H])c(C([H])([H])N3C([H])([H])C([H])([H])OC([H])([H])C3([H])[H])c([H])n2n1


 31 35  0  0  0  0  0  0  0  0999 V2000
   -1.4434   21.5743  -23.3160 C   0  0  0  0  0  0  0  0  0  0  0  0
   -2.8081   21.6546  -23.3927 C   0  0  0  0  0  0  0  0  0  0  0  0
   -3.0928   21.9614  -24.7027 C   0  0  0  0  0  0  0  0  0  0  0  0
   -1.9707   22.0726  -25.4215 N   0  0  0  0  0  0  0  0  0  0  0  0
   -1.7716   22.3629  -26.6953 N   0  0  0  0  0  0  0  0  0  0  0  0
   -0.5364   22.4354  -27.1873 C   0  0  0  0  0  0  0  0  0  0  0  0
    0.5090   22.2190  -26.4075 N   0  0  0  0  0  0  0  0  0  0  0  0
    0.3453   21.9163  -25.0871 C   0  0  0  0  0  0  0  0  0  0  0  0
    1.4917   21.7532  -24.2939 N   0  0  0  0  0  0  0  0  0  0  0  0
   -0.9139   21.8331  -24.5621 C   0  0  0  0  0  0  0  0  0  0  0  0
    2.0911   20.9119  -24.3664 H   0  0  0  0  0  0  0  0  0  0  0  0
    1.7694   22.5033  -23.6296 H   0  0  0  0  0  0  0  0  0  0  0  0
    1.3124   19.7641  -18.9662 C   0  0  0  0  0  0  0  0  0  0  0  0
    1.7119   20.4979  -17.8446 C   0  0  0  0  0  0  0  0  0  0  0  0
    1.3431   21.8281  -17.8541 C   0  0  0  0  0  0  0  0  0  0  0  0
    1.7683   22.6185  -16.6554 C   0  0  0  0  0  0  0  0  0  0  0  0
    0.6464   22.4293  -18.8492 C   0  0  0  0  0  0  0  0  0  0  0  0
    0.2415   21.6972  -19.9803 C   0  0  0  0  0  0  0  0  0  0  0  0
   -0.4493   22.1633  -21.0355 C   0  0  0  0  0  0  0  0  0  0  0  0
   -0.7519   21.2791  -22.0523 C   0  0  0  0  0  0  0  0  0  0  0  0
   -0.0335   19.8353  -21.4477 S   0  0  0  0  0  0  0  0  0  0  0  0
    0.5990   20.3875  -19.9812 C   0  0  0  0  0  0  0  0  0  0  0  0
    0.7955   17.5007  -18.3995 C   0  0  0  0  0  0  0  0  0  0  0  0
    1.5952   18.4193  -19.1249 O   0  0  0  0  0  0  0  0  0  0  0  0
   -3.8365   21.5042  -22.3813 C   0  0  0  0  0  0  0  0  0  0  0  0
   -4.4216   22.7991  -21.9827 N   0  0  0  0  0  0  0  0  0  0  0  0
   -4.4268   22.7353  -20.5028 C   0  0  0  0  0  0  0  0  0  0  0  0
   -5.5715   23.5710  -19.9685 C   0  0  0  0  0  0  0  0  0  0  0  0
   -5.8847   24.6267  -20.7830 O   0  0  0  0  0  0  0  0  0  0  0  0
   -6.2869   24.2767  -22.0614 C   0  0  0  0  0  0  0  0  0  0  0  0
   -5.8239   22.8937  -22.3699 C   0  0  0  0  0  0  0  0  0  0  0  0
 23 24  1  0  0  0
 24 13  1  0  0  0
 13 14  2  0  0  0
 14 15  1  0  0  0
 15 16  1  0  0  0
 15 17  2  0  0  0
 17 18  1  0  0  0
 18 19  1  0  0  0
 19 20  2  0  0  0
 20 21  1  0  0  0
 21 22  1  0  0  0
 20  1  1  0  0  0
  1  2  1  0  0  0
  2 25  1  0  0  0
 25 26  1  0  0  0
 26 27  1  0  0  0
 27 28  1  0  0  0
 28 29  1  0  0  0
 29 30  1  0  0  0
 30 31  1  0  0  0
  2  3  2  0  0  0
  3  4  1  0  0  0
  4  5  1  0  0  0
  5  6  2  0  0  0
  6  7  1  0  0  0
  7  8  2  0  0  0
  8  9  1  0  0  0
  8 10  1  0  0  0
 22 13  1  0  0  0
 10  1  2  0  0  0
 22 18  2  0  0  0
 31 26  1  0  0  0
 10  4  1  0  0  0
  9 11  1  0  0  0
  9 12  1  0  0  0
M  END
> <minimizedAffinity>
-6.64053

> <CNNscore>
0.5230837464

> <CNNaffinity>
6.3830432892

> <CNN_VS>
3.3388662338

> <CNNaffinity_variance>
0.1366064847

$$$$
[H]c1nc(N([H])[H])c2c(-c3sc4c(OC([H])([H])[H])c([H])c(C([H])([H])[H])c([H])c4c3[H])c(C([H])([H])N3C([H])([H])C([H])([H])OC([H])([H])C3([H])[H])c([H])n2n1


 31 35  0  0  0  0  0  0  0  0999 V2000
   -2.1075   22.2881  -24.0355 C   0  0  0  0  0  0  0  0  0  0  0  0
   -1.1383   21.6847  -23.2797 C   0  0  0  0  0  0  0  0  0  0  0  0
   -0.0546   21.5311  -24.1125 C   0  0  0  0  0  0  0  0  0  0  0  0
   -0.3193   22.0087  -25.3331 N   0  0  0  0  0  0  0  0  0  0  0  0
    0.4124   22.0567  -26.4326 N   0  0  0  0  0  0  0  0  0  0  0  0
   -0.0855   22.5734  -27.5543 C   0  0  0  0  0  0  0  0  0  0  0  0
   -1.3202   23.0450  -27.5840 N   0  0  0  0  0  0  0  0  0  0  0  0
   -2.1074   23.0139  -26.4699 C   0  0  0  0  0  0  0  0  0  0  0  0
   -3.4287   23.4756  -26.5747 N   0  0  0  0  0  0  0  0  0  0  0  0
   -1.6152   22.4913  -25.3069 C   0  0  0  0  0  0  0  0  0  0  0  0
   -3.6508   24.4843  -26.6489 H   0  0  0  0  0  0  0  0  0  0  0  0
   -4.2121   22.7926  -26.6045 H   0  0  0  0  0  0  0  0  0  0  0  0
   -7.0951   22.6571  -21.8492 C   0  0  0  0  0  0  0  0  0  0  0  0
   -7.7857   23.8201  -21.4934 C   0  0  0  0  0  0  0  0  0  0  0  0
   -7.1146   24.9996  -21.7468 C   0  0  0  0  0  0  0  0  0  0  0  0
   -7.8495   26.2480  -21.3677 C   0  0  0  0  0  0  0  0  0  0  0  0
   -5.8786   25.0821  -22.2970 C   0  0  0  0  0  0  0  0  0  0  0  0
   -5.1783   23.9163  -22.6572 C   0  0  0  0  0  0  0  0  0  0  0  0
   -3.9532   23.8512  -23.2073 C   0  0  0  0  0  0  0  0  0  0  0  0
   -3.4361   22.6021  -23.4892 C   0  0  0  0  0  0  0  0  0  0  0  0
   -4.7239   21.5921  -22.9526 S   0  0  0  0  0  0  0  0  0  0  0  0
   -5.8293   22.7503  -22.4123 C   0  0  0  0  0  0  0  0  0  0  0  0
   -8.1129   21.0728  -20.3778 C   0  0  0  0  0  0  0  0  0  0  0  0
   -7.6150   21.3883  -21.6671 O   0  0  0  0  0  0  0  0  0  0  0  0
   -1.1407   21.2270  -21.9037 C   0  0  0  0  0  0  0  0  0  0  0  0
   -0.3941   22.1351  -21.0115 N   0  0  0  0  0  0  0  0  0  0  0  0
    0.6699   21.2708  -20.4501 C   0  0  0  0  0  0  0  0  0  0  0  0
    1.0460   21.7699  -19.0704 C   0  0  0  0  0  0  0  0  0  0  0  0
    0.8743   23.1214  -18.9287 O   0  0  0  0  0  0  0  0  0  0  0  0
   -0.4253   23.5655  -19.1084 C   0  0  0  0  0  0  0  0  0  0  0  0
   -1.2015   22.5449  -19.8690 C   0  0  0  0  0  0  0  0  0  0  0  0
 23 24  1  0  0  0
 24 13  1  0  0  0
 13 14  2  0  0  0
 14 15  1  0  0  0
 15 16  1  0  0  0
 15 17  2  0  0  0
 17 18  1  0  0  0
 18 19  1  0  0  0
 19 20  2  0  0  0
 20 21  1  0  0  0
 21 22  1  0  0  0
 20  1  1  0  0  0
  1  2  1  0  0  0
  2 25  1  0  0  0
 25 26  1  0  0  0
 26 27  1  0  0  0
 27 28  1  0  0  0
 28 29  1  0  0  0
 29 30  1  0  0  0
 30 31  1  0  0  0
  2  3  2  0  0  0
  3  4  1  0  0  0
  4  5  1  0  0  0
  5  6  2  0  0  0
  6  7  1  0  0  0
  7  8  2  0  0  0
  8  9  1  0  0  0
  8 10  1  0  0  0
 22 13  1  0  0  0
 10  1  2  0  0  0
 22 18  2  0  0  0
 31 26  1  0  0  0
 10  4  1  0  0  0
  9 11  1  0  0  0
  9 12  1  0  0  0
M  END
> <minimizedAffinity>
-7.55654

> <CNNscore>
0.3414070308

> <CNNaffinity>
6.4872732162

> <CNN_VS>
2.2148005962

> <CNNaffinity_variance>
0.1364066154

$$$$
[H]c1nc(N([H])[H])c2c(-c3sc4c(OC([H])([H])[H])c([H])c(C([H])([H])[H])c([H])c4c3[H])c(C([H])([H])N3C([H])([H])C([H])([H])OC([H])([H])C3([H])[H])c([H])n2n1


 31 35  0  0  0  0  0  0  0  0999 V2000
   -3.0237   23.4345  -25.2152 C   0  0  0  0  0  0  0  0  0  0  0  0
   -3.6946   23.7697  -24.0697 C   0  0  0  0  0  0  0  0  0  0  0  0
   -2.8759   23.3920  -23.0312 C   0  0  0  0  0  0  0  0  0  0  0  0
   -1.7456   22.8439  -23.4898 N   0  0  0  0  0  0  0  0  0  0  0  0
   -0.6997   22.3372  -22.8605 N   0  0  0  0  0  0  0  0  0  0  0  0
    0.3179   21.8213  -23.5470 C   0  0  0  0  0  0  0  0  0  0  0  0
    0.2957   21.8077  -24.8688 N   0  0  0  0  0  0  0  0  0  0  0  0
   -0.7658   22.3214  -25.5554 C   0  0  0  0  0  0  0  0  0  0  0  0
   -0.7614   22.2281  -26.9559 N   0  0  0  0  0  0  0  0  0  0  0  0
   -1.8193   22.8592  -24.8708 C   0  0  0  0  0  0  0  0  0  0  0  0
   -0.1509   22.8255  -27.5413 H   0  0  0  0  0  0  0  0  0  0  0  0
   -1.3661   21.5258  -27.4272 H   0  0  0  0  0  0  0  0  0  0  0  0
   -5.3402   23.5152  -30.1568 C   0  0  0  0  0  0  0  0  0  0  0  0
   -5.6736   24.6364  -30.9234 C   0  0  0  0  0  0  0  0  0  0  0  0
   -5.3580   25.8519  -30.3502 C   0  0  0  0  0  0  0  0  0  0  0  0
   -5.7129   27.0559  -31.1669 C   0  0  0  0  0  0  0  0  0  0  0  0
   -4.7693   26.0049  -29.1390 C   0  0  0  0  0  0  0  0  0  0  0  0
   -4.4313   24.8815  -28.3625 C   0  0  0  0  0  0  0  0  0  0  0  0
   -3.8483   24.8866  -27.1509 C   0  0  0  0  0  0  0  0  0  0  0  0
   -3.5969   23.6695  -26.5487 C   0  0  0  0  0  0  0  0  0  0  0  0
   -4.2073   22.5879  -27.7420 S   0  0  0  0  0  0  0  0  0  0  0  0
   -4.7373   23.6806  -28.9170 C   0  0  0  0  0  0  0  0  0  0  0  0
   -4.4759   21.4767  -31.0560 C   0  0  0  0  0  0  0  0  0  0  0  0
   -5.5835   22.2191  -30.5745 O   0  0  0  0  0  0  0  0  0  0  0  0
   -5.0004   24.3652  -23.8618 C   0  0  0  0  0  0  0  0  0  0  0  0
   -5.5988   23.9641  -22.5737 N   0  0  0  0  0  0  0  0  0  0  0  0
   -6.6515   22.9991  -22.9670 C   0  0  0  0  0  0  0  0  0  0  0  0
   -7.7736   23.0388  -21.9504 C   0  0  0  0  0  0  0  0  0  0  0  0
   -7.3418   23.3731  -20.6943 O   0  0  0  0  0  0  0  0  0  0  0  0
   -6.7487   24.6209  -20.5951 C   0  0  0  0  0  0  0  0  0  0  0  0
   -6.3066   25.0728  -21.9452 C   0  0  0  0  0  0  0  0  0  0  0  0
 23 24  1  0  0  0
 24 13  1  0  0  0
 13 14  2  0  0  0
 14 15  1  0  0  0
 15 16  1  0  0  0
 15 17  2  0  0  0
 17 18  1  0  0  0
 18 19  1  0  0  0
 19 20  2  0  0  0
 20 21  1  0  0  0
 21 22  1  0  0  0
 20  1  1  0  0  0
  1  2  1  0  0  0
  2 25  1  0  0  0
 25 26  1  0  0  0
 26 27  1  0  0  0
 27 28  1  0  0  0
 28 29  1  0  0  0
 29 30  1  0  0  0
 30 31  1  0  0  0
  2  3  2  0  0  0
  3  4  1  0  0  0
  4  5  1  0  0  0
  5  6  2  0  0  0
  6  7  1  0  0  0
  7  8  2  0  0  0
  8  9  1  0  0  0
  8 10  1  0  0  0
 22 13  1  0  0  0
 10  1  2  0  0  0
 22 18  2  0  0  0
 31 26  1  0  0  0
 10  4  1  0  0  0
  9 11  1  0  0  0
  9 12  1  0  0  0
M  END
> <minimizedAffinity>
-7.21491

> <CNNscore>
0.3316193223

> <CNNaffinity>
6.9519867897

> <CNN_VS>
2.3054132462

> <CNNaffinity_variance>
0.4686449170

$$$$
[H]c1nc(N([H])[H])c2c(-c3sc4c(OC([H])([H])[H])c([H])c(C([H])([H])[H])c([H])c4c3[H])c(C([H])([H])N3C([H])([H])C([H])([H])OC([H])([H])C3([H])[H])c([H])n2n1


 31 35  0  0  0  0  0  0  0  0999 V2000
   -3.3776   23.4430  -24.5896 C   0  0  0  0  0  0  0  0  0  0  0  0
   -4.5463   24.1279  -24.3904 C   0  0  0  0  0  0  0  0  0  0  0  0
   -4.9745   24.5108  -25.6400 C   0  0  0  0  0  0  0  0  0  0  0  0
   -4.1239   24.0944  -26.5841 N   0  0  0  0  0  0  0  0  0  0  0  0
   -4.1302   24.2454  -27.8970 N   0  0  0  0  0  0  0  0  0  0  0  0
   -3.1439   23.7469  -28.6398 C   0  0  0  0  0  0  0  0  0  0  0  0
   -2.1431   23.0945  -28.0737 N   0  0  0  0  0  0  0  0  0  0  0  0
   -2.1002   22.9173  -26.7214 C   0  0  0  0  0  0  0  0  0  0  0  0
   -0.9852   22.2673  -26.1698 N   0  0  0  0  0  0  0  0  0  0  0  0
   -3.1040   23.4175  -25.9404 C   0  0  0  0  0  0  0  0  0  0  0  0
   -0.8471   21.2452  -26.2631 H   0  0  0  0  0  0  0  0  0  0  0  0
   -0.2593   22.8217  -25.6730 H   0  0  0  0  0  0  0  0  0  0  0  0
   -0.4112   20.7187  -20.9058 C   0  0  0  0  0  0  0  0  0  0  0  0
    0.1580   21.2200  -19.7307 C   0  0  0  0  0  0  0  0  0  0  0  0
   -0.0835   22.5573  -19.4880 C   0  0  0  0  0  0  0  0  0  0  0  0
    0.5237   23.0993  -18.2310 C   0  0  0  0  0  0  0  0  0  0  0  0
   -0.8103   23.3695  -20.2938 C   0  0  0  0  0  0  0  0  0  0  0  0
   -1.3856   22.8719  -21.4773 C   0  0  0  0  0  0  0  0  0  0  0  0
   -2.1247   23.5610  -22.3642 C   0  0  0  0  0  0  0  0  0  0  0  0
   -2.6023   22.8867  -23.4708 C   0  0  0  0  0  0  0  0  0  0  0  0
   -1.9695   21.3106  -23.1852 S   0  0  0  0  0  0  0  0  0  0  0  0
   -1.1542   21.5574  -21.7258 C   0  0  0  0  0  0  0  0  0  0  0  0
    0.8638   18.6988  -20.8322 C   0  0  0  0  0  0  0  0  0  0  0  0
   -0.2719   19.4021  -21.3067 O   0  0  0  0  0  0  0  0  0  0  0  0
   -5.2624   24.4714  -23.1770 C   0  0  0  0  0  0  0  0  0  0  0  0
   -6.1956   23.4074  -22.7588 N   0  0  0  0  0  0  0  0  0  0  0  0
   -7.4549   24.1388  -22.4874 C   0  0  0  0  0  0  0  0  0  0  0  0
   -8.2443   23.4020  -21.4254 C   0  0  0  0  0  0  0  0  0  0  0  0
   -8.0231   22.0504  -21.4402 O   0  0  0  0  0  0  0  0  0  0  0  0
   -6.7103   21.6724  -21.2116 C   0  0  0  0  0  0  0  0  0  0  0  0
   -5.8042   22.8252  -21.4808 C   0  0  0  0  0  0  0  0  0  0  0  0
 23 24  1  0  0  0
 24 13  1  0  0  0
 13 14  2  0  0  0
 14 15  1  0  0  0
 15 16  1  0  0  0
 15 17  2  0  0  0
 17 18  1  0  0  0
 18 19  1  0  0  0
 19 20  2  0  0  0
 20 21  1  0  0  0
 21 22  1  0  0  0
 20  1  1  0  0  0
  1  2  1  0  0  0
  2 25  1  0  0  0
 25 26  1  0  0  0
 26 27  1  0  0  0
 27 28  1  0  0  0
 28 29  1  0  0  0
 29 30  1  0  0  0
 30 31  1  0  0  0
  2  3  2  0  0  0
  3  4  1  0  0  0
  4  5  1  0  0  0
  5  6  2  0  0  0
  6  7  1  0  0  0
  7  8  2  0  0  0
  8  9  1  0  0  0
  8 10  1  0  0  0
 22 13  1  0  0  0
 10  1  2  0  0  0
 22 18  2  0  0  0
 31 26  1  0  0  0
 10  4  1  0  0  0
  9 11  1  0  0  0
  9 12  1  0  0  0
M  END
> <minimizedAffinity>
-6.86201

> <CNNscore>
0.3213956058

> <CNNaffinity>
6.6557922363

> <CNN_VS>
2.1391422749

> <CNNaffinity_variance>
0.6232157946

$$$$
[H]c1nc(N([H])[H])c2c(-c3sc4c(OC([H])([H])[H])c([H])c(C([H])([H])[H])c([H])c4c3[H])c(C([H])([H])N3C([H])([H])C([H])([H])OC([H])([H])C3([H])[H])c([H])n2n1


 31 35  0  0  0  0  0  0  0  0999 V2000
   -3.0666   22.7545  -25.4582 C   0  0  0  0  0  0  0  0  0  0  0  0
   -3.4925   23.0663  -26.7215 C   0  0  0  0  0  0  0  0  0  0  0  0
   -2.4067   22.8708  -27.5425 C   0  0  0  0  0  0  0  0  0  0  0  0
   -1.3457   22.4588  -26.8404 N   0  0  0  0  0  0  0  0  0  0  0  0
   -0.1107   22.1671  -27.2095 N   0  0  0  0  0  0  0  0  0  0  0  0
    0.7932   21.7893  -26.3077 C   0  0  0  0  0  0  0  0  0  0  0  0
    0.4678   21.7016  -25.0294 N   0  0  0  0  0  0  0  0  0  0  0  0
   -0.7967   21.9940  -24.6083 C   0  0  0  0  0  0  0  0  0  0  0  0
   -1.0701   21.9394  -23.2326 N   0  0  0  0  0  0  0  0  0  0  0  0
   -1.7412   22.3803  -25.5175 C   0  0  0  0  0  0  0  0  0  0  0  0
   -1.1584   21.0391  -22.7285 H   0  0  0  0  0  0  0  0  0  0  0  0
   -1.1638   22.8217  -22.6907 H   0  0  0  0  0  0  0  0  0  0  0  0
   -6.3870   22.3370  -21.1462 C   0  0  0  0  0  0  0  0  0  0  0  0
   -6.7468   23.3458  -20.2469 C   0  0  0  0  0  0  0  0  0  0  0  0
   -6.1981   24.5853  -20.5080 C   0  0  0  0  0  0  0  0  0  0  0  0
   -6.5800   25.6693  -19.5481 C   0  0  0  0  0  0  0  0  0  0  0  0
   -5.3675   24.8596  -21.5435 C   0  0  0  0  0  0  0  0  0  0  0  0
   -5.0014   23.8496  -22.4518 C   0  0  0  0  0  0  0  0  0  0  0  0
   -4.1903   23.9800  -23.5162 C   0  0  0  0  0  0  0  0  0  0  0  0
   -3.9537   22.8611  -24.2903 C   0  0  0  0  0  0  0  0  0  0  0  0
   -4.8986   21.6872  -23.4564 S   0  0  0  0  0  0  0  0  0  0  0  0
   -5.5357   22.6262  -22.2043 C   0  0  0  0  0  0  0  0  0  0  0  0
   -7.5011   20.6791  -19.8342 C   0  0  0  0  0  0  0  0  0  0  0  0
   -6.8427   21.0354  -21.0381 O   0  0  0  0  0  0  0  0  0  0  0  0
   -4.7713   23.5422  -27.2128 C   0  0  0  0  0  0  0  0  0  0  0  0
   -5.5419   24.2493  -26.1716 N   0  0  0  0  0  0  0  0  0  0  0  0
   -6.8979   23.6646  -26.2880 C   0  0  0  0  0  0  0  0  0  0  0  0
   -7.9255   24.6911  -25.8585 C   0  0  0  0  0  0  0  0  0  0  0  0
   -7.4450   25.5635  -24.9183 O   0  0  0  0  0  0  0  0  0  0  0  0
   -6.3588   26.3199  -25.3267 C   0  0  0  0  0  0  0  0  0  0  0  0
   -5.7019   25.6623  -26.4922 C   0  0  0  0  0  0  0  0  0  0  0  0
 23 24  1  0  0  0
 24 13  1  0  0  0
 13 14  2  0  0  0
 14 15  1  0  0  0
 15 16  1  0  0  0
 15 17  2  0  0  0
 17 18  1  0  0  0
 18 19  1  0  0  0
 19 20  2  0  0  0
 20 21  1  0  0  0
 21 22  1  0  0  0
 20  1  1  0  0  0
  1  2  1  0  0  0
  2 25  1  0  0  0
 25 26  1  0  0  0
 26 27  1  0  0  0
 27 28  1  0  0  0
 28 29  1  0  0  0
 29 30  1  0  0  0
 30 31  1  0  0  0
  2  3  2  0  0  0
  3  4  1  0  0  0
  4  5  1  0  0  0
  5  6  2  0  0  0
  6  7  1  0  0  0
  7  8  2  0  0  0
  8  9  1  0  0  0
  8 10  1  0  0  0
 22 13  1  0  0  0
 10  1  2  0  0  0
 22 18  2  0  0  0
 31 26  1  0  0  0
 10  4  1  0  0  0
  9 11  1  0  0  0
  9 12  1  0  0  0
M  END
> <minimizedAffinity>
-7.59629

> <CNNscore>
0.3155572414

> <CNNaffinity>
6.6003255844

> <CNN_VS>
2.0827805996

> <CNNaffinity_variance>
0.2783778012

$$$$
[H]c1nc(N([H])[H])c2c(-c3sc4c(OC([H])([H])[H])c([H])c(C([H])([H])[H])c([H])c4c3[H])c(C([H])([H])N3C([H])([H])C([H])([H])OC([H])([H])C3([H])[H])c([H])n2n1


 31 35  0  0  0  0  0  0  0  0999 V2000
   -2.9917   23.4299  -24.9663 C   0  0  0  0  0  0  0  0  0  0  0  0
   -3.8712   24.2960  -24.3740 C   0  0  0  0  0  0  0  0  0  0  0  0
   -4.6259   24.8220  -25.3964 C   0  0  0  0  0  0  0  0  0  0  0  0
   -4.2466   24.3200  -26.5763 N   0  0  0  0  0  0  0  0  0  0  0  0
   -4.6781   24.5479  -27.8046 N   0  0  0  0  0  0  0  0  0  0  0  0
   -4.1196   23.9294  -28.8432 C   0  0  0  0  0  0  0  0  0  0  0  0
   -3.1242   23.0789  -28.6601 N   0  0  0  0  0  0  0  0  0  0  0  0
   -2.6503   22.8165  -27.4077 C   0  0  0  0  0  0  0  0  0  0  0  0
   -1.5544   21.9491  -27.2782 N   0  0  0  0  0  0  0  0  0  0  0  0
   -3.2114   23.4374  -26.3271 C   0  0  0  0  0  0  0  0  0  0  0  0
   -1.6489   20.9261  -27.4082 H   0  0  0  0  0  0  0  0  0  0  0  0
   -0.6123   22.3369  -27.0705 H   0  0  0  0  0  0  0  0  0  0  0  0
    1.2631   21.0838  -22.4794 C   0  0  0  0  0  0  0  0  0  0  0  0
    1.2403   20.2492  -21.3574 C   0  0  0  0  0  0  0  0  0  0  0  0
   -0.0156   19.9915  -20.8454 C   0  0  0  0  0  0  0  0  0  0  0  0
   -0.0458   19.0984  -19.6438 C   0  0  0  0  0  0  0  0  0  0  0  0
   -1.1722   20.4839  -21.3523 C   0  0  0  0  0  0  0  0  0  0  0  0
   -1.1565   21.3240  -22.4807 C   0  0  0  0  0  0  0  0  0  0  0  0
   -2.2213   21.8806  -23.0843 C   0  0  0  0  0  0  0  0  0  0  0  0
   -1.9951   22.6804  -24.1872 C   0  0  0  0  0  0  0  0  0  0  0  0
   -0.2785   22.5951  -24.2998 S   0  0  0  0  0  0  0  0  0  0  0  0
    0.0738   21.5840  -22.9924 C   0  0  0  0  0  0  0  0  0  0  0  0
    3.5080   20.5253  -23.0788 C   0  0  0  0  0  0  0  0  0  0  0  0
    2.4325   21.4478  -23.1223 O   0  0  0  0  0  0  0  0  0  0  0  0
   -4.0472   24.6867  -22.9886 C   0  0  0  0  0  0  0  0  0  0  0  0
   -5.1518   23.9557  -22.3378 N   0  0  0  0  0  0  0  0  0  0  0  0
   -6.1435   25.0165  -22.0452 C   0  0  0  0  0  0  0  0  0  0  0  0
   -6.9444   24.6302  -20.8191 C   0  0  0  0  0  0  0  0  0  0  0  0
   -7.0691   23.2744  -20.6707 O   0  0  0  0  0  0  0  0  0  0  0  0
   -5.8728   22.5919  -20.5243 C   0  0  0  0  0  0  0  0  0  0  0  0
   -4.7527   23.4311  -21.0376 C   0  0  0  0  0  0  0  0  0  0  0  0
 23 24  1  0  0  0
 24 13  1  0  0  0
 13 14  2  0  0  0
 14 15  1  0  0  0
 15 16  1  0  0  0
 15 17  2  0  0  0
 17 18  1  0  0  0
 18 19  1  0  0  0
 19 20  2  0  0  0
 20 21  1  0  0  0
 21 22  1  0  0  0
 20  1  1  0  0  0
  1  2  1  0  0  0
  2 25  1  0  0  0
 25 26  1  0  0  0
 26 27  1  0  0  0
 27 28  1  0  0  0
 28 29  1  0  0  0
 29 30  1  0  0  0
 30 31  1  0  0  0
  2  3  2  0  0  0
  3  4  1  0  0  0
  4  5  1  0  0  0
  5  6  2  0  0  0
  6  7  1  0  0  0
  7  8  2  0  0  0
  8  9  1  0  0  0
  8 10  1  0  0  0
 22 13  1  0  0  0
 10  1  2  0  0  0
 22 18  2  0  0  0
 31 26  1  0  0  0
 10  4  1  0  0  0
  9 11  1  0  0  0
  9 12  1  0  0  0
M  END
> <minimizedAffinity>
-7.21524

> <CNNscore>
0.3128793538

> <CNNaffinity>
6.6854858398

> <CNN_VS>
2.0917503834

> <CNNaffinity_variance>
0.5536032319

$$$$
[H]c1nc(N([H])[H])c2c(-c3sc4c(OC([H])([H])[H])c([H])c(C([H])([H])[H])c([H])c4c3[H])c(C([H])([H])N3C([H])([H])C([H])([H])OC([H])([H])C3([H])[H])c([H])n2n1


 31 35  0  0  0  0  0  0  0  0999 V2000
   -1.5108   21.9261  -23.3792 C   0  0  0  0  0  0  0  0  0  0  0  0
   -0.3645   21.3204  -22.9391 C   0  0  0  0  0  0  0  0  0  0  0  0
    0.4929   21.3137  -24.0143 C   0  0  0  0  0  0  0  0  0  0  0  0
   -0.0765   21.8824  -25.0822 N   0  0  0  0  0  0  0  0  0  0  0  0
    0.3672   22.0775  -26.3117 N   0  0  0  0  0  0  0  0  0  0  0  0
   -0.4063   22.6609  -27.2252 C   0  0  0  0  0  0  0  0  0  0  0  0
   -1.6303   23.0523  -26.9151 N   0  0  0  0  0  0  0  0  0  0  0  0
   -2.1251   22.8690  -25.6567 C   0  0  0  0  0  0  0  0  0  0  0  0
   -3.4508   23.2517  -25.3997 N   0  0  0  0  0  0  0  0  0  0  0  0
   -1.3469   22.2757  -24.7025 C   0  0  0  0  0  0  0  0  0  0  0  0
   -3.7255   24.2465  -25.3145 H   0  0  0  0  0  0  0  0  0  0  0  0
   -4.1896   22.5250  -25.3155 H   0  0  0  0  0  0  0  0  0  0  0  0
   -5.3884   23.0986  -19.7212 C   0  0  0  0  0  0  0  0  0  0  0  0
   -6.7457   22.7666  -19.7819 C   0  0  0  0  0  0  0  0  0  0  0  0
   -7.1225   22.0469  -20.8980 C   0  0  0  0  0  0  0  0  0  0  0  0
   -8.5748   21.6887  -20.9681 C   0  0  0  0  0  0  0  0  0  0  0  0
   -6.2821   21.6645  -21.8903 C   0  0  0  0  0  0  0  0  0  0  0  0
   -4.9157   21.9951  -21.8356 C   0  0  0  0  0  0  0  0  0  0  0  0
   -3.9754   21.6833  -22.7447 C   0  0  0  0  0  0  0  0  0  0  0  0
   -2.6812   22.1023  -22.5067 C   0  0  0  0  0  0  0  0  0  0  0  0
   -2.8786   22.9180  -21.0027 S   0  0  0  0  0  0  0  0  0  0  0  0
   -4.5343   22.7031  -20.7418 C   0  0  0  0  0  0  0  0  0  0  0  0
   -4.5073   23.0965  -17.4998 C   0  0  0  0  0  0  0  0  0  0  0  0
   -4.8359   23.8166  -18.6759 O   0  0  0  0  0  0  0  0  0  0  0  0
   -0.0177   20.7401  -21.6561 C   0  0  0  0  0  0  0  0  0  0  0  0
    0.8023   21.6512  -20.8342 N   0  0  0  0  0  0  0  0  0  0  0  0
    2.1228   20.9817  -20.7884 C   0  0  0  0  0  0  0  0  0  0  0  0
    2.8229   21.3407  -19.4942 C   0  0  0  0  0  0  0  0  0  0  0  0
    2.4718   22.5788  -19.0253 O   0  0  0  0  0  0  0  0  0  0  0  0
    1.1256   22.7326  -18.7378 C   0  0  0  0  0  0  0  0  0  0  0  0
    0.3394   21.6867  -19.4523 C   0  0  0  0  0  0  0  0  0  0  0  0
 23 24  1  0  0  0
 24 13  1  0  0  0
 13 14  2  0  0  0
 14 15  1  0  0  0
 15 16  1  0  0  0
 15 17  2  0  0  0
 17 18  1  0  0  0
 18 19  1  0  0  0
 19 20  2  0  0  0
 20 21  1  0  0  0
 21 22  1  0  0  0
 20  1  1  0  0  0
  1  2  1  0  0  0
  2 25  1  0  0  0
 25 26  1  0  0  0
 26 27  1  0  0  0
 27 28  1  0  0  0
 28 29  1  0  0  0
 29 30  1  0  0  0
 30 31  1  0  0  0
  2  3  2  0  0  0
  3  4  1  0  0  0
  4  5  1  0  0  0
  5  6  2  0  0  0
  6  7  1  0  0  0
  7  8  2  0  0  0
  8  9  1  0  0  0
  8 10  1  0  0  0
 22 13  1  0  0  0
 10  1  2  0  0  0
 22 18  2  0  0  0
 31 26  1  0  0  0
 10  4  1  0  0  0
  9 11  1  0  0  0
  9 12  1  0  0  0
M  END
> <minimizedAffinity>
-6.87556

> <CNNscore>
0.3040578663

> <CNNaffinity>
6.4362845421

> <CNN_VS>
1.9570029974

> <CNNaffinity_variance>
0.2800529599

$$$$
[H]c1nc(N([H])[H])c2c(-c3sc4c(OC([H])([H])[H])c([H])c(C([H])([H])[H])c([H])c4c3[H])c(C([H])([H])N3C([H])([H])C([H])([H])OC([H])([H])C3([H])[H])c([H])n2n1


 31 35  0  0  0  0  0  0  0  0999 V2000
   -1.9200   22.1541  -23.6436 C   0  0  0  0  0  0  0  0  0  0  0  0
   -2.4926   21.6425  -22.5100 C   0  0  0  0  0  0  0  0  0  0  0  0
   -1.4661   21.0673  -21.7979 C   0  0  0  0  0  0  0  0  0  0  0  0
   -0.3030   21.2030  -22.4435 N   0  0  0  0  0  0  0  0  0  0  0  0
    0.9187   20.7993  -22.1416 N   0  0  0  0  0  0  0  0  0  0  0  0
    1.9344   21.0409  -22.9681 C   0  0  0  0  0  0  0  0  0  0  0  0
    1.7345   21.6876  -24.1037 N   0  0  0  0  0  0  0  0  0  0  0  0
    0.4882   22.1209  -24.4513 C   0  0  0  0  0  0  0  0  0  0  0  0
    0.3248   22.7510  -25.6949 N   0  0  0  0  0  0  0  0  0  0  0  0
   -0.5679   21.8869  -23.6161 C   0  0  0  0  0  0  0  0  0  0  0  0
    0.6595   23.7158  -25.8667 H   0  0  0  0  0  0  0  0  0  0  0  0
   -0.1212   22.2345  -26.4794 H   0  0  0  0  0  0  0  0  0  0  0  0
   -4.7674   25.3614  -27.0196 C   0  0  0  0  0  0  0  0  0  0  0  0
   -5.2086   25.0595  -28.3120 C   0  0  0  0  0  0  0  0  0  0  0  0
   -4.8877   23.7935  -28.7589 C   0  0  0  0  0  0  0  0  0  0  0  0
   -5.3578   23.4650  -30.1422 C   0  0  0  0  0  0  0  0  0  0  0  0
   -4.1991   22.8726  -28.0413 C   0  0  0  0  0  0  0  0  0  0  0  0
   -3.7522   23.1696  -26.7407 C   0  0  0  0  0  0  0  0  0  0  0  0
   -3.0620   22.3566  -25.9218 C   0  0  0  0  0  0  0  0  0  0  0  0
   -2.7142   22.8379  -24.6750 C   0  0  0  0  0  0  0  0  0  0  0  0
   -3.3884   24.4213  -24.7417 S   0  0  0  0  0  0  0  0  0  0  0  0
   -4.0625   24.4125  -26.2912 C   0  0  0  0  0  0  0  0  0  0  0  0
   -5.9842   26.6197  -25.3927 C   0  0  0  0  0  0  0  0  0  0  0  0
   -4.9993   26.5821  -26.4116 O   0  0  0  0  0  0  0  0  0  0  0  0
   -3.8704   21.6171  -22.0585 C   0  0  0  0  0  0  0  0  0  0  0  0
   -4.2668   22.8782  -21.4023 N   0  0  0  0  0  0  0  0  0  0  0  0
   -4.5228   22.4732  -20.0007 C   0  0  0  0  0  0  0  0  0  0  0  0
   -5.5673   23.3887  -19.3966 C   0  0  0  0  0  0  0  0  0  0  0  0
   -5.5472   24.6475  -19.9361 O   0  0  0  0  0  0  0  0  0  0  0  0
   -5.7942   24.7016  -21.2980 C   0  0  0  0  0  0  0  0  0  0  0  0
   -5.5469   23.3623  -21.9043 C   0  0  0  0  0  0  0  0  0  0  0  0
 23 24  1  0  0  0
 24 13  1  0  0  0
 13 14  2  0  0  0
 14 15  1  0  0  0
 15 16  1  0  0  0
 15 17  2  0  0  0
 17 18  1  0  0  0
 18 19  1  0  0  0
 19 20  2  0  0  0
 20 21  1  0  0  0
 21 22  1  0  0  0
 20  1  1  0  0  0
  1  2  1  0  0  0
  2 25  1  0  0  0
 25 26  1  0  0  0
 26 27  1  0  0  0
 27 28  1  0  0  0
 28 29  1  0  0  0
 29 30  1  0  0  0
 30 31  1  0  0  0
  2  3  2  0  0  0
  3  4  1  0  0  0
  4  5  1  0  0  0
  5  6  2  0  0  0
  6  7  1  0  0  0
  7  8  2  0  0  0
  8  9  1  0  0  0
  8 10  1  0  0  0
 22 13  1  0  0  0
 10  1  2  0  0  0
 22 18  2  0  0  0
 31 26  1  0  0  0
 10  4  1  0  0  0
  9 11  1  0  0  0
  9 12  1  0  0  0
M  END
> <minimizedAffinity>
-8.04308

> <CNNscore>
0.2672783136

> <CNNaffinity>
6.7555441856

> <CNN_VS>
1.8056104183

> <CNNaffinity_variance>
0.1990733594

$$$$
[H]c1nc(N([H])[H])c(C([H])([H])[H])c(N2C([H])([H])C([H])([H])N(C([H])([H])c3c(-c4sc5c(OC([H])([H])[H])c([H])c(C([H])([H])[H])c([H])c5c4[H])c4c(N([H])[H])nc([H])nn4c3[H])C([H])([H])C2([H])[H])n1


 41 46  0  0  0  0  0  0  0  0999 V2000
   -2.0137   22.3404  -25.2113 C   0  0  0  0  0  0  0  0  0  0  0  0
   -3.4034   22.2963  -25.3789 C   0  0  0  0  0  0  0  0  0  0  0  0
   -3.6425   22.6178  -26.6879 C   0  0  0  0  0  0  0  0  0  0  0  0
   -2.4951   22.8565  -27.3210 N   0  0  0  0  0  0  0  0  0  0  0  0
   -2.3212   23.2092  -28.5816 N   0  0  0  0  0  0  0  0  0  0  0  0
   -1.0861   23.4347  -29.0631 C   0  0  0  0  0  0  0  0  0  0  0  0
   -0.0702   23.2892  -28.2249 N   0  0  0  0  0  0  0  0  0  0  0  0
   -0.2300   22.9237  -26.9131 C   0  0  0  0  0  0  0  0  0  0  0  0
    0.9302   22.8622  -26.1358 N   0  0  0  0  0  0  0  0  0  0  0  0
   -1.4849   22.6914  -26.4252 C   0  0  0  0  0  0  0  0  0  0  0  0
    1.5818   22.0560  -26.2475 H   0  0  0  0  0  0  0  0  0  0  0  0
    1.1514   23.6446  -25.4602 H   0  0  0  0  0  0  0  0  0  0  0  0
    1.1220   20.9785  -20.9358 C   0  0  0  0  0  0  0  0  0  0  0  0
    0.9499   21.3495  -19.6097 C   0  0  0  0  0  0  0  0  0  0  0  0
   -0.1545   22.1412  -19.3668 C   0  0  0  0  0  0  0  0  0  0  0  0
   -0.3503   22.5497  -17.9280 C   0  0  0  0  0  0  0  0  0  0  0  0
   -1.0454   22.5634  -20.2974 C   0  0  0  0  0  0  0  0  0  0  0  0
   -0.8644   22.1819  -21.6470 C   0  0  0  0  0  0  0  0  0  0  0  0
   -1.6658   22.5253  -22.6837 C   0  0  0  0  0  0  0  0  0  0  0  0
   -1.3350   22.0622  -23.9360 C   0  0  0  0  0  0  0  0  0  0  0  0
    0.0901   21.1691  -23.5776 S   0  0  0  0  0  0  0  0  0  0  0  0
    0.2132   21.4034  -21.9152 C   0  0  0  0  0  0  0  0  0  0  0  0
    3.3827   20.8435  -21.6909 C   0  0  0  0  0  0  0  0  0  0  0  0
    2.1754   20.1853  -21.3648 O   0  0  0  0  0  0  0  0  0  0  0  0
   -4.4676   21.9494  -24.4069 C   0  0  0  0  0  0  0  0  0  0  0  0
   -5.0724   23.1348  -23.8267 N   0  0  0  0  0  0  0  0  0  0  0  0
   -4.8978   23.2325  -22.4051 C   0  0  0  0  0  0  0  0  0  0  0  0
   -5.2294   24.6678  -21.9768 C   0  0  0  0  0  0  0  0  0  0  0  0
   -6.5736   24.9246  -22.4534 N   0  0  0  0  0  0  0  0  0  0  0  0
   -6.8195   24.7692  -23.8731 C   0  0  0  0  0  0  0  0  0  0  0  0
   -6.4282   23.3413  -24.2348 C   0  0  0  0  0  0  0  0  0  0  0  0
   -7.6550   25.3153  -21.6253 C   0  0  0  0  0  0  0  0  0  0  0  0
   -8.0043   26.5848  -21.3644 N   0  0  0  0  0  0  0  0  0  0  0  0
   -9.0331   26.9171  -20.5763 C   0  0  0  0  0  0  0  0  0  0  0  0
   -9.7665   25.9597  -20.0078 N   0  0  0  0  0  0  0  0  0  0  0  0
   -9.4907   24.6660  -20.2120 C   0  0  0  0  0  0  0  0  0  0  0  0
  -10.2786   23.6617  -19.6014 N   0  0  0  0  0  0  0  0  0  0  0  0
   -8.4159   24.3338  -21.0354 C   0  0  0  0  0  0  0  0  0  0  0  0
   -8.0919   22.9113  -21.2758 C   0  0  0  0  0  0  0  0  0  0  0  0
  -11.2991   23.6264  -19.7199 H   0  0  0  0  0  0  0  0  0  0  0  0
   -9.8144   22.9454  -19.0209 H   0  0  0  0  0  0  0  0  0  0  0  0
 23 24  1  0  0  0
 24 13  1  0  0  0
 13 14  2  0  0  0
 14 15  1  0  0  0
 15 16  1  0  0  0
 15 17  2  0  0  0
 17 18  1  0  0  0
 18 19  1  0  0  0
 19 20  2  0  0  0
 20 21  1  0  0  0
 21 22  1  0  0  0
 20  1  1  0  0  0
  1  2  1  0  0  0
  2 25  1  0  0  0
 25 26  1  0  0  0
 26 27  1  0  0  0
 27 28  1  0  0  0
 28 29  1  0  0  0
 29 30  1  0  0  0
 30 31  1  0  0  0
 29 32  1  0  0  0
 32 33  2  0  0  0
 33 34  1  0  0  0
 34 35  2  0  0  0
 35 36  1  0  0  0
 36 37  1  0  0  0
 36 38  2  0  0  0
 38 39  1  0  0  0
  2  3  2  0  0  0
  3  4  1  0  0  0
  4  5  1  0  0  0
  5  6  2  0  0  0
  6  7  1  0  0  0
  7  8  2  0  0  0
  8  9  1  0  0  0
  8 10  1  0  0  0
 22 13  1  0  0  0
 10  1  2  0  0  0
 22 18  2  0  0  0
 31 26  1  0  0  0
 38 32  1  0  0  0
 10  4  1  0  0  0
 37 40  1  0  0  0
 37 41  1  0  0  0
  9 11  1  0  0  0
  9 12  1  0  0  0
M  END
> <minimizedAffinity>
-9.13805

> <CNNscore>
0.5676043034

> <CNNaffinity>
7.4462156296

> <CNN_VS>
4.2265038490

> <CNNaffinity_variance>
0.0219807290

$$$$
[H]c1nc(N([H])[H])c(C([H])([H])[H])c(N2C([H])([H])C([H])([H])N(C([H])([H])c3c(-c4sc5c(OC([H])([H])[H])c([H])c(C([H])([H])[H])c([H])c5c4[H])c4c(N([H])[H])nc([H])nn4c3[H])C([H])([H])C2([H])[H])n1


 41 46  0  0  0  0  0  0  0  0999 V2000
   -2.0534   22.3874  -25.1024 C   0  0  0  0  0  0  0  0  0  0  0  0
   -3.4140   22.3069  -25.4241 C   0  0  0  0  0  0  0  0  0  0  0  0
   -3.5076   22.5685  -26.7645 C   0  0  0  0  0  0  0  0  0  0  0  0
   -2.2996   22.8050  -27.2735 N   0  0  0  0  0  0  0  0  0  0  0  0
   -1.9890   23.1086  -28.5206 N   0  0  0  0  0  0  0  0  0  0  0  0
   -0.7109   23.3401  -28.8686 C   0  0  0  0  0  0  0  0  0  0  0  0
    0.2051   23.2512  -27.9154 N   0  0  0  0  0  0  0  0  0  0  0  0
   -0.0972   22.9371  -26.6153 C   0  0  0  0  0  0  0  0  0  0  0  0
    0.9678   22.9328  -25.7098 N   0  0  0  0  0  0  0  0  0  0  0  0
   -1.3955   22.6988  -26.2628 C   0  0  0  0  0  0  0  0  0  0  0  0
    1.6410   22.1366  -25.7117 H   0  0  0  0  0  0  0  0  0  0  0  0
    1.0977   23.7471  -25.0484 H   0  0  0  0  0  0  0  0  0  0  0  0
   -0.5814   22.2242  -19.8323 C   0  0  0  0  0  0  0  0  0  0  0  0
    0.1903   21.2595  -19.2001 C   0  0  0  0  0  0  0  0  0  0  0  0
    0.6364   20.2432  -20.0209 C   0  0  0  0  0  0  0  0  0  0  0  0
    1.4763   19.1895  -19.3429 C   0  0  0  0  0  0  0  0  0  0  0  0
    0.3823   20.1284  -21.3476 C   0  0  0  0  0  0  0  0  0  0  0  0
   -0.4047   21.1148  -21.9858 C   0  0  0  0  0  0  0  0  0  0  0  0
   -0.7431   21.1349  -23.2974 C   0  0  0  0  0  0  0  0  0  0  0  0
   -1.5199   22.1770  -23.7476 C   0  0  0  0  0  0  0  0  0  0  0  0
   -1.7292   23.0683  -22.2920 S   0  0  0  0  0  0  0  0  0  0  0  0
   -0.8570   22.1260  -21.2035 C   0  0  0  0  0  0  0  0  0  0  0  0
   -2.0571   23.0504  -18.1475 C   0  0  0  0  0  0  0  0  0  0  0  0
   -1.1144   23.3172  -19.1659 O   0  0  0  0  0  0  0  0  0  0  0  0
   -4.5762   21.9782  -24.5645 C   0  0  0  0  0  0  0  0  0  0  0  0
   -5.1436   23.1654  -23.9512 N   0  0  0  0  0  0  0  0  0  0  0  0
   -5.0010   23.1993  -22.5232 C   0  0  0  0  0  0  0  0  0  0  0  0
   -5.2809   24.6299  -22.0452 C   0  0  0  0  0  0  0  0  0  0  0  0
   -6.6003   24.9644  -22.5424 N   0  0  0  0  0  0  0  0  0  0  0  0
   -6.8167   24.8761  -23.9727 C   0  0  0  0  0  0  0  0  0  0  0  0
   -6.4785   23.4476  -24.3824 C   0  0  0  0  0  0  0  0  0  0  0  0
   -7.6843   25.3697  -21.7249 C   0  0  0  0  0  0  0  0  0  0  0  0
   -8.0134   26.6437  -21.4598 N   0  0  0  0  0  0  0  0  0  0  0  0
   -9.0455   26.9900  -20.6820 C   0  0  0  0  0  0  0  0  0  0  0  0
   -9.8032   26.0426  -20.1288 N   0  0  0  0  0  0  0  0  0  0  0  0
   -9.5487   24.7453  -20.3383 C   0  0  0  0  0  0  0  0  0  0  0  0
  -10.3624   23.7519  -19.7439 N   0  0  0  0  0  0  0  0  0  0  0  0
   -8.4702   24.3987  -21.1507 C   0  0  0  0  0  0  0  0  0  0  0  0
   -8.1695   22.9720  -21.3967 C   0  0  0  0  0  0  0  0  0  0  0  0
  -11.3817   23.7361  -19.8750 H   0  0  0  0  0  0  0  0  0  0  0  0
   -9.9184   23.0235  -19.1626 H   0  0  0  0  0  0  0  0  0  0  0  0
 23 24  1  0  0  0
 24 13  1  0  0  0
 13 14  2  0  0  0
 14 15  1  0  0  0
 15 16  1  0  0  0
 15 17  2  0  0  0
 17 18  1  0  0  0
 18 19  1  0  0  0
 19 20  2  0  0  0
 20 21  1  0  0  0
 21 22  1  0  0  0
 20  1  1  0  0  0
  1  2  1  0  0  0
  2 25  1  0  0  0
 25 26  1  0  0  0
 26 27  1  0  0  0
 27 28  1  0  0  0
 28 29  1  0  0  0
 29 30  1  0  0  0
 30 31  1  0  0  0
 29 32  1  0  0  0
 32 33  2  0  0  0
 33 34  1  0  0  0
 34 35  2  0  0  0
 35 36  1  0  0  0
 36 37  1  0  0  0
 36 38  2  0  0  0
 38 39  1  0  0  0
  2  3  2  0  0  0
  3  4  1  0  0  0
  4  5  1  0  0  0
  5  6  2  0  0  0
  6  7  1  0  0  0
  7  8  2  0  0  0
  8  9  1  0  0  0
  8 10  1  0  0  0
 22 13  1  0  0  0
 10  1  2  0  0  0
 22 18  2  0  0  0
 31 26  1  0  0  0
 38 32  1  0  0  0
 10  4  1  0  0  0
 37 40  1  0  0  0
 37 41  1  0  0  0
  9 11  1  0  0  0
  9 12  1  0  0  0
M  END
> <minimizedAffinity>
-9.45448

> <CNNscore>
0.5182360411

> <CNNaffinity>
7.4018654823

> <CNN_VS>
3.8359134197

> <CNNaffinity_variance>
0.0667750612

$$$$
[H]c1nc(N([H])[H])c(C([H])([H])[H])c(N2C([H])([H])C([H])([H])N(C([H])([H])c3c(-c4sc5c(OC([H])([H])[H])c([H])c(C([H])([H])[H])c([H])c5c4[H])c4c(N([H])[H])nc([H])nn4c3[H])C([H])([H])C2([H])[H])n1


 41 46  0  0  0  0  0  0  0  0999 V2000
   -1.8735   21.8396  -24.1722 C   0  0  0  0  0  0  0  0  0  0  0  0
   -3.2148   21.9233  -24.5662 C   0  0  0  0  0  0  0  0  0  0  0  0
   -3.2052   22.2831  -25.8869 C   0  0  0  0  0  0  0  0  0  0  0  0
   -1.9525   22.4263  -26.3166 N   0  0  0  0  0  0  0  0  0  0  0  0
   -1.5424   22.7794  -27.5212 N   0  0  0  0  0  0  0  0  0  0  0  0
   -0.2298   22.8995  -27.7873 C   0  0  0  0  0  0  0  0  0  0  0  0
    0.6168   22.6515  -26.7988 N   0  0  0  0  0  0  0  0  0  0  0  0
    0.2110   22.2835  -25.5417 C   0  0  0  0  0  0  0  0  0  0  0  0
    1.2168   22.1071  -24.5871 N   0  0  0  0  0  0  0  0  0  0  0  0
   -1.1227   22.1585  -25.2726 C   0  0  0  0  0  0  0  0  0  0  0  0
    1.8056   21.2471  -24.6137 H   0  0  0  0  0  0  0  0  0  0  0  0
    1.3899   22.8569  -23.8624 H   0  0  0  0  0  0  0  0  0  0  0  0
    0.3793   20.1382  -19.4821 C   0  0  0  0  0  0  0  0  0  0  0  0
    0.0259   20.5081  -18.1920 C   0  0  0  0  0  0  0  0  0  0  0  0
   -1.0266   21.3974  -18.1107 C   0  0  0  0  0  0  0  0  0  0  0  0
   -1.4183   21.8057  -16.7124 C   0  0  0  0  0  0  0  0  0  0  0  0
   -1.7102   21.9127  -19.1620 C   0  0  0  0  0  0  0  0  0  0  0  0
   -1.3452   21.5317  -20.4740 C   0  0  0  0  0  0  0  0  0  0  0  0
   -1.9306   21.9612  -21.6176 C   0  0  0  0  0  0  0  0  0  0  0  0
   -1.4419   21.4837  -22.8115 C   0  0  0  0  0  0  0  0  0  0  0  0
   -0.1825   20.4562  -22.2504 S   0  0  0  0  0  0  0  0  0  0  0  0
   -0.3137   20.6583  -20.5844 C   0  0  0  0  0  0  0  0  0  0  0  0
    1.2377   17.9152  -19.3391 C   0  0  0  0  0  0  0  0  0  0  0  0
    1.4122   19.2543  -19.7553 O   0  0  0  0  0  0  0  0  0  0  0  0
   -4.4512   21.6602  -23.7917 C   0  0  0  0  0  0  0  0  0  0  0  0
   -5.0580   22.8896  -23.3144 N   0  0  0  0  0  0  0  0  0  0  0  0
   -5.0540   23.0156  -21.8844 C   0  0  0  0  0  0  0  0  0  0  0  0
   -5.3580   24.4766  -21.5290 C   0  0  0  0  0  0  0  0  0  0  0  0
   -6.6179   24.7889  -22.1732 N   0  0  0  0  0  0  0  0  0  0  0  0
   -6.6959   24.6089  -23.6091 C   0  0  0  0  0  0  0  0  0  0  0  0
   -6.3405   23.1540  -23.8912 C   0  0  0  0  0  0  0  0  0  0  0  0
   -7.7701   25.2556  -21.4933 C   0  0  0  0  0  0  0  0  0  0  0  0
   -8.0958   26.5475  -21.3294 N   0  0  0  0  0  0  0  0  0  0  0  0
   -9.1936   26.9523  -20.6805 C   0  0  0  0  0  0  0  0  0  0  0  0
  -10.0246   26.0489  -20.1599 N   0  0  0  0  0  0  0  0  0  0  0  0
   -9.7793   24.7382  -20.2751 C   0  0  0  0  0  0  0  0  0  0  0  0
  -10.6712   23.7920  -19.7170 N   0  0  0  0  0  0  0  0  0  0  0  0
   -8.6318   24.3303  -20.9536 C   0  0  0  0  0  0  0  0  0  0  0  0
   -8.3397   22.8876  -21.0936 C   0  0  0  0  0  0  0  0  0  0  0  0
  -11.6721   23.7865  -19.9511 H   0  0  0  0  0  0  0  0  0  0  0  0
  -10.3051   23.0883  -19.0565 H   0  0  0  0  0  0  0  0  0  0  0  0
 23 24  1  0  0  0
 24 13  1  0  0  0
 13 14  2  0  0  0
 14 15  1  0  0  0
 15 16  1  0  0  0
 15 17  2  0  0  0
 17 18  1  0  0  0
 18 19  1  0  0  0
 19 20  2  0  0  0
 20 21  1  0  0  0
 21 22  1  0  0  0
 20  1  1  0  0  0
  1  2  1  0  0  0
  2 25  1  0  0  0
 25 26  1  0  0  0
 26 27  1  0  0  0
 27 28  1  0  0  0
 28 29  1  0  0  0
 29 30  1  0  0  0
 30 31  1  0  0  0
 29 32  1  0  0  0
 32 33  2  0  0  0
 33 34  1  0  0  0
 34 35  2  0  0  0
 35 36  1  0  0  0
 36 37  1  0  0  0
 36 38  2  0  0  0
 38 39  1  0  0  0
  2  3  2  0  0  0
  3  4  1  0  0  0
  4  5  1  0  0  0
  5  6  2  0  0  0
  6  7  1  0  0  0
  7  8  2  0  0  0
  8  9  1  0  0  0
  8 10  1  0  0  0
 22 13  1  0  0  0
 10  1  2  0  0  0
 22 18  2  0  0  0
 31 26  1  0  0  0
 38 32  1  0  0  0
 10  4  1  0  0  0
 37 40  1  0  0  0
 37 41  1  0  0  0
  9 11  1  0  0  0
  9 12  1  0  0  0
M  END
> <minimizedAffinity>
-8.59041

> <CNNscore>
0.3241107166

> <CNNaffinity>
7.0329885483

> <CNN_VS>
2.2794668674

> <CNNaffinity_variance>
0.0458194315

$$$$
[H]c1nc(N([H])[H])c(C([H])([H])[H])c(N2C([H])([H])C([H])([H])N(C([H])([H])c3c(-c4sc5c(OC([H])([H])[H])c([H])c(C([H])([H])[H])c([H])c5c4[H])c4c(N([H])[H])nc([H])nn4c3[H])C([H])([H])C2([H])[H])n1


 41 46  0  0  0  0  0  0  0  0999 V2000
   -1.6445   22.4992  -24.2714 C   0  0  0  0  0  0  0  0  0  0  0  0
   -0.5522   22.0527  -23.5171 C   0  0  0  0  0  0  0  0  0  0  0  0
    0.4775   21.8745  -24.4013 C   0  0  0  0  0  0  0  0  0  0  0  0
    0.0824   22.1784  -25.6365 N   0  0  0  0  0  0  0  0  0  0  0  0
    0.7856   22.1165  -26.7525 N   0  0  0  0  0  0  0  0  0  0  0  0
    0.2255   22.4411  -27.9311 C   0  0  0  0  0  0  0  0  0  0  0  0
   -1.0446   22.8184  -27.9180 N   0  0  0  0  0  0  0  0  0  0  0  0
   -1.7914   22.8893  -26.7702 C   0  0  0  0  0  0  0  0  0  0  0  0
   -3.1330   23.2524  -26.9192 N   0  0  0  0  0  0  0  0  0  0  0  0
   -1.2209   22.5625  -25.5724 C   0  0  0  0  0  0  0  0  0  0  0  0
   -3.3786   24.2490  -27.1021 H   0  0  0  0  0  0  0  0  0  0  0  0
   -3.8857   22.5117  -26.8710 H   0  0  0  0  0  0  0  0  0  0  0  0
   -6.4694   24.3850  -22.5018 C   0  0  0  0  0  0  0  0  0  0  0  0
   -7.4848   23.6644  -21.8888 C   0  0  0  0  0  0  0  0  0  0  0  0
   -7.2151   22.3234  -21.7037 C   0  0  0  0  0  0  0  0  0  0  0  0
   -8.3128   21.5314  -21.0381 C   0  0  0  0  0  0  0  0  0  0  0  0
   -6.0729   21.6887  -22.0652 C   0  0  0  0  0  0  0  0  0  0  0  0
   -5.0420   22.4287  -22.6894 C   0  0  0  0  0  0  0  0  0  0  0  0
   -3.8512   21.9357  -23.1064 C   0  0  0  0  0  0  0  0  0  0  0  0
   -2.9640   22.8053  -23.6971 C   0  0  0  0  0  0  0  0  0  0  0  0
   -3.8633   24.2694  -23.6309 S   0  0  0  0  0  0  0  0  0  0  0  0
   -5.2795   23.7496  -22.8841 C   0  0  0  0  0  0  0  0  0  0  0  0
   -7.0745   26.1144  -24.0321 C   0  0  0  0  0  0  0  0  0  0  0  0
   -6.5647   25.7426  -22.7677 O   0  0  0  0  0  0  0  0  0  0  0  0
   -0.4346   21.8256  -22.0569 C   0  0  0  0  0  0  0  0  0  0  0  0
    0.3482   20.6399  -21.7589 N   0  0  0  0  0  0  0  0  0  0  0  0
   -0.2457   19.7940  -20.7627 C   0  0  0  0  0  0  0  0  0  0  0  0
    0.4521   18.4287  -20.8121 C   0  0  0  0  0  0  0  0  0  0  0  0
    1.8647   18.6973  -20.6322 N   0  0  0  0  0  0  0  0  0  0  0  0
    2.4966   19.6033  -21.5704 C   0  0  0  0  0  0  0  0  0  0  0  0
    1.7279   20.9175  -21.5004 C   0  0  0  0  0  0  0  0  0  0  0  0
    2.6616   18.1343  -19.6048 C   0  0  0  0  0  0  0  0  0  0  0  0
    2.9308   18.7245  -18.4296 N   0  0  0  0  0  0  0  0  0  0  0  0
    3.6886   18.1623  -17.4810 C   0  0  0  0  0  0  0  0  0  0  0  0
    4.2164   16.9551  -17.6859 N   0  0  0  0  0  0  0  0  0  0  0  0
    4.0010   16.2925  -18.8286 C   0  0  0  0  0  0  0  0  0  0  0  0
    4.5683   15.0120  -19.0306 N   0  0  0  0  0  0  0  0  0  0  0  0
    3.2095   16.8900  -19.8084 C   0  0  0  0  0  0  0  0  0  0  0  0
    2.9575   16.1772  -21.0792 C   0  0  0  0  0  0  0  0  0  0  0  0
    4.4145   14.2404  -18.3692 H   0  0  0  0  0  0  0  0  0  0  0  0
    5.1527   14.8498  -19.8659 H   0  0  0  0  0  0  0  0  0  0  0  0
 23 24  1  0  0  0
 24 13  1  0  0  0
 13 14  2  0  0  0
 14 15  1  0  0  0
 15 16  1  0  0  0
 15 17  2  0  0  0
 17 18  1  0  0  0
 18 19  1  0  0  0
 19 20  2  0  0  0
 20 21  1  0  0  0
 21 22  1  0  0  0
 20  1  1  0  0  0
  1  2  1  0  0  0
  2 25  1  0  0  0
 25 26  1  0  0  0
 26 27  1  0  0  0
 27 28  1  0  0  0
 28 29  1  0  0  0
 29 30  1  0  0  0
 30 31  1  0  0  0
 29 32  1  0  0  0
 32 33  2  0  0  0
 33 34  1  0  0  0
 34 35  2  0  0  0
 35 36  1  0  0  0
 36 37  1  0  0  0
 36 38  2  0  0  0
 38 39  1  0  0  0
  2  3  2  0  0  0
  3  4  1  0  0  0
  4  5  1  0  0  0
  5  6  2  0  0  0
  6  7  1  0  0  0
  7  8  2  0  0  0
  8  9  1  0  0  0
  8 10  1  0  0  0
 22 13  1  0  0  0
 10  1  2  0  0  0
 22 18  2  0  0  0
 31 26  1  0  0  0
 38 32  1  0  0  0
 10  4  1  0  0  0
 37 40  1  0  0  0
 37 41  1  0  0  0
  9 11  1  0  0  0
  9 12  1  0  0  0
M  END
> <minimizedAffinity>
-7.75959

> <CNNscore>
0.1948284209

> <CNNaffinity>
6.9499526024

> <CNN_VS>
1.3540482521

> <CNNaffinity_variance>
0.0425510742

$$$$
[H]c1nc(N([H])[H])c(C([H])([H])[H])c(N2C([H])([H])C([H])([H])N(C([H])([H])c3c(-c4sc5c(OC([H])([H])[H])c([H])c(C([H])([H])[H])c([H])c5c4[H])c4c(N([H])[H])nc([H])nn4c3[H])C([H])([H])C2([H])[H])n1


 41 46  0  0  0  0  0  0  0  0999 V2000
   -2.4380   22.2717  -24.5790 C   0  0  0  0  0  0  0  0  0  0  0  0
   -3.0393   21.6155  -23.4977 C   0  0  0  0  0  0  0  0  0  0  0  0
   -2.0177   21.1158  -22.7358 C   0  0  0  0  0  0  0  0  0  0  0  0
   -0.8423   21.4210  -23.2833 N   0  0  0  0  0  0  0  0  0  0  0  0
    0.3632   21.1005  -22.8499 N   0  0  0  0  0  0  0  0  0  0  0  0
    1.4570   21.4720  -23.5381 C   0  0  0  0  0  0  0  0  0  0  0  0
    1.2691   22.1625  -24.6533 N   0  0  0  0  0  0  0  0  0  0  0  0
    0.0260   22.5052  -25.1196 C   0  0  0  0  0  0  0  0  0  0  0  0
   -0.0176   23.1886  -26.3382 N   0  0  0  0  0  0  0  0  0  0  0  0
   -1.0850   22.1303  -24.4183 C   0  0  0  0  0  0  0  0  0  0  0  0
    0.2375   24.1990  -26.3704 H   0  0  0  0  0  0  0  0  0  0  0  0
   -0.2835   22.6713  -27.2209 H   0  0  0  0  0  0  0  0  0  0  0  0
   -5.1316   25.4795  -28.1034 C   0  0  0  0  0  0  0  0  0  0  0  0
   -5.5620   25.1549  -29.3822 C   0  0  0  0  0  0  0  0  0  0  0  0
   -5.2774   23.8643  -29.7806 C   0  0  0  0  0  0  0  0  0  0  0  0
   -5.7412   23.5018  -31.1694 C   0  0  0  0  0  0  0  0  0  0  0  0
   -4.6326   22.9310  -29.0380 C   0  0  0  0  0  0  0  0  0  0  0  0
   -4.1967   23.2681  -27.7357 C   0  0  0  0  0  0  0  0  0  0  0  0
   -3.5415   22.4472  -26.8802 C   0  0  0  0  0  0  0  0  0  0  0  0
   -3.1916   22.9466  -25.6472 C   0  0  0  0  0  0  0  0  0  0  0  0
   -3.8069   24.5479  -25.7673 S   0  0  0  0  0  0  0  0  0  0  0  0
   -4.4629   24.5304  -27.3175 C   0  0  0  0  0  0  0  0  0  0  0  0
   -5.7288   26.7636  -26.1816 C   0  0  0  0  0  0  0  0  0  0  0  0
   -5.3305   26.7295  -27.5370 O   0  0  0  0  0  0  0  0  0  0  0  0
   -4.4735   21.4718  -23.1513 C   0  0  0  0  0  0  0  0  0  0  0  0
   -5.0711   22.7467  -22.7975 N   0  0  0  0  0  0  0  0  0  0  0  0
   -5.1317   22.9804  -21.3823 C   0  0  0  0  0  0  0  0  0  0  0  0
   -5.4152   24.4704  -21.1522 C   0  0  0  0  0  0  0  0  0  0  0  0
   -6.6349   24.7601  -21.8791 N   0  0  0  0  0  0  0  0  0  0  0  0
   -6.6492   24.4738  -23.2997 C   0  0  0  0  0  0  0  0  0  0  0  0
   -6.3176   22.9943  -23.4547 C   0  0  0  0  0  0  0  0  0  0  0  0
   -7.8058   25.3018  -21.2933 C   0  0  0  0  0  0  0  0  0  0  0  0
   -8.0702   26.6123  -21.1734 N   0  0  0  0  0  0  0  0  0  0  0  0
   -9.1882   27.0886  -20.6137 C   0  0  0  0  0  0  0  0  0  0  0  0
  -10.1040   26.2419  -20.1424 N   0  0  0  0  0  0  0  0  0  0  0  0
   -9.9243   24.9178  -20.2194 C   0  0  0  0  0  0  0  0  0  0  0  0
  -10.9058   24.0324  -19.7146 N   0  0  0  0  0  0  0  0  0  0  0  0
   -8.7548   24.4352  -20.8050 C   0  0  0  0  0  0  0  0  0  0  0  0
   -8.5340   22.9763  -20.9012 C   0  0  0  0  0  0  0  0  0  0  0  0
  -11.8857   24.0769  -20.0219 H   0  0  0  0  0  0  0  0  0  0  0  0
  -10.6286   23.3225  -19.0183 H   0  0  0  0  0  0  0  0  0  0  0  0
 23 24  1  0  0  0
 24 13  1  0  0  0
 13 14  2  0  0  0
 14 15  1  0  0  0
 15 16  1  0  0  0
 15 17  2  0  0  0
 17 18  1  0  0  0
 18 19  1  0  0  0
 19 20  2  0  0  0
 20 21  1  0  0  0
 21 22  1  0  0  0
 20  1  1  0  0  0
  1  2  1  0  0  0
  2 25  1  0  0  0
 25 26  1  0  0  0
 26 27  1  0  0  0
 27 28  1  0  0  0
 28 29  1  0  0  0
 29 30  1  0  0  0
 30 31  1  0  0  0
 29 32  1  0  0  0
 32 33  2  0  0  0
 33 34  1  0  0  0
 34 35  2  0  0  0
 35 36  1  0  0  0
 36 37  1  0  0  0
 36 38  2  0  0  0
 38 39  1  0  0  0
  2  3  2  0  0  0
  3  4  1  0  0  0
  4  5  1  0  0  0
  5  6  2  0  0  0
  6  7  1  0  0  0
  7  8  2  0  0  0
  8  9  1  0  0  0
  8 10  1  0  0  0
 22 13  1  0  0  0
 10  1  2  0  0  0
 22 18  2  0  0  0
 31 26  1  0  0  0
 38 32  1  0  0  0
 10  4  1  0  0  0
 37 40  1  0  0  0
 37 41  1  0  0  0
  9 11  1  0  0  0
  9 12  1  0  0  0
M  END
> <minimizedAffinity>
-9.59918

> <CNNscore>
0.1685729176

> <CNNaffinity>
7.2530112267

> <CNN_VS>
1.2226612568

> <CNNaffinity_variance>
0.1038096175

$$$$
[H]c1nc(N([H])[H])c(C([H])([H])[H])c(N2C([H])([H])C([H])([H])N(C([H])([H])c3c(-c4sc5c(OC([H])([H])[H])c([H])c(C([H])([H])[H])c([H])c5c4[H])c4c(N([H])[H])nc([H])nn4c3[H])C([H])([H])C2([H])[H])n1


 41 46  0  0  0  0  0  0  0  0999 V2000
   -2.0339   22.3852  -24.0770 C   0  0  0  0  0  0  0  0  0  0  0  0
   -0.9658   22.0956  -23.2186 C   0  0  0  0  0  0  0  0  0  0  0  0
    0.1433   21.9776  -24.0123 C   0  0  0  0  0  0  0  0  0  0  0  0
   -0.1811   22.1717  -25.2896 N   0  0  0  0  0  0  0  0  0  0  0  0
    0.6109   22.1228  -26.3452 N   0  0  0  0  0  0  0  0  0  0  0  0
    0.1164   22.3235  -27.5794 C   0  0  0  0  0  0  0  0  0  0  0  0
   -1.1819   22.5674  -27.6826 N   0  0  0  0  0  0  0  0  0  0  0  0
   -2.0205   22.6225  -26.5991 C   0  0  0  0  0  0  0  0  0  0  0  0
   -3.3755   22.8361  -26.8681 N   0  0  0  0  0  0  0  0  0  0  0  0
   -1.5170   22.4218  -25.3450 C   0  0  0  0  0  0  0  0  0  0  0  0
   -3.7035   23.7906  -27.1298 H   0  0  0  0  0  0  0  0  0  0  0  0
   -4.0525   22.0251  -26.8295 H   0  0  0  0  0  0  0  0  0  0  0  0
   -7.0772   22.4151  -21.9483 C   0  0  0  0  0  0  0  0  0  0  0  0
   -8.0067   23.4445  -21.9924 C   0  0  0  0  0  0  0  0  0  0  0  0
   -7.5911   24.5737  -22.6689 C   0  0  0  0  0  0  0  0  0  0  0  0
   -8.5947   25.6985  -22.7224 C   0  0  0  0  0  0  0  0  0  0  0  0
   -6.3862   24.7383  -23.2683 C   0  0  0  0  0  0  0  0  0  0  0  0
   -5.4434   23.6854  -23.2198 C   0  0  0  0  0  0  0  0  0  0  0  0
   -4.2046   23.7027  -23.7676 C   0  0  0  0  0  0  0  0  0  0  0  0
   -3.4184   22.5836  -23.6208 C   0  0  0  0  0  0  0  0  0  0  0  0
   -4.4736   21.5712  -22.7160 S   0  0  0  0  0  0  0  0  0  0  0  0
   -5.8249   22.5630  -22.5612 C   0  0  0  0  0  0  0  0  0  0  0  0
   -7.2640   21.2024  -19.9004 C   0  0  0  0  0  0  0  0  0  0  0  0
   -7.3214   21.2072  -21.3124 O   0  0  0  0  0  0  0  0  0  0  0  0
   -0.9421   21.9612  -21.7425 C   0  0  0  0  0  0  0  0  0  0  0  0
    0.1982   21.1838  -21.2920 N   0  0  0  0  0  0  0  0  0  0  0  0
   -0.1042   19.7994  -21.0622 C   0  0  0  0  0  0  0  0  0  0  0  0
    1.2179   19.0270  -20.9683 C   0  0  0  0  0  0  0  0  0  0  0  0
    1.9833   19.6743  -19.9218 N   0  0  0  0  0  0  0  0  0  0  0  0
    2.2542   21.0901  -20.0714 C   0  0  0  0  0  0  0  0  0  0  0  0
    0.9045   21.7858  -20.2030 C   0  0  0  0  0  0  0  0  0  0  0  0
    2.4801   19.0155  -18.7698 C   0  0  0  0  0  0  0  0  0  0  0  0
    1.8468   18.9501  -17.5882 N   0  0  0  0  0  0  0  0  0  0  0  0
    2.3469   18.3182  -16.5200 C   0  0  0  0  0  0  0  0  0  0  0  0
    3.5324   17.7140  -16.6045 N   0  0  0  0  0  0  0  0  0  0  0  0
    4.2348   17.7282  -17.7438 C   0  0  0  0  0  0  0  0  0  0  0  0
    5.4915   17.0822  -17.8173 N   0  0  0  0  0  0  0  0  0  0  0  0
    3.7019   18.3902  -18.8489 C   0  0  0  0  0  0  0  0  0  0  0  0
    4.4595   18.4195  -20.1184 C   0  0  0  0  0  0  0  0  0  0  0  0
    5.6063   16.0903  -17.5733 H   0  0  0  0  0  0  0  0  0  0  0  0
    6.3151   17.6234  -18.1245 H   0  0  0  0  0  0  0  0  0  0  0  0
 23 24  1  0  0  0
 24 13  1  0  0  0
 13 14  2  0  0  0
 14 15  1  0  0  0
 15 16  1  0  0  0
 15 17  2  0  0  0
 17 18  1  0  0  0
 18 19  1  0  0  0
 19 20  2  0  0  0
 20 21  1  0  0  0
 21 22  1  0  0  0
 20  1  1  0  0  0
  1  2  1  0  0  0
  2 25  1  0  0  0
 25 26  1  0  0  0
 26 27  1  0  0  0
 27 28  1  0  0  0
 28 29  1  0  0  0
 29 30  1  0  0  0
 30 31  1  0  0  0
 29 32  1  0  0  0
 32 33  2  0  0  0
 33 34  1  0  0  0
 34 35  2  0  0  0
 35 36  1  0  0  0
 36 37  1  0  0  0
 36 38  2  0  0  0
 38 39  1  0  0  0
  2  3  2  0  0  0
  3  4  1  0  0  0
  4  5  1  0  0  0
  5  6  2  0  0  0
  6  7  1  0  0  0
  7  8  2  0  0  0
  8  9  1  0  0  0
  8 10  1  0  0  0
 22 13  1  0  0  0
 10  1  2  0  0  0
 22 18  2  0  0  0
 31 26  1  0  0  0
 38 32  1  0  0  0
 10  4  1  0  0  0
 37 40  1  0  0  0
 37 41  1  0  0  0
  9 11  1  0  0  0
  9 12  1  0  0  0
M  END
> <minimizedAffinity>
-7.54303

> <CNNscore>
0.1411425173

> <CNNaffinity>
6.8309631348

> <CNN_VS>
0.9641393423

> <CNNaffinity_variance>
0.0640172586

$$$$
[H]c1nc(N([H])[H])c(C([H])([H])[H])c(N2C([H])([H])C([H])([H])N(C([H])([H])c3c(-c4sc5c(OC([H])([H])[H])c([H])c(C([H])([H])[H])c([H])c5c4[H])c4c(N([H])[H])nc([H])nn4c3[H])C([H])([H])C2([H])[H])n1


 41 46  0  0  0  0  0  0  0  0999 V2000
   -1.1344   21.8511  -22.8280 C   0  0  0  0  0  0  0  0  0  0  0  0
   -1.5856   21.3570  -21.5977 C   0  0  0  0  0  0  0  0  0  0  0  0
   -0.5150   20.7291  -21.0204 C   0  0  0  0  0  0  0  0  0  0  0  0
    0.5495   20.8062  -21.8175 N   0  0  0  0  0  0  0  0  0  0  0  0
    1.7553   20.3082  -21.6126 N   0  0  0  0  0  0  0  0  0  0  0  0
    2.7214   20.4578  -22.5358 C   0  0  0  0  0  0  0  0  0  0  0  0
    2.4093   21.1168  -23.6422 N   0  0  0  0  0  0  0  0  0  0  0  0
    1.1636   21.6413  -23.8734 C   0  0  0  0  0  0  0  0  0  0  0  0
    0.9676   22.2642  -25.1094 N   0  0  0  0  0  0  0  0  0  0  0  0
    0.1832   21.4920  -22.9336 C   0  0  0  0  0  0  0  0  0  0  0  0
    1.3631   23.2147  -25.2745 H   0  0  0  0  0  0  0  0  0  0  0  0
    0.4431   21.7580  -25.8749 H   0  0  0  0  0  0  0  0  0  0  0  0
   -4.3006   23.9040  -26.7939 C   0  0  0  0  0  0  0  0  0  0  0  0
   -4.9958   25.1051  -26.7833 C   0  0  0  0  0  0  0  0  0  0  0  0
   -4.8424   25.8547  -25.6345 C   0  0  0  0  0  0  0  0  0  0  0  0
   -5.5943   27.1623  -25.6134 C   0  0  0  0  0  0  0  0  0  0  0  0
   -4.0899   25.5115  -24.5603 C   0  0  0  0  0  0  0  0  0  0  0  0
   -3.3839   24.2864  -24.5773 C   0  0  0  0  0  0  0  0  0  0  0  0
   -2.5967   23.8094  -23.5834 C   0  0  0  0  0  0  0  0  0  0  0  0
   -1.9846   22.5922  -23.7727 C   0  0  0  0  0  0  0  0  0  0  0  0
   -2.5573   22.1902  -25.3435 S   0  0  0  0  0  0  0  0  0  0  0  0
   -3.5161   23.5286  -25.6942 C   0  0  0  0  0  0  0  0  0  0  0  0
   -5.3125   23.2606  -28.8581 C   0  0  0  0  0  0  0  0  0  0  0  0
   -4.3367   23.0229  -27.8640 O   0  0  0  0  0  0  0  0  0  0  0  0
   -2.9177   21.4730  -20.9576 C   0  0  0  0  0  0  0  0  0  0  0  0
   -2.8290   21.3783  -19.5117 N   0  0  0  0  0  0  0  0  0  0  0  0
   -4.0008   20.8194  -18.8990 C   0  0  0  0  0  0  0  0  0  0  0  0
   -3.6489   20.4232  -17.4593 C   0  0  0  0  0  0  0  0  0  0  0  0
   -3.1358   21.6237  -16.8306 N   0  0  0  0  0  0  0  0  0  0  0  0
   -1.9962   22.2680  -17.4525 C   0  0  0  0  0  0  0  0  0  0  0  0
   -2.4006   22.5915  -18.8859 C   0  0  0  0  0  0  0  0  0  0  0  0
   -3.6734   22.2034  -15.6547 C   0  0  0  0  0  0  0  0  0  0  0  0
   -3.2570   21.9379  -14.4066 N   0  0  0  0  0  0  0  0  0  0  0  0
   -3.7888   22.5050  -13.3178 C   0  0  0  0  0  0  0  0  0  0  0  0
   -4.7844   23.3822  -13.4488 N   0  0  0  0  0  0  0  0  0  0  0  0
   -5.2636   23.7072  -14.6555 C   0  0  0  0  0  0  0  0  0  0  0  0
   -6.3206   24.6401  -14.7776 N   0  0  0  0  0  0  0  0  0  0  0  0
   -4.7002   23.1088  -15.7815 C   0  0  0  0  0  0  0  0  0  0  0  0
   -5.2131   23.4521  -17.1252 C   0  0  0  0  0  0  0  0  0  0  0  0
   -6.2614   25.5827  -14.3721 H   0  0  0  0  0  0  0  0  0  0  0  0
   -7.1743   24.3648  -15.2885 H   0  0  0  0  0  0  0  0  0  0  0  0
 23 24  1  0  0  0
 24 13  1  0  0  0
 13 14  2  0  0  0
 14 15  1  0  0  0
 15 16  1  0  0  0
 15 17  2  0  0  0
 17 18  1  0  0  0
 18 19  1  0  0  0
 19 20  2  0  0  0
 20 21  1  0  0  0
 21 22  1  0  0  0
 20  1  1  0  0  0
  1  2  1  0  0  0
  2 25  1  0  0  0
 25 26  1  0  0  0
 26 27  1  0  0  0
 27 28  1  0  0  0
 28 29  1  0  0  0
 29 30  1  0  0  0
 30 31  1  0  0  0
 29 32  1  0  0  0
 32 33  2  0  0  0
 33 34  1  0  0  0
 34 35  2  0  0  0
 35 36  1  0  0  0
 36 37  1  0  0  0
 36 38  2  0  0  0
 38 39  1  0  0  0
  2  3  2  0  0  0
  3  4  1  0  0  0
  4  5  1  0  0  0
  5  6  2  0  0  0
  6  7  1  0  0  0
  7  8  2  0  0  0
  8  9  1  0  0  0
  8 10  1  0  0  0
 22 13  1  0  0  0
 10  1  2  0  0  0
 22 18  2  0  0  0
 31 26  1  0  0  0
 38 32  1  0  0  0
 10  4  1  0  0  0
 37 40  1  0  0  0
 37 41  1  0  0  0
  9 11  1  0  0  0
  9 12  1  0  0  0
M  END
> <minimizedAffinity>
-7.86862

> <CNNscore>
0.0948565304

> <CNNaffinity>
6.6470365524

> <CNN_VS>
0.6305148005

> <CNNaffinity_variance>
0.1160900369

$$$$
[H]c1nc(N([H])[H])c(C([H])([H])[H])c(N2C([H])([H])C([H])([H])N(C([H])([H])c3c(-c4sc5c(OC([H])([H])[H])c([H])c(C([H])([H])[H])c([H])c5c4[H])c4c(N([H])[H])nc([H])nn4c3[H])C([H])([H])C2([H])[H])n1


 41 46  0  0  0  0  0  0  0  0999 V2000
   -3.0408   23.4759  -24.8933 C   0  0  0  0  0  0  0  0  0  0  0  0
   -3.9362   24.3868  -24.3190 C   0  0  0  0  0  0  0  0  0  0  0  0
   -4.6878   24.8869  -25.3481 C   0  0  0  0  0  0  0  0  0  0  0  0
   -4.3063   24.3446  -26.5034 N   0  0  0  0  0  0  0  0  0  0  0  0
   -4.7824   24.5875  -27.7110 N   0  0  0  0  0  0  0  0  0  0  0  0
   -4.2671   23.9649  -28.7857 C   0  0  0  0  0  0  0  0  0  0  0  0
   -3.2751   23.1116  -28.5773 N   0  0  0  0  0  0  0  0  0  0  0  0
   -2.7671   22.8459  -27.3317 C   0  0  0  0  0  0  0  0  0  0  0  0
   -1.6850   21.9628  -27.2737 N   0  0  0  0  0  0  0  0  0  0  0  0
   -3.2932   23.4762  -26.2396 C   0  0  0  0  0  0  0  0  0  0  0  0
   -1.8495   20.9398  -27.3895 H   0  0  0  0  0  0  0  0  0  0  0  0
   -0.7067   22.3398  -27.1387 H   0  0  0  0  0  0  0  0  0  0  0  0
    1.2427   21.0565  -22.4921 C   0  0  0  0  0  0  0  0  0  0  0  0
    1.2358   20.2618  -21.3544 C   0  0  0  0  0  0  0  0  0  0  0  0
   -0.0092   20.0635  -20.7921 C   0  0  0  0  0  0  0  0  0  0  0  0
   -0.0271   19.2008  -19.5549 C   0  0  0  0  0  0  0  0  0  0  0  0
   -1.1772   20.5715  -21.2566 C   0  0  0  0  0  0  0  0  0  0  0  0
   -1.1634   21.3805  -22.4163 C   0  0  0  0  0  0  0  0  0  0  0  0
   -2.2438   21.9570  -22.9955 C   0  0  0  0  0  0  0  0  0  0  0  0
   -2.0425   22.7161  -24.1248 C   0  0  0  0  0  0  0  0  0  0  0  0
   -0.3382   22.5733  -24.3033 S   0  0  0  0  0  0  0  0  0  0  0  0
    0.0468   21.5925  -22.9905 C   0  0  0  0  0  0  0  0  0  0  0  0
    3.5296   20.5462  -22.9487 C   0  0  0  0  0  0  0  0  0  0  0  0
    2.4015   21.3626  -23.1894 O   0  0  0  0  0  0  0  0  0  0  0  0
   -4.1253   24.7669  -22.8987 C   0  0  0  0  0  0  0  0  0  0  0  0
   -5.4974   24.5692  -22.4677 N   0  0  0  0  0  0  0  0  0  0  0  0
   -5.8705   25.3822  -21.3449 C   0  0  0  0  0  0  0  0  0  0  0  0
   -7.4003   25.3721  -21.2303 C   0  0  0  0  0  0  0  0  0  0  0  0
   -7.7831   23.9776  -21.1377 N   0  0  0  0  0  0  0  0  0  0  0  0
   -7.3678   23.0987  -22.2127 C   0  0  0  0  0  0  0  0  0  0  0  0
   -5.8490   23.1927  -22.2974 C   0  0  0  0  0  0  0  0  0  0  0  0
   -8.5323   23.4228  -20.0707 C   0  0  0  0  0  0  0  0  0  0  0  0
   -8.0162   22.7066  -19.0595 N   0  0  0  0  0  0  0  0  0  0  0  0
   -8.7551   22.1972  -18.0672 C   0  0  0  0  0  0  0  0  0  0  0  0
  -10.0736   22.3951  -18.0562 N   0  0  0  0  0  0  0  0  0  0  0  0
  -10.6743   23.0972  -19.0245 C   0  0  0  0  0  0  0  0  0  0  0  0
  -12.0747   23.2984  -18.9985 N   0  0  0  0  0  0  0  0  0  0  0  0
   -9.8924   23.6223  -20.0524 C   0  0  0  0  0  0  0  0  0  0  0  0
  -10.5336   24.4015  -21.1332 C   0  0  0  0  0  0  0  0  0  0  0  0
  -12.5478   23.7133  -18.1857 H   0  0  0  0  0  0  0  0  0  0  0  0
  -12.6355   23.0201  -19.8192 H   0  0  0  0  0  0  0  0  0  0  0  0
 23 24  1  0  0  0
 24 13  1  0  0  0
 13 14  2  0  0  0
 14 15  1  0  0  0
 15 16  1  0  0  0
 15 17  2  0  0  0
 17 18  1  0  0  0
 18 19  1  0  0  0
 19 20  2  0  0  0
 20 21  1  0  0  0
 21 22  1  0  0  0
 20  1  1  0  0  0
  1  2  1  0  0  0
  2 25  1  0  0  0
 25 26  1  0  0  0
 26 27  1  0  0  0
 27 28  1  0  0  0
 28 29  1  0  0  0
 29 30  1  0  0  0
 30 31  1  0  0  0
 29 32  1  0  0  0
 32 33  2  0  0  0
 33 34  1  0  0  0
 34 35  2  0  0  0
 35 36  1  0  0  0
 36 37  1  0  0  0
 36 38  2  0  0  0
 38 39  1  0  0  0
  2  3  2  0  0  0
  3  4  1  0  0  0
  4  5  1  0  0  0
  5  6  2  0  0  0
  6  7  1  0  0  0
  7  8  2  0  0  0
  8  9  1  0  0  0
  8 10  1  0  0  0
 22 13  1  0  0  0
 10  1  2  0  0  0
 22 18  2  0  0  0
 31 26  1  0  0  0
 38 32  1  0  0  0
 10  4  1  0  0  0
 37 40  1  0  0  0
 37 41  1  0  0  0
  9 11  1  0  0  0
  9 12  1  0  0  0
M  END
> <minimizedAffinity>
-8.47356

> <CNNscore>
0.0927218348

> <CNNaffinity>
6.8853406906

> <CNN_VS>
0.6384214163

> <CNNaffinity_variance>
0.2355397195

$$$$
[H]c1nc(N([H])[H])c(C([H])([H])[H])c(N2C([H])([H])C([H])([H])N(C([H])([H])c3c(-c4sc5c(OC([H])([H])[H])c([H])c(C([H])([H])[H])c([H])c5c4[H])c4c(N([H])[H])nc([H])nn4c3[H])C([H])([H])C2([H])[H])n1


 41 46  0  0  0  0  0  0  0  0999 V2000
   -2.2779   22.1869  -23.3768 C   0  0  0  0  0  0  0  0  0  0  0  0
   -1.3367   21.7122  -22.4547 C   0  0  0  0  0  0  0  0  0  0  0  0
   -0.1657   21.5575  -23.1466 C   0  0  0  0  0  0  0  0  0  0  0  0
   -0.3350   21.9016  -24.4222 N   0  0  0  0  0  0  0  0  0  0  0  0
    0.5558   21.8718  -25.3966 N   0  0  0  0  0  0  0  0  0  0  0  0
    0.2141   22.2356  -26.6452 C   0  0  0  0  0  0  0  0  0  0  0  0
   -1.0386   22.6178  -26.8465 N   0  0  0  0  0  0  0  0  0  0  0  0
   -1.9779   22.6559  -25.8482 C   0  0  0  0  0  0  0  0  0  0  0  0
   -3.2721   23.0293  -26.2221 N   0  0  0  0  0  0  0  0  0  0  0  0
   -1.6294   22.2892  -24.5791 C   0  0  0  0  0  0  0  0  0  0  0  0
   -3.4825   24.0322  -26.4143 H   0  0  0  0  0  0  0  0  0  0  0  0
   -4.0203   22.2907  -26.3322 H   0  0  0  0  0  0  0  0  0  0  0  0
   -7.5025   22.5141  -21.7758 C   0  0  0  0  0  0  0  0  0  0  0  0
   -8.3150   23.6392  -21.7682 C   0  0  0  0  0  0  0  0  0  0  0  0
   -7.7158   24.7912  -22.2364 C   0  0  0  0  0  0  0  0  0  0  0  0
   -8.5910   26.0198  -22.2321 C   0  0  0  0  0  0  0  0  0  0  0  0
   -6.4404   24.8939  -22.6845 C   0  0  0  0  0  0  0  0  0  0  0  0
   -5.6177   23.7438  -22.6896 C   0  0  0  0  0  0  0  0  0  0  0  0
   -4.3291   23.6908  -23.1041 C   0  0  0  0  0  0  0  0  0  0  0  0
   -3.6789   22.4805  -23.0372 C   0  0  0  0  0  0  0  0  0  0  0  0
   -4.9246   21.4865  -22.3914 S   0  0  0  0  0  0  0  0  0  0  0  0
   -6.1803   22.5967  -22.2349 C   0  0  0  0  0  0  0  0  0  0  0  0
   -8.2137   21.1331  -19.9631 C   0  0  0  0  0  0  0  0  0  0  0  0
   -7.9353   21.2702  -21.3417 O   0  0  0  0  0  0  0  0  0  0  0  0
   -1.4807   21.4390  -21.0048 C   0  0  0  0  0  0  0  0  0  0  0  0
   -0.2961   21.8328  -20.2637 N   0  0  0  0  0  0  0  0  0  0  0  0
    0.4079   20.7285  -19.6756 C   0  0  0  0  0  0  0  0  0  0  0  0
    1.8037   21.2126  -19.2622 C   0  0  0  0  0  0  0  0  0  0  0  0
    1.5881   22.3456  -18.3849 N   0  0  0  0  0  0  0  0  0  0  0  0
    0.8201   23.4580  -18.9078 C   0  0  0  0  0  0  0  0  0  0  0  0
   -0.5306   22.8979  -19.3376 C   0  0  0  0  0  0  0  0  0  0  0  0
    2.0770   22.4345  -17.0580 C   0  0  0  0  0  0  0  0  0  0  0  0
    1.3551   22.1855  -15.9541 N   0  0  0  0  0  0  0  0  0  0  0  0
    1.8506   22.2795  -14.7148 C   0  0  0  0  0  0  0  0  0  0  0  0
    3.1228   22.6366  -14.5370 N   0  0  0  0  0  0  0  0  0  0  0  0
    3.9170   22.9039  -15.5806 C   0  0  0  0  0  0  0  0  0  0  0  0
    5.2651   23.2815  -15.3751 N   0  0  0  0  0  0  0  0  0  0  0  0
    3.3878   22.8021  -16.8663 C   0  0  0  0  0  0  0  0  0  0  0  0
    4.2460   23.0926  -18.0349 C   0  0  0  0  0  0  0  0  0  0  0  0
    5.9134   22.7011  -14.8279 H   0  0  0  0  0  0  0  0  0  0  0  0
    5.6056   24.1648  -15.7867 H   0  0  0  0  0  0  0  0  0  0  0  0
 23 24  1  0  0  0
 24 13  1  0  0  0
 13 14  2  0  0  0
 14 15  1  0  0  0
 15 16  1  0  0  0
 15 17  2  0  0  0
 17 18  1  0  0  0
 18 19  1  0  0  0
 19 20  2  0  0  0
 20 21  1  0  0  0
 21 22  1  0  0  0
 20  1  1  0  0  0
  1  2  1  0  0  0
  2 25  1  0  0  0
 25 26  1  0  0  0
 26 27  1  0  0  0
 27 28  1  0  0  0
 28 29  1  0  0  0
 29 30  1  0  0  0
 30 31  1  0  0  0
 29 32  1  0  0  0
 32 33  2  0  0  0
 33 34  1  0  0  0
 34 35  2  0  0  0
 35 36  1  0  0  0
 36 37  1  0  0  0
 36 38  2  0  0  0
 38 39  1  0  0  0
  2  3  2  0  0  0
  3  4  1  0  0  0
  4  5  1  0  0  0
  5  6  2  0  0  0
  6  7  1  0  0  0
  7  8  2  0  0  0
  8  9  1  0  0  0
  8 10  1  0  0  0
 22 13  1  0  0  0
 10  1  2  0  0  0
 22 18  2  0  0  0
 31 26  1  0  0  0
 38 32  1  0  0  0
 10  4  1  0  0  0
 37 40  1  0  0  0
 37 41  1  0  0  0
  9 11  1  0  0  0
  9 12  1  0  0  0
M  END
> <minimizedAffinity>
-8.11029

> <CNNscore>
0.0640300810

> <CNNaffinity>
6.4472608566

> <CNN_VS>
0.4128186405

> <CNNaffinity_variance>
0.1077538356

$$$$
[H]c1nc(N([H])[H])c2c(n1)N1C([H])([H])C([H])([H])N(C([H])([H])C(C(=O)N([H])C(C([H])([H])[H])(C([H])([H])[H])C([H])([H])[H])=C2c2sc3c(OC([H])([H])[H])c([H])c(C([H])([H])[H])c([H])c3c2[H])C([H])([H])C1([H])[H]


 38 42  0  0  0  0  0  0  0  0999 V2000
   -3.7325   23.0193  -24.2108 C   0  0  0  0  0  0  0  0  0  0  0  0
   -4.7718   23.3013  -23.4539 C   0  0  0  0  0  0  0  0  0  0  0  0
   -6.0028   23.9501  -24.0861 C   0  0  0  0  0  0  0  0  0  0  0  0
   -6.1060   25.3093  -23.7320 N   0  0  0  0  0  0  0  0  0  0  0  0
   -4.9706   26.0283  -23.2910 C   0  0  0  0  0  0  0  0  0  0  0  0
   -3.9411   26.1032  -24.3797 C   0  0  0  0  0  0  0  0  0  0  0  0
   -4.5874   25.5868  -25.6437 N   0  0  0  0  0  0  0  0  0  0  0  0
   -5.7557   26.3769  -25.8144 C   0  0  0  0  0  0  0  0  0  0  0  0
   -6.7901   26.1285  -24.7007 C   0  0  0  0  0  0  0  0  0  0  0  0
   -3.9645   24.5049  -26.3185 C   0  0  0  0  0  0  0  0  0  0  0  0
   -3.6455   24.4759  -27.6596 N   0  0  0  0  0  0  0  0  0  0  0  0
   -3.0968   23.5385  -28.3624 C   0  0  0  0  0  0  0  0  0  0  0  0
   -2.7684   22.4058  -27.7528 N   0  0  0  0  0  0  0  0  0  0  0  0
   -3.0311   22.3090  -26.4244 C   0  0  0  0  0  0  0  0  0  0  0  0
   -2.6431   21.0130  -25.9130 N   0  0  0  0  0  0  0  0  0  0  0  0
   -3.6131   23.3023  -25.6633 C   0  0  0  0  0  0  0  0  0  0  0  0
   -1.6235   20.8701  -25.8264 H   0  0  0  0  0  0  0  0  0  0  0  0
   -3.3955   20.3530  -25.6893 H   0  0  0  0  0  0  0  0  0  0  0  0
    1.1139   21.1656  -22.4993 C   0  0  0  0  0  0  0  0  0  0  0  0
    1.3806   20.3231  -21.4414 C   0  0  0  0  0  0  0  0  0  0  0  0
    0.2876   19.8886  -20.7235 C   0  0  0  0  0  0  0  0  0  0  0  0
    0.6107   18.9687  -19.5727 C   0  0  0  0  0  0  0  0  0  0  0  0
   -1.0087   20.2415  -21.0010 C   0  0  0  0  0  0  0  0  0  0  0  0
   -1.2705   21.1031  -22.0845 C   0  0  0  0  0  0  0  0  0  0  0  0
   -2.4885   21.5392  -22.4807 C   0  0  0  0  0  0  0  0  0  0  0  0
   -2.5502   22.3735  -23.5561 C   0  0  0  0  0  0  0  0  0  0  0  0
   -0.8905   22.5264  -23.9876 S   0  0  0  0  0  0  0  0  0  0  0  0
   -0.1955   21.5369  -22.7988 C   0  0  0  0  0  0  0  0  0  0  0  0
    3.3927   20.9494  -23.3356 C   0  0  0  0  0  0  0  0  0  0  0  0
    2.1638   21.6452  -23.2700 O   0  0  0  0  0  0  0  0  0  0  0  0
   -4.8897   23.1968  -22.0168 C   0  0  0  0  0  0  0  0  0  0  0  0
   -4.3014   23.9090  -21.1533 O   0  0  0  0  0  0  0  0  0  0  0  0
   -5.7551   22.1896  -21.4387 N   0  0  0  0  0  0  0  0  0  0  0  0
   -6.3141   21.5294  -21.9924 H   0  0  0  0  0  0  0  0  0  0  0  0
   -5.8487   22.1065  -19.9669 C   0  0  0  0  0  0  0  0  0  0  0  0
   -4.5243   21.6755  -19.3836 C   0  0  0  0  0  0  0  0  0  0  0  0
   -6.8648   21.0534  -19.6014 C   0  0  0  0  0  0  0  0  0  0  0  0
   -6.3123   23.4217  -19.3828 C   0  0  0  0  0  0  0  0  0  0  0  0
 29 30  1  0  0  0
 30 19  1  0  0  0
 19 20  1  0  0  0
 20 21  2  0  0  0
 21 22  1  0  0  0
 21 23  1  0  0  0
 23 24  2  0  0  0
 24 25  1  0  0  0
 25 26  2  0  0  0
 26 27  1  0  0  0
 27 28  1  0  0  0
 26  1  1  0  0  0
  1  2  2  0  0  0
  2  3  1  0  0  0
  3  4  1  0  0  0
  4  5  1  0  0  0
  5  6  1  0  0  0
  6  7  1  0  0  0
  7  8  1  0  0  0
  8  9  1  0  0  0
  7 10  1  0  0  0
 10 11  2  0  0  0
 11 12  1  0  0  0
 12 13  2  0  0  0
 13 14  1  0  0  0
 14 15  1  0  0  0
 14 16  2  0  0  0
  2 31  1  0  0  0
 31 32  2  0  0  0
 31 33  1  0  0  0
 33 35  1  0  0  0
 35 36  1  0  0  0
 35 37  1  0  0  0
 35 38  1  0  0  0
 28 19  2  0  0  0
 16  1  1  0  0  0
 28 24  1  0  0  0
  9  4  1  0  0  0
 16 10  1  0  0  0
 15 17  1  0  0  0
 15 18  1  0  0  0
 33 34  1  0  0  0
M  END
> <minimizedAffinity>
-7.05797

> <CNNscore>
0.2590560317

> <CNNaffinity>
7.0448064804

> <CNN_VS>
1.8249995708

> <CNNaffinity_variance>
0.9919085503

$$$$
[H]c1nc(N([H])[H])c2c(n1)N1C([H])([H])C([H])([H])N(C([H])([H])C(C(=O)N([H])C(C([H])([H])[H])(C([H])([H])[H])C([H])([H])[H])=C2c2sc3c(OC([H])([H])[H])c([H])c(C([H])([H])[H])c([H])c3c2[H])C([H])([H])C1([H])[H]


 38 42  0  0  0  0  0  0  0  0999 V2000
   -4.1962   22.8408  -24.5164 C   0  0  0  0  0  0  0  0  0  0  0  0
   -5.4569   22.8356  -24.1379 C   0  0  0  0  0  0  0  0  0  0  0  0
   -6.5483   23.1170  -25.1701 C   0  0  0  0  0  0  0  0  0  0  0  0
   -7.1027   24.3996  -24.9948 N   0  0  0  0  0  0  0  0  0  0  0  0
   -6.3889   25.4058  -24.3030 C   0  0  0  0  0  0  0  0  0  0  0  0
   -5.1240   25.7484  -25.0333 C   0  0  0  0  0  0  0  0  0  0  0  0
   -5.1832   25.0626  -26.3780 N   0  0  0  0  0  0  0  0  0  0  0  0
   -6.3992   25.5016  -26.9669 C   0  0  0  0  0  0  0  0  0  0  0  0
   -7.6320   24.9910  -26.1979 C   0  0  0  0  0  0  0  0  0  0  0  0
   -4.1238   24.1855  -26.7277 C   0  0  0  0  0  0  0  0  0  0  0  0
   -3.4018   24.2315  -27.9015 N   0  0  0  0  0  0  0  0  0  0  0  0
   -2.4384   23.4728  -28.3138 C   0  0  0  0  0  0  0  0  0  0  0  0
   -2.0404   22.4790  -27.5287 N   0  0  0  0  0  0  0  0  0  0  0  0
   -2.6748   22.3273  -26.3380 C   0  0  0  0  0  0  0  0  0  0  0  0
   -2.1495   21.1918  -25.6125 N   0  0  0  0  0  0  0  0  0  0  0  0
   -3.7013   23.1312  -25.8857 C   0  0  0  0  0  0  0  0  0  0  0  0
   -1.2086   21.3339  -25.2098 H   0  0  0  0  0  0  0  0  0  0  0  0
   -2.7383   20.3535  -25.5638 H   0  0  0  0  0  0  0  0  0  0  0  0
   -0.5756   22.7125  -20.4265 C   0  0  0  0  0  0  0  0  0  0  0  0
    0.2155   21.6597  -20.0192 C   0  0  0  0  0  0  0  0  0  0  0  0
    0.0809   20.4897  -20.7345 C   0  0  0  0  0  0  0  0  0  0  0  0
    0.9588   19.3563  -20.2658 C   0  0  0  0  0  0  0  0  0  0  0  0
   -0.7729   20.3272  -21.7959 C   0  0  0  0  0  0  0  0  0  0  0  0
   -1.5771   21.4095  -22.2042 C   0  0  0  0  0  0  0  0  0  0  0  0
   -2.4629   21.4039  -23.2270 C   0  0  0  0  0  0  0  0  0  0  0  0
   -3.1571   22.5492  -23.4778 C   0  0  0  0  0  0  0  0  0  0  0  0
   -2.5474   23.6110  -22.2674 S   0  0  0  0  0  0  0  0  0  0  0  0
   -1.4499   22.5693  -21.5022 C   0  0  0  0  0  0  0  0  0  0  0  0
    0.4562   24.1245  -18.7290 C   0  0  0  0  0  0  0  0  0  0  0  0
   -0.4961   23.9245  -19.7547 O   0  0  0  0  0  0  0  0  0  0  0  0
   -5.9913   22.7171  -22.7999 C   0  0  0  0  0  0  0  0  0  0  0  0
   -6.4215   21.6656  -22.2448 O   0  0  0  0  0  0  0  0  0  0  0  0
   -6.0726   23.8891  -21.9528 N   0  0  0  0  0  0  0  0  0  0  0  0
   -5.7615   24.8250  -22.2395 H   0  0  0  0  0  0  0  0  0  0  0  0
   -6.6285   23.7343  -20.5930 C   0  0  0  0  0  0  0  0  0  0  0  0
   -8.0605   23.2610  -20.6658 C   0  0  0  0  0  0  0  0  0  0  0  0
   -6.6340   25.0801  -19.9121 C   0  0  0  0  0  0  0  0  0  0  0  0
   -5.7748   22.7992  -19.7667 C   0  0  0  0  0  0  0  0  0  0  0  0
 29 30  1  0  0  0
 30 19  1  0  0  0
 19 20  1  0  0  0
 20 21  2  0  0  0
 21 22  1  0  0  0
 21 23  1  0  0  0
 23 24  2  0  0  0
 24 25  1  0  0  0
 25 26  2  0  0  0
 26 27  1  0  0  0
 27 28  1  0  0  0
 26  1  1  0  0  0
  1  2  2  0  0  0
  2  3  1  0  0  0
  3  4  1  0  0  0
  4  5  1  0  0  0
  5  6  1  0  0  0
  6  7  1  0  0  0
  7  8  1  0  0  0
  8  9  1  0  0  0
  7 10  1  0  0  0
 10 11  2  0  0  0
 11 12  1  0  0  0
 12 13  2  0  0  0
 13 14  1  0  0  0
 14 15  1  0  0  0
 14 16  2  0  0  0
  2 31  1  0  0  0
 31 32  2  0  0  0
 31 33  1  0  0  0
 33 35  1  0  0  0
 35 36  1  0  0  0
 35 37  1  0  0  0
 35 38  1  0  0  0
 28 19  2  0  0  0
 16  1  1  0  0  0
 28 24  1  0  0  0
  9  4  1  0  0  0
 16 10  1  0  0  0
 15 17  1  0  0  0
 15 18  1  0  0  0
 33 34  1  0  0  0
M  END
> <minimizedAffinity>
-7.85112

> <CNNscore>
0.2501345873

> <CNNaffinity>
7.0124559402

> <CNN_VS>
1.7540577650

> <CNNaffinity_variance>
0.3365600705

$$$$
[H]c1nc(N([H])[H])c2c(n1)N1C([H])([H])C([H])([H])N(C([H])([H])C(C(=O)N([H])C(C([H])([H])[H])(C([H])([H])[H])C([H])([H])[H])=C2c2sc3c(OC([H])([H])[H])c([H])c(C([H])([H])[H])c([H])c3c2[H])C([H])([H])C1([H])[H]


 38 42  0  0  0  0  0  0  0  0999 V2000
   -6.0835   21.7572  -17.9568 C   0  0  0  0  0  0  0  0  0  0  0  0
   -5.2447   22.7207  -18.2743 C   0  0  0  0  0  0  0  0  0  0  0  0
   -5.7552   24.1588  -18.3576 C   0  0  0  0  0  0  0  0  0  0  0  0
   -5.8542   24.5922  -19.6939 N   0  0  0  0  0  0  0  0  0  0  0  0
   -5.9467   23.6567  -20.7508 C   0  0  0  0  0  0  0  0  0  0  0  0
   -7.2047   22.8485  -20.6279 C   0  0  0  0  0  0  0  0  0  0  0  0
   -8.0448   23.4887  -19.5479 N   0  0  0  0  0  0  0  0  0  0  0  0
   -8.1933   24.8443  -19.9459 C   0  0  0  0  0  0  0  0  0  0  0  0
   -6.8544   25.6049  -19.9208 C   0  0  0  0  0  0  0  0  0  0  0  0
   -8.4499   22.6838  -18.4515 C   0  0  0  0  0  0  0  0  0  0  0  0
   -9.7422   22.5554  -17.9880 N   0  0  0  0  0  0  0  0  0  0  0  0
  -10.2034   21.8655  -16.9955 C   0  0  0  0  0  0  0  0  0  0  0  0
   -9.3476   21.1510  -16.2746 N   0  0  0  0  0  0  0  0  0  0  0  0
   -8.0386   21.1922  -16.6321 C   0  0  0  0  0  0  0  0  0  0  0  0
   -7.2326   20.3885  -15.7398 N   0  0  0  0  0  0  0  0  0  0  0  0
   -7.5346   21.9216  -17.6898 C   0  0  0  0  0  0  0  0  0  0  0  0
   -7.3399   19.3680  -15.8616 H   0  0  0  0  0  0  0  0  0  0  0  0
   -6.6382   20.8862  -15.0685 H   0  0  0  0  0  0  0  0  0  0  0  0
   -4.7508   16.4765  -18.3937 C   0  0  0  0  0  0  0  0  0  0  0  0
   -3.7943   15.7763  -17.6902 C   0  0  0  0  0  0  0  0  0  0  0  0
   -3.0836   16.4961  -16.7545 C   0  0  0  0  0  0  0  0  0  0  0  0
   -2.0447   15.7036  -16.0013 C   0  0  0  0  0  0  0  0  0  0  0  0
   -3.2752   17.8301  -16.4977 C   0  0  0  0  0  0  0  0  0  0  0  0
   -4.2555   18.5364  -17.2222 C   0  0  0  0  0  0  0  0  0  0  0  0
   -4.5597   19.8476  -17.0835 C   0  0  0  0  0  0  0  0  0  0  0  0
   -5.5421   20.3631  -17.8743 C   0  0  0  0  0  0  0  0  0  0  0  0
   -6.0178   18.9897  -18.7973 S   0  0  0  0  0  0  0  0  0  0  0  0
   -4.9620   17.8321  -18.1488 C   0  0  0  0  0  0  0  0  0  0  0  0
   -6.6982   15.1430  -19.0013 C   0  0  0  0  0  0  0  0  0  0  0  0
   -5.5078   15.8195  -19.3537 O   0  0  0  0  0  0  0  0  0  0  0  0
   -3.8667   22.6074  -18.6967 C   0  0  0  0  0  0  0  0  0  0  0  0
   -2.8436   22.9883  -18.0587 O   0  0  0  0  0  0  0  0  0  0  0  0
   -3.5552   22.0054  -19.9767 N   0  0  0  0  0  0  0  0  0  0  0  0
   -4.2631   21.6349  -20.6221 H   0  0  0  0  0  0  0  0  0  0  0  0
   -2.1375   21.9099  -20.3802 C   0  0  0  0  0  0  0  0  0  0  0  0
   -1.4713   23.2603  -20.2685 C   0  0  0  0  0  0  0  0  0  0  0  0
   -2.0695   21.4935  -21.8283 C   0  0  0  0  0  0  0  0  0  0  0  0
   -1.4152   20.8637  -19.5617 C   0  0  0  0  0  0  0  0  0  0  0  0
 29 30  1  0  0  0
 30 19  1  0  0  0
 19 20  1  0  0  0
 20 21  2  0  0  0
 21 22  1  0  0  0
 21 23  1  0  0  0
 23 24  2  0  0  0
 24 25  1  0  0  0
 25 26  2  0  0  0
 26 27  1  0  0  0
 27 28  1  0  0  0
 26  1  1  0  0  0
  1  2  2  0  0  0
  2  3  1  0  0  0
  3  4  1  0  0  0
  4  5  1  0  0  0
  5  6  1  0  0  0
  6  7  1  0  0  0
  7  8  1  0  0  0
  8  9  1  0  0  0
  7 10  1  0  0  0
 10 11  2  0  0  0
 11 12  1  0  0  0
 12 13  2  0  0  0
 13 14  1  0  0  0
 14 15  1  0  0  0
 14 16  2  0  0  0
  2 31  1  0  0  0
 31 32  2  0  0  0
 31 33  1  0  0  0
 33 35  1  0  0  0
 35 36  1  0  0  0
 35 37  1  0  0  0
 35 38  1  0  0  0
 28 19  2  0  0  0
 16  1  1  0  0  0
 28 24  1  0  0  0
  9  4  1  0  0  0
 16 10  1  0  0  0
 15 17  1  0  0  0
 15 18  1  0  0  0
 33 34  1  0  0  0
M  END
> <minimizedAffinity>
-5.12161

> <CNNscore>
0.0944810510

> <CNNaffinity>
5.5777182579

> <CNN_VS>
0.5269886851

> <CNNaffinity_variance>
0.1243963614

$$$$
[H]c1nc(N([H])[H])c2c(n1)N1C([H])([H])C([H])([H])N(C([H])([H])C(C(=O)N([H])C(C([H])([H])[H])(C([H])([H])[H])C([H])([H])[H])=C2c2sc3c(OC([H])([H])[H])c([H])c(C([H])([H])[H])c([H])c3c2[H])C([H])([H])C1([H])[H]


 38 42  0  0  0  0  0  0  0  0999 V2000
    0.1383   20.0652  -17.7118 C   0  0  0  0  0  0  0  0  0  0  0  0
    1.2210   20.4465  -17.0678 C   0  0  0  0  0  0  0  0  0  0  0  0
    1.5712   19.7830  -15.7362 C   0  0  0  0  0  0  0  0  0  0  0  0
    1.3227   20.6459  -14.6513 N   0  0  0  0  0  0  0  0  0  0  0  0
    0.4250   21.7309  -14.7833 C   0  0  0  0  0  0  0  0  0  0  0  0
   -0.9621   21.2333  -15.0647 C   0  0  0  0  0  0  0  0  0  0  0  0
   -0.9493   19.7355  -14.8684 N   0  0  0  0  0  0  0  0  0  0  0  0
   -0.4546   19.5366  -13.5517 C   0  0  0  0  0  0  0  0  0  0  0  0
    1.0152   19.9752  -13.4131 C   0  0  0  0  0  0  0  0  0  0  0  0
   -1.3699   18.9167  -15.9485 C   0  0  0  0  0  0  0  0  0  0  0  0
   -2.3138   17.9144  -15.8719 N   0  0  0  0  0  0  0  0  0  0  0  0
   -2.7479   17.1111  -16.7884 C   0  0  0  0  0  0  0  0  0  0  0  0
   -2.2432   17.2208  -18.0114 N   0  0  0  0  0  0  0  0  0  0  0  0
   -1.3011   18.1762  -18.2181 C   0  0  0  0  0  0  0  0  0  0  0  0
   -0.8318   18.1532  -19.5860 N   0  0  0  0  0  0  0  0  0  0  0  0
   -0.8319   19.0407  -17.2501 C   0  0  0  0  0  0  0  0  0  0  0  0
   -1.5039   18.5203  -20.2797 H   0  0  0  0  0  0  0  0  0  0  0  0
    0.1070   17.7760  -19.7532 H   0  0  0  0  0  0  0  0  0  0  0  0
   -1.6165   23.0338  -21.9499 C   0  0  0  0  0  0  0  0  0  0  0  0
   -1.1880   22.9892  -23.2593 C   0  0  0  0  0  0  0  0  0  0  0  0
   -0.1922   22.0789  -23.5394 C   0  0  0  0  0  0  0  0  0  0  0  0
    0.2557   22.0533  -24.9793 C   0  0  0  0  0  0  0  0  0  0  0  0
    0.3740   21.2433  -22.6103 C   0  0  0  0  0  0  0  0  0  0  0  0
   -0.0712   21.2968  -21.2747 C   0  0  0  0  0  0  0  0  0  0  0  0
    0.3871   20.5411  -20.2502 C   0  0  0  0  0  0  0  0  0  0  0  0
   -0.1642   20.7314  -19.0188 C   0  0  0  0  0  0  0  0  0  0  0  0
   -1.3178   21.9712  -19.3296 S   0  0  0  0  0  0  0  0  0  0  0  0
   -1.0550   22.1940  -20.9899 C   0  0  0  0  0  0  0  0  0  0  0  0
   -3.9705   23.6631  -21.9040 C   0  0  0  0  0  0  0  0  0  0  0  0
   -2.6172   23.9258  -21.5903 O   0  0  0  0  0  0  0  0  0  0  0  0
    2.1142   21.5388  -17.3826 C   0  0  0  0  0  0  0  0  0  0  0  0
    1.8211   22.6074  -17.9918 O   0  0  0  0  0  0  0  0  0  0  0  0
    3.5060   21.4646  -16.9887 N   0  0  0  0  0  0  0  0  0  0  0  0
    3.9151   20.6718  -16.4798 H   0  0  0  0  0  0  0  0  0  0  0  0
    4.3927   22.5955  -17.3305 C   0  0  0  0  0  0  0  0  0  0  0  0
    4.6396   22.6331  -18.8196 C   0  0  0  0  0  0  0  0  0  0  0  0
    5.7273   22.3892  -16.6587 C   0  0  0  0  0  0  0  0  0  0  0  0
    3.8170   23.9004  -16.8287 C   0  0  0  0  0  0  0  0  0  0  0  0
 29 30  1  0  0  0
 30 19  1  0  0  0
 19 20  1  0  0  0
 20 21  2  0  0  0
 21 22  1  0  0  0
 21 23  1  0  0  0
 23 24  2  0  0  0
 24 25  1  0  0  0
 25 26  2  0  0  0
 26 27  1  0  0  0
 27 28  1  0  0  0
 26  1  1  0  0  0
  1  2  2  0  0  0
  2  3  1  0  0  0
  3  4  1  0  0  0
  4  5  1  0  0  0
  5  6  1  0  0  0
  6  7  1  0  0  0
  7  8  1  0  0  0
  8  9  1  0  0  0
  7 10  1  0  0  0
 10 11  2  0  0  0
 11 12  1  0  0  0
 12 13  2  0  0  0
 13 14  1  0  0  0
 14 15  1  0  0  0
 14 16  2  0  0  0
  2 31  1  0  0  0
 31 32  2  0  0  0
 31 33  1  0  0  0
 33 35  1  0  0  0
 35 36  1  0  0  0
 35 37  1  0  0  0
 35 38  1  0  0  0
 28 19  2  0  0  0
 16  1  1  0  0  0
 28 24  1  0  0  0
  9  4  1  0  0  0
 16 10  1  0  0  0
 15 17  1  0  0  0
 15 18  1  0  0  0
 33 34  1  0  0  0
M  END
> <minimizedAffinity>
-5.76326

> <CNNscore>
0.0861299932

> <CNNaffinity>
5.5327801704

> <CNN_VS>
0.4765383303

> <CNNaffinity_variance>
0.3127098978

$$$$
[H]c1nc(N([H])[H])c2c(n1)N1C([H])([H])C([H])([H])N(C([H])([H])C(C(=O)N([H])C(C([H])([H])[H])(C([H])([H])[H])C([H])([H])[H])=C2c2sc3c(OC([H])([H])[H])c([H])c(C([H])([H])[H])c([H])c3c2[H])C([H])([H])C1([H])[H]


 38 42  0  0  0  0  0  0  0  0999 V2000
   -4.6250   21.4324  -18.6944 C   0  0  0  0  0  0  0  0  0  0  0  0
   -5.1061   20.2812  -18.2751 C   0  0  0  0  0  0  0  0  0  0  0  0
   -6.5950   20.1677  -17.9490 C   0  0  0  0  0  0  0  0  0  0  0  0
   -6.8132   20.1062  -16.5591 N   0  0  0  0  0  0  0  0  0  0  0  0
   -5.8389   20.5876  -15.6537 C   0  0  0  0  0  0  0  0  0  0  0  0
   -5.6353   22.0626  -15.8370 C   0  0  0  0  0  0  0  0  0  0  0  0
   -6.7219   22.5530  -16.7648 N   0  0  0  0  0  0  0  0  0  0  0  0
   -7.9408   22.1474  -16.1583 C   0  0  0  0  0  0  0  0  0  0  0  0
   -8.0924   20.6150  -16.1323 C   0  0  0  0  0  0  0  0  0  0  0  0
   -6.3332   23.2299  -17.9500 C   0  0  0  0  0  0  0  0  0  0  0  0
   -6.8105   24.4554  -18.3643 N   0  0  0  0  0  0  0  0  0  0  0  0
   -6.5315   25.1390  -19.4267 C   0  0  0  0  0  0  0  0  0  0  0  0
   -5.6577   24.6329  -20.2887 N   0  0  0  0  0  0  0  0  0  0  0  0
   -5.1119   23.4256  -19.9931 C   0  0  0  0  0  0  0  0  0  0  0  0
   -4.2049   22.9983  -21.0355 N   0  0  0  0  0  0  0  0  0  0  0  0
   -5.3989   22.6882  -18.8625 C   0  0  0  0  0  0  0  0  0  0  0  0
   -3.3085   23.5113  -21.0655 H   0  0  0  0  0  0  0  0  0  0  0  0
   -4.5214   22.2418  -21.6512 H   0  0  0  0  0  0  0  0  0  0  0  0
    0.7676   22.2408  -19.0401 C   0  0  0  0  0  0  0  0  0  0  0  0
    1.6477   21.7408  -19.9759 C   0  0  0  0  0  0  0  0  0  0  0  0
    1.1006   20.9364  -20.9518 C   0  0  0  0  0  0  0  0  0  0  0  0
    2.0875   20.4045  -21.9607 C   0  0  0  0  0  0  0  0  0  0  0  0
   -0.2317   20.6200  -21.0347 C   0  0  0  0  0  0  0  0  0  0  0  0
   -1.1227   21.1363  -20.0734 C   0  0  0  0  0  0  0  0  0  0  0  0
   -2.4567   20.9154  -20.0221 C   0  0  0  0  0  0  0  0  0  0  0  0
   -3.1633   21.5000  -19.0144 C   0  0  0  0  0  0  0  0  0  0  0  0
   -1.9337   22.3496  -18.1597 S   0  0  0  0  0  0  0  0  0  0  0  0
   -0.5897   21.9320  -19.1055 C   0  0  0  0  0  0  0  0  0  0  0  0
    2.4908   23.7147  -18.1470 C   0  0  0  0  0  0  0  0  0  0  0  0
    1.2441   23.0593  -18.0255 O   0  0  0  0  0  0  0  0  0  0  0  0
   -4.3829   19.0744  -17.9423 C   0  0  0  0  0  0  0  0  0  0  0  0
   -3.5526   18.9224  -17.0008 O   0  0  0  0  0  0  0  0  0  0  0  0
   -4.5827   17.8768  -18.7320 N   0  0  0  0  0  0  0  0  0  0  0  0
   -5.2260   17.8187  -19.5305 H   0  0  0  0  0  0  0  0  0  0  0  0
   -3.8243   16.6625  -18.3682 C   0  0  0  0  0  0  0  0  0  0  0  0
   -2.3414   16.9458  -18.3964 C   0  0  0  0  0  0  0  0  0  0  0  0
   -4.0968   15.5915  -19.3947 C   0  0  0  0  0  0  0  0  0  0  0  0
   -4.2649   16.1373  -17.0207 C   0  0  0  0  0  0  0  0  0  0  0  0
 29 30  1  0  0  0
 30 19  1  0  0  0
 19 20  1  0  0  0
 20 21  2  0  0  0
 21 22  1  0  0  0
 21 23  1  0  0  0
 23 24  2  0  0  0
 24 25  1  0  0  0
 25 26  2  0  0  0
 26 27  1  0  0  0
 27 28  1  0  0  0
 26  1  1  0  0  0
  1  2  2  0  0  0
  2  3  1  0  0  0
  3  4  1  0  0  0
  4  5  1  0  0  0
  5  6  1  0  0  0
  6  7  1  0  0  0
  7  8  1  0  0  0
  8  9  1  0  0  0
  7 10  1  0  0  0
 10 11  2  0  0  0
 11 12  1  0  0  0
 12 13  2  0  0  0
 13 14  1  0  0  0
 14 15  1  0  0  0
 14 16  2  0  0  0
  2 31  1  0  0  0
 31 32  2  0  0  0
 31 33  1  0  0  0
 33 35  1  0  0  0
 35 36  1  0  0  0
 35 37  1  0  0  0
 35 38  1  0  0  0
 28 19  2  0  0  0
 16  1  1  0  0  0
 28 24  1  0  0  0
  9  4  1  0  0  0
 16 10  1  0  0  0
 15 17  1  0  0  0
 15 18  1  0  0  0
 33 34  1  0  0  0
M  END
> <minimizedAffinity>
-5.57373

> <CNNscore>
0.0766123310

> <CNNaffinity>
5.6174478531

> <CNN_VS>
0.4303657711

> <CNNaffinity_variance>
0.1385239661

$$$$
[H]c1nc(N([H])[H])c2c(n1)N1C([H])([H])C([H])([H])N(C([H])([H])C(C(=O)N([H])C(C([H])([H])[H])(C([H])([H])[H])C([H])([H])[H])=C2c2sc3c(OC([H])([H])[H])c([H])c(C([H])([H])[H])c([H])c3c2[H])C([H])([H])C1([H])[H]


 38 42  0  0  0  0  0  0  0  0999 V2000
   -5.8761   22.4733  -21.9519 C   0  0  0  0  0  0  0  0  0  0  0  0
   -5.2305   22.1719  -23.0587 C   0  0  0  0  0  0  0  0  0  0  0  0
   -4.1664   21.0752  -23.0281 C   0  0  0  0  0  0  0  0  0  0  0  0
   -2.8685   21.6166  -23.1039 N   0  0  0  0  0  0  0  0  0  0  0  0
   -2.6269   22.9642  -22.7486 C   0  0  0  0  0  0  0  0  0  0  0  0
   -2.9361   23.1882  -21.2978 C   0  0  0  0  0  0  0  0  0  0  0  0
   -3.1681   21.8318  -20.6745 N   0  0  0  0  0  0  0  0  0  0  0  0
   -1.9986   21.0813  -20.9695 C   0  0  0  0  0  0  0  0  0  0  0  0
   -1.8486   20.8126  -22.4786 C   0  0  0  0  0  0  0  0  0  0  0  0
   -4.4011   21.6042  -20.0097 C   0  0  0  0  0  0  0  0  0  0  0  0
   -4.5405   21.1066  -18.7313 N   0  0  0  0  0  0  0  0  0  0  0  0
   -5.6116   20.8516  -18.0519 C   0  0  0  0  0  0  0  0  0  0  0  0
   -6.7879   21.0845  -18.6215 N   0  0  0  0  0  0  0  0  0  0  0  0
   -6.7861   21.5793  -19.8857 C   0  0  0  0  0  0  0  0  0  0  0  0
   -8.1358   21.7531  -20.3756 N   0  0  0  0  0  0  0  0  0  0  0  0
   -5.6511   21.8579  -20.6197 C   0  0  0  0  0  0  0  0  0  0  0  0
   -8.6490   22.5457  -19.9562 H   0  0  0  0  0  0  0  0  0  0  0  0
   -8.4687   21.0854  -21.0793 H   0  0  0  0  0  0  0  0  0  0  0  0
   -9.3505   26.5157  -23.1519 C   0  0  0  0  0  0  0  0  0  0  0  0
  -10.3408   27.0542  -22.3584 C   0  0  0  0  0  0  0  0  0  0  0  0
  -10.4721   26.5076  -21.1003 C   0  0  0  0  0  0  0  0  0  0  0  0
  -11.5632   27.1169  -20.2559 C   0  0  0  0  0  0  0  0  0  0  0  0
   -9.6918   25.4886  -20.6156 C   0  0  0  0  0  0  0  0  0  0  0  0
   -8.6825   24.9454  -21.4347 C   0  0  0  0  0  0  0  0  0  0  0  0
   -7.8371   23.9433  -21.1003 C   0  0  0  0  0  0  0  0  0  0  0  0
   -6.9194   23.5455  -22.0255 C   0  0  0  0  0  0  0  0  0  0  0  0
   -7.2660   24.5920  -23.3480 S   0  0  0  0  0  0  0  0  0  0  0  0
   -8.5466   25.4801  -22.6795 C   0  0  0  0  0  0  0  0  0  0  0  0
   -8.0208   26.6482  -25.1899 C   0  0  0  0  0  0  0  0  0  0  0  0
   -9.1572   27.0142  -24.4327 O   0  0  0  0  0  0  0  0  0  0  0  0
   -5.2903   22.8360  -24.3414 C   0  0  0  0  0  0  0  0  0  0  0  0
   -6.1774   23.6461  -24.7359 O   0  0  0  0  0  0  0  0  0  0  0  0
   -4.2570   22.5903  -25.3261 N   0  0  0  0  0  0  0  0  0  0  0  0
   -3.4565   21.9656  -25.1717 H   0  0  0  0  0  0  0  0  0  0  0  0
   -4.3511   23.2809  -26.6284 C   0  0  0  0  0  0  0  0  0  0  0  0
   -3.8144   24.6875  -26.5128 C   0  0  0  0  0  0  0  0  0  0  0  0
   -5.8035   23.3850  -27.0216 C   0  0  0  0  0  0  0  0  0  0  0  0
   -3.6335   22.4983  -27.7048 C   0  0  0  0  0  0  0  0  0  0  0  0
 29 30  1  0  0  0
 30 19  1  0  0  0
 19 20  1  0  0  0
 20 21  2  0  0  0
 21 22  1  0  0  0
 21 23  1  0  0  0
 23 24  2  0  0  0
 24 25  1  0  0  0
 25 26  2  0  0  0
 26 27  1  0  0  0
 27 28  1  0  0  0
 26  1  1  0  0  0
  1  2  2  0  0  0
  2  3  1  0  0  0
  3  4  1  0  0  0
  4  5  1  0  0  0
  5  6  1  0  0  0
  6  7  1  0  0  0
  7  8  1  0  0  0
  8  9  1  0  0  0
  7 10  1  0  0  0
 10 11  2  0  0  0
 11 12  1  0  0  0
 12 13  2  0  0  0
 13 14  1  0  0  0
 14 15  1  0  0  0
 14 16  2  0  0  0
  2 31  1  0  0  0
 31 32  2  0  0  0
 31 33  1  0  0  0
 33 35  1  0  0  0
 35 36  1  0  0  0
 35 37  1  0  0  0
 35 38  1  0  0  0
 28 19  2  0  0  0
 16  1  1  0  0  0
 28 24  1  0  0  0
  9  4  1  0  0  0
 16 10  1  0  0  0
 15 17  1  0  0  0
 15 18  1  0  0  0
 33 34  1  0  0  0
M  END
> <minimizedAffinity>
2.46326

> <CNNscore>
0.0667192712

> <CNNaffinity>
5.7833108902

> <CNN_VS>
0.3858582973

> <CNNaffinity_variance>
0.3809176087

$$$$
[H]c1nc(N([H])[H])c2c(n1)N1C([H])([H])C([H])([H])N(C([H])([H])C(C(=O)N([H])C(C([H])([H])[H])(C([H])([H])[H])C([H])([H])[H])=C2c2sc3c(OC([H])([H])[H])c([H])c(C([H])([H])[H])c([H])c3c2[H])C([H])([H])C1([H])[H]


 38 42  0  0  0  0  0  0  0  0999 V2000
   -5.0840   22.5410  -20.7014 C   0  0  0  0  0  0  0  0  0  0  0  0
   -6.1515   22.4001  -19.9442 C   0  0  0  0  0  0  0  0  0  0  0  0
   -7.5356   22.6125  -20.5567 C   0  0  0  0  0  0  0  0  0  0  0  0
   -8.1047   23.8282  -20.1307 N   0  0  0  0  0  0  0  0  0  0  0  0
   -7.2891   24.8726  -19.6361 C   0  0  0  0  0  0  0  0  0  0  0  0
   -6.3576   25.3625  -20.7053 C   0  0  0  0  0  0  0  0  0  0  0  0
   -6.7910   24.7241  -22.0040 N   0  0  0  0  0  0  0  0  0  0  0  0
   -8.1627   25.0648  -22.1471 C   0  0  0  0  0  0  0  0  0  0  0  0
   -9.0380   24.4095  -21.0626 C   0  0  0  0  0  0  0  0  0  0  0  0
   -5.8338   23.9669  -22.7282 C   0  0  0  0  0  0  0  0  0  0  0  0
   -5.5335   24.1256  -24.0646 N   0  0  0  0  0  0  0  0  0  0  0  0
   -4.6965   23.4793  -24.8098 C   0  0  0  0  0  0  0  0  0  0  0  0
   -3.9893   22.5004  -24.2583 N   0  0  0  0  0  0  0  0  0  0  0  0
   -4.1930   22.2444  -22.9408 C   0  0  0  0  0  0  0  0  0  0  0  0
   -3.3736   21.1390  -22.4953 N   0  0  0  0  0  0  0  0  0  0  0  0
   -5.0804   22.9281  -22.1347 C   0  0  0  0  0  0  0  0  0  0  0  0
   -2.3677   21.3565  -22.4030 H   0  0  0  0  0  0  0  0  0  0  0  0
   -3.8466   20.2466  -22.3179 H   0  0  0  0  0  0  0  0  0  0  0  0
   -0.5775   20.8198  -18.1360 C   0  0  0  0  0  0  0  0  0  0  0  0
    0.6265   21.4756  -17.9926 C   0  0  0  0  0  0  0  0  0  0  0  0
    0.7063   22.7262  -18.5656 C   0  0  0  0  0  0  0  0  0  0  0  0
    2.0350   23.4185  -18.3923 C   0  0  0  0  0  0  0  0  0  0  0  0
   -0.3191   23.3299  -19.2483 C   0  0  0  0  0  0  0  0  0  0  0  0
   -1.5456   22.6511  -19.3890 C   0  0  0  0  0  0  0  0  0  0  0  0
   -2.6436   23.1126  -20.0311 C   0  0  0  0  0  0  0  0  0  0  0  0
   -3.7465   22.3132  -20.0670 C   0  0  0  0  0  0  0  0  0  0  0  0
   -3.2140   20.9275  -19.1948 S   0  0  0  0  0  0  0  0  0  0  0  0
   -1.6323   21.4145  -18.8257 C   0  0  0  0  0  0  0  0  0  0  0  0
    0.3444   18.9032  -16.9459 C   0  0  0  0  0  0  0  0  0  0  0  0
   -0.7345   19.5553  -17.5858 O   0  0  0  0  0  0  0  0  0  0  0  0
   -6.2161   22.1813  -18.5166 C   0  0  0  0  0  0  0  0  0  0  0  0
   -6.5643   21.1185  -17.9267 O   0  0  0  0  0  0  0  0  0  0  0  0
   -5.8595   23.2524  -17.6092 N   0  0  0  0  0  0  0  0  0  0  0  0
   -5.5471   24.1816  -17.9156 H   0  0  0  0  0  0  0  0  0  0  0  0
   -5.9416   22.9973  -16.1566 C   0  0  0  0  0  0  0  0  0  0  0  0
   -7.3311   22.5373  -15.7856 C   0  0  0  0  0  0  0  0  0  0  0  0
   -5.6834   24.2876  -15.4194 C   0  0  0  0  0  0  0  0  0  0  0  0
   -4.8914   21.9984  -15.7263 C   0  0  0  0  0  0  0  0  0  0  0  0
 29 30  1  0  0  0
 30 19  1  0  0  0
 19 20  1  0  0  0
 20 21  2  0  0  0
 21 22  1  0  0  0
 21 23  1  0  0  0
 23 24  2  0  0  0
 24 25  1  0  0  0
 25 26  2  0  0  0
 26 27  1  0  0  0
 27 28  1  0  0  0
 26  1  1  0  0  0
  1  2  2  0  0  0
  2  3  1  0  0  0
  3  4  1  0  0  0
  4  5  1  0  0  0
  5  6  1  0  0  0
  6  7  1  0  0  0
  7  8  1  0  0  0
  8  9  1  0  0  0
  7 10  1  0  0  0
 10 11  2  0  0  0
 11 12  1  0  0  0
 12 13  2  0  0  0
 13 14  1  0  0  0
 14 15  1  0  0  0
 14 16  2  0  0  0
  2 31  1  0  0  0
 31 32  2  0  0  0
 31 33  1  0  0  0
 33 35  1  0  0  0
 35 36  1  0  0  0
 35 37  1  0  0  0
 35 38  1  0  0  0
 28 19  2  0  0  0
 16  1  1  0  0  0
 28 24  1  0  0  0
  9  4  1  0  0  0
 16 10  1  0  0  0
 15 17  1  0  0  0
 15 18  1  0  0  0
 33 34  1  0  0  0
M  END
> <minimizedAffinity>
-6.12564

> <CNNscore>
0.0629987940

> <CNNaffinity>
5.5616140366

> <CNN_VS>
0.3503749669

> <CNNaffinity_variance>
0.2068215907

$$$$
[H]c1nc(N([H])[H])c2c(n1)N1C([H])([H])C([H])([H])N(C([H])([H])C(C(=O)N([H])C(C([H])([H])[H])(C([H])([H])[H])C([H])([H])[H])=C2c2sc3c(OC([H])([H])[H])c([H])c(C([H])([H])[H])c([H])c3c2[H])C([H])([H])C1([H])[H]


 38 42  0  0  0  0  0  0  0  0999 V2000
   -5.5116   22.1800  -20.1756 C   0  0  0  0  0  0  0  0  0  0  0  0
   -6.8044   21.9534  -20.2750 C   0  0  0  0  0  0  0  0  0  0  0  0
   -7.5912   22.6005  -21.4144 C   0  0  0  0  0  0  0  0  0  0  0  0
   -8.3989   23.6551  -20.9467 N   0  0  0  0  0  0  0  0  0  0  0  0
   -8.1082   24.2975  -19.7205 C   0  0  0  0  0  0  0  0  0  0  0  0
   -6.7739   24.9800  -19.7889 C   0  0  0  0  0  0  0  0  0  0  0  0
   -6.3225   24.9382  -21.2299 N   0  0  0  0  0  0  0  0  0  0  0  0
   -7.3812   25.5305  -21.9692 C   0  0  0  0  0  0  0  0  0  0  0  0
   -8.6652   24.6815  -21.9229 C   0  0  0  0  0  0  0  0  0  0  0  0
   -5.0649   24.3477  -21.5191 C   0  0  0  0  0  0  0  0  0  0  0  0
   -4.0613   24.9284  -22.2654 N   0  0  0  0  0  0  0  0  0  0  0  0
   -2.8981   24.4672  -22.5939 C   0  0  0  0  0  0  0  0  0  0  0  0
   -2.5629   23.2520  -22.1775 N   0  0  0  0  0  0  0  0  0  0  0  0
   -3.4692   22.5729  -21.4289 C   0  0  0  0  0  0  0  0  0  0  0  0
   -2.9712   21.2615  -21.0767 N   0  0  0  0  0  0  0  0  0  0  0  0
   -4.7115   23.0546  -21.0695 C   0  0  0  0  0  0  0  0  0  0  0  0
   -2.2258   21.2602  -20.3611 H   0  0  0  0  0  0  0  0  0  0  0  0
   -3.3848   20.4575  -21.5606 H   0  0  0  0  0  0  0  0  0  0  0  0
   -2.7106   20.6938  -15.7261 C   0  0  0  0  0  0  0  0  0  0  0  0
   -2.3728   19.4221  -15.3151 C   0  0  0  0  0  0  0  0  0  0  0  0
   -2.7905   18.3921  -16.1295 C   0  0  0  0  0  0  0  0  0  0  0  0
   -2.4063   17.0132  -15.6541 C   0  0  0  0  0  0  0  0  0  0  0  0
   -3.5019   18.5647  -17.2898 C   0  0  0  0  0  0  0  0  0  0  0  0
   -3.8420   19.8685  -17.7009 C   0  0  0  0  0  0  0  0  0  0  0  0
   -4.5366   20.1982  -18.8143 C   0  0  0  0  0  0  0  0  0  0  0  0
   -4.7740   21.5186  -19.0523 C   0  0  0  0  0  0  0  0  0  0  0  0
   -4.0134   22.2691  -17.7022 S   0  0  0  0  0  0  0  0  0  0  0  0
   -3.4329   20.8919  -16.9013 C   0  0  0  0  0  0  0  0  0  0  0  0
   -3.0159   22.1146  -13.7697 C   0  0  0  0  0  0  0  0  0  0  0  0
   -2.3248   21.7833  -14.9577 O   0  0  0  0  0  0  0  0  0  0  0  0
   -7.6645   21.2454  -19.3536 C   0  0  0  0  0  0  0  0  0  0  0  0
   -8.1433   20.0845  -19.5018 O   0  0  0  0  0  0  0  0  0  0  0  0
   -8.0595   21.8762  -18.1111 N   0  0  0  0  0  0  0  0  0  0  0  0
   -7.7575   22.8152  -17.8249 H   0  0  0  0  0  0  0  0  0  0  0  0
   -8.9432   21.1273  -17.1945 C   0  0  0  0  0  0  0  0  0  0  0  0
  -10.3274   21.0080  -17.7859 C   0  0  0  0  0  0  0  0  0  0  0  0
   -9.0709   21.8962  -15.9032 C   0  0  0  0  0  0  0  0  0  0  0  0
   -8.3574   19.7713  -16.8716 C   0  0  0  0  0  0  0  0  0  0  0  0
 29 30  1  0  0  0
 30 19  1  0  0  0
 19 20  1  0  0  0
 20 21  2  0  0  0
 21 22  1  0  0  0
 21 23  1  0  0  0
 23 24  2  0  0  0
 24 25  1  0  0  0
 25 26  2  0  0  0
 26 27  1  0  0  0
 27 28  1  0  0  0
 26  1  1  0  0  0
  1  2  2  0  0  0
  2  3  1  0  0  0
  3  4  1  0  0  0
  4  5  1  0  0  0
  5  6  1  0  0  0
  6  7  1  0  0  0
  7  8  1  0  0  0
  8  9  1  0  0  0
  7 10  1  0  0  0
 10 11  2  0  0  0
 11 12  1  0  0  0
 12 13  2  0  0  0
 13 14  1  0  0  0
 14 15  1  0  0  0
 14 16  2  0  0  0
  2 31  1  0  0  0
 31 32  2  0  0  0
 31 33  1  0  0  0
 33 35  1  0  0  0
 35 36  1  0  0  0
 35 37  1  0  0  0
 35 38  1  0  0  0
 28 19  2  0  0  0
 16  1  1  0  0  0
 28 24  1  0  0  0
  9  4  1  0  0  0
 16 10  1  0  0  0
 15 17  1  0  0  0
 15 18  1  0  0  0
 33 34  1  0  0  0
M  END
> <minimizedAffinity>
-5.86614

> <CNNscore>
0.0622936226

> <CNNaffinity>
5.2776541710

> <CNN_VS>
0.3287642002

> <CNNaffinity_variance>
0.3143066764

$$$$
[H]c1nc(N([H])[H])c2c(n1)N1C([H])([H])C([H])([H])N(C([H])([H])C(C(=O)N([H])C(C([H])([H])[H])(C([H])([H])[H])C([H])([H])[H])=C2c2sc3c(OC([H])([H])[H])c([H])c(C([H])([H])[H])c([H])c3c2[H])C([H])([H])C1([H])[H]


 38 42  0  0  0  0  0  0  0  0999 V2000
   -5.2288   22.2072  -20.2525 C   0  0  0  0  0  0  0  0  0  0  0  0
   -6.4973   21.9610  -20.5030 C   0  0  0  0  0  0  0  0  0  0  0  0
   -7.1109   22.4582  -21.8115 C   0  0  0  0  0  0  0  0  0  0  0  0
   -7.9651   23.5565  -21.5936 N   0  0  0  0  0  0  0  0  0  0  0  0
   -7.8416   24.3463  -20.4268 C   0  0  0  0  0  0  0  0  0  0  0  0
   -6.5039   25.0245  -20.3911 C   0  0  0  0  0  0  0  0  0  0  0  0
   -5.8565   24.8096  -21.7389 N   0  0  0  0  0  0  0  0  0  0  0  0
   -6.7955   25.2996  -22.6856 C   0  0  0  0  0  0  0  0  0  0  0  0
   -8.0822   24.4537  -22.7156 C   0  0  0  0  0  0  0  0  0  0  0  0
   -4.5769   24.1970  -21.7753 C   0  0  0  0  0  0  0  0  0  0  0  0
   -3.4732   24.6889  -22.4395 N   0  0  0  0  0  0  0  0  0  0  0  0
   -2.2803   24.1990  -22.5435 C   0  0  0  0  0  0  0  0  0  0  0  0
   -2.0189   23.0463  -21.9390 N   0  0  0  0  0  0  0  0  0  0  0  0
   -3.0276   22.4578  -21.2469 C   0  0  0  0  0  0  0  0  0  0  0  0
   -2.5971   21.2029  -20.6709 N   0  0  0  0  0  0  0  0  0  0  0  0
   -4.3029   22.9712  -21.1261 C   0  0  0  0  0  0  0  0  0  0  0  0
   -1.9588   21.2944  -19.8635 H   0  0  0  0  0  0  0  0  0  0  0  0
   -2.9474   20.3428  -21.1058 H   0  0  0  0  0  0  0  0  0  0  0  0
   -3.3022   19.4320  -15.9583 C   0  0  0  0  0  0  0  0  0  0  0  0
   -2.7794   19.9306  -14.7843 C   0  0  0  0  0  0  0  0  0  0  0  0
   -2.7387   21.3036  -14.6751 C   0  0  0  0  0  0  0  0  0  0  0  0
   -2.1618   21.8190  -13.3804 C   0  0  0  0  0  0  0  0  0  0  0  0
   -3.1782   22.1689  -15.6447 C   0  0  0  0  0  0  0  0  0  0  0  0
   -3.7109   21.6490  -16.8408 C   0  0  0  0  0  0  0  0  0  0  0  0
   -4.1823   22.3705  -17.8840 C   0  0  0  0  0  0  0  0  0  0  0  0
   -4.6618   21.6934  -18.9648 C   0  0  0  0  0  0  0  0  0  0  0  0
   -4.4392   20.0538  -18.4891 S   0  0  0  0  0  0  0  0  0  0  0  0
   -3.7544   20.2930  -16.9564 C   0  0  0  0  0  0  0  0  0  0  0  0
   -2.3060   17.3461  -16.7302 C   0  0  0  0  0  0  0  0  0  0  0  0
   -3.3763   18.0583  -16.1421 O   0  0  0  0  0  0  0  0  0  0  0  0
   -7.4847   21.3653  -19.6311 C   0  0  0  0  0  0  0  0  0  0  0  0
   -8.1324   20.2987  -19.8351 O   0  0  0  0  0  0  0  0  0  0  0  0
   -7.8157   22.0081  -18.3761 N   0  0  0  0  0  0  0  0  0  0  0  0
   -7.3812   22.8786  -18.0471 H   0  0  0  0  0  0  0  0  0  0  0  0
   -8.8326   21.3758  -17.5112 C   0  0  0  0  0  0  0  0  0  0  0  0
  -10.2182   21.6720  -18.0330 C   0  0  0  0  0  0  0  0  0  0  0  0
   -8.7359   21.9716  -16.1289 C   0  0  0  0  0  0  0  0  0  0  0  0
   -8.5884   19.8883  -17.3938 C   0  0  0  0  0  0  0  0  0  0  0  0
 29 30  1  0  0  0
 30 19  1  0  0  0
 19 20  1  0  0  0
 20 21  2  0  0  0
 21 22  1  0  0  0
 21 23  1  0  0  0
 23 24  2  0  0  0
 24 25  1  0  0  0
 25 26  2  0  0  0
 26 27  1  0  0  0
 27 28  1  0  0  0
 26  1  1  0  0  0
  1  2  2  0  0  0
  2  3  1  0  0  0
  3  4  1  0  0  0
  4  5  1  0  0  0
  5  6  1  0  0  0
  6  7  1  0  0  0
  7  8  1  0  0  0
  8  9  1  0  0  0
  7 10  1  0  0  0
 10 11  2  0  0  0
 11 12  1  0  0  0
 12 13  2  0  0  0
 13 14  1  0  0  0
 14 15  1  0  0  0
 14 16  2  0  0  0
  2 31  1  0  0  0
 31 32  2  0  0  0
 31 33  1  0  0  0
 33 35  1  0  0  0
 35 36  1  0  0  0
 35 37  1  0  0  0
 35 38  1  0  0  0
 28 19  2  0  0  0
 16  1  1  0  0  0
 28 24  1  0  0  0
  9  4  1  0  0  0
 16 10  1  0  0  0
 15 17  1  0  0  0
 15 18  1  0  0  0
 33 34  1  0  0  0
M  END
> <minimizedAffinity>
-6.03121

> <CNNscore>
0.0613764301

> <CNNaffinity>
5.3725843430

> <CNN_VS>
0.3297500610

> <CNNaffinity_variance>
0.2768742144

$$$$
[H]c1nc(N([H])[H])c(C(C([H])([H])[H])(C([H])([H])[H])C([H])([H])[H])c(N2C([H])([H])C([H])([H])N(C([H])([H])c3c(-c4sc5c(OC([H])([H])[H])c([H])c(C([H])([H])[H])c([H])c5c4[H])c4c(N([H])[H])nc([H])nn4c3[H])C([H])([H])C2([H])[H])n1


 44 49  0  0  0  0  0  0  0  0999 V2000
   -3.2445   23.5104  -25.5510 C   0  0  0  0  0  0  0  0  0  0  0  0
   -3.9161   23.8587  -24.3579 C   0  0  0  0  0  0  0  0  0  0  0  0
   -3.0695   23.4584  -23.3535 C   0  0  0  0  0  0  0  0  0  0  0  0
   -1.9633   22.9099  -23.8653 N   0  0  0  0  0  0  0  0  0  0  0  0
   -0.9010   22.4153  -23.2603 N   0  0  0  0  0  0  0  0  0  0  0  0
    0.1394   21.9182  -23.9169 C   0  0  0  0  0  0  0  0  0  0  0  0
    0.1013   21.9243  -25.2452 N   0  0  0  0  0  0  0  0  0  0  0  0
   -0.9632   22.4187  -25.9490 C   0  0  0  0  0  0  0  0  0  0  0  0
   -0.8993   22.4486  -27.3498 N   0  0  0  0  0  0  0  0  0  0  0  0
   -2.0237   22.9210  -25.2454 C   0  0  0  0  0  0  0  0  0  0  0  0
   -0.7419   23.3953  -27.8130 H   0  0  0  0  0  0  0  0  0  0  0  0
   -0.9692   21.6046  -27.9621 H   0  0  0  0  0  0  0  0  0  0  0  0
   -5.4228   25.3632  -30.1849 C   0  0  0  0  0  0  0  0  0  0  0  0
   -5.8375   24.6365  -31.2680 C   0  0  0  0  0  0  0  0  0  0  0  0
   -5.6840   23.2771  -31.2025 C   0  0  0  0  0  0  0  0  0  0  0  0
   -6.1488   22.5025  -32.4083 C   0  0  0  0  0  0  0  0  0  0  0  0
   -5.1474   22.6655  -30.1205 C   0  0  0  0  0  0  0  0  0  0  0  0
   -4.7088   23.3669  -28.9891 C   0  0  0  0  0  0  0  0  0  0  0  0
   -4.1650   22.8790  -27.8641 C   0  0  0  0  0  0  0  0  0  0  0  0
   -3.8083   23.7803  -26.8777 C   0  0  0  0  0  0  0  0  0  0  0  0
   -4.2591   25.2521  -27.5882 S   0  0  0  0  0  0  0  0  0  0  0  0
   -4.8690   24.7071  -29.0736 C   0  0  0  0  0  0  0  0  0  0  0  0
   -5.8871   27.5441  -31.1788 C   0  0  0  0  0  0  0  0  0  0  0  0
   -5.5137   26.7419  -30.1056 O   0  0  0  0  0  0  0  0  0  0  0  0
   -5.2054   24.5335  -24.2636 C   0  0  0  0  0  0  0  0  0  0  0  0
   -5.8648   24.1246  -23.0060 N   0  0  0  0  0  0  0  0  0  0  0  0
   -6.3965   25.3085  -22.3374 C   0  0  0  0  0  0  0  0  0  0  0  0
   -6.9335   24.8298  -20.9843 C   0  0  0  0  0  0  0  0  0  0  0  0
   -7.8649   23.7735  -21.1370 N   0  0  0  0  0  0  0  0  0  0  0  0
   -7.4728   22.6640  -22.0432 C   0  0  0  0  0  0  0  0  0  0  0  0
   -7.0826   23.3649  -23.3617 C   0  0  0  0  0  0  0  0  0  0  0  0
   -9.1419   23.7035  -20.5887 C   0  0  0  0  0  0  0  0  0  0  0  0
  -10.0900   24.4528  -21.2939 N   0  0  0  0  0  0  0  0  0  0  0  0
  -11.3640   24.5096  -20.9727 C   0  0  0  0  0  0  0  0  0  0  0  0
  -11.7664   23.8121  -19.9156 N   0  0  0  0  0  0  0  0  0  0  0  0
  -10.8903   23.0540  -19.1749 C   0  0  0  0  0  0  0  0  0  0  0  0
  -11.4326   22.3598  -18.0715 N   0  0  0  0  0  0  0  0  0  0  0  0
   -9.5437   22.9729  -19.4854 C   0  0  0  0  0  0  0  0  0  0  0  0
  -11.4938   22.6999  -17.1081 H   0  0  0  0  0  0  0  0  0  0  0  0
  -11.8398   21.3976  -18.2665 H   0  0  0  0  0  0  0  0  0  0  0  0
   -8.5918   22.2145  -18.7015 C   0  0  0  0  0  0  0  0  0  0  0  0
   -9.0412   21.8204  -17.2814 C   0  0  0  0  0  0  0  0  0  0  0  0
   -8.1435   20.9048  -19.3083 C   0  0  0  0  0  0  0  0  0  0  0  0
   -7.2947   22.9964  -18.3678 C   0  0  0  0  0  0  0  0  0  0  0  0
 23 24  1  0  0  0
 24 13  1  0  0  0
 13 14  2  0  0  0
 14 15  1  0  0  0
 15 16  1  0  0  0
 15 17  2  0  0  0
 17 18  1  0  0  0
 18 19  1  0  0  0
 19 20  2  0  0  0
 20 21  1  0  0  0
 21 22  1  0  0  0
 20  1  1  0  0  0
  1  2  1  0  0  0
  2 25  1  0  0  0
 25 26  1  0  0  0
 26 27  1  0  0  0
 27 28  1  0  0  0
 28 29  1  0  0  0
 29 30  1  0  0  0
 30 31  1  0  0  0
 29 32  1  0  0  0
 32 33  2  0  0  0
 33 34  1  0  0  0
 34 35  2  0  0  0
 35 36  1  0  0  0
 36 37  1  0  0  0
 36 38  2  0  0  0
 38 41  1  0  0  0
 41 42  1  0  0  0
 41 43  1  0  0  0
 41 44  1  0  0  0
  2  3  2  0  0  0
  3  4  1  0  0  0
  4  5  1  0  0  0
  5  6  2  0  0  0
  6  7  1  0  0  0
  7  8  2  0  0  0
  8  9  1  0  0  0
  8 10  1  0  0  0
 22 13  1  0  0  0
 10  1  2  0  0  0
 22 18  2  0  0  0
 31 26  1  0  0  0
 38 32  1  0  0  0
 10  4  1  0  0  0
 37 39  1  0  0  0
 37 40  1  0  0  0
  9 11  1  0  0  0
  9 12  1  0  0  0
M  END
> <minimizedAffinity>
-8.94497

> <CNNscore>
0.1617513299

> <CNNaffinity>
7.4153084755

> <CNN_VS>
1.1994359493

> <CNNaffinity_variance>
0.2143609822

$$$$
[H]c1nc(N([H])[H])c(C(C([H])([H])[H])(C([H])([H])[H])C([H])([H])[H])c(N2C([H])([H])C([H])([H])N(C([H])([H])c3c(-c4sc5c(OC([H])([H])[H])c([H])c(C([H])([H])[H])c([H])c5c4[H])c4c(N([H])[H])nc([H])nn4c3[H])C([H])([H])C2([H])[H])n1


 44 49  0  0  0  0  0  0  0  0999 V2000
   -1.9226   21.8301  -23.4402 C   0  0  0  0  0  0  0  0  0  0  0  0
   -3.3284   21.8266  -23.3005 C   0  0  0  0  0  0  0  0  0  0  0  0
   -3.8017   22.1599  -24.5457 C   0  0  0  0  0  0  0  0  0  0  0  0
   -2.7879   22.3537  -25.3948 N   0  0  0  0  0  0  0  0  0  0  0  0
   -2.7994   22.6689  -26.6754 N   0  0  0  0  0  0  0  0  0  0  0  0
   -1.6938   22.8074  -27.3960 C   0  0  0  0  0  0  0  0  0  0  0  0
   -0.5258   22.6166  -26.7919 N   0  0  0  0  0  0  0  0  0  0  0  0
   -0.4270   22.2877  -25.4672 C   0  0  0  0  0  0  0  0  0  0  0  0
    0.8400   22.0395  -24.9192 N   0  0  0  0  0  0  0  0  0  0  0  0
   -1.5835   22.1557  -24.7479 C   0  0  0  0  0  0  0  0  0  0  0  0
    1.0963   21.0251  -24.7172 H   0  0  0  0  0  0  0  0  0  0  0  0
    1.5530   22.7778  -24.7225 H   0  0  0  0  0  0  0  0  0  0  0  0
    1.3055   21.4995  -19.0674 C   0  0  0  0  0  0  0  0  0  0  0  0
    2.1188   20.4619  -18.6998 C   0  0  0  0  0  0  0  0  0  0  0  0
    2.1274   19.3587  -19.5115 C   0  0  0  0  0  0  0  0  0  0  0  0
    3.0315   18.2322  -19.0829 C   0  0  0  0  0  0  0  0  0  0  0  0
    1.3701   19.2840  -20.6312 C   0  0  0  0  0  0  0  0  0  0  0  0
    0.5228   20.3199  -21.0476 C   0  0  0  0  0  0  0  0  0  0  0  0
   -0.2701   20.3653  -22.1285 C   0  0  0  0  0  0  0  0  0  0  0  0
   -1.0216   21.5090  -22.3285 C   0  0  0  0  0  0  0  0  0  0  0  0
   -0.5679   22.4472  -20.9913 S   0  0  0  0  0  0  0  0  0  0  0  0
    0.5287   21.3995  -20.2331 C   0  0  0  0  0  0  0  0  0  0  0  0
    2.1620   23.6729  -18.3587 C   0  0  0  0  0  0  0  0  0  0  0  0
    1.1913   22.6766  -18.3488 O   0  0  0  0  0  0  0  0  0  0  0  0
   -4.0705   21.4933  -22.0901 C   0  0  0  0  0  0  0  0  0  0  0  0
   -5.1730   22.4635  -21.9266 N   0  0  0  0  0  0  0  0  0  0  0  0
   -6.3902   21.9078  -22.5104 C   0  0  0  0  0  0  0  0  0  0  0  0
   -7.4454   23.0164  -22.4338 C   0  0  0  0  0  0  0  0  0  0  0  0
   -7.5968   23.5017  -21.1116 N   0  0  0  0  0  0  0  0  0  0  0  0
   -6.3495   23.8208  -20.3711 C   0  0  0  0  0  0  0  0  0  0  0  0
   -5.4966   22.5397  -20.4857 C   0  0  0  0  0  0  0  0  0  0  0  0
   -8.7882   23.6370  -20.4055 C   0  0  0  0  0  0  0  0  0  0  0  0
   -9.0807   22.5345  -19.5952 N   0  0  0  0  0  0  0  0  0  0  0  0
  -10.1395   22.4572  -18.8191 C   0  0  0  0  0  0  0  0  0  0  0  0
  -10.9754   23.4902  -18.8095 N   0  0  0  0  0  0  0  0  0  0  0  0
  -10.7520   24.6066  -19.5806 C   0  0  0  0  0  0  0  0  0  0  0  0
  -11.7114   25.6386  -19.4905 N   0  0  0  0  0  0  0  0  0  0  0  0
   -9.6483   24.7199  -20.4083 C   0  0  0  0  0  0  0  0  0  0  0  0
  -12.5381   25.7553  -20.0825 H   0  0  0  0  0  0  0  0  0  0  0  0
  -11.5737   26.3516  -18.7143 H   0  0  0  0  0  0  0  0  0  0  0  0
   -9.4079   25.8658  -21.2598 C   0  0  0  0  0  0  0  0  0  0  0  0
   -7.9700   26.4194  -21.2647 C   0  0  0  0  0  0  0  0  0  0  0  0
   -9.7159   25.6650  -22.7259 C   0  0  0  0  0  0  0  0  0  0  0  0
  -10.1859   27.1366  -20.8303 C   0  0  0  0  0  0  0  0  0  0  0  0
 23 24  1  0  0  0
 24 13  1  0  0  0
 13 14  2  0  0  0
 14 15  1  0  0  0
 15 16  1  0  0  0
 15 17  2  0  0  0
 17 18  1  0  0  0
 18 19  1  0  0  0
 19 20  2  0  0  0
 20 21  1  0  0  0
 21 22  1  0  0  0
 20  1  1  0  0  0
  1  2  1  0  0  0
  2 25  1  0  0  0
 25 26  1  0  0  0
 26 27  1  0  0  0
 27 28  1  0  0  0
 28 29  1  0  0  0
 29 30  1  0  0  0
 30 31  1  0  0  0
 29 32  1  0  0  0
 32 33  2  0  0  0
 33 34  1  0  0  0
 34 35  2  0  0  0
 35 36  1  0  0  0
 36 37  1  0  0  0
 36 38  2  0  0  0
 38 41  1  0  0  0
 41 42  1  0  0  0
 41 43  1  0  0  0
 41 44  1  0  0  0
  2  3  2  0  0  0
  3  4  1  0  0  0
  4  5  1  0  0  0
  5  6  2  0  0  0
  6  7  1  0  0  0
  7  8  2  0  0  0
  8  9  1  0  0  0
  8 10  1  0  0  0
 22 13  1  0  0  0
 10  1  2  0  0  0
 22 18  2  0  0  0
 31 26  1  0  0  0
 38 32  1  0  0  0
 10  4  1  0  0  0
 37 39  1  0  0  0
 37 40  1  0  0  0
  9 11  1  0  0  0
  9 12  1  0  0  0
M  END
> <minimizedAffinity>
-8.25839

> <CNNscore>
0.1578410119

> <CNNaffinity>
6.9743547440

> <CNN_VS>
1.1008392572

> <CNNaffinity_variance>
0.0643653199

$$$$
[H]c1nc(N([H])[H])c(C(C([H])([H])[H])(C([H])([H])[H])C([H])([H])[H])c(N2C([H])([H])C([H])([H])N(C([H])([H])c3c(-c4sc5c(OC([H])([H])[H])c([H])c(C([H])([H])[H])c([H])c5c4[H])c4c(N([H])[H])nc([H])nn4c3[H])C([H])([H])C2([H])[H])n1


 44 49  0  0  0  0  0  0  0  0999 V2000
   -1.8826   22.4643  -23.9791 C   0  0  0  0  0  0  0  0  0  0  0  0
   -0.6852   22.0100  -23.3828 C   0  0  0  0  0  0  0  0  0  0  0  0
    0.2016   21.8996  -24.4254 C   0  0  0  0  0  0  0  0  0  0  0  0
   -0.3814   22.2541  -25.5747 N   0  0  0  0  0  0  0  0  0  0  0  0
    0.1108   22.3077  -26.7970 N   0  0  0  0  0  0  0  0  0  0  0  0
   -0.5985   22.7055  -27.8455 C   0  0  0  0  0  0  0  0  0  0  0  0
   -1.8617   23.0659  -27.6454 N   0  0  0  0  0  0  0  0  0  0  0  0
   -2.4480   23.0390  -26.4091 C   0  0  0  0  0  0  0  0  0  0  0  0
   -3.7666   23.4966  -26.2701 N   0  0  0  0  0  0  0  0  0  0  0  0
   -1.6938   22.6205  -25.3470 C   0  0  0  0  0  0  0  0  0  0  0  0
   -3.9093   24.4473  -25.8102 H   0  0  0  0  0  0  0  0  0  0  0  0
   -4.6095   22.9807  -26.6098 H   0  0  0  0  0  0  0  0  0  0  0  0
   -6.5402   22.5519  -21.1595 C   0  0  0  0  0  0  0  0  0  0  0  0
   -7.2411   23.6456  -20.7285 C   0  0  0  0  0  0  0  0  0  0  0  0
   -6.7181   24.8768  -21.0224 C   0  0  0  0  0  0  0  0  0  0  0  0
   -7.5103   26.0625  -20.5359 C   0  0  0  0  0  0  0  0  0  0  0  0
   -5.5599   25.0208  -21.7082 C   0  0  0  0  0  0  0  0  0  0  0  0
   -4.8078   23.9317  -22.1694 C   0  0  0  0  0  0  0  0  0  0  0  0
   -3.6547   23.9448  -22.8546 C   0  0  0  0  0  0  0  0  0  0  0  0
   -3.0976   22.7273  -23.2010 C   0  0  0  0  0  0  0  0  0  0  0  0
   -4.2251   21.6434  -22.5466 S   0  0  0  0  0  0  0  0  0  0  0  0
   -5.3409   22.7257  -21.8692 C   0  0  0  0  0  0  0  0  0  0  0  0
   -7.1121   20.7062  -19.6676 C   0  0  0  0  0  0  0  0  0  0  0  0
   -6.9427   21.2465  -20.9382 O   0  0  0  0  0  0  0  0  0  0  0  0
   -0.4723   21.7668  -21.9607 C   0  0  0  0  0  0  0  0  0  0  0  0
    0.4136   20.5943  -21.8067 N   0  0  0  0  0  0  0  0  0  0  0  0
    1.7072   21.0357  -21.2939 C   0  0  0  0  0  0  0  0  0  0  0  0
    2.6123   19.7991  -21.2964 C   0  0  0  0  0  0  0  0  0  0  0  0
    2.0308   18.7259  -20.5776 N   0  0  0  0  0  0  0  0  0  0  0  0
    0.6083   18.4177  -20.8734 C   0  0  0  0  0  0  0  0  0  0  0  0
   -0.1203   19.7675  -20.7030 C   0  0  0  0  0  0  0  0  0  0  0  0
    2.6288   17.9799  -19.5665 C   0  0  0  0  0  0  0  0  0  0  0  0
    2.3111   18.4328  -18.2814 N   0  0  0  0  0  0  0  0  0  0  0  0
    2.7407   17.8618  -17.1774 C   0  0  0  0  0  0  0  0  0  0  0  0
    3.5214   16.7932  -17.2977 N   0  0  0  0  0  0  0  0  0  0  0  0
    3.8753   16.2928  -18.5286 C   0  0  0  0  0  0  0  0  0  0  0  0
    4.7125   15.1558  -18.5312 N   0  0  0  0  0  0  0  0  0  0  0  0
    3.4412   16.8698  -19.7096 C   0  0  0  0  0  0  0  0  0  0  0  0
    5.7355   15.1526  -18.5624 H   0  0  0  0  0  0  0  0  0  0  0  0
    4.2322   14.2096  -18.4701 H   0  0  0  0  0  0  0  0  0  0  0  0
    3.8289   16.3886  -21.0188 C   0  0  0  0  0  0  0  0  0  0  0  0
    4.7615   15.1623  -21.0436 C   0  0  0  0  0  0  0  0  0  0  0  0
    2.6912   15.9879  -21.9297 C   0  0  0  0  0  0  0  0  0  0  0  0
    4.6867   17.3975  -21.8257 C   0  0  0  0  0  0  0  0  0  0  0  0
 23 24  1  0  0  0
 24 13  1  0  0  0
 13 14  2  0  0  0
 14 15  1  0  0  0
 15 16  1  0  0  0
 15 17  2  0  0  0
 17 18  1  0  0  0
 18 19  1  0  0  0
 19 20  2  0  0  0
 20 21  1  0  0  0
 21 22  1  0  0  0
 20  1  1  0  0  0
  1  2  1  0  0  0
  2 25  1  0  0  0
 25 26  1  0  0  0
 26 27  1  0  0  0
 27 28  1  0  0  0
 28 29  1  0  0  0
 29 30  1  0  0  0
 30 31  1  0  0  0
 29 32  1  0  0  0
 32 33  2  0  0  0
 33 34  1  0  0  0
 34 35  2  0  0  0
 35 36  1  0  0  0
 36 37  1  0  0  0
 36 38  2  0  0  0
 38 41  1  0  0  0
 41 42  1  0  0  0
 41 43  1  0  0  0
 41 44  1  0  0  0
  2  3  2  0  0  0
  3  4  1  0  0  0
  4  5  1  0  0  0
  5  6  2  0  0  0
  6  7  1  0  0  0
  7  8  2  0  0  0
  8  9  1  0  0  0
  8 10  1  0  0  0
 22 13  1  0  0  0
 10  1  2  0  0  0
 22 18  2  0  0  0
 31 26  1  0  0  0
 38 32  1  0  0  0
 10  4  1  0  0  0
 37 39  1  0  0  0
 37 40  1  0  0  0
  9 11  1  0  0  0
  9 12  1  0  0  0
M  END
> <minimizedAffinity>
-7.66120

> <CNNscore>
0.1147900075

> <CNNaffinity>
6.9234552383

> <CNN_VS>
0.7947434783

> <CNNaffinity_variance>
0.0146686006

$$$$
[H]c1nc(N([H])[H])c(C(C([H])([H])[H])(C([H])([H])[H])C([H])([H])[H])c(N2C([H])([H])C([H])([H])N(C([H])([H])c3c(-c4sc5c(OC([H])([H])[H])c([H])c(C([H])([H])[H])c([H])c5c4[H])c4c(N([H])[H])nc([H])nn4c3[H])C([H])([H])C2([H])[H])n1


 44 49  0  0  0  0  0  0  0  0999 V2000
   -2.1418   22.1521  -23.8856 C   0  0  0  0  0  0  0  0  0  0  0  0
   -2.8179   21.6452  -22.7535 C   0  0  0  0  0  0  0  0  0  0  0  0
   -1.8308   21.0802  -21.9839 C   0  0  0  0  0  0  0  0  0  0  0  0
   -0.6400   21.2198  -22.5745 N   0  0  0  0  0  0  0  0  0  0  0  0
    0.5578   20.8399  -22.1741 N   0  0  0  0  0  0  0  0  0  0  0  0
    1.6616   21.0728  -22.8727 C   0  0  0  0  0  0  0  0  0  0  0  0
    1.5457   21.7205  -24.0272 N   0  0  0  0  0  0  0  0  0  0  0  0
    0.3402   22.1482  -24.5137 C   0  0  0  0  0  0  0  0  0  0  0  0
    0.3092   22.8819  -25.7087 N   0  0  0  0  0  0  0  0  0  0  0  0
   -0.7816   21.8903  -23.7740 C   0  0  0  0  0  0  0  0  0  0  0  0
    0.1318   23.9301  -25.6355 H   0  0  0  0  0  0  0  0  0  0  0  0
    0.4738   22.4737  -26.6565 H   0  0  0  0  0  0  0  0  0  0  0  0
   -4.8804   25.4050  -27.2870 C   0  0  0  0  0  0  0  0  0  0  0  0
   -5.3030   25.1263  -28.5586 C   0  0  0  0  0  0  0  0  0  0  0  0
   -5.0003   23.8877  -29.0587 C   0  0  0  0  0  0  0  0  0  0  0  0
   -5.4777   23.6081  -30.4602 C   0  0  0  0  0  0  0  0  0  0  0  0
   -4.3141   22.9695  -28.3385 C   0  0  0  0  0  0  0  0  0  0  0  0
   -3.8611   23.2091  -27.0339 C   0  0  0  0  0  0  0  0  0  0  0  0
   -3.1773   22.3868  -26.2242 C   0  0  0  0  0  0  0  0  0  0  0  0
   -2.8387   22.8550  -24.9677 C   0  0  0  0  0  0  0  0  0  0  0  0
   -3.5012   24.4152  -25.0007 S   0  0  0  0  0  0  0  0  0  0  0  0
   -4.1698   24.4370  -26.5588 C   0  0  0  0  0  0  0  0  0  0  0  0
   -5.9143   26.7347  -25.5199 C   0  0  0  0  0  0  0  0  0  0  0  0
   -5.1111   26.6111  -26.6489 O   0  0  0  0  0  0  0  0  0  0  0  0
   -4.2465   21.7589  -22.4839 C   0  0  0  0  0  0  0  0  0  0  0  0
   -4.4336   22.1577  -21.0734 N   0  0  0  0  0  0  0  0  0  0  0  0
   -5.4344   23.2184  -21.0046 C   0  0  0  0  0  0  0  0  0  0  0  0
   -5.4707   23.6772  -19.5429 C   0  0  0  0  0  0  0  0  0  0  0  0
   -5.7026   22.5928  -18.6616 N   0  0  0  0  0  0  0  0  0  0  0  0
   -4.8860   21.3711  -18.8774 C   0  0  0  0  0  0  0  0  0  0  0  0
   -5.0875   21.0334  -20.3698 C   0  0  0  0  0  0  0  0  0  0  0  0
   -6.6701   22.5228  -17.6639 C   0  0  0  0  0  0  0  0  0  0  0  0
   -7.8615   21.9242  -18.0880 N   0  0  0  0  0  0  0  0  0  0  0  0
   -8.9003   21.7274  -17.3059 C   0  0  0  0  0  0  0  0  0  0  0  0
   -8.8052   22.1229  -16.0409 N   0  0  0  0  0  0  0  0  0  0  0  0
   -7.6654   22.7191  -15.5548 C   0  0  0  0  0  0  0  0  0  0  0  0
   -7.6828   23.1006  -14.1955 N   0  0  0  0  0  0  0  0  0  0  0  0
   -6.5549   22.9413  -16.3508 C   0  0  0  0  0  0  0  0  0  0  0  0
   -7.9654   24.0105  -13.8217 H   0  0  0  0  0  0  0  0  0  0  0  0
   -7.3967   22.3603  -13.4885 H   0  0  0  0  0  0  0  0  0  0  0  0
   -5.3567   23.6013  -15.8770 C   0  0  0  0  0  0  0  0  0  0  0  0
   -4.0199   22.9273  -16.2414 C   0  0  0  0  0  0  0  0  0  0  0  0
   -5.1722   25.0286  -16.3388 C   0  0  0  0  0  0  0  0  0  0  0  0
   -5.2314   23.6331  -14.3316 C   0  0  0  0  0  0  0  0  0  0  0  0
 23 24  1  0  0  0
 24 13  1  0  0  0
 13 14  2  0  0  0
 14 15  1  0  0  0
 15 16  1  0  0  0
 15 17  2  0  0  0
 17 18  1  0  0  0
 18 19  1  0  0  0
 19 20  2  0  0  0
 20 21  1  0  0  0
 21 22  1  0  0  0
 20  1  1  0  0  0
  1  2  1  0  0  0
  2 25  1  0  0  0
 25 26  1  0  0  0
 26 27  1  0  0  0
 27 28  1  0  0  0
 28 29  1  0  0  0
 29 30  1  0  0  0
 30 31  1  0  0  0
 29 32  1  0  0  0
 32 33  2  0  0  0
 33 34  1  0  0  0
 34 35  2  0  0  0
 35 36  1  0  0  0
 36 37  1  0  0  0
 36 38  2  0  0  0
 38 41  1  0  0  0
 41 42  1  0  0  0
 41 43  1  0  0  0
 41 44  1  0  0  0
  2  3  2  0  0  0
  3  4  1  0  0  0
  4  5  1  0  0  0
  5  6  2  0  0  0
  6  7  1  0  0  0
  7  8  2  0  0  0
  8  9  1  0  0  0
  8 10  1  0  0  0
 22 13  1  0  0  0
 10  1  2  0  0  0
 22 18  2  0  0  0
 31 26  1  0  0  0
 38 32  1  0  0  0
 10  4  1  0  0  0
 37 39  1  0  0  0
 37 40  1  0  0  0
  9 11  1  0  0  0
  9 12  1  0  0  0
M  END
> <minimizedAffinity>
-8.49213

> <CNNscore>
0.0696202144

> <CNNaffinity>
7.0538911819

> <CNN_VS>
0.4910934269

> <CNNaffinity_variance>
0.2211505473

$$$$
[H]c1nc(N([H])[H])c(C(C([H])([H])[H])(C([H])([H])[H])C([H])([H])[H])c(N2C([H])([H])C([H])([H])N(C([H])([H])c3c(-c4sc5c(OC([H])([H])[H])c([H])c(C([H])([H])[H])c([H])c5c4[H])c4c(N([H])[H])nc([H])nn4c3[H])C([H])([H])C2([H])[H])n1


 44 49  0  0  0  0  0  0  0  0999 V2000
   -4.2290   24.4460  -26.7109 C   0  0  0  0  0  0  0  0  0  0  0  0
   -4.8495   25.6393  -26.2787 C   0  0  0  0  0  0  0  0  0  0  0  0
   -5.6121   26.0408  -27.3479 C   0  0  0  0  0  0  0  0  0  0  0  0
   -5.4868   25.1788  -28.3615 N   0  0  0  0  0  0  0  0  0  0  0  0
   -6.0515   25.1794  -29.5533 N   0  0  0  0  0  0  0  0  0  0  0  0
   -5.8393   24.2290  -30.4547 C   0  0  0  0  0  0  0  0  0  0  0  0
   -5.0198   23.2337  -30.1327 N   0  0  0  0  0  0  0  0  0  0  0  0
   -4.3941   23.1589  -28.9179 C   0  0  0  0  0  0  0  0  0  0  0  0
   -3.5948   22.0428  -28.6306 N   0  0  0  0  0  0  0  0  0  0  0  0
   -4.6284   24.1552  -28.0097 C   0  0  0  0  0  0  0  0  0  0  0  0
   -3.9893   21.3181  -27.9563 H   0  0  0  0  0  0  0  0  0  0  0  0
   -2.6555   21.8649  -29.0528 H   0  0  0  0  0  0  0  0  0  0  0  0
   -1.5548   21.5806  -22.9308 C   0  0  0  0  0  0  0  0  0  0  0  0
   -0.2324   21.2278  -22.9233 C   0  0  0  0  0  0  0  0  0  0  0  0
    0.5248   21.6246  -23.9933 C   0  0  0  0  0  0  0  0  0  0  0  0
    1.9765   21.2226  -23.9587 C   0  0  0  0  0  0  0  0  0  0  0  0
    0.0019   22.3350  -25.0202 C   0  0  0  0  0  0  0  0  0  0  0  0
   -1.3451   22.7189  -25.0722 C   0  0  0  0  0  0  0  0  0  0  0  0
   -1.9769   23.4182  -26.0267 C   0  0  0  0  0  0  0  0  0  0  0  0
   -3.3245   23.6749  -25.8518 C   0  0  0  0  0  0  0  0  0  0  0  0
   -3.6193   22.9223  -24.3615 S   0  0  0  0  0  0  0  0  0  0  0  0
   -2.0753   22.3176  -24.0070 C   0  0  0  0  0  0  0  0  0  0  0  0
   -2.3244   21.7251  -20.6186 C   0  0  0  0  0  0  0  0  0  0  0  0
   -2.4424   21.2518  -21.9213 O   0  0  0  0  0  0  0  0  0  0  0  0
   -4.7137   26.2498  -24.9613 C   0  0  0  0  0  0  0  0  0  0  0  0
   -5.9716   26.0487  -24.2125 N   0  0  0  0  0  0  0  0  0  0  0  0
   -6.6873   24.9083  -24.7766 C   0  0  0  0  0  0  0  0  0  0  0  0
   -8.0360   24.8492  -24.0514 C   0  0  0  0  0  0  0  0  0  0  0  0
   -7.8704   24.8016  -22.6454 N   0  0  0  0  0  0  0  0  0  0  0  0
   -6.9224   25.7788  -22.0517 C   0  0  0  0  0  0  0  0  0  0  0  0
   -5.6182   25.5843  -22.8538 C   0  0  0  0  0  0  0  0  0  0  0  0
   -8.4429   23.8839  -21.7700 C   0  0  0  0  0  0  0  0  0  0  0  0
   -7.7516   22.6690  -21.7102 N   0  0  0  0  0  0  0  0  0  0  0  0
   -8.0964   21.6685  -20.9294 C   0  0  0  0  0  0  0  0  0  0  0  0
   -9.1646   21.8285  -20.1553 N   0  0  0  0  0  0  0  0  0  0  0  0
   -9.8927   22.9950  -20.1621 C   0  0  0  0  0  0  0  0  0  0  0  0
  -11.0098   23.0472  -19.3002 N   0  0  0  0  0  0  0  0  0  0  0  0
   -9.5575   24.0665  -20.9719 C   0  0  0  0  0  0  0  0  0  0  0  0
  -11.9724   22.7897  -19.5342 H   0  0  0  0  0  0  0  0  0  0  0  0
  -10.8276   23.3625  -18.3016 H   0  0  0  0  0  0  0  0  0  0  0  0
  -10.3274   25.2911  -21.0286 C   0  0  0  0  0  0  0  0  0  0  0  0
   -9.5988   26.5736  -20.5832 C   0  0  0  0  0  0  0  0  0  0  0  0
  -10.8807   25.6513  -22.3883 C   0  0  0  0  0  0  0  0  0  0  0  0
  -11.5354   25.3144  -20.0564 C   0  0  0  0  0  0  0  0  0  0  0  0
 23 24  1  0  0  0
 24 13  1  0  0  0
 13 14  2  0  0  0
 14 15  1  0  0  0
 15 16  1  0  0  0
 15 17  2  0  0  0
 17 18  1  0  0  0
 18 19  1  0  0  0
 19 20  2  0  0  0
 20 21  1  0  0  0
 21 22  1  0  0  0
 20  1  1  0  0  0
  1  2  1  0  0  0
  2 25  1  0  0  0
 25 26  1  0  0  0
 26 27  1  0  0  0
 27 28  1  0  0  0
 28 29  1  0  0  0
 29 30  1  0  0  0
 30 31  1  0  0  0
 29 32  1  0  0  0
 32 33  2  0  0  0
 33 34  1  0  0  0
 34 35  2  0  0  0
 35 36  1  0  0  0
 36 37  1  0  0  0
 36 38  2  0  0  0
 38 41  1  0  0  0
 41 42  1  0  0  0
 41 43  1  0  0  0
 41 44  1  0  0  0
  2  3  2  0  0  0
  3  4  1  0  0  0
  4  5  1  0  0  0
  5  6  2  0  0  0
  6  7  1  0  0  0
  7  8  2  0  0  0
  8  9  1  0  0  0
  8 10  1  0  0  0
 22 13  1  0  0  0
 10  1  2  0  0  0
 22 18  2  0  0  0
 31 26  1  0  0  0
 38 32  1  0  0  0
 10  4  1  0  0  0
 37 39  1  0  0  0
 37 40  1  0  0  0
  9 11  1  0  0  0
  9 12  1  0  0  0
M  END
> <minimizedAffinity>
-9.33499

> <CNNscore>
0.0569922552

> <CNNaffinity>
7.1393060684

> <CNN_VS>
0.4068851471

> <CNNaffinity_variance>
0.1711654365

$$$$
[H]c1nc(N([H])[H])c(C(C([H])([H])[H])(C([H])([H])[H])C([H])([H])[H])c(N2C([H])([H])C([H])([H])N(C([H])([H])c3c(-c4sc5c(OC([H])([H])[H])c([H])c(C([H])([H])[H])c([H])c5c4[H])c4c(N([H])[H])nc([H])nn4c3[H])C([H])([H])C2([H])[H])n1


 44 49  0  0  0  0  0  0  0  0999 V2000
   -5.8419   21.5514  -19.5194 C   0  0  0  0  0  0  0  0  0  0  0  0
   -4.4319   21.5860  -19.4390 C   0  0  0  0  0  0  0  0  0  0  0  0
   -4.0914   20.4147  -18.8081 C   0  0  0  0  0  0  0  0  0  0  0  0
   -5.1859   19.7042  -18.5189 N   0  0  0  0  0  0  0  0  0  0  0  0
   -5.3066   18.5276  -17.9355 N   0  0  0  0  0  0  0  0  0  0  0  0
   -6.4775   17.9363  -17.7351 C   0  0  0  0  0  0  0  0  0  0  0  0
   -7.5738   18.5653  -18.1456 N   0  0  0  0  0  0  0  0  0  0  0  0
   -7.5351   19.7880  -18.7588 C   0  0  0  0  0  0  0  0  0  0  0  0
   -8.7310   20.3568  -19.2210 N   0  0  0  0  0  0  0  0  0  0  0  0
   -6.3141   20.3757  -18.9485 C   0  0  0  0  0  0  0  0  0  0  0  0
   -8.9038   20.3472  -20.2725 H   0  0  0  0  0  0  0  0  0  0  0  0
   -9.4695   20.7623  -18.6027 H   0  0  0  0  0  0  0  0  0  0  0  0
   -8.4890   25.1595  -22.6219 C   0  0  0  0  0  0  0  0  0  0  0  0
   -9.0993   26.3192  -22.2272 C   0  0  0  0  0  0  0  0  0  0  0  0
   -9.0603   26.6212  -20.8919 C   0  0  0  0  0  0  0  0  0  0  0  0
   -9.7398   27.9032  -20.4859 C   0  0  0  0  0  0  0  0  0  0  0  0
   -8.4486   25.8173  -19.9906 C   0  0  0  0  0  0  0  0  0  0  0  0
   -7.8110   24.6211  -20.3469 C   0  0  0  0  0  0  0  0  0  0  0  0
   -7.1749   23.7465  -19.5533 C   0  0  0  0  0  0  0  0  0  0  0  0
   -6.6199   22.6261  -20.1443 C   0  0  0  0  0  0  0  0  0  0  0  0
   -7.0230   22.8706  -21.7728 S   0  0  0  0  0  0  0  0  0  0  0  0
   -7.8608   24.3412  -21.6690 C   0  0  0  0  0  0  0  0  0  0  0  0
   -7.4448   25.0899  -24.8274 C   0  0  0  0  0  0  0  0  0  0  0  0
   -8.4463   24.7231  -23.9344 O   0  0  0  0  0  0  0  0  0  0  0  0
   -3.5671   22.6364  -19.9637 C   0  0  0  0  0  0  0  0  0  0  0  0
   -3.6826   22.6553  -21.4367 N   0  0  0  0  0  0  0  0  0  0  0  0
   -3.1559   23.9196  -21.9420 C   0  0  0  0  0  0  0  0  0  0  0  0
   -3.4381   23.9284  -23.4482 C   0  0  0  0  0  0  0  0  0  0  0  0
   -2.9122   22.7770  -24.0841 N   0  0  0  0  0  0  0  0  0  0  0  0
   -3.1947   21.4700  -23.4375 C   0  0  0  0  0  0  0  0  0  0  0  0
   -2.7343   21.6572  -21.9763 C   0  0  0  0  0  0  0  0  0  0  0  0
   -2.0923   22.7476  -25.2080 C   0  0  0  0  0  0  0  0  0  0  0  0
   -0.7747   22.3728  -24.9235 N   0  0  0  0  0  0  0  0  0  0  0  0
    0.1646   22.2506  -25.8358 C   0  0  0  0  0  0  0  0  0  0  0  0
   -0.1647   22.4992  -27.0989 N   0  0  0  0  0  0  0  0  0  0  0  0
   -1.4401   22.8728  -27.4522 C   0  0  0  0  0  0  0  0  0  0  0  0
   -1.6702   23.1145  -28.8241 N   0  0  0  0  0  0  0  0  0  0  0  0
   -2.4515   23.0112  -26.5172 C   0  0  0  0  0  0  0  0  0  0  0  0
   -1.5885   24.0136  -29.3064 H   0  0  0  0  0  0  0  0  0  0  0  0
   -1.9306   22.2735  -29.4196 H   0  0  0  0  0  0  0  0  0  0  0  0
   -3.7923   23.4404  -26.8546 C   0  0  0  0  0  0  0  0  0  0  0  0
   -4.9409   22.7227  -26.1200 C   0  0  0  0  0  0  0  0  0  0  0  0
   -4.0852   24.9054  -26.6258 C   0  0  0  0  0  0  0  0  0  0  0  0
   -4.1888   23.1505  -28.3256 C   0  0  0  0  0  0  0  0  0  0  0  0
 23 24  1  0  0  0
 24 13  1  0  0  0
 13 14  2  0  0  0
 14 15  1  0  0  0
 15 16  1  0  0  0
 15 17  2  0  0  0
 17 18  1  0  0  0
 18 19  1  0  0  0
 19 20  2  0  0  0
 20 21  1  0  0  0
 21 22  1  0  0  0
 20  1  1  0  0  0
  1  2  1  0  0  0
  2 25  1  0  0  0
 25 26  1  0  0  0
 26 27  1  0  0  0
 27 28  1  0  0  0
 28 29  1  0  0  0
 29 30  1  0  0  0
 30 31  1  0  0  0
 29 32  1  0  0  0
 32 33  2  0  0  0
 33 34  1  0  0  0
 34 35  2  0  0  0
 35 36  1  0  0  0
 36 37  1  0  0  0
 36 38  2  0  0  0
 38 41  1  0  0  0
 41 42  1  0  0  0
 41 43  1  0  0  0
 41 44  1  0  0  0
  2  3  2  0  0  0
  3  4  1  0  0  0
  4  5  1  0  0  0
  5  6  2  0  0  0
  6  7  1  0  0  0
  7  8  2  0  0  0
  8  9  1  0  0  0
  8 10  1  0  0  0
 22 13  1  0  0  0
 10  1  2  0  0  0
 22 18  2  0  0  0
 31 26  1  0  0  0
 38 32  1  0  0  0
 10  4  1  0  0  0
 37 39  1  0  0  0
 37 40  1  0  0  0
  9 11  1  0  0  0
  9 12  1  0  0  0
M  END
> <minimizedAffinity>
-8.39840

> <CNNscore>
0.0532032773

> <CNNaffinity>
6.9564437866

> <CNN_VS>
0.3701055944

> <CNNaffinity_variance>
0.2493260652

$$$$
[H]c1nc(N([H])[H])c(C(C([H])([H])[H])(C([H])([H])[H])C([H])([H])[H])c(N2C([H])([H])C([H])([H])N(C([H])([H])c3c(-c4sc5c(OC([H])([H])[H])c([H])c(C([H])([H])[H])c([H])c5c4[H])c4c(N([H])[H])nc([H])nn4c3[H])C([H])([H])C2([H])[H])n1


 44 49  0  0  0  0  0  0  0  0999 V2000
   -8.0172   21.5144  -19.3276 C   0  0  0  0  0  0  0  0  0  0  0  0
   -7.4905   22.0828  -20.5089 C   0  0  0  0  0  0  0  0  0  0  0  0
   -8.4958   22.8884  -20.9846 C   0  0  0  0  0  0  0  0  0  0  0  0
   -9.5591   22.8357  -20.1765 N   0  0  0  0  0  0  0  0  0  0  0  0
  -10.7184   23.4596  -20.2544 N   0  0  0  0  0  0  0  0  0  0  0  0
  -11.6789   23.3166  -19.3501 C   0  0  0  0  0  0  0  0  0  0  0  0
  -11.4533   22.5065  -18.3212 N   0  0  0  0  0  0  0  0  0  0  0  0
  -10.2782   21.8223  -18.1667 C   0  0  0  0  0  0  0  0  0  0  0  0
  -10.0926   21.0371  -17.0194 N   0  0  0  0  0  0  0  0  0  0  0  0
   -9.3073   21.9859  -19.1168 C   0  0  0  0  0  0  0  0  0  0  0  0
   -9.4384   21.4148  -16.2678 H   0  0  0  0  0  0  0  0  0  0  0  0
  -10.5718   20.1250  -16.8444 H   0  0  0  0  0  0  0  0  0  0  0  0
   -5.7115   17.4342  -16.5552 C   0  0  0  0  0  0  0  0  0  0  0  0
   -4.7665   17.5172  -15.5686 C   0  0  0  0  0  0  0  0  0  0  0  0
   -4.3261   18.7693  -15.2308 C   0  0  0  0  0  0  0  0  0  0  0  0
   -3.2863   18.8308  -14.1421 C   0  0  0  0  0  0  0  0  0  0  0  0
   -4.7958   19.8846  -15.8375 C   0  0  0  0  0  0  0  0  0  0  0  0
   -5.7624   19.8497  -16.8519 C   0  0  0  0  0  0  0  0  0  0  0  0
   -6.3034   20.8766  -17.5242 C   0  0  0  0  0  0  0  0  0  0  0  0
   -7.2485   20.5868  -18.4914 C   0  0  0  0  0  0  0  0  0  0  0  0
   -7.3197   18.8957  -18.3956 S   0  0  0  0  0  0  0  0  0  0  0  0
   -6.1839   18.6049  -17.1706 C   0  0  0  0  0  0  0  0  0  0  0  0
   -5.6688   15.4695  -18.0035 C   0  0  0  0  0  0  0  0  0  0  0  0
   -6.2507   16.2409  -17.0028 O   0  0  0  0  0  0  0  0  0  0  0  0
   -6.1513   21.8656  -21.0436 C   0  0  0  0  0  0  0  0  0  0  0  0
   -6.0202   22.6097  -22.3135 N   0  0  0  0  0  0  0  0  0  0  0  0
   -4.7413   23.3135  -22.3261 C   0  0  0  0  0  0  0  0  0  0  0  0
   -4.7378   24.1703  -23.5966 C   0  0  0  0  0  0  0  0  0  0  0  0
   -4.9906   23.3907  -24.7520 N   0  0  0  0  0  0  0  0  0  0  0  0
   -6.1324   22.4436  -24.6812 C   0  0  0  0  0  0  0  0  0  0  0  0
   -5.8696   21.6205  -23.4023 C   0  0  0  0  0  0  0  0  0  0  0  0
   -4.2337   23.3621  -25.9194 C   0  0  0  0  0  0  0  0  0  0  0  0
   -3.2693   22.3485  -25.9301 N   0  0  0  0  0  0  0  0  0  0  0  0
   -2.4616   22.1177  -26.9419 C   0  0  0  0  0  0  0  0  0  0  0  0
   -2.5742   22.8966  -28.0127 N   0  0  0  0  0  0  0  0  0  0  0  0
   -3.4990   23.9125  -28.0722 C   0  0  0  0  0  0  0  0  0  0  0  0
   -3.5228   24.6761  -29.2596 N   0  0  0  0  0  0  0  0  0  0  0  0
   -4.3633   24.1825  -27.0251 C   0  0  0  0  0  0  0  0  0  0  0  0
   -3.0000   25.5371  -29.4408 H   0  0  0  0  0  0  0  0  0  0  0  0
   -4.1255   24.3057  -30.0529 H   0  0  0  0  0  0  0  0  0  0  0  0
   -5.3197   25.2691  -27.0442 C   0  0  0  0  0  0  0  0  0  0  0  0
   -6.7192   24.9530  -26.4825 C   0  0  0  0  0  0  0  0  0  0  0  0
   -4.9080   26.5137  -26.2917 C   0  0  0  0  0  0  0  0  0  0  0  0
   -5.7009   25.7400  -28.4717 C   0  0  0  0  0  0  0  0  0  0  0  0
 23 24  1  0  0  0
 24 13  1  0  0  0
 13 14  2  0  0  0
 14 15  1  0  0  0
 15 16  1  0  0  0
 15 17  2  0  0  0
 17 18  1  0  0  0
 18 19  1  0  0  0
 19 20  2  0  0  0
 20 21  1  0  0  0
 21 22  1  0  0  0
 20  1  1  0  0  0
  1  2  1  0  0  0
  2 25  1  0  0  0
 25 26  1  0  0  0
 26 27  1  0  0  0
 27 28  1  0  0  0
 28 29  1  0  0  0
 29 30  1  0  0  0
 30 31  1  0  0  0
 29 32  1  0  0  0
 32 33  2  0  0  0
 33 34  1  0  0  0
 34 35  2  0  0  0
 35 36  1  0  0  0
 36 37  1  0  0  0
 36 38  2  0  0  0
 38 41  1  0  0  0
 41 42  1  0  0  0
 41 43  1  0  0  0
 41 44  1  0  0  0
  2  3  2  0  0  0
  3  4  1  0  0  0
  4  5  1  0  0  0
  5  6  2  0  0  0
  6  7  1  0  0  0
  7  8  2  0  0  0
  8  9  1  0  0  0
  8 10  1  0  0  0
 22 13  1  0  0  0
 10  1  2  0  0  0
 22 18  2  0  0  0
 31 26  1  0  0  0
 38 32  1  0  0  0
 10  4  1  0  0  0
 37 39  1  0  0  0
 37 40  1  0  0  0
  9 11  1  0  0  0
  9 12  1  0  0  0
M  END
> <minimizedAffinity>
-7.47895

> <CNNscore>
0.0513407551

> <CNNaffinity>
6.5291099548

> <CNN_VS>
0.3352094293

> <CNNaffinity_variance>
0.0556592867

$$$$
[H]c1nc(N([H])[H])c(C(C([H])([H])[H])(C([H])([H])[H])C([H])([H])[H])c(N2C([H])([H])C([H])([H])N(C([H])([H])c3c(-c4sc5c(OC([H])([H])[H])c([H])c(C([H])([H])[H])c([H])c5c4[H])c4c(N([H])[H])nc([H])nn4c3[H])C([H])([H])C2([H])[H])n1


 44 49  0  0  0  0  0  0  0  0999 V2000
   -8.3126   23.9157  -19.9613 C   0  0  0  0  0  0  0  0  0  0  0  0
   -7.3690   24.6136  -20.7479 C   0  0  0  0  0  0  0  0  0  0  0  0
   -8.0715   25.6673  -21.2791 C   0  0  0  0  0  0  0  0  0  0  0  0
   -9.3416   25.6391  -20.8640 N   0  0  0  0  0  0  0  0  0  0  0  0
  -10.3389   26.4630  -21.1207 N   0  0  0  0  0  0  0  0  0  0  0  0
  -11.5537   26.3096  -20.6096 C   0  0  0  0  0  0  0  0  0  0  0  0
  -11.7661   25.2763  -19.8016 N   0  0  0  0  0  0  0  0  0  0  0  0
  -10.7857   24.3756  -19.4849 C   0  0  0  0  0  0  0  0  0  0  0  0
  -11.0722   23.3487  -18.5734 N   0  0  0  0  0  0  0  0  0  0  0  0
   -9.5437   24.5565  -20.0299 C   0  0  0  0  0  0  0  0  0  0  0  0
  -10.6680   23.4383  -17.5915 H   0  0  0  0  0  0  0  0  0  0  0  0
  -11.6737   22.5211  -18.7865 H   0  0  0  0  0  0  0  0  0  0  0  0
   -7.3441   18.9938  -17.8428 C   0  0  0  0  0  0  0  0  0  0  0  0
   -6.9340   18.6917  -16.5725 C   0  0  0  0  0  0  0  0  0  0  0  0
   -6.7255   19.7417  -15.7183 C   0  0  0  0  0  0  0  0  0  0  0  0
   -6.2748   19.3799  -14.3269 C   0  0  0  0  0  0  0  0  0  0  0  0
   -6.9129   21.0270  -16.0999 C   0  0  0  0  0  0  0  0  0  0  0  0
   -7.3315   21.3852  -17.3886 C   0  0  0  0  0  0  0  0  0  0  0  0
   -7.5513   22.6126  -17.8832 C   0  0  0  0  0  0  0  0  0  0  0  0
   -7.9638   22.7122  -19.1995 C   0  0  0  0  0  0  0  0  0  0  0  0
   -8.0191   21.0811  -19.6586 S   0  0  0  0  0  0  0  0  0  0  0  0
   -7.5317   20.3346  -18.2163 C   0  0  0  0  0  0  0  0  0  0  0  0
   -7.0078   16.7803  -18.8158 C   0  0  0  0  0  0  0  0  0  0  0  0
   -7.5945   18.0415  -18.8153 O   0  0  0  0  0  0  0  0  0  0  0  0
   -5.9583   24.2759  -20.8981 C   0  0  0  0  0  0  0  0  0  0  0  0
   -5.6156   24.2955  -22.3354 N   0  0  0  0  0  0  0  0  0  0  0  0
   -4.4267   25.1193  -22.5327 C   0  0  0  0  0  0  0  0  0  0  0  0
   -4.2170   25.2107  -24.0480 C   0  0  0  0  0  0  0  0  0  0  0  0
   -4.1475   23.9271  -24.6431 N   0  0  0  0  0  0  0  0  0  0  0  0
   -5.1957   22.9514  -24.2493 C   0  0  0  0  0  0  0  0  0  0  0  0
   -5.1509   22.9416  -22.7066 C   0  0  0  0  0  0  0  0  0  0  0  0
   -3.1549   23.4584  -25.4984 C   0  0  0  0  0  0  0  0  0  0  0  0
   -2.1244   22.7838  -24.8347 N   0  0  0  0  0  0  0  0  0  0  0  0
   -1.0982   22.2329  -25.4455 C   0  0  0  0  0  0  0  0  0  0  0  0
   -1.0442   22.3267  -26.7699 N   0  0  0  0  0  0  0  0  0  0  0  0
   -2.0211   22.9754  -27.4880 C   0  0  0  0  0  0  0  0  0  0  0  0
   -1.8540   23.0144  -28.8895 N   0  0  0  0  0  0  0  0  0  0  0  0
   -3.1135   23.5662  -26.8765 C   0  0  0  0  0  0  0  0  0  0  0  0
   -1.3837   23.7476  -29.4268 H   0  0  0  0  0  0  0  0  0  0  0  0
   -2.2336   22.1871  -29.4383 H   0  0  0  0  0  0  0  0  0  0  0  0
   -4.1363   24.2887  -27.6028 C   0  0  0  0  0  0  0  0  0  0  0  0
   -4.5147   25.6748  -27.0462 C   0  0  0  0  0  0  0  0  0  0  0  0
   -3.8335   24.5613  -29.0583 C   0  0  0  0  0  0  0  0  0  0  0  0
   -5.5249   23.5986  -27.5777 C   0  0  0  0  0  0  0  0  0  0  0  0
 23 24  1  0  0  0
 24 13  1  0  0  0
 13 14  2  0  0  0
 14 15  1  0  0  0
 15 16  1  0  0  0
 15 17  2  0  0  0
 17 18  1  0  0  0
 18 19  1  0  0  0
 19 20  2  0  0  0
 20 21  1  0  0  0
 21 22  1  0  0  0
 20  1  1  0  0  0
  1  2  1  0  0  0
  2 25  1  0  0  0
 25 26  1  0  0  0
 26 27  1  0  0  0
 27 28  1  0  0  0
 28 29  1  0  0  0
 29 30  1  0  0  0
 30 31  1  0  0  0
 29 32  1  0  0  0
 32 33  2  0  0  0
 33 34  1  0  0  0
 34 35  2  0  0  0
 35 36  1  0  0  0
 36 37  1  0  0  0
 36 38  2  0  0  0
 38 41  1  0  0  0
 41 42  1  0  0  0
 41 43  1  0  0  0
 41 44  1  0  0  0
  2  3  2  0  0  0
  3  4  1  0  0  0
  4  5  1  0  0  0
  5  6  2  0  0  0
  6  7  1  0  0  0
  7  8  2  0  0  0
  8  9  1  0  0  0
  8 10  1  0  0  0
 22 13  1  0  0  0
 10  1  2  0  0  0
 22 18  2  0  0  0
 31 26  1  0  0  0
 38 32  1  0  0  0
 10  4  1  0  0  0
 37 39  1  0  0  0
 37 40  1  0  0  0
  9 11  1  0  0  0
  9 12  1  0  0  0
M  END
> <minimizedAffinity>
-8.30066

> <CNNscore>
0.0489685833

> <CNNaffinity>
6.9240140915

> <CNN_VS>
0.3390591741

> <CNNaffinity_variance>
0.3531152308

$$$$
[H]c1nc(N([H])[H])c(C(C([H])([H])[H])(C([H])([H])[H])C([H])([H])[H])c(N2C([H])([H])C([H])([H])N(C([H])([H])c3c(-c4sc5c(OC([H])([H])[H])c([H])c(C([H])([H])[H])c([H])c5c4[H])c4c(N([H])[H])nc([H])nn4c3[H])C([H])([H])C2([H])[H])n1


 44 49  0  0  0  0  0  0  0  0999 V2000
   -2.0380   22.1626  -23.4043 C   0  0  0  0  0  0  0  0  0  0  0  0
   -1.1461   21.6462  -22.4380 C   0  0  0  0  0  0  0  0  0  0  0  0
    0.0195   21.4194  -23.1278 C   0  0  0  0  0  0  0  0  0  0  0  0
   -0.1223   21.7634  -24.4115 N   0  0  0  0  0  0  0  0  0  0  0  0
    0.7450   21.7218  -25.4040 N   0  0  0  0  0  0  0  0  0  0  0  0
    0.4553   22.1233  -26.6351 C   0  0  0  0  0  0  0  0  0  0  0  0
   -0.7672   22.5885  -26.8694 N   0  0  0  0  0  0  0  0  0  0  0  0
   -1.7253   22.6645  -25.8953 C   0  0  0  0  0  0  0  0  0  0  0  0
   -2.9713   23.2280  -26.2074 N   0  0  0  0  0  0  0  0  0  0  0  0
   -1.3995   22.2396  -24.6362 C   0  0  0  0  0  0  0  0  0  0  0  0
   -3.1724   24.2073  -25.8384 H   0  0  0  0  0  0  0  0  0  0  0  0
   -3.6987   22.7629  -26.7961 H   0  0  0  0  0  0  0  0  0  0  0  0
   -6.8860   24.4453  -22.4359 C   0  0  0  0  0  0  0  0  0  0  0  0
   -7.9723   23.8824  -21.8225 C   0  0  0  0  0  0  0  0  0  0  0  0
   -7.8489   22.5842  -21.4041 C   0  0  0  0  0  0  0  0  0  0  0  0
   -9.0597   21.9903  -20.7324 C   0  0  0  0  0  0  0  0  0  0  0  0
   -6.7087   21.8766  -21.5827 C   0  0  0  0  0  0  0  0  0  0  0  0
   -5.5715   22.4097  -22.2048 C   0  0  0  0  0  0  0  0  0  0  0  0
   -4.3921   21.8147  -22.4380 C   0  0  0  0  0  0  0  0  0  0  0  0
   -3.4125   22.5542  -23.0753 C   0  0  0  0  0  0  0  0  0  0  0  0
   -4.2054   24.0351  -23.3049 S   0  0  0  0  0  0  0  0  0  0  0  0
   -5.7137   23.6919  -22.6104 C   0  0  0  0  0  0  0  0  0  0  0  0
   -7.0201   26.0683  -24.2546 C   0  0  0  0  0  0  0  0  0  0  0  0
   -6.8609   25.7448  -22.9111 O   0  0  0  0  0  0  0  0  0  0  0  0
   -1.4319   21.4543  -21.0209 C   0  0  0  0  0  0  0  0  0  0  0  0
   -0.2264   21.8046  -20.2415 N   0  0  0  0  0  0  0  0  0  0  0  0
   -0.5204   22.9594  -19.3982 C   0  0  0  0  0  0  0  0  0  0  0  0
    0.8037   23.3512  -18.7336 C   0  0  0  0  0  0  0  0  0  0  0  0
    1.3871   22.2571  -18.0486 N   0  0  0  0  0  0  0  0  0  0  0  0
    1.4536   20.9683  -18.7839 C   0  0  0  0  0  0  0  0  0  0  0  0
    0.0062   20.7231  -19.2602 C   0  0  0  0  0  0  0  0  0  0  0  0
    1.8337   22.2421  -16.7308 C   0  0  0  0  0  0  0  0  0  0  0  0
    0.8884   21.7381  -15.8308 N   0  0  0  0  0  0  0  0  0  0  0  0
    1.1047   21.6052  -14.5404 C   0  0  0  0  0  0  0  0  0  0  0  0
    2.2926   21.9731  -14.0719 N   0  0  0  0  0  0  0  0  0  0  0  0
    3.2696   22.4773  -14.8978 C   0  0  0  0  0  0  0  0  0  0  0  0
    4.4898   22.8380  -14.2856 N   0  0  0  0  0  0  0  0  0  0  0  0
    3.0745   22.6307  -16.2596 C   0  0  0  0  0  0  0  0  0  0  0  0
    4.7371   23.7601  -13.9167 H   0  0  0  0  0  0  0  0  0  0  0  0
    5.2141   22.0680  -14.1752 H   0  0  0  0  0  0  0  0  0  0  0  0
    4.0701   23.1944  -17.1466 C   0  0  0  0  0  0  0  0  0  0  0  0
    4.1430   22.5868  -18.5606 C   0  0  0  0  0  0  0  0  0  0  0  0
    3.9487   24.6789  -17.4039 C   0  0  0  0  0  0  0  0  0  0  0  0
    5.5291   22.9608  -16.6759 C   0  0  0  0  0  0  0  0  0  0  0  0
 23 24  1  0  0  0
 24 13  1  0  0  0
 13 14  2  0  0  0
 14 15  1  0  0  0
 15 16  1  0  0  0
 15 17  2  0  0  0
 17 18  1  0  0  0
 18 19  1  0  0  0
 19 20  2  0  0  0
 20 21  1  0  0  0
 21 22  1  0  0  0
 20  1  1  0  0  0
  1  2  1  0  0  0
  2 25  1  0  0  0
 25 26  1  0  0  0
 26 27  1  0  0  0
 27 28  1  0  0  0
 28 29  1  0  0  0
 29 30  1  0  0  0
 30 31  1  0  0  0
 29 32  1  0  0  0
 32 33  2  0  0  0
 33 34  1  0  0  0
 34 35  2  0  0  0
 35 36  1  0  0  0
 36 37  1  0  0  0
 36 38  2  0  0  0
 38 41  1  0  0  0
 41 42  1  0  0  0
 41 43  1  0  0  0
 41 44  1  0  0  0
  2  3  2  0  0  0
  3  4  1  0  0  0
  4  5  1  0  0  0
  5  6  2  0  0  0
  6  7  1  0  0  0
  7  8  2  0  0  0
  8  9  1  0  0  0
  8 10  1  0  0  0
 22 13  1  0  0  0
 10  1  2  0  0  0
 22 18  2  0  0  0
 31 26  1  0  0  0
 38 32  1  0  0  0
 10  4  1  0  0  0
 37 39  1  0  0  0
 37 40  1  0  0  0
  9 11  1  0  0  0
  9 12  1  0  0  0
M  END
> <minimizedAffinity>
-8.48897

> <CNNscore>
0.0458244868

> <CNNaffinity>
6.5676407814

> <CNN_VS>
0.3009587824

> <CNNaffinity_variance>
0.1162897795

$$$$
[H]c1nc(N([H])[H])c2c(-c3sc4c(OC([H])([H])[H])c([H])c(C([H])([H])[H])c([H])c4c3[H])c(C([H])([H])N3C([H])([H])C([H])([H])N(C([H])([H])[H])C([H])([H])C3([H])[H])c([H])n2n1


 32 36  0  0  0  0  0  0  0  0999 V2000
   -2.1719   22.7328  -25.5042 C   0  0  0  0  0  0  0  0  0  0  0  0
   -3.4933   22.8549  -25.9459 C   0  0  0  0  0  0  0  0  0  0  0  0
   -3.5064   23.1109  -27.2798 C   0  0  0  0  0  0  0  0  0  0  0  0
   -2.2222   23.1519  -27.6828 N   0  0  0  0  0  0  0  0  0  0  0  0
   -1.7991   23.3633  -28.9016 N   0  0  0  0  0  0  0  0  0  0  0  0
   -0.4774   23.3561  -29.1332 C   0  0  0  0  0  0  0  0  0  0  0  0
    0.3987   23.1374  -28.1455 N   0  0  0  0  0  0  0  0  0  0  0  0
   -0.0434   22.9194  -26.8872 C   0  0  0  0  0  0  0  0  0  0  0  0
    0.9031   22.6444  -25.8636 N   0  0  0  0  0  0  0  0  0  0  0  0
   -1.3871   22.9239  -26.6216 C   0  0  0  0  0  0  0  0  0  0  0  0
    0.9998   21.6625  -25.5269 H   0  0  0  0  0  0  0  0  0  0  0  0
    1.5181   23.3731  -25.4469 H   0  0  0  0  0  0  0  0  0  0  0  0
   -0.3806   20.7991  -20.6986 C   0  0  0  0  0  0  0  0  0  0  0  0
   -0.6550   21.2979  -19.4475 C   0  0  0  0  0  0  0  0  0  0  0  0
   -1.4554   22.4194  -19.3955 C   0  0  0  0  0  0  0  0  0  0  0  0
   -1.7747   22.9869  -18.0486 C   0  0  0  0  0  0  0  0  0  0  0  0
   -1.9559   23.0151  -20.5015 C   0  0  0  0  0  0  0  0  0  0  0  0
   -1.6944   22.5297  -21.8001 C   0  0  0  0  0  0  0  0  0  0  0  0
   -2.1313   23.0295  -22.9722 C   0  0  0  0  0  0  0  0  0  0  0  0
   -1.7429   22.3825  -24.1341 C   0  0  0  0  0  0  0  0  0  0  0  0
   -0.7933   21.1140  -23.5080 S   0  0  0  0  0  0  0  0  0  0  0  0
   -0.9039   21.4228  -21.8438 C   0  0  0  0  0  0  0  0  0  0  0  0
    1.7817   19.6325  -20.7899 C   0  0  0  0  0  0  0  0  0  0  0  0
    0.4005   19.6862  -20.9466 O   0  0  0  0  0  0  0  0  0  0  0  0
   -4.6587   22.7959  -25.0641 C   0  0  0  0  0  0  0  0  0  0  0  0
   -5.0835   24.1148  -24.5595 N   0  0  0  0  0  0  0  0  0  0  0  0
   -6.0835   24.6190  -25.4409 C   0  0  0  0  0  0  0  0  0  0  0  0
   -7.4560   24.6707  -24.7947 C   0  0  0  0  0  0  0  0  0  0  0  0
   -7.4684   25.4127  -23.5788 N   0  0  0  0  0  0  0  0  0  0  0  0
   -8.7656   25.2387  -22.9518 C   0  0  0  0  0  0  0  0  0  0  0  0
   -6.4634   24.9337  -22.6908 C   0  0  0  0  0  0  0  0  0  0  0  0
   -5.5756   23.8662  -23.2172 C   0  0  0  0  0  0  0  0  0  0  0  0
 23 24  1  0  0  0
 24 13  1  0  0  0
 13 14  2  0  0  0
 14 15  1  0  0  0
 15 16  1  0  0  0
 15 17  2  0  0  0
 17 18  1  0  0  0
 18 19  1  0  0  0
 19 20  2  0  0  0
 20 21  1  0  0  0
 21 22  1  0  0  0
 20  1  1  0  0  0
  1  2  1  0  0  0
  2 25  1  0  0  0
 25 26  1  0  0  0
 26 27  1  0  0  0
 27 28  1  0  0  0
 28 29  1  0  0  0
 29 30  1  0  0  0
 29 31  1  0  0  0
 31 32  1  0  0  0
  2  3  2  0  0  0
  3  4  1  0  0  0
  4  5  1  0  0  0
  5  6  2  0  0  0
  6  7  1  0  0  0
  7  8  2  0  0  0
  8  9  1  0  0  0
  8 10  1  0  0  0
 22 13  1  0  0  0
 10  1  2  0  0  0
 22 18  2  0  0  0
 32 26  1  0  0  0
 10  4  1  0  0  0
  9 11  1  0  0  0
  9 12  1  0  0  0
M  END
> <minimizedAffinity>
-7.60909

> <CNNscore>
0.8156591654

> <CNNaffinity>
7.2057967186

> <CNN_VS>
5.8774743080

> <CNNaffinity_variance>
0.0109527661

$$$$
[H]c1nc(N([H])[H])c2c(-c3sc4c(OC([H])([H])[H])c([H])c(C([H])([H])[H])c([H])c4c3[H])c(C([H])([H])N3C([H])([H])C([H])([H])N(C([H])([H])[H])C([H])([H])C3([H])[H])c([H])n2n1


 32 36  0  0  0  0  0  0  0  0999 V2000
   -2.1403   22.5460  -25.0337 C   0  0  0  0  0  0  0  0  0  0  0  0
   -3.4261   22.6638  -25.5711 C   0  0  0  0  0  0  0  0  0  0  0  0
   -3.3425   22.8975  -26.9066 C   0  0  0  0  0  0  0  0  0  0  0  0
   -2.0325   22.9286  -27.2169 N   0  0  0  0  0  0  0  0  0  0  0  0
   -1.5223   23.1187  -28.4055 N   0  0  0  0  0  0  0  0  0  0  0  0
   -0.1874   23.1044  -28.5413 C   0  0  0  0  0  0  0  0  0  0  0  0
    0.6147   22.9002  -27.4898 N   0  0  0  0  0  0  0  0  0  0  0  0
    0.0827   22.7044  -26.2631 C   0  0  0  0  0  0  0  0  0  0  0  0
    0.9523   22.4443  -25.1697 N   0  0  0  0  0  0  0  0  0  0  0  0
   -1.2767   22.7165  -26.0948 C   0  0  0  0  0  0  0  0  0  0  0  0
    1.0211   21.4680  -24.8108 H   0  0  0  0  0  0  0  0  0  0  0  0
    1.5383   23.1784  -24.7220 H   0  0  0  0  0  0  0  0  0  0  0  0
   -1.1048   22.0084  -19.6782 C   0  0  0  0  0  0  0  0  0  0  0  0
   -0.3819   21.0116  -19.0673 C   0  0  0  0  0  0  0  0  0  0  0  0
    0.1249   20.0281  -19.8900 C   0  0  0  0  0  0  0  0  0  0  0  0
    0.9182   18.9290  -19.2568 C   0  0  0  0  0  0  0  0  0  0  0  0
   -0.0652   20.0219  -21.2288 C   0  0  0  0  0  0  0  0  0  0  0  0
   -0.8016   21.0288  -21.8880 C   0  0  0  0  0  0  0  0  0  0  0  0
   -1.0594   21.1348  -23.2058 C   0  0  0  0  0  0  0  0  0  0  0  0
   -1.8120   22.2176  -23.6307 C   0  0  0  0  0  0  0  0  0  0  0  0
   -2.1067   23.0183  -22.1559 S   0  0  0  0  0  0  0  0  0  0  0  0
   -1.2986   21.9961  -21.0699 C   0  0  0  0  0  0  0  0  0  0  0  0
   -2.6633   22.9623  -18.0332 C   0  0  0  0  0  0  0  0  0  0  0  0
   -1.6873   23.0739  -19.0182 O   0  0  0  0  0  0  0  0  0  0  0  0
   -4.6520   22.6223  -24.7745 C   0  0  0  0  0  0  0  0  0  0  0  0
   -5.0535   23.9374  -24.2416 N   0  0  0  0  0  0  0  0  0  0  0  0
   -5.9066   24.5562  -25.2008 C   0  0  0  0  0  0  0  0  0  0  0  0
   -7.3416   24.6657  -24.7183 C   0  0  0  0  0  0  0  0  0  0  0  0
   -7.4560   25.3388  -23.4681 N   0  0  0  0  0  0  0  0  0  0  0  0
   -8.8278   25.2194  -23.0100 C   0  0  0  0  0  0  0  0  0  0  0  0
   -6.5971   24.7445  -22.5001 C   0  0  0  0  0  0  0  0  0  0  0  0
   -5.7190   23.6495  -22.9846 C   0  0  0  0  0  0  0  0  0  0  0  0
 23 24  1  0  0  0
 24 13  1  0  0  0
 13 14  2  0  0  0
 14 15  1  0  0  0
 15 16  1  0  0  0
 15 17  2  0  0  0
 17 18  1  0  0  0
 18 19  1  0  0  0
 19 20  2  0  0  0
 20 21  1  0  0  0
 21 22  1  0  0  0
 20  1  1  0  0  0
  1  2  1  0  0  0
  2 25  1  0  0  0
 25 26  1  0  0  0
 26 27  1  0  0  0
 27 28  1  0  0  0
 28 29  1  0  0  0
 29 30  1  0  0  0
 29 31  1  0  0  0
 31 32  1  0  0  0
  2  3  2  0  0  0
  3  4  1  0  0  0
  4  5  1  0  0  0
  5  6  2  0  0  0
  6  7  1  0  0  0
  7  8  2  0  0  0
  8  9  1  0  0  0
  8 10  1  0  0  0
 22 13  1  0  0  0
 10  1  2  0  0  0
 22 18  2  0  0  0
 32 26  1  0  0  0
 10  4  1  0  0  0
  9 11  1  0  0  0
  9 12  1  0  0  0
M  END
> <minimizedAffinity>
-8.25424

> <CNNscore>
0.7447339296

> <CNNaffinity>
7.0795645714

> <CNN_VS>
5.2723917961

> <CNNaffinity_variance>
0.0501501672

$$$$
[H]c1nc(N([H])[H])c2c(-c3sc4c(OC([H])([H])[H])c([H])c(C([H])([H])[H])c([H])c4c3[H])c(C([H])([H])N3C([H])([H])C([H])([H])N(C([H])([H])[H])C([H])([H])C3([H])[H])c([H])n2n1


 32 36  0  0  0  0  0  0  0  0999 V2000
   -1.7690   22.0047  -24.5433 C   0  0  0  0  0  0  0  0  0  0  0  0
   -3.0563   21.7055  -25.0011 C   0  0  0  0  0  0  0  0  0  0  0  0
   -3.1305   21.9375  -26.3374 C   0  0  0  0  0  0  0  0  0  0  0  0
   -1.9179   22.3756  -26.7262 N   0  0  0  0  0  0  0  0  0  0  0  0
   -1.5655   22.7022  -27.9420 N   0  0  0  0  0  0  0  0  0  0  0  0
   -0.3046   23.1070  -28.1585 C   0  0  0  0  0  0  0  0  0  0  0  0
    0.5824   23.1783  -27.1590 N   0  0  0  0  0  0  0  0  0  0  0  0
    0.2134   22.8397  -25.9038 C   0  0  0  0  0  0  0  0  0  0  0  0
    1.1843   22.8797  -24.8671 N   0  0  0  0  0  0  0  0  0  0  0  0
   -1.0681   22.4256  -25.6535 C   0  0  0  0  0  0  0  0  0  0  0  0
    1.5783   21.9789  -24.5202 H   0  0  0  0  0  0  0  0  0  0  0  0
    1.5352   23.7662  -24.4502 H   0  0  0  0  0  0  0  0  0  0  0  0
   -0.2041   21.9417  -19.2907 C   0  0  0  0  0  0  0  0  0  0  0  0
    0.7291   21.1154  -18.7113 C   0  0  0  0  0  0  0  0  0  0  0  0
    1.3259   20.1877  -19.5385 C   0  0  0  0  0  0  0  0  0  0  0  0
    2.3477   19.2738  -18.9394 C   0  0  0  0  0  0  0  0  0  0  0  0
    1.0263   20.0766  -20.8525 C   0  0  0  0  0  0  0  0  0  0  0  0
    0.0741   20.9080  -21.4791 C   0  0  0  0  0  0  0  0  0  0  0  0
   -0.3094   20.8971  -22.7703 C   0  0  0  0  0  0  0  0  0  0  0  0
   -1.2708   21.8132  -23.1653 C   0  0  0  0  0  0  0  0  0  0  0  0
   -1.5723   22.6322  -21.7019 S   0  0  0  0  0  0  0  0  0  0  0  0
   -0.5107   21.8211  -20.6567 C   0  0  0  0  0  0  0  0  0  0  0  0
   -2.1172   22.7404  -17.9691 C   0  0  0  0  0  0  0  0  0  0  0  0
   -0.9031   22.9285  -18.6216 O   0  0  0  0  0  0  0  0  0  0  0  0
   -4.1569   21.2900  -24.1319 C   0  0  0  0  0  0  0  0  0  0  0  0
   -5.3336   22.1756  -24.2066 N   0  0  0  0  0  0  0  0  0  0  0  0
   -6.4653   21.4387  -23.7516 C   0  0  0  0  0  0  0  0  0  0  0  0
   -6.9962   21.9487  -22.4242 C   0  0  0  0  0  0  0  0  0  0  0  0
   -7.3058   23.3390  -22.4485 N   0  0  0  0  0  0  0  0  0  0  0  0
   -7.6165   23.7605  -21.0951 C   0  0  0  0  0  0  0  0  0  0  0  0
   -6.1911   24.0911  -22.9172 C   0  0  0  0  0  0  0  0  0  0  0  0
   -5.0093   23.3084  -23.3596 C   0  0  0  0  0  0  0  0  0  0  0  0
 23 24  1  0  0  0
 24 13  1  0  0  0
 13 14  2  0  0  0
 14 15  1  0  0  0
 15 16  1  0  0  0
 15 17  2  0  0  0
 17 18  1  0  0  0
 18 19  1  0  0  0
 19 20  2  0  0  0
 20 21  1  0  0  0
 21 22  1  0  0  0
 20  1  1  0  0  0
  1  2  1  0  0  0
  2 25  1  0  0  0
 25 26  1  0  0  0
 26 27  1  0  0  0
 27 28  1  0  0  0
 28 29  1  0  0  0
 29 30  1  0  0  0
 29 31  1  0  0  0
 31 32  1  0  0  0
  2  3  2  0  0  0
  3  4  1  0  0  0
  4  5  1  0  0  0
  5  6  2  0  0  0
  6  7  1  0  0  0
  7  8  2  0  0  0
  8  9  1  0  0  0
  8 10  1  0  0  0
 22 13  1  0  0  0
 10  1  2  0  0  0
 22 18  2  0  0  0
 32 26  1  0  0  0
 10  4  1  0  0  0
  9 11  1  0  0  0
  9 12  1  0  0  0
M  END
> <minimizedAffinity>
-7.78839

> <CNNscore>
0.7316966057

> <CNNaffinity>
6.9388566017

> <CNN_VS>
5.0771379471

> <CNNaffinity_variance>
0.0361548848

$$$$
[H]c1nc(N([H])[H])c2c(-c3sc4c(OC([H])([H])[H])c([H])c(C([H])([H])[H])c([H])c4c3[H])c(C([H])([H])N3C([H])([H])C([H])([H])N(C([H])([H])[H])C([H])([H])C3([H])[H])c([H])n2n1


 32 36  0  0  0  0  0  0  0  0999 V2000
   -3.3397   23.2241  -25.8190 C   0  0  0  0  0  0  0  0  0  0  0  0
   -4.0239   23.2576  -24.5996 C   0  0  0  0  0  0  0  0  0  0  0  0
   -3.1876   22.8827  -23.5970 C   0  0  0  0  0  0  0  0  0  0  0  0
   -1.9949   22.6152  -24.1621 N   0  0  0  0  0  0  0  0  0  0  0  0
   -0.9116   22.2306  -23.5396 N   0  0  0  0  0  0  0  0  0  0  0  0
    0.2022   22.0210  -24.2580 C   0  0  0  0  0  0  0  0  0  0  0  0
    0.2160   22.1994  -25.5842 N   0  0  0  0  0  0  0  0  0  0  0  0
   -0.9063   22.5969  -26.2234 C   0  0  0  0  0  0  0  0  0  0  0  0
   -0.8558   22.8237  -27.6253 N   0  0  0  0  0  0  0  0  0  0  0  0
   -2.0583   22.8156  -25.5154 C   0  0  0  0  0  0  0  0  0  0  0  0
   -0.8414   23.8077  -27.9694 H   0  0  0  0  0  0  0  0  0  0  0  0
   -0.8133   22.0544  -28.3247 H   0  0  0  0  0  0  0  0  0  0  0  0
   -5.4819   25.3828  -30.3790 C   0  0  0  0  0  0  0  0  0  0  0  0
   -5.9200   24.7064  -31.4925 C   0  0  0  0  0  0  0  0  0  0  0  0
   -5.7909   23.3339  -31.4677 C   0  0  0  0  0  0  0  0  0  0  0  0
   -6.2599   22.5672  -32.6637 C   0  0  0  0  0  0  0  0  0  0  0  0
   -5.2647   22.6656  -30.4164 C   0  0  0  0  0  0  0  0  0  0  0  0
   -4.8056   23.3281  -29.2585 C   0  0  0  0  0  0  0  0  0  0  0  0
   -4.2661   22.7800  -28.1526 C   0  0  0  0  0  0  0  0  0  0  0  0
   -3.8825   23.6338  -27.1311 C   0  0  0  0  0  0  0  0  0  0  0  0
   -4.3058   25.1487  -27.7858 S   0  0  0  0  0  0  0  0  0  0  0  0
   -4.9362   24.6824  -29.2899 C   0  0  0  0  0  0  0  0  0  0  0  0
   -5.8755   27.6575  -31.2247 C   0  0  0  0  0  0  0  0  0  0  0  0
   -5.5308   26.7552  -30.2237 O   0  0  0  0  0  0  0  0  0  0  0  0
   -5.4467   23.5702  -24.4690 C   0  0  0  0  0  0  0  0  0  0  0  0
   -5.7780   24.3037  -23.2334 N   0  0  0  0  0  0  0  0  0  0  0  0
   -6.4130   25.5239  -23.6059 C   0  0  0  0  0  0  0  0  0  0  0  0
   -7.8826   25.5543  -23.2271 C   0  0  0  0  0  0  0  0  0  0  0  0
   -8.1033   25.3005  -21.8428 N   0  0  0  0  0  0  0  0  0  0  0  0
   -9.5316   25.1614  -21.6270 C   0  0  0  0  0  0  0  0  0  0  0  0
   -7.4613   24.0923  -21.4476 C   0  0  0  0  0  0  0  0  0  0  0  0
   -6.6445   23.4124  -22.4847 C   0  0  0  0  0  0  0  0  0  0  0  0
 23 24  1  0  0  0
 24 13  1  0  0  0
 13 14  2  0  0  0
 14 15  1  0  0  0
 15 16  1  0  0  0
 15 17  2  0  0  0
 17 18  1  0  0  0
 18 19  1  0  0  0
 19 20  2  0  0  0
 20 21  1  0  0  0
 21 22  1  0  0  0
 20  1  1  0  0  0
  1  2  1  0  0  0
  2 25  1  0  0  0
 25 26  1  0  0  0
 26 27  1  0  0  0
 27 28  1  0  0  0
 28 29  1  0  0  0
 29 30  1  0  0  0
 29 31  1  0  0  0
 31 32  1  0  0  0
  2  3  2  0  0  0
  3  4  1  0  0  0
  4  5  1  0  0  0
  5  6  2  0  0  0
  6  7  1  0  0  0
  7  8  2  0  0  0
  8  9  1  0  0  0
  8 10  1  0  0  0
 22 13  1  0  0  0
 10  1  2  0  0  0
 22 18  2  0  0  0
 32 26  1  0  0  0
 10  4  1  0  0  0
  9 11  1  0  0  0
  9 12  1  0  0  0
M  END
> <minimizedAffinity>
-7.74430

> <CNNscore>
0.5815317035

> <CNNaffinity>
7.4992651939

> <CNN_VS>
4.3610606194

> <CNNaffinity_variance>
0.3179931045

$$$$
[H]c1nc(N([H])[H])c2c(-c3sc4c(OC([H])([H])[H])c([H])c(C([H])([H])[H])c([H])c4c3[H])c(C([H])([H])N3C([H])([H])C([H])([H])N(C([H])([H])[H])C([H])([H])C3([H])[H])c([H])n2n1


 32 36  0  0  0  0  0  0  0  0999 V2000
   -1.4168   21.6560  -23.2551 C   0  0  0  0  0  0  0  0  0  0  0  0
   -2.8059   21.6990  -23.4125 C   0  0  0  0  0  0  0  0  0  0  0  0
   -3.1098   21.9801  -24.7062 C   0  0  0  0  0  0  0  0  0  0  0  0
   -1.9413   22.1143  -25.3621 N   0  0  0  0  0  0  0  0  0  0  0  0
   -1.7928   22.3777  -26.6340 N   0  0  0  0  0  0  0  0  0  0  0  0
   -0.5495   22.4628  -27.1315 C   0  0  0  0  0  0  0  0  0  0  0  0
    0.5233   22.2831  -26.3520 N   0  0  0  0  0  0  0  0  0  0  0  0
    0.3648   22.0111  -25.0378 C   0  0  0  0  0  0  0  0  0  0  0  0
    1.5173   21.7791  -24.2395 N   0  0  0  0  0  0  0  0  0  0  0  0
   -0.8929   21.9211  -24.5026 C   0  0  0  0  0  0  0  0  0  0  0  0
    1.7410   20.7992  -23.9626 H   0  0  0  0  0  0  0  0  0  0  0  0
    2.1595   22.5385  -23.9337 H   0  0  0  0  0  0  0  0  0  0  0  0
    1.0726   19.6830  -18.7883 C   0  0  0  0  0  0  0  0  0  0  0  0
    1.5096   20.3956  -17.6971 C   0  0  0  0  0  0  0  0  0  0  0  0
    1.3163   21.7602  -17.7372 C   0  0  0  0  0  0  0  0  0  0  0  0
    1.7792   22.5652  -16.5642 C   0  0  0  0  0  0  0  0  0  0  0  0
    0.7309   22.3876  -18.7823 C   0  0  0  0  0  0  0  0  0  0  0  0
    0.2711   21.6873  -19.9175 C   0  0  0  0  0  0  0  0  0  0  0  0
   -0.3247   22.1931  -21.0147 C   0  0  0  0  0  0  0  0  0  0  0  0
   -0.6936   21.3076  -22.0144 C   0  0  0  0  0  0  0  0  0  0  0  0
   -0.1843   19.8236  -21.3501 S   0  0  0  0  0  0  0  0  0  0  0  0
    0.4650   20.3411  -19.8710 C   0  0  0  0  0  0  0  0  0  0  0  0
    0.3130   17.3846  -18.3584 C   0  0  0  0  0  0  0  0  0  0  0  0
    1.1807   18.3121  -18.9259 O   0  0  0  0  0  0  0  0  0  0  0  0
   -3.7582   21.5451  -22.3131 C   0  0  0  0  0  0  0  0  0  0  0  0
   -3.7724   22.6879  -21.3813 N   0  0  0  0  0  0  0  0  0  0  0  0
   -3.8987   23.8796  -22.1524 C   0  0  0  0  0  0  0  0  0  0  0  0
   -5.2419   24.5591  -21.9576 C   0  0  0  0  0  0  0  0  0  0  0  0
   -5.5284   24.8386  -20.5904 N   0  0  0  0  0  0  0  0  0  0  0  0
   -6.8997   25.3043  -20.4980 C   0  0  0  0  0  0  0  0  0  0  0  0
   -5.3908   23.6618  -19.8003 C   0  0  0  0  0  0  0  0  0  0  0  0
   -4.9052   22.4491  -20.5064 C   0  0  0  0  0  0  0  0  0  0  0  0
 23 24  1  0  0  0
 24 13  1  0  0  0
 13 14  2  0  0  0
 14 15  1  0  0  0
 15 16  1  0  0  0
 15 17  2  0  0  0
 17 18  1  0  0  0
 18 19  1  0  0  0
 19 20  2  0  0  0
 20 21  1  0  0  0
 21 22  1  0  0  0
 20  1  1  0  0  0
  1  2  1  0  0  0
  2 25  1  0  0  0
 25 26  1  0  0  0
 26 27  1  0  0  0
 27 28  1  0  0  0
 28 29  1  0  0  0
 29 30  1  0  0  0
 29 31  1  0  0  0
 31 32  1  0  0  0
  2  3  2  0  0  0
  3  4  1  0  0  0
  4  5  1  0  0  0
  5  6  2  0  0  0
  6  7  1  0  0  0
  7  8  2  0  0  0
  8  9  1  0  0  0
  8 10  1  0  0  0
 22 13  1  0  0  0
 10  1  2  0  0  0
 22 18  2  0  0  0
 32 26  1  0  0  0
 10  4  1  0  0  0
  9 11  1  0  0  0
  9 12  1  0  0  0
M  END
> <minimizedAffinity>
-6.90310

> <CNNscore>
0.5302337408

> <CNNaffinity>
6.5409173965

> <CNN_VS>
3.4682149887

> <CNNaffinity_variance>
0.0464648977

$$$$
[H]c1nc(N([H])[H])c2c(-c3sc4c(OC([H])([H])[H])c([H])c(C([H])([H])[H])c([H])c4c3[H])c(C([H])([H])N3C([H])([H])C([H])([H])N(C([H])([H])[H])C([H])([H])C3([H])[H])c([H])n2n1


 32 36  0  0  0  0  0  0  0  0999 V2000
   -2.1135   22.2482  -24.1939 C   0  0  0  0  0  0  0  0  0  0  0  0
   -2.6411   21.7562  -22.9957 C   0  0  0  0  0  0  0  0  0  0  0  0
   -1.6476   21.2021  -22.2535 C   0  0  0  0  0  0  0  0  0  0  0  0
   -0.5096   21.3363  -22.9609 N   0  0  0  0  0  0  0  0  0  0  0  0
    0.6815   20.9416  -22.5942 N   0  0  0  0  0  0  0  0  0  0  0  0
    1.7157   21.1690  -23.4184 C   0  0  0  0  0  0  0  0  0  0  0  0
    1.5437   21.7866  -24.5931 N   0  0  0  0  0  0  0  0  0  0  0  0
    0.3105   22.1928  -24.9678 C   0  0  0  0  0  0  0  0  0  0  0  0
    0.1594   22.8868  -26.1986 N   0  0  0  0  0  0  0  0  0  0  0  0
   -0.7637   21.9712  -24.1474 C   0  0  0  0  0  0  0  0  0  0  0  0
    0.0086   23.9180  -26.1724 H   0  0  0  0  0  0  0  0  0  0  0  0
    0.2109   22.4178  -27.1261 H   0  0  0  0  0  0  0  0  0  0  0  0
   -5.0854   25.4327  -27.5210 C   0  0  0  0  0  0  0  0  0  0  0  0
   -5.5227   25.1309  -28.7887 C   0  0  0  0  0  0  0  0  0  0  0  0
   -5.1594   23.8974  -29.2862 C   0  0  0  0  0  0  0  0  0  0  0  0
   -5.6206   23.5369  -30.6630 C   0  0  0  0  0  0  0  0  0  0  0  0
   -4.4135   23.0142  -28.5845 C   0  0  0  0  0  0  0  0  0  0  0  0
   -3.9484   23.2915  -27.2817 C   0  0  0  0  0  0  0  0  0  0  0  0
   -3.2039   22.5009  -26.4848 C   0  0  0  0  0  0  0  0  0  0  0  0
   -2.8605   22.9866  -25.2335 C   0  0  0  0  0  0  0  0  0  0  0  0
   -3.6061   24.5185  -25.2542 S   0  0  0  0  0  0  0  0  0  0  0  0
   -4.3108   24.5106  -26.7971 C   0  0  0  0  0  0  0  0  0  0  0  0
   -6.0517   26.7208  -25.6631 C   0  0  0  0  0  0  0  0  0  0  0  0
   -5.3501   26.6171  -26.8598 O   0  0  0  0  0  0  0  0  0  0  0  0
   -4.0648   21.7743  -22.6610 C   0  0  0  0  0  0  0  0  0  0  0  0
   -4.3723   22.5328  -21.4343 N   0  0  0  0  0  0  0  0  0  0  0  0
   -3.9544   23.8801  -21.6366 C   0  0  0  0  0  0  0  0  0  0  0  0
   -5.1232   24.8441  -21.7290 C   0  0  0  0  0  0  0  0  0  0  0  0
   -5.9899   24.7739  -20.6006 N   0  0  0  0  0  0  0  0  0  0  0  0
   -7.1623   25.5838  -20.8752 C   0  0  0  0  0  0  0  0  0  0  0  0
   -6.4050   23.4309  -20.3721 C   0  0  0  0  0  0  0  0  0  0  0  0
   -5.8061   22.3985  -21.2555 C   0  0  0  0  0  0  0  0  0  0  0  0
 23 24  1  0  0  0
 24 13  1  0  0  0
 13 14  2  0  0  0
 14 15  1  0  0  0
 15 16  1  0  0  0
 15 17  2  0  0  0
 17 18  1  0  0  0
 18 19  1  0  0  0
 19 20  2  0  0  0
 20 21  1  0  0  0
 21 22  1  0  0  0
 20  1  1  0  0  0
  1  2  1  0  0  0
  2 25  1  0  0  0
 25 26  1  0  0  0
 26 27  1  0  0  0
 27 28  1  0  0  0
 28 29  1  0  0  0
 29 30  1  0  0  0
 29 31  1  0  0  0
 31 32  1  0  0  0
  2  3  2  0  0  0
  3  4  1  0  0  0
  4  5  1  0  0  0
  5  6  2  0  0  0
  6  7  1  0  0  0
  7  8  2  0  0  0
  8  9  1  0  0  0
  8 10  1  0  0  0
 22 13  1  0  0  0
 10  1  2  0  0  0
 22 18  2  0  0  0
 32 26  1  0  0  0
 10  4  1  0  0  0
  9 11  1  0  0  0
  9 12  1  0  0  0
M  END
> <minimizedAffinity>
-8.32128

> <CNNscore>
0.4035147727

> <CNNaffinity>
7.0658593178

> <CNN_VS>
2.8511786461

> <CNNaffinity_variance>
0.1258806735

$$$$
[H]c1nc(N([H])[H])c2c(-c3sc4c(OC([H])([H])[H])c([H])c(C([H])([H])[H])c([H])c4c3[H])c(C([H])([H])N3C([H])([H])C([H])([H])N(C([H])([H])[H])C([H])([H])C3([H])[H])c([H])n2n1


 32 36  0  0  0  0  0  0  0  0999 V2000
   -3.1959   23.4504  -25.0436 C   0  0  0  0  0  0  0  0  0  0  0  0
   -4.2550   24.2346  -24.5751 C   0  0  0  0  0  0  0  0  0  0  0  0
   -5.0490   24.5973  -25.6159 C   0  0  0  0  0  0  0  0  0  0  0  0
   -4.5099   24.0575  -26.7256 N   0  0  0  0  0  0  0  0  0  0  0  0
   -4.9765   24.1608  -27.9425 N   0  0  0  0  0  0  0  0  0  0  0  0
   -4.3197   23.5439  -28.9368 C   0  0  0  0  0  0  0  0  0  0  0  0
   -3.2100   22.8345  -28.6999 N   0  0  0  0  0  0  0  0  0  0  0  0
   -2.7315   22.7307  -27.4403 C   0  0  0  0  0  0  0  0  0  0  0  0
   -1.5777   21.9349  -27.2063 N   0  0  0  0  0  0  0  0  0  0  0  0
   -3.3802   23.3524  -26.4064 C   0  0  0  0  0  0  0  0  0  0  0  0
   -1.7010   20.9988  -26.7643 H   0  0  0  0  0  0  0  0  0  0  0  0
   -0.6171   22.2337  -27.4723 H   0  0  0  0  0  0  0  0  0  0  0  0
    1.0826   21.1306  -22.5225 C   0  0  0  0  0  0  0  0  0  0  0  0
    1.0585   20.3562  -21.3871 C   0  0  0  0  0  0  0  0  0  0  0  0
   -0.1760   20.1542  -20.8075 C   0  0  0  0  0  0  0  0  0  0  0  0
   -0.2374   19.3144  -19.5709 C   0  0  0  0  0  0  0  0  0  0  0  0
   -1.3167   20.6789  -21.3097 C   0  0  0  0  0  0  0  0  0  0  0  0
   -1.3282   21.4777  -22.4726 C   0  0  0  0  0  0  0  0  0  0  0  0
   -2.3901   22.0535  -23.0687 C   0  0  0  0  0  0  0  0  0  0  0  0
   -2.1607   22.8024  -24.2115 C   0  0  0  0  0  0  0  0  0  0  0  0
   -0.4721   22.6481  -24.3780 S   0  0  0  0  0  0  0  0  0  0  0  0
   -0.1063   21.6728  -23.0393 C   0  0  0  0  0  0  0  0  0  0  0  0
    3.4355   20.7653  -23.1348 C   0  0  0  0  0  0  0  0  0  0  0  0
    2.2236   21.4405  -23.2381 O   0  0  0  0  0  0  0  0  0  0  0  0
   -4.4080   24.6537  -23.1822 C   0  0  0  0  0  0  0  0  0  0  0  0
   -5.7336   24.3434  -22.6156 N   0  0  0  0  0  0  0  0  0  0  0  0
   -5.8819   22.9262  -22.5999 C   0  0  0  0  0  0  0  0  0  0  0  0
   -5.8843   22.3570  -21.1928 C   0  0  0  0  0  0  0  0  0  0  0  0
   -6.8710   22.9528  -20.3557 N   0  0  0  0  0  0  0  0  0  0  0  0
   -6.6620   22.4825  -18.9989 C   0  0  0  0  0  0  0  0  0  0  0  0
   -6.7493   24.3716  -20.3718 C   0  0  0  0  0  0  0  0  0  0  0  0
   -5.7261   24.9332  -21.2897 C   0  0  0  0  0  0  0  0  0  0  0  0
 23 24  1  0  0  0
 24 13  1  0  0  0
 13 14  2  0  0  0
 14 15  1  0  0  0
 15 16  1  0  0  0
 15 17  2  0  0  0
 17 18  1  0  0  0
 18 19  1  0  0  0
 19 20  2  0  0  0
 20 21  1  0  0  0
 21 22  1  0  0  0
 20  1  1  0  0  0
  1  2  1  0  0  0
  2 25  1  0  0  0
 25 26  1  0  0  0
 26 27  1  0  0  0
 27 28  1  0  0  0
 28 29  1  0  0  0
 29 30  1  0  0  0
 29 31  1  0  0  0
 31 32  1  0  0  0
  2  3  2  0  0  0
  3  4  1  0  0  0
  4  5  1  0  0  0
  5  6  2  0  0  0
  6  7  1  0  0  0
  7  8  2  0  0  0
  8  9  1  0  0  0
  8 10  1  0  0  0
 22 13  1  0  0  0
 10  1  2  0  0  0
 22 18  2  0  0  0
 32 26  1  0  0  0
 10  4  1  0  0  0
  9 11  1  0  0  0
  9 12  1  0  0  0
M  END
> <minimizedAffinity>
-7.28109

> <CNNscore>
0.2886312008

> <CNNaffinity>
6.8084459305

> <CNN_VS>
1.9651299715

> <CNNaffinity_variance>
0.3301157057

$$$$
[H]c1nc(N([H])[H])c2c(-c3sc4c(OC([H])([H])[H])c([H])c(C([H])([H])[H])c([H])c4c3[H])c(C([H])([H])N3C([H])([H])C([H])([H])N(C([H])([H])[H])C([H])([H])C3([H])[H])c([H])n2n1


 32 36  0  0  0  0  0  0  0  0999 V2000
   -2.3264   22.2178  -23.9598 C   0  0  0  0  0  0  0  0  0  0  0  0
   -1.1848   21.8251  -23.2536 C   0  0  0  0  0  0  0  0  0  0  0  0
   -0.1237   21.7645  -24.0994 C   0  0  0  0  0  0  0  0  0  0  0  0
   -0.5761   22.1105  -25.3197 N   0  0  0  0  0  0  0  0  0  0  0  0
    0.1328   22.1879  -26.4154 N   0  0  0  0  0  0  0  0  0  0  0  0
   -0.4768   22.5655  -27.5496 C   0  0  0  0  0  0  0  0  0  0  0  0
   -1.7821   22.8598  -27.5708 N   0  0  0  0  0  0  0  0  0  0  0  0
   -2.5108   22.7783  -26.4356 C   0  0  0  0  0  0  0  0  0  0  0  0
   -3.8846   23.1394  -26.4728 N   0  0  0  0  0  0  0  0  0  0  0  0
   -1.9150   22.3929  -25.2640 C   0  0  0  0  0  0  0  0  0  0  0  0
   -4.1688   24.0559  -26.0653 H   0  0  0  0  0  0  0  0  0  0  0  0
   -4.6185   22.5411  -26.9044 H   0  0  0  0  0  0  0  0  0  0  0  0
   -7.3427   22.4367  -21.7618 C   0  0  0  0  0  0  0  0  0  0  0  0
   -8.1986   23.5122  -21.7493 C   0  0  0  0  0  0  0  0  0  0  0  0
   -7.7385   24.6701  -22.3397 C   0  0  0  0  0  0  0  0  0  0  0  0
   -8.6462   25.8592  -22.3446 C   0  0  0  0  0  0  0  0  0  0  0  0
   -6.5149   24.7678  -22.9072 C   0  0  0  0  0  0  0  0  0  0  0  0
   -5.6119   23.6842  -22.9376 C   0  0  0  0  0  0  0  0  0  0  0  0
   -4.3746   23.6549  -23.4692 C   0  0  0  0  0  0  0  0  0  0  0  0
   -3.6623   22.4699  -23.3803 C   0  0  0  0  0  0  0  0  0  0  0  0
   -4.7744   21.4730  -22.5603 S   0  0  0  0  0  0  0  0  0  0  0  0
   -6.0727   22.5448  -22.3532 C   0  0  0  0  0  0  0  0  0  0  0  0
   -7.9934   20.9734  -19.8963 C   0  0  0  0  0  0  0  0  0  0  0  0
   -7.6297   21.1980  -21.2201 O   0  0  0  0  0  0  0  0  0  0  0  0
   -1.1852   21.4595  -21.8374 C   0  0  0  0  0  0  0  0  0  0  0  0
   -0.3147   22.3133  -21.0080 N   0  0  0  0  0  0  0  0  0  0  0  0
   -1.1393   22.9955  -20.0670 C   0  0  0  0  0  0  0  0  0  0  0  0
   -0.9103   22.5231  -18.6428 C   0  0  0  0  0  0  0  0  0  0  0  0
    0.4535   22.6136  -18.2414 N   0  0  0  0  0  0  0  0  0  0  0  0
    0.5930   21.9649  -16.9509 C   0  0  0  0  0  0  0  0  0  0  0  0
    1.2956   21.9513  -19.1797 C   0  0  0  0  0  0  0  0  0  0  0  0
    0.6293   21.4023  -20.3878 C   0  0  0  0  0  0  0  0  0  0  0  0
 23 24  1  0  0  0
 24 13  1  0  0  0
 13 14  2  0  0  0
 14 15  1  0  0  0
 15 16  1  0  0  0
 15 17  2  0  0  0
 17 18  1  0  0  0
 18 19  1  0  0  0
 19 20  2  0  0  0
 20 21  1  0  0  0
 21 22  1  0  0  0
 20  1  1  0  0  0
  1  2  1  0  0  0
  2 25  1  0  0  0
 25 26  1  0  0  0
 26 27  1  0  0  0
 27 28  1  0  0  0
 28 29  1  0  0  0
 29 30  1  0  0  0
 29 31  1  0  0  0
 31 32  1  0  0  0
  2  3  2  0  0  0
  3  4  1  0  0  0
  4  5  1  0  0  0
  5  6  2  0  0  0
  6  7  1  0  0  0
  7  8  2  0  0  0
  8  9  1  0  0  0
  8 10  1  0  0  0
 22 13  1  0  0  0
 10  1  2  0  0  0
 22 18  2  0  0  0
 32 26  1  0  0  0
 10  4  1  0  0  0
  9 11  1  0  0  0
  9 12  1  0  0  0
M  END
> <minimizedAffinity>
-7.65856

> <CNNscore>
0.2681318820

> <CNNaffinity>
6.6210479736

> <CNN_VS>
1.7753140926

> <CNNaffinity_variance>
0.2353168428

$$$$
[H]c1nc(N([H])[H])c2c(-c3sc4c(OC([H])([H])[H])c([H])c(C([H])([H])[H])c([H])c4c3[H])c(C([H])([H])N3C([H])([H])C([H])([H])N(C([H])([H])[H])C([H])([H])C3([H])[H])c([H])n2n1


 32 36  0  0  0  0  0  0  0  0999 V2000
   -1.8359   22.1455  -23.6352 C   0  0  0  0  0  0  0  0  0  0  0  0
   -2.3484   21.6885  -22.4167 C   0  0  0  0  0  0  0  0  0  0  0  0
   -1.3521   21.1245  -21.6858 C   0  0  0  0  0  0  0  0  0  0  0  0
   -0.2271   21.2181  -22.4202 N   0  0  0  0  0  0  0  0  0  0  0  0
    0.9621   20.8015  -22.0720 N   0  0  0  0  0  0  0  0  0  0  0  0
    1.9829   20.9886  -22.9226 C   0  0  0  0  0  0  0  0  0  0  0  0
    1.7996   21.5884  -24.1048 N   0  0  0  0  0  0  0  0  0  0  0  0
    0.5684   22.0172  -24.4604 C   0  0  0  0  0  0  0  0  0  0  0  0
    0.4066   22.6917  -25.7006 N   0  0  0  0  0  0  0  0  0  0  0  0
   -0.4923   21.8368  -23.6127 C   0  0  0  0  0  0  0  0  0  0  0  0
    0.2809   23.7266  -25.6908 H   0  0  0  0  0  0  0  0  0  0  0  0
    0.4264   22.2045  -26.6199 H   0  0  0  0  0  0  0  0  0  0  0  0
   -4.8122   25.3332  -26.9552 C   0  0  0  0  0  0  0  0  0  0  0  0
   -5.2731   25.0228  -28.2124 C   0  0  0  0  0  0  0  0  0  0  0  0
   -4.9354   23.7783  -28.7004 C   0  0  0  0  0  0  0  0  0  0  0  0
   -5.4228   23.4082  -30.0655 C   0  0  0  0  0  0  0  0  0  0  0  0
   -4.1916   22.8928  -27.9994 C   0  0  0  0  0  0  0  0  0  0  0  0
   -3.7027   23.1787  -26.7072 C   0  0  0  0  0  0  0  0  0  0  0  0
   -2.9575   22.3868  -25.9122 C   0  0  0  0  0  0  0  0  0  0  0  0
   -2.5880   22.8822  -24.6722 C   0  0  0  0  0  0  0  0  0  0  0  0
   -3.3116   24.4245  -24.7002 S   0  0  0  0  0  0  0  0  0  0  0  0
   -4.0399   24.4085  -26.2320 C   0  0  0  0  0  0  0  0  0  0  0  0
   -5.9258   26.6938  -25.2367 C   0  0  0  0  0  0  0  0  0  0  0  0
   -5.0496   26.5292  -26.3045 O   0  0  0  0  0  0  0  0  0  0  0  0
   -3.7635   21.7473  -22.0516 C   0  0  0  0  0  0  0  0  0  0  0  0
   -4.0606   22.7392  -21.0017 N   0  0  0  0  0  0  0  0  0  0  0  0
   -5.0915   23.5949  -21.4873 C   0  0  0  0  0  0  0  0  0  0  0  0
   -6.4029   23.4038  -20.7472 C   0  0  0  0  0  0  0  0  0  0  0  0
   -6.2717   23.5614  -19.3375 N   0  0  0  0  0  0  0  0  0  0  0  0
   -7.5243   23.1721  -18.7168 C   0  0  0  0  0  0  0  0  0  0  0  0
   -5.2334   22.7257  -18.8358 C   0  0  0  0  0  0  0  0  0  0  0  0
   -4.4611   21.9587  -19.8458 C   0  0  0  0  0  0  0  0  0  0  0  0
 23 24  1  0  0  0
 24 13  1  0  0  0
 13 14  2  0  0  0
 14 15  1  0  0  0
 15 16  1  0  0  0
 15 17  2  0  0  0
 17 18  1  0  0  0
 18 19  1  0  0  0
 19 20  2  0  0  0
 20 21  1  0  0  0
 21 22  1  0  0  0
 20  1  1  0  0  0
  1  2  1  0  0  0
  2 25  1  0  0  0
 25 26  1  0  0  0
 26 27  1  0  0  0
 27 28  1  0  0  0
 28 29  1  0  0  0
 29 30  1  0  0  0
 29 31  1  0  0  0
 31 32  1  0  0  0
  2  3  2  0  0  0
  3  4  1  0  0  0
  4  5  1  0  0  0
  5  6  2  0  0  0
  6  7  1  0  0  0
  7  8  2  0  0  0
  8  9  1  0  0  0
  8 10  1  0  0  0
 22 13  1  0  0  0
 10  1  2  0  0  0
 22 18  2  0  0  0
 32 26  1  0  0  0
 10  4  1  0  0  0
  9 11  1  0  0  0
  9 12  1  0  0  0
M  END
> <minimizedAffinity>
-8.08163

> <CNNscore>
0.2464168668

> <CNNaffinity>
6.7827444077

> <CNN_VS>
1.6713826656

> <CNNaffinity_variance>
0.1052345857

$$$$
[H]c1nc(N([H])[H])c(C(=O)N([H])[H])c(N2C([H])([H])C([H])([H])N(C([H])([H])c3c(-c4sc5c(OC([H])([H])[H])c([H])c(C([H])([H])[H])c([H])c5c4[H])c4c(N([H])[H])nc([H])nn4c3[H])C([H])([H])C2([H])[H])n1


 45 50  0  0  0  0  0  0  0  0999 V2000
   -1.8294   21.9414  -24.8396 C   0  0  0  0  0  0  0  0  0  0  0  0
   -3.2112   21.7001  -24.7686 C   0  0  0  0  0  0  0  0  0  0  0  0
   -3.7875   22.0540  -25.9349 C   0  0  0  0  0  0  0  0  0  0  0  0
   -2.8060   22.5065  -26.7355 N   0  0  0  0  0  0  0  0  0  0  0  0
   -2.8386   22.9502  -27.9871 N   0  0  0  0  0  0  0  0  0  0  0  0
   -1.7481   23.3407  -28.6596 C   0  0  0  0  0  0  0  0  0  0  0  0
   -0.5484   23.2925  -28.0695 N   0  0  0  0  0  0  0  0  0  0  0  0
   -0.4764   22.8433  -26.7854 C   0  0  0  0  0  0  0  0  0  0  0  0
    0.8115   22.7179  -26.1997 N   0  0  0  0  0  0  0  0  0  0  0  0
   -1.5976   22.4470  -26.0933 C   0  0  0  0  0  0  0  0  0  0  0  0
    1.2511   21.7912  -26.1275 H   0  0  0  0  0  0  0  0  0  0  0  0
    1.3138   23.5573  -25.8429 H   0  0  0  0  0  0  0  0  0  0  0  0
    1.0094   21.4567  -20.1978 C   0  0  0  0  0  0  0  0  0  0  0  0
    2.3009   21.0113  -20.0416 C   0  0  0  0  0  0  0  0  0  0  0  0
    2.9715   20.6045  -21.1691 C   0  0  0  0  0  0  0  0  0  0  0  0
    4.3915   20.1141  -21.0029 C   0  0  0  0  0  0  0  0  0  0  0  0
    2.3844   20.6390  -22.3978 C   0  0  0  0  0  0  0  0  0  0  0  0
    1.0677   21.0880  -22.5925 C   0  0  0  0  0  0  0  0  0  0  0  0
    0.3968   21.1613  -23.7658 C   0  0  0  0  0  0  0  0  0  0  0  0
   -0.8818   21.6237  -23.7523 C   0  0  0  0  0  0  0  0  0  0  0  0
   -1.1126   21.9549  -22.0608 S   0  0  0  0  0  0  0  0  0  0  0  0
    0.4098   21.4892  -21.4716 C   0  0  0  0  0  0  0  0  0  0  0  0
    0.5986   23.1028  -18.5175 C   0  0  0  0  0  0  0  0  0  0  0  0
    0.2371   21.8890  -19.1487 O   0  0  0  0  0  0  0  0  0  0  0  0
   -3.8907   21.1642  -23.5806 C   0  0  0  0  0  0  0  0  0  0  0  0
   -4.8452   21.9946  -22.9491 N   0  0  0  0  0  0  0  0  0  0  0  0
   -6.1700   21.5349  -22.8306 C   0  0  0  0  0  0  0  0  0  0  0  0
   -7.1230   22.5213  -22.2179 C   0  0  0  0  0  0  0  0  0  0  0  0
   -6.9690   23.8673  -22.6923 N   0  0  0  0  0  0  0  0  0  0  0  0
   -5.7437   24.2533  -23.3398 C   0  0  0  0  0  0  0  0  0  0  0  0
   -4.5896   23.3813  -22.9014 C   0  0  0  0  0  0  0  0  0  0  0  0
   -8.0200   24.8028  -22.4616 C   0  0  0  0  0  0  0  0  0  0  0  0
   -8.9250   24.9054  -23.5123 N   0  0  0  0  0  0  0  0  0  0  0  0
   -9.9156   25.7843  -23.4476 C   0  0  0  0  0  0  0  0  0  0  0  0
  -10.0969   26.5983  -22.4007 N   0  0  0  0  0  0  0  0  0  0  0  0
   -9.2467   26.5179  -21.3856 C   0  0  0  0  0  0  0  0  0  0  0  0
   -9.3822   27.3515  -20.2467 N   0  0  0  0  0  0  0  0  0  0  0  0
   -8.1681   25.6057  -21.3822 C   0  0  0  0  0  0  0  0  0  0  0  0
   -9.9284   27.0485  -19.4128 H   0  0  0  0  0  0  0  0  0  0  0  0
   -8.9432   28.3001  -20.1936 H   0  0  0  0  0  0  0  0  0  0  0  0
   -7.3082   25.5610  -20.2214 C   0  0  0  0  0  0  0  0  0  0  0  0
   -5.9905   26.0099  -20.1810 N   0  0  0  0  0  0  0  0  0  0  0  0
   -7.7474   25.0761  -19.1225 O   0  0  0  0  0  0  0  0  0  0  0  0
   -5.1465   25.4956  -20.4977 H   0  0  0  0  0  0  0  0  0  0  0  0
   -5.7946   26.9640  -19.7858 H   0  0  0  0  0  0  0  0  0  0  0  0
 23 24  1  0  0  0
 24 13  1  0  0  0
 13 14  2  0  0  0
 14 15  1  0  0  0
 15 16  1  0  0  0
 15 17  2  0  0  0
 17 18  1  0  0  0
 18 19  1  0  0  0
 19 20  2  0  0  0
 20 21  1  0  0  0
 21 22  1  0  0  0
 20  1  1  0  0  0
  1  2  1  0  0  0
  2 25  1  0  0  0
 25 26  1  0  0  0
 26 27  1  0  0  0
 27 28  1  0  0  0
 28 29  1  0  0  0
 29 30  1  0  0  0
 30 31  1  0  0  0
 29 32  1  0  0  0
 32 33  2  0  0  0
 33 34  1  0  0  0
 34 35  2  0  0  0
 35 36  1  0  0  0
 36 37  1  0  0  0
 36 38  2  0  0  0
 38 41  1  0  0  0
 41 42  1  0  0  0
 41 43  2  0  0  0
  2  3  2  0  0  0
  3  4  1  0  0  0
  4  5  1  0  0  0
  5  6  2  0  0  0
  6  7  1  0  0  0
  7  8  2  0  0  0
  8  9  1  0  0  0
  8 10  1  0  0  0
 22 13  1  0  0  0
 10  1  2  0  0  0
 22 18  2  0  0  0
 31 26  1  0  0  0
 38 32  1  0  0  0
 10  4  1  0  0  0
 37 39  1  0  0  0
 37 40  1  0  0  0
 42 44  1  0  0  0
 42 45  1  0  0  0
  9 11  1  0  0  0
  9 12  1  0  0  0
M  END
> <minimizedAffinity>
-8.46413

> <CNNscore>
0.3145027459

> <CNNaffinity>
7.2095170021

> <CNN_VS>
2.2674129009

> <CNNaffinity_variance>
0.1001947299

$$$$
[H]c1nc(N([H])[H])c(C(=O)N([H])[H])c(N2C([H])([H])C([H])([H])N(C([H])([H])c3c(-c4sc5c(OC([H])([H])[H])c([H])c(C([H])([H])[H])c([H])c5c4[H])c4c(N([H])[H])nc([H])nn4c3[H])C([H])([H])C2([H])[H])n1


 45 50  0  0  0  0  0  0  0  0999 V2000
   -1.6246   21.7588  -24.0239 C   0  0  0  0  0  0  0  0  0  0  0  0
   -2.9874   21.5550  -24.2955 C   0  0  0  0  0  0  0  0  0  0  0  0
   -3.2393   21.8714  -25.5817 C   0  0  0  0  0  0  0  0  0  0  0  0
   -2.0729   22.2639  -26.1242 N   0  0  0  0  0  0  0  0  0  0  0  0
   -1.7743   22.6528  -27.3587 N   0  0  0  0  0  0  0  0  0  0  0  0
   -0.5367   22.9864  -27.7476 C   0  0  0  0  0  0  0  0  0  0  0  0
    0.4737   22.9346  -26.8723 N   0  0  0  0  0  0  0  0  0  0  0  0
    0.2048   22.5407  -25.5962 C   0  0  0  0  0  0  0  0  0  0  0  0
    1.2988   22.4094  -24.7000 N   0  0  0  0  0  0  0  0  0  0  0  0
   -1.0676   22.2029  -25.1958 C   0  0  0  0  0  0  0  0  0  0  0  0
    1.6736   21.4763  -24.4855 H   0  0  0  0  0  0  0  0  0  0  0  0
    1.7243   23.2511  -24.2586 H   0  0  0  0  0  0  0  0  0  0  0  0
    0.7891   21.8123  -19.1238 C   0  0  0  0  0  0  0  0  0  0  0  0
    1.4461   20.7805  -18.4959 C   0  0  0  0  0  0  0  0  0  0  0  0
    1.4901   19.5701  -19.1436 C   0  0  0  0  0  0  0  0  0  0  0  0
    2.2112   18.4325  -18.4578 C   0  0  0  0  0  0  0  0  0  0  0  0
    0.9068   19.3932  -20.3618 C   0  0  0  0  0  0  0  0  0  0  0  0
    0.2282   20.4254  -21.0305 C   0  0  0  0  0  0  0  0  0  0  0  0
   -0.3813   20.3523  -22.2368 C   0  0  0  0  0  0  0  0  0  0  0  0
   -0.9925   21.4659  -22.7217 C   0  0  0  0  0  0  0  0  0  0  0  0
   -0.6857   22.6111  -21.4494 S   0  0  0  0  0  0  0  0  0  0  0  0
    0.1887   21.6211  -20.3831 C   0  0  0  0  0  0  0  0  0  0  0  0
    1.8675   23.7968  -18.3488 C   0  0  0  0  0  0  0  0  0  0  0  0
    0.6771   23.0671  -18.5787 O   0  0  0  0  0  0  0  0  0  0  0  0
   -3.9620   21.0887  -23.2991 C   0  0  0  0  0  0  0  0  0  0  0  0
   -4.9561   22.0052  -22.8852 N   0  0  0  0  0  0  0  0  0  0  0  0
   -4.7736   22.7024  -21.6765 C   0  0  0  0  0  0  0  0  0  0  0  0
   -5.9204   23.5906  -21.2861 C   0  0  0  0  0  0  0  0  0  0  0  0
   -7.2164   23.0045  -21.4794 N   0  0  0  0  0  0  0  0  0  0  0  0
   -7.3581   21.8761  -22.3604 C   0  0  0  0  0  0  0  0  0  0  0  0
   -6.2604   21.8456  -23.3989 C   0  0  0  0  0  0  0  0  0  0  0  0
   -8.3413   23.5922  -20.8297 C   0  0  0  0  0  0  0  0  0  0  0  0
   -8.8165   22.8572  -19.7492 N   0  0  0  0  0  0  0  0  0  0  0  0
   -9.8961   23.2649  -19.0964 C   0  0  0  0  0  0  0  0  0  0  0  0
  -10.5703   24.3725  -19.4283 N   0  0  0  0  0  0  0  0  0  0  0  0
  -10.1351   25.0909  -20.4551 C   0  0  0  0  0  0  0  0  0  0  0  0
  -10.8034   26.2745  -20.8587 N   0  0  0  0  0  0  0  0  0  0  0  0
   -8.9919   24.7204  -21.1976 C   0  0  0  0  0  0  0  0  0  0  0  0
  -10.5295   27.2078  -20.4855 H   0  0  0  0  0  0  0  0  0  0  0  0
  -11.5945   26.2631  -21.5437 H   0  0  0  0  0  0  0  0  0  0  0  0
   -8.5676   25.5776  -22.2812 C   0  0  0  0  0  0  0  0  0  0  0  0
   -8.7867   25.3293  -23.6339 N   0  0  0  0  0  0  0  0  0  0  0  0
   -7.9340   26.6589  -22.0264 O   0  0  0  0  0  0  0  0  0  0  0  0
   -8.2266   24.7133  -24.2536 H   0  0  0  0  0  0  0  0  0  0  0  0
   -9.5923   25.8077  -24.1104 H   0  0  0  0  0  0  0  0  0  0  0  0
 23 24  1  0  0  0
 24 13  1  0  0  0
 13 14  2  0  0  0
 14 15  1  0  0  0
 15 16  1  0  0  0
 15 17  2  0  0  0
 17 18  1  0  0  0
 18 19  1  0  0  0
 19 20  2  0  0  0
 20 21  1  0  0  0
 21 22  1  0  0  0
 20  1  1  0  0  0
  1  2  1  0  0  0
  2 25  1  0  0  0
 25 26  1  0  0  0
 26 27  1  0  0  0
 27 28  1  0  0  0
 28 29  1  0  0  0
 29 30  1  0  0  0
 30 31  1  0  0  0
 29 32  1  0  0  0
 32 33  2  0  0  0
 33 34  1  0  0  0
 34 35  2  0  0  0
 35 36  1  0  0  0
 36 37  1  0  0  0
 36 38  2  0  0  0
 38 41  1  0  0  0
 41 42  1  0  0  0
 41 43  2  0  0  0
  2  3  2  0  0  0
  3  4  1  0  0  0
  4  5  1  0  0  0
  5  6  2  0  0  0
  6  7  1  0  0  0
  7  8  2  0  0  0
  8  9  1  0  0  0
  8 10  1  0  0  0
 22 13  1  0  0  0
 10  1  2  0  0  0
 22 18  2  0  0  0
 31 26  1  0  0  0
 38 32  1  0  0  0
 10  4  1  0  0  0
 37 39  1  0  0  0
 37 40  1  0  0  0
 42 44  1  0  0  0
 42 45  1  0  0  0
  9 11  1  0  0  0
  9 12  1  0  0  0
M  END
> <minimizedAffinity>
-8.60476

> <CNNscore>
0.2633584440

> <CNNaffinity>
7.0348143578

> <CNN_VS>
1.8526778221

> <CNNaffinity_variance>
0.0334113948

$$$$
[H]c1nc(N([H])[H])c(C(=O)N([H])[H])c(N2C([H])([H])C([H])([H])N(C([H])([H])c3c(-c4sc5c(OC([H])([H])[H])c([H])c(C([H])([H])[H])c([H])c5c4[H])c4c(N([H])[H])nc([H])nn4c3[H])C([H])([H])C2([H])[H])n1


 45 50  0  0  0  0  0  0  0  0999 V2000
   -1.4341   21.6951  -23.3203 C   0  0  0  0  0  0  0  0  0  0  0  0
   -2.8337   21.7139  -23.4361 C   0  0  0  0  0  0  0  0  0  0  0  0
   -3.1730   21.9418  -24.7210 C   0  0  0  0  0  0  0  0  0  0  0  0
   -2.0264   22.0627  -25.4135 N   0  0  0  0  0  0  0  0  0  0  0  0
   -1.8086   22.2677  -26.7077 N   0  0  0  0  0  0  0  0  0  0  0  0
   -0.5848   22.3332  -27.2481 C   0  0  0  0  0  0  0  0  0  0  0  0
    0.4952   22.1873  -26.4721 N   0  0  0  0  0  0  0  0  0  0  0  0
    0.3104   21.9761  -25.1391 C   0  0  0  0  0  0  0  0  0  0  0  0
    1.4612   21.7393  -24.3411 N   0  0  0  0  0  0  0  0  0  0  0  0
   -0.9469   21.9139  -24.5835 C   0  0  0  0  0  0  0  0  0  0  0  0
    1.6953   20.7798  -24.0551 H   0  0  0  0  0  0  0  0  0  0  0  0
    2.0697   22.5302  -24.0434 H   0  0  0  0  0  0  0  0  0  0  0  0
    1.0296   19.5955  -18.9200 C   0  0  0  0  0  0  0  0  0  0  0  0
    1.3367   20.2326  -17.7409 C   0  0  0  0  0  0  0  0  0  0  0  0
    1.0243   21.5664  -17.6414 C   0  0  0  0  0  0  0  0  0  0  0  0
    1.3596   22.2716  -16.3473 C   0  0  0  0  0  0  0  0  0  0  0  0
    0.4325   22.2374  -18.6687 C   0  0  0  0  0  0  0  0  0  0  0  0
    0.1056   21.6171  -19.8860 C   0  0  0  0  0  0  0  0  0  0  0  0
   -0.4808   22.1921  -20.9619 C   0  0  0  0  0  0  0  0  0  0  0  0
   -0.7166   21.4233  -22.0583 C   0  0  0  0  0  0  0  0  0  0  0  0
   -0.1017   19.8817  -21.5391 S   0  0  0  0  0  0  0  0  0  0  0  0
    0.4180   20.2964  -19.9772 C   0  0  0  0  0  0  0  0  0  0  0  0
    0.6362   17.3180  -18.3203 C   0  0  0  0  0  0  0  0  0  0  0  0
    1.2922   18.2664  -19.1404 O   0  0  0  0  0  0  0  0  0  0  0  0
   -3.7534   21.5312  -22.3044 C   0  0  0  0  0  0  0  0  0  0  0  0
   -4.9104   22.3434  -22.2708 N   0  0  0  0  0  0  0  0  0  0  0  0
   -5.0141   23.3337  -21.2764 C   0  0  0  0  0  0  0  0  0  0  0  0
   -6.3133   24.0879  -21.2762 C   0  0  0  0  0  0  0  0  0  0  0  0
   -7.4755   23.2663  -21.4630 N   0  0  0  0  0  0  0  0  0  0  0  0
   -7.3284   21.9501  -22.0249 C   0  0  0  0  0  0  0  0  0  0  0  0
   -6.0847   21.8502  -22.8778 C   0  0  0  0  0  0  0  0  0  0  0  0
   -8.7557   23.7998  -21.1325 C   0  0  0  0  0  0  0  0  0  0  0  0
   -9.2084   24.7709  -22.0189 N   0  0  0  0  0  0  0  0  0  0  0  0
  -10.3589   25.3890  -21.7906 C   0  0  0  0  0  0  0  0  0  0  0  0
  -11.1276   25.1231  -20.7277 N   0  0  0  0  0  0  0  0  0  0  0  0
  -10.7171   24.1994  -19.8686 C   0  0  0  0  0  0  0  0  0  0  0  0
  -11.4840   23.8704  -18.7223 N   0  0  0  0  0  0  0  0  0  0  0  0
   -9.5036   23.4983  -20.0457 C   0  0  0  0  0  0  0  0  0  0  0  0
  -12.1864   23.1012  -18.7404 H   0  0  0  0  0  0  0  0  0  0  0  0
  -11.3792   24.3811  -17.8149 H   0  0  0  0  0  0  0  0  0  0  0  0
   -9.1472   22.4846  -19.0791 C   0  0  0  0  0  0  0  0  0  0  0  0
   -9.3513   21.1163  -19.2386 N   0  0  0  0  0  0  0  0  0  0  0  0
   -8.6020   22.8238  -17.9730 O   0  0  0  0  0  0  0  0  0  0  0  0
  -10.2313   20.5930  -19.0686 H   0  0  0  0  0  0  0  0  0  0  0  0
   -8.5460   20.5199  -19.5561 H   0  0  0  0  0  0  0  0  0  0  0  0
 23 24  1  0  0  0
 24 13  1  0  0  0
 13 14  2  0  0  0
 14 15  1  0  0  0
 15 16  1  0  0  0
 15 17  2  0  0  0
 17 18  1  0  0  0
 18 19  1  0  0  0
 19 20  2  0  0  0
 20 21  1  0  0  0
 21 22  1  0  0  0
 20  1  1  0  0  0
  1  2  1  0  0  0
  2 25  1  0  0  0
 25 26  1  0  0  0
 26 27  1  0  0  0
 27 28  1  0  0  0
 28 29  1  0  0  0
 29 30  1  0  0  0
 30 31  1  0  0  0
 29 32  1  0  0  0
 32 33  2  0  0  0
 33 34  1  0  0  0
 34 35  2  0  0  0
 35 36  1  0  0  0
 36 37  1  0  0  0
 36 38  2  0  0  0
 38 41  1  0  0  0
 41 42  1  0  0  0
 41 43  2  0  0  0
  2  3  2  0  0  0
  3  4  1  0  0  0
  4  5  1  0  0  0
  5  6  2  0  0  0
  6  7  1  0  0  0
  7  8  2  0  0  0
  8  9  1  0  0  0
  8 10  1  0  0  0
 22 13  1  0  0  0
 10  1  2  0  0  0
 22 18  2  0  0  0
 31 26  1  0  0  0
 38 32  1  0  0  0
 10  4  1  0  0  0
 37 39  1  0  0  0
 37 40  1  0  0  0
 42 44  1  0  0  0
 42 45  1  0  0  0
  9 11  1  0  0  0
  9 12  1  0  0  0
M  END
> <minimizedAffinity>
-8.11955

> <CNNscore>
0.1706329286

> <CNNaffinity>
6.7383713722

> <CNN_VS>
1.1497880220

> <CNNaffinity_variance>
0.0371595323

$$$$
[H]c1nc(N([H])[H])c(C(=O)N([H])[H])c(N2C([H])([H])C([H])([H])N(C([H])([H])c3c(-c4sc5c(OC([H])([H])[H])c([H])c(C([H])([H])[H])c([H])c5c4[H])c4c(N([H])[H])nc([H])nn4c3[H])C([H])([H])C2([H])[H])n1


 45 50  0  0  0  0  0  0  0  0999 V2000
   -4.4081   24.3704  -27.6567 C   0  0  0  0  0  0  0  0  0  0  0  0
   -4.9224   25.6469  -27.3766 C   0  0  0  0  0  0  0  0  0  0  0  0
   -5.6562   26.0733  -28.4243 C   0  0  0  0  0  0  0  0  0  0  0  0
   -5.6191   25.0990  -29.3508 N   0  0  0  0  0  0  0  0  0  0  0  0
   -6.1932   25.0116  -30.5455 N   0  0  0  0  0  0  0  0  0  0  0  0
   -6.0775   23.9413  -31.3426 C   0  0  0  0  0  0  0  0  0  0  0  0
   -5.3547   22.8885  -30.9441 N   0  0  0  0  0  0  0  0  0  0  0  0
   -4.7505   22.9428  -29.7243 C   0  0  0  0  0  0  0  0  0  0  0  0
   -4.0564   21.7868  -29.2779 N   0  0  0  0  0  0  0  0  0  0  0  0
   -4.8653   24.0445  -28.9080 C   0  0  0  0  0  0  0  0  0  0  0  0
   -4.4954   21.1620  -28.5894 H   0  0  0  0  0  0  0  0  0  0  0  0
   -3.1061   21.5672  -29.6428 H   0  0  0  0  0  0  0  0  0  0  0  0
   -2.3304   21.5371  -23.4739 C   0  0  0  0  0  0  0  0  0  0  0  0
   -1.0082   21.2617  -23.2157 C   0  0  0  0  0  0  0  0  0  0  0  0
   -0.0783   21.7165  -24.1185 C   0  0  0  0  0  0  0  0  0  0  0  0
    1.3766   21.4165  -23.8393 C   0  0  0  0  0  0  0  0  0  0  0  0
   -0.4464   22.4144  -25.2289 C   0  0  0  0  0  0  0  0  0  0  0  0
   -1.7873   22.7128  -25.5225 C   0  0  0  0  0  0  0  0  0  0  0  0
   -2.2544   23.3965  -26.5932 C   0  0  0  0  0  0  0  0  0  0  0  0
   -3.5964   23.5837  -26.7062 C   0  0  0  0  0  0  0  0  0  0  0  0
   -4.1794   22.7839  -25.2762 S   0  0  0  0  0  0  0  0  0  0  0  0
   -2.7025   22.2593  -24.6242 C   0  0  0  0  0  0  0  0  0  0  0  0
   -3.6536   21.9484  -21.5293 C   0  0  0  0  0  0  0  0  0  0  0  0
   -3.3511   21.1366  -22.6482 O   0  0  0  0  0  0  0  0  0  0  0  0
   -4.6609   26.3819  -26.1310 C   0  0  0  0  0  0  0  0  0  0  0  0
   -5.4746   26.0781  -25.0152 N   0  0  0  0  0  0  0  0  0  0  0  0
   -4.8609   25.6249  -23.8326 C   0  0  0  0  0  0  0  0  0  0  0  0
   -5.8155   25.2537  -22.7338 C   0  0  0  0  0  0  0  0  0  0  0  0
   -6.9594   24.5044  -23.1705 N   0  0  0  0  0  0  0  0  0  0  0  0
   -7.3267   24.5206  -24.5614 C   0  0  0  0  0  0  0  0  0  0  0  0
   -6.8323   25.7730  -25.2480 C   0  0  0  0  0  0  0  0  0  0  0  0
   -7.7339   23.8029  -22.2005 C   0  0  0  0  0  0  0  0  0  0  0  0
   -7.3729   22.4688  -22.0475 N   0  0  0  0  0  0  0  0  0  0  0  0
   -8.0555   21.6905  -21.2192 C   0  0  0  0  0  0  0  0  0  0  0  0
   -9.0986   22.1290  -20.5044 N   0  0  0  0  0  0  0  0  0  0  0  0
   -9.4610   23.3987  -20.6327 C   0  0  0  0  0  0  0  0  0  0  0  0
  -10.5571   23.9265  -19.9045 N   0  0  0  0  0  0  0  0  0  0  0  0
   -8.7815   24.2882  -21.4945 C   0  0  0  0  0  0  0  0  0  0  0  0
  -10.4255   24.3782  -18.9750 H   0  0  0  0  0  0  0  0  0  0  0  0
  -11.5386   23.8862  -20.2655 H   0  0  0  0  0  0  0  0  0  0  0  0
   -9.2219   25.6636  -21.5499 C   0  0  0  0  0  0  0  0  0  0  0  0
   -9.9565   26.2300  -22.5887 N   0  0  0  0  0  0  0  0  0  0  0  0
   -8.9346   26.4627  -20.5936 O   0  0  0  0  0  0  0  0  0  0  0  0
   -9.5876   26.5888  -23.4900 H   0  0  0  0  0  0  0  0  0  0  0  0
  -10.9972   26.3264  -22.4763 H   0  0  0  0  0  0  0  0  0  0  0  0
 23 24  1  0  0  0
 24 13  1  0  0  0
 13 14  2  0  0  0
 14 15  1  0  0  0
 15 16  1  0  0  0
 15 17  2  0  0  0
 17 18  1  0  0  0
 18 19  1  0  0  0
 19 20  2  0  0  0
 20 21  1  0  0  0
 21 22  1  0  0  0
 20  1  1  0  0  0
  1  2  1  0  0  0
  2 25  1  0  0  0
 25 26  1  0  0  0
 26 27  1  0  0  0
 27 28  1  0  0  0
 28 29  1  0  0  0
 29 30  1  0  0  0
 30 31  1  0  0  0
 29 32  1  0  0  0
 32 33  2  0  0  0
 33 34  1  0  0  0
 34 35  2  0  0  0
 35 36  1  0  0  0
 36 37  1  0  0  0
 36 38  2  0  0  0
 38 41  1  0  0  0
 41 42  1  0  0  0
 41 43  2  0  0  0
  2  3  2  0  0  0
  3  4  1  0  0  0
  4  5  1  0  0  0
  5  6  2  0  0  0
  6  7  1  0  0  0
  7  8  2  0  0  0
  8  9  1  0  0  0
  8 10  1  0  0  0
 22 13  1  0  0  0
 10  1  2  0  0  0
 22 18  2  0  0  0
 31 26  1  0  0  0
 38 32  1  0  0  0
 10  4  1  0  0  0
 37 39  1  0  0  0
 37 40  1  0  0  0
 42 44  1  0  0  0
 42 45  1  0  0  0
  9 11  1  0  0  0
  9 12  1  0  0  0
M  END
> <minimizedAffinity>
-9.05565

> <CNNscore>
0.1284202039

> <CNNaffinity>
6.9119367599

> <CNN_VS>
0.8876323104

> <CNNaffinity_variance>
0.6740358472

$$$$
[H]c1nc(N([H])[H])c(C(=O)N([H])[H])c(N2C([H])([H])C([H])([H])N(C([H])([H])c3c(-c4sc5c(OC([H])([H])[H])c([H])c(C([H])([H])[H])c([H])c5c4[H])c4c(N([H])[H])nc([H])nn4c3[H])C([H])([H])C2([H])[H])n1


 45 50  0  0  0  0  0  0  0  0999 V2000
   -7.3677   24.3122  -22.0849 C   0  0  0  0  0  0  0  0  0  0  0  0
   -7.6889   24.2773  -23.4517 C   0  0  0  0  0  0  0  0  0  0  0  0
   -8.6560   25.1815  -23.7071 C   0  0  0  0  0  0  0  0  0  0  0  0
   -8.9469   25.7840  -22.5404 N   0  0  0  0  0  0  0  0  0  0  0  0
   -9.8050   26.7565  -22.2532 N   0  0  0  0  0  0  0  0  0  0  0  0
   -9.9522   27.2710  -21.0253 C   0  0  0  0  0  0  0  0  0  0  0  0
   -9.2110   26.8046  -20.0139 N   0  0  0  0  0  0  0  0  0  0  0  0
   -8.3204   25.8063  -20.2710 C   0  0  0  0  0  0  0  0  0  0  0  0
   -7.4813   25.3785  -19.2079 N   0  0  0  0  0  0  0  0  0  0  0  0
   -8.1731   25.2746  -21.5315 C   0  0  0  0  0  0  0  0  0  0  0  0
   -6.5048   25.6979  -19.1684 H   0  0  0  0  0  0  0  0  0  0  0  0
   -7.8476   24.7437  -18.4682 H   0  0  0  0  0  0  0  0  0  0  0  0
   -4.3461   20.7130  -19.3001 C   0  0  0  0  0  0  0  0  0  0  0  0
   -3.0056   20.7878  -19.0035 C   0  0  0  0  0  0  0  0  0  0  0  0
   -2.3113   21.8737  -19.4781 C   0  0  0  0  0  0  0  0  0  0  0  0
   -0.8374   21.9609  -19.1548 C   0  0  0  0  0  0  0  0  0  0  0  0
   -2.9226   22.8426  -20.2151 C   0  0  0  0  0  0  0  0  0  0  0  0
   -4.2894   22.7970  -20.5359 C   0  0  0  0  0  0  0  0  0  0  0  0
   -4.9878   23.7045  -21.2577 C   0  0  0  0  0  0  0  0  0  0  0  0
   -6.3132   23.4838  -21.4662 C   0  0  0  0  0  0  0  0  0  0  0  0
   -6.5511   21.9814  -20.6233 S   0  0  0  0  0  0  0  0  0  0  0  0
   -4.9705   21.7189  -20.0626 C   0  0  0  0  0  0  0  0  0  0  0  0
   -5.6878   19.7461  -17.5777 C   0  0  0  0  0  0  0  0  0  0  0  0
   -5.1460   19.6784  -18.8832 O   0  0  0  0  0  0  0  0  0  0  0  0
   -7.0612   23.3662  -24.4193 C   0  0  0  0  0  0  0  0  0  0  0  0
   -5.6522   23.2524  -24.3839 N   0  0  0  0  0  0  0  0  0  0  0  0
   -4.8737   24.3380  -24.8264 C   0  0  0  0  0  0  0  0  0  0  0  0
   -3.3924   24.0888  -24.8243 C   0  0  0  0  0  0  0  0  0  0  0  0
   -3.0076   22.7994  -25.3244 N   0  0  0  0  0  0  0  0  0  0  0  0
   -3.9840   21.7448  -25.3868 C   0  0  0  0  0  0  0  0  0  0  0  0
   -5.0914   21.9578  -24.3804 C   0  0  0  0  0  0  0  0  0  0  0  0
   -1.6489   22.5840  -25.6990 C   0  0  0  0  0  0  0  0  0  0  0  0
   -1.3988   22.7796  -27.0527 N   0  0  0  0  0  0  0  0  0  0  0  0
   -0.1869   22.5530  -27.5403 C   0  0  0  0  0  0  0  0  0  0  0  0
    0.8344   22.1360  -26.7823 N   0  0  0  0  0  0  0  0  0  0  0  0
    0.6203   21.9435  -25.4874 C   0  0  0  0  0  0  0  0  0  0  0  0
    1.6591   21.5022  -24.6292 N   0  0  0  0  0  0  0  0  0  0  0  0
   -0.6433   22.1650  -24.8960 C   0  0  0  0  0  0  0  0  0  0  0  0
    2.2634   22.1774  -24.1150 H   0  0  0  0  0  0  0  0  0  0  0  0
    1.8631   20.4874  -24.4754 H   0  0  0  0  0  0  0  0  0  0  0  0
   -0.7815   21.9621  -23.4717 C   0  0  0  0  0  0  0  0  0  0  0  0
   -1.3498   20.8408  -22.8721 N   0  0  0  0  0  0  0  0  0  0  0  0
   -0.3669   22.8576  -22.6582 O   0  0  0  0  0  0  0  0  0  0  0  0
   -2.3608   20.6551  -22.7291 H   0  0  0  0  0  0  0  0  0  0  0  0
   -0.7141   20.0873  -22.5073 H   0  0  0  0  0  0  0  0  0  0  0  0
 23 24  1  0  0  0
 24 13  1  0  0  0
 13 14  2  0  0  0
 14 15  1  0  0  0
 15 16  1  0  0  0
 15 17  2  0  0  0
 17 18  1  0  0  0
 18 19  1  0  0  0
 19 20  2  0  0  0
 20 21  1  0  0  0
 21 22  1  0  0  0
 20  1  1  0  0  0
  1  2  1  0  0  0
  2 25  1  0  0  0
 25 26  1  0  0  0
 26 27  1  0  0  0
 27 28  1  0  0  0
 28 29  1  0  0  0
 29 30  1  0  0  0
 30 31  1  0  0  0
 29 32  1  0  0  0
 32 33  2  0  0  0
 33 34  1  0  0  0
 34 35  2  0  0  0
 35 36  1  0  0  0
 36 37  1  0  0  0
 36 38  2  0  0  0
 38 41  1  0  0  0
 41 42  1  0  0  0
 41 43  2  0  0  0
  2  3  2  0  0  0
  3  4  1  0  0  0
  4  5  1  0  0  0
  5  6  2  0  0  0
  6  7  1  0  0  0
  7  8  2  0  0  0
  8  9  1  0  0  0
  8 10  1  0  0  0
 22 13  1  0  0  0
 10  1  2  0  0  0
 22 18  2  0  0  0
 31 26  1  0  0  0
 38 32  1  0  0  0
 10  4  1  0  0  0
 37 39  1  0  0  0
 37 40  1  0  0  0
 42 44  1  0  0  0
 42 45  1  0  0  0
  9 11  1  0  0  0
  9 12  1  0  0  0
M  END
> <minimizedAffinity>
-7.73458

> <CNNscore>
0.0756046996

> <CNNaffinity>
6.6484231949

> <CNN_VS>
0.5026520491

> <CNNaffinity_variance>
0.1415325701

$$$$
[H]c1nc(N([H])[H])c(C(=O)N([H])[H])c(N2C([H])([H])C([H])([H])N(C([H])([H])c3c(-c4sc5c(OC([H])([H])[H])c([H])c(C([H])([H])[H])c([H])c5c4[H])c4c(N([H])[H])nc([H])nn4c3[H])C([H])([H])C2([H])[H])n1


 45 50  0  0  0  0  0  0  0  0999 V2000
   -3.1980   23.7083  -25.0614 C   0  0  0  0  0  0  0  0  0  0  0  0
   -4.1318   24.6595  -24.6189 C   0  0  0  0  0  0  0  0  0  0  0  0
   -4.8824   25.0681  -25.6618 C   0  0  0  0  0  0  0  0  0  0  0  0
   -4.4479   24.3976  -26.7437 N   0  0  0  0  0  0  0  0  0  0  0  0
   -4.8644   24.4166  -28.0049 N   0  0  0  0  0  0  0  0  0  0  0  0
   -4.3340   23.6519  -28.9682 C   0  0  0  0  0  0  0  0  0  0  0  0
   -3.3325   22.8137  -28.6781 N   0  0  0  0  0  0  0  0  0  0  0  0
   -2.8785   22.7677  -27.3945 C   0  0  0  0  0  0  0  0  0  0  0  0
   -1.8730   21.8144  -27.0823 N   0  0  0  0  0  0  0  0  0  0  0  0
   -3.4203   23.5571  -26.4063 C   0  0  0  0  0  0  0  0  0  0  0  0
   -2.1284   20.9418  -26.6021 H   0  0  0  0  0  0  0  0  0  0  0  0
   -0.8789   21.9924  -27.3362 H   0  0  0  0  0  0  0  0  0  0  0  0
    1.0440   21.2533  -22.6492 C   0  0  0  0  0  0  0  0  0  0  0  0
    1.0267   20.4247  -21.5521 C   0  0  0  0  0  0  0  0  0  0  0  0
   -0.1870   20.1930  -20.9522 C   0  0  0  0  0  0  0  0  0  0  0  0
   -0.2116   19.2827  -19.7458 C   0  0  0  0  0  0  0  0  0  0  0  0
   -1.3330   20.7598  -21.4223 C   0  0  0  0  0  0  0  0  0  0  0  0
   -1.3506   21.6105  -22.5400 C   0  0  0  0  0  0  0  0  0  0  0  0
   -2.4302   22.2201  -23.0832 C   0  0  0  0  0  0  0  0  0  0  0  0
   -2.2455   23.0145  -24.1712 C   0  0  0  0  0  0  0  0  0  0  0  0
   -0.5285   22.8790  -24.4116 S   0  0  0  0  0  0  0  0  0  0  0  0
   -0.1452   21.8354  -23.1288 C   0  0  0  0  0  0  0  0  0  0  0  0
    3.2728   20.6496  -23.2572 C   0  0  0  0  0  0  0  0  0  0  0  0
    2.1932   21.5612  -23.3338 O   0  0  0  0  0  0  0  0  0  0  0  0
   -4.2304   25.1281  -23.2294 C   0  0  0  0  0  0  0  0  0  0  0  0
   -5.2084   24.5215  -22.4078 N   0  0  0  0  0  0  0  0  0  0  0  0
   -5.1037   24.6648  -21.0117 C   0  0  0  0  0  0  0  0  0  0  0  0
   -6.1433   23.9180  -20.2255 C   0  0  0  0  0  0  0  0  0  0  0  0
   -6.4024   22.5879  -20.6991 N   0  0  0  0  0  0  0  0  0  0  0  0
   -6.0138   22.2248  -22.0358 C   0  0  0  0  0  0  0  0  0  0  0  0
   -5.9382   23.4361  -22.9367 C   0  0  0  0  0  0  0  0  0  0  0  0
   -7.0873   21.6745  -19.8450 C   0  0  0  0  0  0  0  0  0  0  0  0
   -6.3219   20.5792  -19.4603 N   0  0  0  0  0  0  0  0  0  0  0  0
   -6.8617   19.6253  -18.7144 C   0  0  0  0  0  0  0  0  0  0  0  0
   -8.1343   19.6593  -18.3011 N   0  0  0  0  0  0  0  0  0  0  0  0
   -8.8840   20.6951  -18.6547 C   0  0  0  0  0  0  0  0  0  0  0  0
  -10.2395   20.7922  -18.2505 N   0  0  0  0  0  0  0  0  0  0  0  0
   -8.3786   21.7499  -19.4468 C   0  0  0  0  0  0  0  0  0  0  0  0
  -10.5119   21.2865  -17.3748 H   0  0  0  0  0  0  0  0  0  0  0  0
  -11.0201   20.3753  -18.8093 H   0  0  0  0  0  0  0  0  0  0  0  0
   -9.2543   22.8564  -19.7593 C   0  0  0  0  0  0  0  0  0  0  0  0
   -9.7034   23.1891  -21.0348 N   0  0  0  0  0  0  0  0  0  0  0  0
   -9.6729   23.6205  -18.8231 O   0  0  0  0  0  0  0  0  0  0  0  0
   -9.1914   23.7358  -21.7534 H   0  0  0  0  0  0  0  0  0  0  0  0
  -10.6623   22.8753  -21.3297 H   0  0  0  0  0  0  0  0  0  0  0  0
 23 24  1  0  0  0
 24 13  1  0  0  0
 13 14  2  0  0  0
 14 15  1  0  0  0
 15 16  1  0  0  0
 15 17  2  0  0  0
 17 18  1  0  0  0
 18 19  1  0  0  0
 19 20  2  0  0  0
 20 21  1  0  0  0
 21 22  1  0  0  0
 20  1  1  0  0  0
  1  2  1  0  0  0
  2 25  1  0  0  0
 25 26  1  0  0  0
 26 27  1  0  0  0
 27 28  1  0  0  0
 28 29  1  0  0  0
 29 30  1  0  0  0
 30 31  1  0  0  0
 29 32  1  0  0  0
 32 33  2  0  0  0
 33 34  1  0  0  0
 34 35  2  0  0  0
 35 36  1  0  0  0
 36 37  1  0  0  0
 36 38  2  0  0  0
 38 41  1  0  0  0
 41 42  1  0  0  0
 41 43  2  0  0  0
  2  3  2  0  0  0
  3  4  1  0  0  0
  4  5  1  0  0  0
  5  6  2  0  0  0
  6  7  1  0  0  0
  7  8  2  0  0  0
  8  9  1  0  0  0
  8 10  1  0  0  0
 22 13  1  0  0  0
 10  1  2  0  0  0
 22 18  2  0  0  0
 31 26  1  0  0  0
 38 32  1  0  0  0
 10  4  1  0  0  0
 37 39  1  0  0  0
 37 40  1  0  0  0
 42 44  1  0  0  0
 42 45  1  0  0  0
  9 11  1  0  0  0
  9 12  1  0  0  0
M  END
> <minimizedAffinity>
-7.95095

> <CNNscore>
0.0744552463

> <CNNaffinity>
7.0517792702

> <CNN_VS>
0.5250419378

> <CNNaffinity_variance>
0.3986441493

$$$$
[H]c1nc(N([H])[H])c(C(=O)N([H])[H])c(N2C([H])([H])C([H])([H])N(C([H])([H])c3c(-c4sc5c(OC([H])([H])[H])c([H])c(C([H])([H])[H])c([H])c5c4[H])c4c(N([H])[H])nc([H])nn4c3[H])C([H])([H])C2([H])[H])n1


 45 50  0  0  0  0  0  0  0  0999 V2000
   -1.8205   22.0478  -23.5012 C   0  0  0  0  0  0  0  0  0  0  0  0
   -2.4258   21.6452  -22.2995 C   0  0  0  0  0  0  0  0  0  0  0  0
   -1.4961   21.0948  -21.4929 C   0  0  0  0  0  0  0  0  0  0  0  0
   -0.3255   21.1446  -22.1534 N   0  0  0  0  0  0  0  0  0  0  0  0
    0.8937   20.7584  -21.7943 N   0  0  0  0  0  0  0  0  0  0  0  0
    1.9739   20.9098  -22.5717 C   0  0  0  0  0  0  0  0  0  0  0  0
    1.8532   21.4767  -23.7774 N   0  0  0  0  0  0  0  0  0  0  0  0
    0.6174   21.8847  -24.1798 C   0  0  0  0  0  0  0  0  0  0  0  0
    0.5167   22.5602  -25.4252 N   0  0  0  0  0  0  0  0  0  0  0  0
   -0.4929   21.7245  -23.3830 C   0  0  0  0  0  0  0  0  0  0  0  0
    0.4235   23.5840  -25.4443 H   0  0  0  0  0  0  0  0  0  0  0  0
    0.5367   22.0264  -26.3190 H   0  0  0  0  0  0  0  0  0  0  0  0
   -4.8595   25.2597  -26.7088 C   0  0  0  0  0  0  0  0  0  0  0  0
   -5.3074   24.9985  -27.9823 C   0  0  0  0  0  0  0  0  0  0  0  0
   -4.9355   23.8056  -28.5525 C   0  0  0  0  0  0  0  0  0  0  0  0
   -5.4253   23.5135  -29.9523 C   0  0  0  0  0  0  0  0  0  0  0  0
   -4.1530   22.9116  -27.8862 C   0  0  0  0  0  0  0  0  0  0  0  0
   -3.6786   23.1468  -26.5851 C   0  0  0  0  0  0  0  0  0  0  0  0
   -2.9001   22.3270  -25.8409 C   0  0  0  0  0  0  0  0  0  0  0  0
   -2.5385   22.7333  -24.5947 C   0  0  0  0  0  0  0  0  0  0  0  0
   -3.3198   24.2838  -24.4955 S   0  0  0  0  0  0  0  0  0  0  0  0
   -4.0508   24.3301  -26.0269 C   0  0  0  0  0  0  0  0  0  0  0  0
   -6.2158   26.3723  -25.0889 C   0  0  0  0  0  0  0  0  0  0  0  0
   -5.1630   26.4154  -26.0333 O   0  0  0  0  0  0  0  0  0  0  0  0
   -3.8590   21.7971  -22.0113 C   0  0  0  0  0  0  0  0  0  0  0  0
   -4.2319   21.9978  -20.6622 N   0  0  0  0  0  0  0  0  0  0  0  0
   -4.4744   20.8729  -19.8520 C   0  0  0  0  0  0  0  0  0  0  0  0
   -4.9415   21.1920  -18.4604 C   0  0  0  0  0  0  0  0  0  0  0  0
   -5.9242   22.2360  -18.3899 N   0  0  0  0  0  0  0  0  0  0  0  0
   -6.0775   23.1392  -19.4991 C   0  0  0  0  0  0  0  0  0  0  0  0
   -4.8060   23.2376  -20.3103 C   0  0  0  0  0  0  0  0  0  0  0  0
   -6.6895   22.3812  -17.1957 C   0  0  0  0  0  0  0  0  0  0  0  0
   -7.9375   21.7703  -17.2473 N   0  0  0  0  0  0  0  0  0  0  0  0
   -8.7711   21.8829  -16.2225 C   0  0  0  0  0  0  0  0  0  0  0  0
   -8.4700   22.5692  -15.1135 N   0  0  0  0  0  0  0  0  0  0  0  0
   -7.2844   23.1597  -15.0407 C   0  0  0  0  0  0  0  0  0  0  0  0
   -6.9032   23.9021  -13.8944 N   0  0  0  0  0  0  0  0  0  0  0  0
   -6.3435   23.0832  -16.0915 C   0  0  0  0  0  0  0  0  0  0  0  0
   -6.3875   23.4580  -13.1055 H   0  0  0  0  0  0  0  0  0  0  0  0
   -7.1209   24.9205  -13.7908 H   0  0  0  0  0  0  0  0  0  0  0  0
   -5.0624   23.7289  -15.9166 C   0  0  0  0  0  0  0  0  0  0  0  0
   -4.7208   24.9831  -16.4165 N   0  0  0  0  0  0  0  0  0  0  0  0
   -4.1365   23.1386  -15.2609 O   0  0  0  0  0  0  0  0  0  0  0  0
   -4.4038   25.2054  -17.3795 H   0  0  0  0  0  0  0  0  0  0  0  0
   -4.7706   25.8131  -15.7734 H   0  0  0  0  0  0  0  0  0  0  0  0
 23 24  1  0  0  0
 24 13  1  0  0  0
 13 14  2  0  0  0
 14 15  1  0  0  0
 15 16  1  0  0  0
 15 17  2  0  0  0
 17 18  1  0  0  0
 18 19  1  0  0  0
 19 20  2  0  0  0
 20 21  1  0  0  0
 21 22  1  0  0  0
 20  1  1  0  0  0
  1  2  1  0  0  0
  2 25  1  0  0  0
 25 26  1  0  0  0
 26 27  1  0  0  0
 27 28  1  0  0  0
 28 29  1  0  0  0
 29 30  1  0  0  0
 30 31  1  0  0  0
 29 32  1  0  0  0
 32 33  2  0  0  0
 33 34  1  0  0  0
 34 35  2  0  0  0
 35 36  1  0  0  0
 36 37  1  0  0  0
 36 38  2  0  0  0
 38 41  1  0  0  0
 41 42  1  0  0  0
 41 43  2  0  0  0
  2  3  2  0  0  0
  3  4  1  0  0  0
  4  5  1  0  0  0
  5  6  2  0  0  0
  6  7  1  0  0  0
  7  8  2  0  0  0
  8  9  1  0  0  0
  8 10  1  0  0  0
 22 13  1  0  0  0
 10  1  2  0  0  0
 22 18  2  0  0  0
 31 26  1  0  0  0
 38 32  1  0  0  0
 10  4  1  0  0  0
 37 39  1  0  0  0
 37 40  1  0  0  0
 42 44  1  0  0  0
 42 45  1  0  0  0
  9 11  1  0  0  0
  9 12  1  0  0  0
M  END
> <minimizedAffinity>
-8.63034

> <CNNscore>
0.0618387423

> <CNNaffinity>
6.7409691811

> <CNN_VS>
0.4168530703

> <CNNaffinity_variance>
0.2853146791

$$$$
[H]c1nc(N([H])[H])c(C(=O)N([H])[H])c(N2C([H])([H])C([H])([H])N(C([H])([H])c3c(-c4sc5c(OC([H])([H])[H])c([H])c(C([H])([H])[H])c([H])c5c4[H])c4c(N([H])[H])nc([H])nn4c3[H])C([H])([H])C2([H])[H])n1


 45 50  0  0  0  0  0  0  0  0999 V2000
   -7.8663   22.7966  -19.3127 C   0  0  0  0  0  0  0  0  0  0  0  0
   -7.2602   23.8629  -19.9970 C   0  0  0  0  0  0  0  0  0  0  0  0
   -8.2118   24.7117  -20.4351 C   0  0  0  0  0  0  0  0  0  0  0  0
   -9.3959   24.2096  -20.0417 N   0  0  0  0  0  0  0  0  0  0  0  0
  -10.6318   24.6707  -20.1972 N   0  0  0  0  0  0  0  0  0  0  0  0
  -11.7159   24.0534  -19.7095 C   0  0  0  0  0  0  0  0  0  0  0  0
  -11.5814   22.9122  -19.0245 N   0  0  0  0  0  0  0  0  0  0  0  0
  -10.3283   22.4086  -18.8457 C   0  0  0  0  0  0  0  0  0  0  0  0
  -10.1918   21.2428  -18.0461 N   0  0  0  0  0  0  0  0  0  0  0  0
   -9.2153   23.0405  -19.3512 C   0  0  0  0  0  0  0  0  0  0  0  0
   -9.8657   21.3257  -17.0745 H   0  0  0  0  0  0  0  0  0  0  0  0
  -10.4195   20.3046  -18.4364 H   0  0  0  0  0  0  0  0  0  0  0  0
   -4.6529   19.6049  -16.2587 C   0  0  0  0  0  0  0  0  0  0  0  0
   -4.2365   18.3225  -16.5285 C   0  0  0  0  0  0  0  0  0  0  0  0
   -4.6929   17.7381  -17.6846 C   0  0  0  0  0  0  0  0  0  0  0  0
   -4.2381   16.3286  -17.9860 C   0  0  0  0  0  0  0  0  0  0  0  0
   -5.5265   18.3993  -18.5353 C   0  0  0  0  0  0  0  0  0  0  0  0
   -5.9707   19.7092  -18.2900 C   0  0  0  0  0  0  0  0  0  0  0  0
   -6.7945   20.4494  -19.0682 C   0  0  0  0  0  0  0  0  0  0  0  0
   -7.1154   21.7058  -18.6590 C   0  0  0  0  0  0  0  0  0  0  0  0
   -6.2314   21.8201  -17.1657 S   0  0  0  0  0  0  0  0  0  0  0  0
   -5.5148   20.2814  -17.1433 C   0  0  0  0  0  0  0  0  0  0  0  0
   -2.9940   20.9144  -15.1474 C   0  0  0  0  0  0  0  0  0  0  0  0
   -4.2661   20.2946  -15.1368 O   0  0  0  0  0  0  0  0  0  0  0  0
   -5.8102   23.9880  -20.2024 C   0  0  0  0  0  0  0  0  0  0  0  0
   -5.3039   23.6485  -21.4783 N   0  0  0  0  0  0  0  0  0  0  0  0
   -4.9227   22.3162  -21.7233 C   0  0  0  0  0  0  0  0  0  0  0  0
   -4.3239   22.0750  -23.0797 C   0  0  0  0  0  0  0  0  0  0  0  0
   -3.3897   23.0797  -23.5022 N   0  0  0  0  0  0  0  0  0  0  0  0
   -3.3997   24.3684  -22.8631 C   0  0  0  0  0  0  0  0  0  0  0  0
   -4.7545   24.6795  -22.2695 C   0  0  0  0  0  0  0  0  0  0  0  0
   -2.5079   22.7880  -24.5840 C   0  0  0  0  0  0  0  0  0  0  0  0
   -1.3229   22.1724  -24.1959 N   0  0  0  0  0  0  0  0  0  0  0  0
   -0.3916   21.9027  -25.1002 C   0  0  0  0  0  0  0  0  0  0  0  0
   -0.5327   22.1976  -26.3981 N   0  0  0  0  0  0  0  0  0  0  0  0
   -1.6554   22.7841  -26.7924 C   0  0  0  0  0  0  0  0  0  0  0  0
   -1.8680   23.1232  -28.1526 N   0  0  0  0  0  0  0  0  0  0  0  0
   -2.6927   23.1012  -25.8875 C   0  0  0  0  0  0  0  0  0  0  0  0
   -2.3422   22.4675  -28.8089 H   0  0  0  0  0  0  0  0  0  0  0  0
   -1.5607   24.0394  -28.5544 H   0  0  0  0  0  0  0  0  0  0  0  0
   -3.8962   23.7104  -26.4064 C   0  0  0  0  0  0  0  0  0  0  0  0
   -4.2015   25.0676  -26.3406 N   0  0  0  0  0  0  0  0  0  0  0  0
   -4.7818   22.9848  -26.9765 O   0  0  0  0  0  0  0  0  0  0  0  0
   -4.6086   25.5768  -25.5330 H   0  0  0  0  0  0  0  0  0  0  0  0
   -4.0199   25.6669  -27.1849 H   0  0  0  0  0  0  0  0  0  0  0  0
 23 24  1  0  0  0
 24 13  1  0  0  0
 13 14  2  0  0  0
 14 15  1  0  0  0
 15 16  1  0  0  0
 15 17  2  0  0  0
 17 18  1  0  0  0
 18 19  1  0  0  0
 19 20  2  0  0  0
 20 21  1  0  0  0
 21 22  1  0  0  0
 20  1  1  0  0  0
  1  2  1  0  0  0
  2 25  1  0  0  0
 25 26  1  0  0  0
 26 27  1  0  0  0
 27 28  1  0  0  0
 28 29  1  0  0  0
 29 30  1  0  0  0
 30 31  1  0  0  0
 29 32  1  0  0  0
 32 33  2  0  0  0
 33 34  1  0  0  0
 34 35  2  0  0  0
 35 36  1  0  0  0
 36 37  1  0  0  0
 36 38  2  0  0  0
 38 41  1  0  0  0
 41 42  1  0  0  0
 41 43  2  0  0  0
  2  3  2  0  0  0
  3  4  1  0  0  0
  4  5  1  0  0  0
  5  6  2  0  0  0
  6  7  1  0  0  0
  7  8  2  0  0  0
  8  9  1  0  0  0
  8 10  1  0  0  0
 22 13  1  0  0  0
 10  1  2  0  0  0
 22 18  2  0  0  0
 31 26  1  0  0  0
 38 32  1  0  0  0
 10  4  1  0  0  0
 37 39  1  0  0  0
 37 40  1  0  0  0
 42 44  1  0  0  0
 42 45  1  0  0  0
  9 11  1  0  0  0
  9 12  1  0  0  0
M  END
> <minimizedAffinity>
-6.98420

> <CNNscore>
0.0421459079

> <CNNaffinity>
6.5559568405

> <CNN_VS>
0.2763067484

> <CNNaffinity_variance>
0.2259769887

$$$$
[H]c1nc(N([H])[H])c(C(=O)N([H])[H])c(N2C([H])([H])C([H])([H])N(C([H])([H])c3c(-c4sc5c(OC([H])([H])[H])c([H])c(C([H])([H])[H])c([H])c5c4[H])c4c(N([H])[H])nc([H])nn4c3[H])C([H])([H])C2([H])[H])n1


 45 50  0  0  0  0  0  0  0  0999 V2000
   -3.5095   23.5736  -25.2388 C   0  0  0  0  0  0  0  0  0  0  0  0
   -4.4797   24.3565  -24.5918 C   0  0  0  0  0  0  0  0  0  0  0  0
   -5.3276   24.8654  -25.5083 C   0  0  0  0  0  0  0  0  0  0  0  0
   -4.9186   24.4208  -26.7100 N   0  0  0  0  0  0  0  0  0  0  0  0
   -5.4198   24.6111  -27.9253 N   0  0  0  0  0  0  0  0  0  0  0  0
   -4.9003   24.0627  -29.0313 C   0  0  0  0  0  0  0  0  0  0  0  0
   -3.8216   23.2764  -28.9419 N   0  0  0  0  0  0  0  0  0  0  0  0
   -3.2795   23.0591  -27.7112 C   0  0  0  0  0  0  0  0  0  0  0  0
   -2.1867   22.1564  -27.6197 N   0  0  0  0  0  0  0  0  0  0  0  0
   -3.8105   23.6268  -26.5758 C   0  0  0  0  0  0  0  0  0  0  0  0
   -2.3432   21.1984  -27.2806 H   0  0  0  0  0  0  0  0  0  0  0  0
   -1.2282   22.4575  -27.8934 H   0  0  0  0  0  0  0  0  0  0  0  0
   -0.2921   20.8993  -21.7265 C   0  0  0  0  0  0  0  0  0  0  0  0
    1.0544   20.6459  -21.8412 C   0  0  0  0  0  0  0  0  0  0  0  0
    1.6861   21.0804  -22.9808 C   0  0  0  0  0  0  0  0  0  0  0  0
    3.1664   20.8045  -23.1118 C   0  0  0  0  0  0  0  0  0  0  0  0
    1.0091   21.7381  -23.9630 C   0  0  0  0  0  0  0  0  0  0  0  0
   -0.3658   22.0131  -23.8777 C   0  0  0  0  0  0  0  0  0  0  0  0
   -1.1265   22.6568  -24.7937 C   0  0  0  0  0  0  0  0  0  0  0  0
   -2.4498   22.8266  -24.5317 C   0  0  0  0  0  0  0  0  0  0  0  0
   -2.5945   22.0679  -22.9735 S   0  0  0  0  0  0  0  0  0  0  0  0
   -0.9846   21.5798  -22.7465 C   0  0  0  0  0  0  0  0  0  0  0  0
   -1.0162   21.3536  -19.4969 C   0  0  0  0  0  0  0  0  0  0  0  0
   -1.0336   20.5155  -20.6369 O   0  0  0  0  0  0  0  0  0  0  0  0
   -4.5186   24.5807  -23.1398 C   0  0  0  0  0  0  0  0  0  0  0  0
   -5.7727   24.4593  -22.4979 N   0  0  0  0  0  0  0  0  0  0  0  0
   -5.8789   24.8280  -21.1439 C   0  0  0  0  0  0  0  0  0  0  0  0
   -7.2300   24.5871  -20.5330 C   0  0  0  0  0  0  0  0  0  0  0  0
   -7.8243   23.3290  -20.8863 N   0  0  0  0  0  0  0  0  0  0  0  0
   -7.3442   22.6197  -22.0421 C   0  0  0  0  0  0  0  0  0  0  0  0
   -6.7125   23.5594  -23.0433 C   0  0  0  0  0  0  0  0  0  0  0  0
   -8.9140   22.8399  -20.1076 C   0  0  0  0  0  0  0  0  0  0  0  0
  -10.0895   23.5664  -20.2628 N   0  0  0  0  0  0  0  0  0  0  0  0
  -11.1606   23.2504  -19.5483 C   0  0  0  0  0  0  0  0  0  0  0  0
  -11.1731   22.2459  -18.6638 N   0  0  0  0  0  0  0  0  0  0  0  0
  -10.0635   21.5376  -18.4993 C   0  0  0  0  0  0  0  0  0  0  0  0
  -10.0097   20.4608  -17.5785 N   0  0  0  0  0  0  0  0  0  0  0  0
   -8.8838   21.8141  -19.2254 C   0  0  0  0  0  0  0  0  0  0  0  0
  -10.2235   19.4839  -17.8710 H   0  0  0  0  0  0  0  0  0  0  0  0
   -9.7549   20.5982  -16.5728 H   0  0  0  0  0  0  0  0  0  0  0  0
   -7.7290   20.9725  -19.0085 C   0  0  0  0  0  0  0  0  0  0  0  0
   -6.6257   21.3091  -18.2282 N   0  0  0  0  0  0  0  0  0  0  0  0
   -7.6693   19.8197  -19.5592 O   0  0  0  0  0  0  0  0  0  0  0  0
   -5.8163   21.8937  -18.5119 H   0  0  0  0  0  0  0  0  0  0  0  0
   -6.5722   20.9414  -17.2450 H   0  0  0  0  0  0  0  0  0  0  0  0
 23 24  1  0  0  0
 24 13  1  0  0  0
 13 14  2  0  0  0
 14 15  1  0  0  0
 15 16  1  0  0  0
 15 17  2  0  0  0
 17 18  1  0  0  0
 18 19  1  0  0  0
 19 20  2  0  0  0
 20 21  1  0  0  0
 21 22  1  0  0  0
 20  1  1  0  0  0
  1  2  1  0  0  0
  2 25  1  0  0  0
 25 26  1  0  0  0
 26 27  1  0  0  0
 27 28  1  0  0  0
 28 29  1  0  0  0
 29 30  1  0  0  0
 30 31  1  0  0  0
 29 32  1  0  0  0
 32 33  2  0  0  0
 33 34  1  0  0  0
 34 35  2  0  0  0
 35 36  1  0  0  0
 36 37  1  0  0  0
 36 38  2  0  0  0
 38 41  1  0  0  0
 41 42  1  0  0  0
 41 43  2  0  0  0
  2  3  2  0  0  0
  3  4  1  0  0  0
  4  5  1  0  0  0
  5  6  2  0  0  0
  6  7  1  0  0  0
  7  8  2  0  0  0
  8  9  1  0  0  0
  8 10  1  0  0  0
 22 13  1  0  0  0
 10  1  2  0  0  0
 22 18  2  0  0  0
 31 26  1  0  0  0
 38 32  1  0  0  0
 10  4  1  0  0  0
 37 39  1  0  0  0
 37 40  1  0  0  0
 42 44  1  0  0  0
 42 45  1  0  0  0
  9 11  1  0  0  0
  9 12  1  0  0  0
M  END
> <minimizedAffinity>
-9.09595

> <CNNscore>
0.0378565565

> <CNNaffinity>
6.5905714035

> <CNN_VS>
0.2494963408

> <CNNaffinity_variance>
0.1710854471

$$$$
[H]c1nc(N([H])[H])c2c(-c3sc4c(OC([H])([H])[H])c([H])c(C([H])([H])[H])c([H])c4c3[H])c(C([H])([H])N3C([H])([H])C([H])([H])OC([H])([H])C3([H])[H])c(C([H])([H])N3C([H])([H])C([H])([H])OC([H])([H])C3([H])[H])n2n1


 38 43  0  0  0  0  0  0  0  0999 V2000
   -2.0271   22.9457  -24.8676 C   0  0  0  0  0  0  0  0  0  0  0  0
   -3.3348   23.0783  -25.3704 C   0  0  0  0  0  0  0  0  0  0  0  0
   -3.2345   23.0048  -26.7436 C   0  0  0  0  0  0  0  0  0  0  0  0
   -1.9084   22.8764  -27.0883 N   0  0  0  0  0  0  0  0  0  0  0  0
   -1.3467   22.8807  -28.2709 N   0  0  0  0  0  0  0  0  0  0  0  0
   -0.0266   22.8628  -28.4433 C   0  0  0  0  0  0  0  0  0  0  0  0
    0.7421   22.8451  -27.3582 N   0  0  0  0  0  0  0  0  0  0  0  0
    0.2008   22.8428  -26.1273 C   0  0  0  0  0  0  0  0  0  0  0  0
    1.0740   23.0196  -25.0041 N   0  0  0  0  0  0  0  0  0  0  0  0
   -1.1811   22.8523  -25.9324 C   0  0  0  0  0  0  0  0  0  0  0  0
    1.8028   22.3394  -24.7513 H   0  0  0  0  0  0  0  0  0  0  0  0
    0.9421   23.8746  -24.4390 H   0  0  0  0  0  0  0  0  0  0  0  0
   -1.1223   21.9243  -19.5365 C   0  0  0  0  0  0  0  0  0  0  0  0
   -0.5496   20.7801  -19.0374 C   0  0  0  0  0  0  0  0  0  0  0  0
   -0.1506   19.8303  -19.9350 C   0  0  0  0  0  0  0  0  0  0  0  0
    0.5542   18.5978  -19.4100 C   0  0  0  0  0  0  0  0  0  0  0  0
   -0.3090   19.9996  -21.2773 C   0  0  0  0  0  0  0  0  0  0  0  0
   -0.8881   21.1527  -21.8156 C   0  0  0  0  0  0  0  0  0  0  0  0
   -1.0725   21.4277  -23.1155 C   0  0  0  0  0  0  0  0  0  0  0  0
   -1.6484   22.6805  -23.4542 C   0  0  0  0  0  0  0  0  0  0  0  0
   -1.8791   23.3341  -21.9302 S   0  0  0  0  0  0  0  0  0  0  0  0
   -1.2803   22.0944  -20.9147 C   0  0  0  0  0  0  0  0  0  0  0  0
   -2.6829   22.7200  -17.9120 C   0  0  0  0  0  0  0  0  0  0  0  0
   -1.5701   22.9463  -18.7378 O   0  0  0  0  0  0  0  0  0  0  0  0
   -4.4646   23.2631  -24.4324 C   0  0  0  0  0  0  0  0  0  0  0  0
   -5.4245   24.2400  -24.6701 N   0  0  0  0  0  0  0  0  0  0  0  0
   -6.6934   24.2993  -25.1132 C   0  0  0  0  0  0  0  0  0  0  0  0
   -7.6072   25.3115  -24.3660 C   0  0  0  0  0  0  0  0  0  0  0  0
   -6.8972   26.4161  -23.9774 O   0  0  0  0  0  0  0  0  0  0  0  0
   -5.8343   26.6633  -24.8357 C   0  0  0  0  0  0  0  0  0  0  0  0
   -4.7917   25.6082  -24.6246 C   0  0  0  0  0  0  0  0  0  0  0  0
   -4.3688   22.7309  -27.6574 C   0  0  0  0  0  0  0  0  0  0  0  0
   -4.7976   23.6301  -28.6081 N   0  0  0  0  0  0  0  0  0  0  0  0
   -5.1466   23.4166  -29.9197 C   0  0  0  0  0  0  0  0  0  0  0  0
   -5.8857   24.6521  -30.4408 C   0  0  0  0  0  0  0  0  0  0  0  0
   -6.4753   25.3820  -29.3832 O   0  0  0  0  0  0  0  0  0  0  0  0
   -5.5362   25.9119  -28.5330 C   0  0  0  0  0  0  0  0  0  0  0  0
   -4.3696   25.0011  -28.3670 C   0  0  0  0  0  0  0  0  0  0  0  0
 23 24  1  0  0  0
 24 13  1  0  0  0
 13 14  2  0  0  0
 14 15  1  0  0  0
 15 16  1  0  0  0
 15 17  2  0  0  0
 17 18  1  0  0  0
 18 19  1  0  0  0
 19 20  2  0  0  0
 20 21  1  0  0  0
 21 22  1  0  0  0
 20  1  1  0  0  0
  1  2  1  0  0  0
  2 25  1  0  0  0
 25 26  1  0  0  0
 26 27  1  0  0  0
 27 28  1  0  0  0
 28 29  1  0  0  0
 29 30  1  0  0  0
 30 31  1  0  0  0
  2  3  2  0  0  0
  3 32  1  0  0  0
 32 33  1  0  0  0
 33 34  1  0  0  0
 34 35  1  0  0  0
 35 36  1  0  0  0
 36 37  1  0  0  0
 37 38  1  0  0  0
  3  4  1  0  0  0
  4  5  1  0  0  0
  5  6  2  0  0  0
  6  7  1  0  0  0
  7  8  2  0  0  0
  8  9  1  0  0  0
  8 10  1  0  0  0
 22 13  1  0  0  0
 10  1  2  0  0  0
 22 18  2  0  0  0
 31 26  1  0  0  0
 38 33  1  0  0  0
 10  4  1  0  0  0
  9 11  1  0  0  0
  9 12  1  0  0  0
M  END
> <minimizedAffinity>
-9.32302

> <CNNscore>
0.8615225554

> <CNNaffinity>
7.8064827919

> <CNN_VS>
6.7254610062

> <CNNaffinity_variance>
0.0638466254

$$$$
[H]c1nc(N([H])[H])c2c(-c3sc4c(OC([H])([H])[H])c([H])c(C([H])([H])[H])c([H])c4c3[H])c(C([H])([H])N3C([H])([H])C([H])([H])OC([H])([H])C3([H])[H])c(C([H])([H])N3C([H])([H])C([H])([H])OC([H])([H])C3([H])[H])n2n1


 38 43  0  0  0  0  0  0  0  0999 V2000
   -2.9191   22.7809  -26.5151 C   0  0  0  0  0  0  0  0  0  0  0  0
   -3.5992   22.5228  -25.3105 C   0  0  0  0  0  0  0  0  0  0  0  0
   -2.6418   22.5008  -24.3184 C   0  0  0  0  0  0  0  0  0  0  0  0
   -1.4039   22.6930  -24.8882 N   0  0  0  0  0  0  0  0  0  0  0  0
   -0.2145   22.6392  -24.3438 N   0  0  0  0  0  0  0  0  0  0  0  0
    0.9088   22.7338  -25.0523 C   0  0  0  0  0  0  0  0  0  0  0  0
    0.8024   22.8843  -26.3694 N   0  0  0  0  0  0  0  0  0  0  0  0
   -0.4023   22.9412  -26.9638 C   0  0  0  0  0  0  0  0  0  0  0  0
   -0.4520   22.9081  -28.3962 N   0  0  0  0  0  0  0  0  0  0  0  0
   -1.5875   22.8522  -26.2322 C   0  0  0  0  0  0  0  0  0  0  0  0
   -0.0581   23.6531  -28.9857 H   0  0  0  0  0  0  0  0  0  0  0  0
   -0.9118   22.0904  -28.8296 H   0  0  0  0  0  0  0  0  0  0  0  0
   -5.6431   24.0641  -31.1211 C   0  0  0  0  0  0  0  0  0  0  0  0
   -5.9079   25.3408  -31.5528 C   0  0  0  0  0  0  0  0  0  0  0  0
   -5.4379   26.3746  -30.7928 C   0  0  0  0  0  0  0  0  0  0  0  0
   -5.6507   27.7874  -31.2928 C   0  0  0  0  0  0  0  0  0  0  0  0
   -4.7317   26.1605  -29.6478 C   0  0  0  0  0  0  0  0  0  0  0  0
   -4.4462   24.8733  -29.1828 C   0  0  0  0  0  0  0  0  0  0  0  0
   -3.7459   24.5526  -28.0846 C   0  0  0  0  0  0  0  0  0  0  0  0
   -3.5363   23.1755  -27.8093 C   0  0  0  0  0  0  0  0  0  0  0  0
   -4.3428   22.4783  -29.1002 S   0  0  0  0  0  0  0  0  0  0  0  0
   -4.9158   23.8498  -29.9471 C   0  0  0  0  0  0  0  0  0  0  0  0
   -7.1567   23.0564  -32.6707 C   0  0  0  0  0  0  0  0  0  0  0  0
   -6.0674   22.9448  -31.7919 O   0  0  0  0  0  0  0  0  0  0  0  0
   -5.0668   22.3318  -25.3247 C   0  0  0  0  0  0  0  0  0  0  0  0
   -5.9137   23.3529  -24.9097 N   0  0  0  0  0  0  0  0  0  0  0  0
   -6.3083   23.9064  -23.7487 C   0  0  0  0  0  0  0  0  0  0  0  0
   -6.4436   25.4554  -23.7677 C   0  0  0  0  0  0  0  0  0  0  0  0
   -6.8759   25.8929  -24.9911 O   0  0  0  0  0  0  0  0  0  0  0  0
   -7.6597   24.9372  -25.6235 C   0  0  0  0  0  0  0  0  0  0  0  0
   -6.7789   23.8060  -26.0588 C   0  0  0  0  0  0  0  0  0  0  0  0
   -2.9272   22.6282  -22.8697 C   0  0  0  0  0  0  0  0  0  0  0  0
   -2.2087   21.9595  -21.9039 N   0  0  0  0  0  0  0  0  0  0  0  0
   -1.3333   20.9087  -22.0355 C   0  0  0  0  0  0  0  0  0  0  0  0
   -0.5353   20.7658  -20.7367 C   0  0  0  0  0  0  0  0  0  0  0  0
   -0.4907   21.9864  -20.0245 O   0  0  0  0  0  0  0  0  0  0  0  0
   -1.7329   22.3780  -19.5895 C   0  0  0  0  0  0  0  0  0  0  0  0
   -2.7950   22.0260  -20.5725 C   0  0  0  0  0  0  0  0  0  0  0  0
 23 24  1  0  0  0
 24 13  1  0  0  0
 13 14  2  0  0  0
 14 15  1  0  0  0
 15 16  1  0  0  0
 15 17  2  0  0  0
 17 18  1  0  0  0
 18 19  1  0  0  0
 19 20  2  0  0  0
 20 21  1  0  0  0
 21 22  1  0  0  0
 20  1  1  0  0  0
  1  2  1  0  0  0
  2 25  1  0  0  0
 25 26  1  0  0  0
 26 27  1  0  0  0
 27 28  1  0  0  0
 28 29  1  0  0  0
 29 30  1  0  0  0
 30 31  1  0  0  0
  2  3  2  0  0  0
  3 32  1  0  0  0
 32 33  1  0  0  0
 33 34  1  0  0  0
 34 35  1  0  0  0
 35 36  1  0  0  0
 36 37  1  0  0  0
 37 38  1  0  0  0
  3  4  1  0  0  0
  4  5  1  0  0  0
  5  6  2  0  0  0
  6  7  1  0  0  0
  7  8  2  0  0  0
  8  9  1  0  0  0
  8 10  1  0  0  0
 22 13  1  0  0  0
 10  1  2  0  0  0
 22 18  2  0  0  0
 31 26  1  0  0  0
 38 33  1  0  0  0
 10  4  1  0  0  0
  9 11  1  0  0  0
  9 12  1  0  0  0
M  END
> <minimizedAffinity>
-7.13210

> <CNNscore>
0.7287559509

> <CNNaffinity>
7.9386267662

> <CNN_VS>
5.7853217125

> <CNNaffinity_variance>
0.1842207909

$$$$
[H]c1nc(N([H])[H])c2c(-c3sc4c(OC([H])([H])[H])c([H])c(C([H])([H])[H])c([H])c4c3[H])c(C([H])([H])N3C([H])([H])C([H])([H])OC([H])([H])C3([H])[H])c(C([H])([H])N3C([H])([H])C([H])([H])OC([H])([H])C3([H])[H])n2n1


 38 43  0  0  0  0  0  0  0  0999 V2000
   -2.1740   22.4515  -24.6729 C   0  0  0  0  0  0  0  0  0  0  0  0
   -3.4587   22.6949  -25.1933 C   0  0  0  0  0  0  0  0  0  0  0  0
   -3.3038   22.8632  -26.5531 C   0  0  0  0  0  0  0  0  0  0  0  0
   -1.9663   22.7734  -26.8646 N   0  0  0  0  0  0  0  0  0  0  0  0
   -1.3573   22.9761  -28.0057 N   0  0  0  0  0  0  0  0  0  0  0  0
   -0.0315   22.9647  -28.1285 C   0  0  0  0  0  0  0  0  0  0  0  0
    0.6923   22.7414  -27.0354 N   0  0  0  0  0  0  0  0  0  0  0  0
    0.1017   22.5318  -25.8458 C   0  0  0  0  0  0  0  0  0  0  0  0
    0.9307   22.4913  -24.6768 N   0  0  0  0  0  0  0  0  0  0  0  0
   -1.2868   22.5322  -25.7047 C   0  0  0  0  0  0  0  0  0  0  0  0
    1.6408   21.7639  -24.5212 H   0  0  0  0  0  0  0  0  0  0  0  0
    0.7858   23.2353  -23.9745 H   0  0  0  0  0  0  0  0  0  0  0  0
   -0.5485   20.7719  -19.6911 C   0  0  0  0  0  0  0  0  0  0  0  0
   -1.0838   21.1978  -18.5001 C   0  0  0  0  0  0  0  0  0  0  0  0
   -2.1171   22.0900  -18.5554 C   0  0  0  0  0  0  0  0  0  0  0  0
   -2.7724   22.5106  -17.2573 C   0  0  0  0  0  0  0  0  0  0  0  0
   -2.6075   22.5479  -19.7410 C   0  0  0  0  0  0  0  0  0  0  0  0
   -2.0840   22.1332  -20.9692 C   0  0  0  0  0  0  0  0  0  0  0  0
   -2.5032   22.5047  -22.1881 C   0  0  0  0  0  0  0  0  0  0  0  0
   -1.8559   21.9339  -23.3156 C   0  0  0  0  0  0  0  0  0  0  0  0
   -0.7307   20.9520  -22.5589 S   0  0  0  0  0  0  0  0  0  0  0  0
   -1.0569   21.2426  -20.9049 C   0  0  0  0  0  0  0  0  0  0  0  0
    1.8080   20.3788  -19.6989 C   0  0  0  0  0  0  0  0  0  0  0  0
    0.4955   19.8847  -19.7671 O   0  0  0  0  0  0  0  0  0  0  0  0
   -4.6234   22.7319  -24.2808 C   0  0  0  0  0  0  0  0  0  0  0  0
   -5.2036   23.9449  -23.9286 N   0  0  0  0  0  0  0  0  0  0  0  0
   -4.9048   25.2534  -24.0214 C   0  0  0  0  0  0  0  0  0  0  0  0
   -6.0997   26.1794  -24.3857 C   0  0  0  0  0  0  0  0  0  0  0  0
   -7.2638   25.7143  -23.8348 O   0  0  0  0  0  0  0  0  0  0  0  0
   -7.0245   25.0140  -22.6601 C   0  0  0  0  0  0  0  0  0  0  0  0
   -6.3712   23.7101  -23.0034 C   0  0  0  0  0  0  0  0  0  0  0  0
   -4.4032   22.7760  -27.5431 C   0  0  0  0  0  0  0  0  0  0  0  0
   -4.7710   23.8314  -28.3476 N   0  0  0  0  0  0  0  0  0  0  0  0
   -4.8994   23.8861  -29.7144 C   0  0  0  0  0  0  0  0  0  0  0  0
   -5.6688   25.1563  -30.0871 C   0  0  0  0  0  0  0  0  0  0  0  0
   -6.4765   25.6007  -29.0152 O   0  0  0  0  0  0  0  0  0  0  0  0
   -5.7295   25.9914  -27.9312 C   0  0  0  0  0  0  0  0  0  0  0  0
   -4.5180   25.1414  -27.7641 C   0  0  0  0  0  0  0  0  0  0  0  0
 23 24  1  0  0  0
 24 13  1  0  0  0
 13 14  2  0  0  0
 14 15  1  0  0  0
 15 16  1  0  0  0
 15 17  2  0  0  0
 17 18  1  0  0  0
 18 19  1  0  0  0
 19 20  2  0  0  0
 20 21  1  0  0  0
 21 22  1  0  0  0
 20  1  1  0  0  0
  1  2  1  0  0  0
  2 25  1  0  0  0
 25 26  1  0  0  0
 26 27  1  0  0  0
 27 28  1  0  0  0
 28 29  1  0  0  0
 29 30  1  0  0  0
 30 31  1  0  0  0
  2  3  2  0  0  0
  3 32  1  0  0  0
 32 33  1  0  0  0
 33 34  1  0  0  0
 34 35  1  0  0  0
 35 36  1  0  0  0
 36 37  1  0  0  0
 37 38  1  0  0  0
  3  4  1  0  0  0
  4  5  1  0  0  0
  5  6  2  0  0  0
  6  7  1  0  0  0
  7  8  2  0  0  0
  8  9  1  0  0  0
  8 10  1  0  0  0
 22 13  1  0  0  0
 10  1  2  0  0  0
 22 18  2  0  0  0
 31 26  1  0  0  0
 38 33  1  0  0  0
 10  4  1  0  0  0
  9 11  1  0  0  0
  9 12  1  0  0  0
M  END
> <minimizedAffinity>
-8.69034

> <CNNscore>
0.7123509049

> <CNNaffinity>
7.5907850266

> <CNN_VS>
5.4073023796

> <CNNaffinity_variance>
0.0759289116

$$$$
[H]c1nc(N([H])[H])c2c(-c3sc4c(OC([H])([H])[H])c([H])c(C([H])([H])[H])c([H])c4c3[H])c(C([H])([H])N3C([H])([H])C([H])([H])OC([H])([H])C3([H])[H])c(C([H])([H])N3C([H])([H])C([H])([H])OC([H])([H])C3([H])[H])n2n1


 38 43  0  0  0  0  0  0  0  0999 V2000
   -1.7878   22.6750  -24.2688 C   0  0  0  0  0  0  0  0  0  0  0  0
   -3.1316   22.9471  -24.5858 C   0  0  0  0  0  0  0  0  0  0  0  0
   -3.2027   23.0138  -25.9612 C   0  0  0  0  0  0  0  0  0  0  0  0
   -1.9417   22.8350  -26.4827 N   0  0  0  0  0  0  0  0  0  0  0  0
   -1.5271   22.9278  -27.7210 N   0  0  0  0  0  0  0  0  0  0  0  0
   -0.2428   22.8407  -28.0609 C   0  0  0  0  0  0  0  0  0  0  0  0
    0.6465   22.6563  -27.0893 N   0  0  0  0  0  0  0  0  0  0  0  0
    0.2581   22.5590  -25.8058 C   0  0  0  0  0  0  0  0  0  0  0  0
    1.2707   22.5566  -24.7909 N   0  0  0  0  0  0  0  0  0  0  0  0
   -1.0855   22.6396  -25.4366 C   0  0  0  0  0  0  0  0  0  0  0  0
    1.9683   21.8064  -24.7004 H   0  0  0  0  0  0  0  0  0  0  0  0
    1.2755   23.3534  -24.1330 H   0  0  0  0  0  0  0  0  0  0  0  0
   -0.3320   21.0642  -19.2123 C   0  0  0  0  0  0  0  0  0  0  0  0
    0.1405   19.8166  -18.8860 C   0  0  0  0  0  0  0  0  0  0  0  0
    0.2838   18.9108  -19.8989 C   0  0  0  0  0  0  0  0  0  0  0  0
    0.8773   17.5571  -19.5724 C   0  0  0  0  0  0  0  0  0  0  0  0
   -0.0267   19.2209  -21.1885 C   0  0  0  0  0  0  0  0  0  0  0  0
   -0.5094   20.4817  -21.5519 C   0  0  0  0  0  0  0  0  0  0  0  0
   -0.8252   20.8955  -22.7882 C   0  0  0  0  0  0  0  0  0  0  0  0
   -1.2648   22.2361  -22.9477 C   0  0  0  0  0  0  0  0  0  0  0  0
   -1.2002   22.7709  -21.3625 S   0  0  0  0  0  0  0  0  0  0  0  0
   -0.6466   21.3784  -20.5373 C   0  0  0  0  0  0  0  0  0  0  0  0
    0.5958   22.6472  -17.6823 C   0  0  0  0  0  0  0  0  0  0  0  0
   -0.5265   22.0565  -18.2847 O   0  0  0  0  0  0  0  0  0  0  0  0
   -4.1229   23.1056  -23.4981 C   0  0  0  0  0  0  0  0  0  0  0  0
   -4.9074   24.2506  -23.4220 N   0  0  0  0  0  0  0  0  0  0  0  0
   -4.8595   25.5193  -23.8669 C   0  0  0  0  0  0  0  0  0  0  0  0
   -6.2158   26.0975  -24.3611 C   0  0  0  0  0  0  0  0  0  0  0  0
   -7.2564   25.6018  -23.6220 O   0  0  0  0  0  0  0  0  0  0  0  0
   -6.8565   25.2880  -22.3300 C   0  0  0  0  0  0  0  0  0  0  0  0
   -5.9830   24.0717  -22.3802 C   0  0  0  0  0  0  0  0  0  0  0  0
   -4.4563   22.9149  -26.7455 C   0  0  0  0  0  0  0  0  0  0  0  0
   -4.8214   23.8451  -27.6930 N   0  0  0  0  0  0  0  0  0  0  0  0
   -4.7238   25.2151  -27.6569 C   0  0  0  0  0  0  0  0  0  0  0  0
   -4.9251   25.7613  -29.0731 C   0  0  0  0  0  0  0  0  0  0  0  0
   -4.6083   24.7884  -30.0487 O   0  0  0  0  0  0  0  0  0  0  0  0
   -5.4597   23.7120  -30.0023 C   0  0  0  0  0  0  0  0  0  0  0  0
   -5.8616   23.3897  -28.6048 C   0  0  0  0  0  0  0  0  0  0  0  0
 23 24  1  0  0  0
 24 13  1  0  0  0
 13 14  2  0  0  0
 14 15  1  0  0  0
 15 16  1  0  0  0
 15 17  2  0  0  0
 17 18  1  0  0  0
 18 19  1  0  0  0
 19 20  2  0  0  0
 20 21  1  0  0  0
 21 22  1  0  0  0
 20  1  1  0  0  0
  1  2  1  0  0  0
  2 25  1  0  0  0
 25 26  1  0  0  0
 26 27  1  0  0  0
 27 28  1  0  0  0
 28 29  1  0  0  0
 29 30  1  0  0  0
 30 31  1  0  0  0
  2  3  2  0  0  0
  3 32  1  0  0  0
 32 33  1  0  0  0
 33 34  1  0  0  0
 34 35  1  0  0  0
 35 36  1  0  0  0
 36 37  1  0  0  0
 37 38  1  0  0  0
  3  4  1  0  0  0
  4  5  1  0  0  0
  5  6  2  0  0  0
  6  7  1  0  0  0
  7  8  2  0  0  0
  8  9  1  0  0  0
  8 10  1  0  0  0
 22 13  1  0  0  0
 10  1  2  0  0  0
 22 18  2  0  0  0
 31 26  1  0  0  0
 38 33  1  0  0  0
 10  4  1  0  0  0
  9 11  1  0  0  0
  9 12  1  0  0  0
M  END
> <minimizedAffinity>
-8.48934

> <CNNscore>
0.5831321478

> <CNNaffinity>
7.3616991043

> <CNN_VS>
4.2928433418

> <CNNaffinity_variance>
0.0484221727

$$$$
[H]c1nc(N([H])[H])c2c(-c3sc4c(OC([H])([H])[H])c([H])c(C([H])([H])[H])c([H])c4c3[H])c(C([H])([H])N3C([H])([H])C([H])([H])OC([H])([H])C3([H])[H])c(C([H])([H])N3C([H])([H])C([H])([H])OC([H])([H])C3([H])[H])n2n1


 38 43  0  0  0  0  0  0  0  0999 V2000
   -2.3502   22.1720  -24.3021 C   0  0  0  0  0  0  0  0  0  0  0  0
   -2.7547   21.5255  -23.1194 C   0  0  0  0  0  0  0  0  0  0  0  0
   -1.6007   21.1332  -22.4746 C   0  0  0  0  0  0  0  0  0  0  0  0
   -0.5168   21.4814  -23.2476 N   0  0  0  0  0  0  0  0  0  0  0  0
    0.7530   21.2102  -23.0795 N   0  0  0  0  0  0  0  0  0  0  0  0
    1.6827   21.5186  -23.9812 C   0  0  0  0  0  0  0  0  0  0  0  0
    1.2892   22.1236  -25.0983 N   0  0  0  0  0  0  0  0  0  0  0  0
   -0.0067   22.4155  -25.3069 C   0  0  0  0  0  0  0  0  0  0  0  0
   -0.3933   22.8876  -26.6042 N   0  0  0  0  0  0  0  0  0  0  0  0
   -0.9902   22.1060  -24.3663 C   0  0  0  0  0  0  0  0  0  0  0  0
   -0.0662   23.7817  -26.9931 H   0  0  0  0  0  0  0  0  0  0  0  0
   -1.0316   22.2855  -27.1501 H   0  0  0  0  0  0  0  0  0  0  0  0
   -5.1104   25.5848  -27.6212 C   0  0  0  0  0  0  0  0  0  0  0  0
   -5.5170   25.2872  -28.8990 C   0  0  0  0  0  0  0  0  0  0  0  0
   -5.2362   24.0381  -29.3762 C   0  0  0  0  0  0  0  0  0  0  0  0
   -5.7450   23.6643  -30.7520 C   0  0  0  0  0  0  0  0  0  0  0  0
   -4.5783   23.1131  -28.6231 C   0  0  0  0  0  0  0  0  0  0  0  0
   -4.1520   23.3859  -27.3198 C   0  0  0  0  0  0  0  0  0  0  0  0
   -3.5173   22.5451  -26.4894 C   0  0  0  0  0  0  0  0  0  0  0  0
   -3.2040   23.0104  -25.1850 C   0  0  0  0  0  0  0  0  0  0  0  0
   -3.8167   24.5667  -25.2591 S   0  0  0  0  0  0  0  0  0  0  0  0
   -4.4381   24.6314  -26.8516 C   0  0  0  0  0  0  0  0  0  0  0  0
   -5.9743   26.8501  -25.7881 C   0  0  0  0  0  0  0  0  0  0  0  0
   -5.3263   26.8055  -27.0329 O   0  0  0  0  0  0  0  0  0  0  0  0
   -4.1969   21.3888  -22.8161 C   0  0  0  0  0  0  0  0  0  0  0  0
   -4.9231   22.4759  -22.3437 N   0  0  0  0  0  0  0  0  0  0  0  0
   -4.7820   23.4356  -21.4115 C   0  0  0  0  0  0  0  0  0  0  0  0
   -5.2699   24.8487  -21.8394 C   0  0  0  0  0  0  0  0  0  0  0  0
   -6.3592   24.7603  -22.6644 O   0  0  0  0  0  0  0  0  0  0  0  0
   -7.1043   23.6190  -22.3998 C   0  0  0  0  0  0  0  0  0  0  0  0
   -6.3346   22.4234  -22.8720 C   0  0  0  0  0  0  0  0  0  0  0  0
   -1.5231   20.7522  -21.0444 C   0  0  0  0  0  0  0  0  0  0  0  0
   -1.7710   21.6381  -20.0197 N   0  0  0  0  0  0  0  0  0  0  0  0
   -2.7912   21.6481  -19.0995 C   0  0  0  0  0  0  0  0  0  0  0  0
   -2.4256   22.6127  -17.9681 C   0  0  0  0  0  0  0  0  0  0  0  0
   -1.0254   22.7831  -17.8708 O   0  0  0  0  0  0  0  0  0  0  0  0
   -0.4987   23.3896  -18.9845 C   0  0  0  0  0  0  0  0  0  0  0  0
   -1.2011   22.9623  -20.2263 C   0  0  0  0  0  0  0  0  0  0  0  0
 23 24  1  0  0  0
 24 13  1  0  0  0
 13 14  2  0  0  0
 14 15  1  0  0  0
 15 16  1  0  0  0
 15 17  2  0  0  0
 17 18  1  0  0  0
 18 19  1  0  0  0
 19 20  2  0  0  0
 20 21  1  0  0  0
 21 22  1  0  0  0
 20  1  1  0  0  0
  1  2  1  0  0  0
  2 25  1  0  0  0
 25 26  1  0  0  0
 26 27  1  0  0  0
 27 28  1  0  0  0
 28 29  1  0  0  0
 29 30  1  0  0  0
 30 31  1  0  0  0
  2  3  2  0  0  0
  3 32  1  0  0  0
 32 33  1  0  0  0
 33 34  1  0  0  0
 34 35  1  0  0  0
 35 36  1  0  0  0
 36 37  1  0  0  0
 37 38  1  0  0  0
  3  4  1  0  0  0
  4  5  1  0  0  0
  5  6  2  0  0  0
  6  7  1  0  0  0
  7  8  2  0  0  0
  8  9  1  0  0  0
  8 10  1  0  0  0
 22 13  1  0  0  0
 10  1  2  0  0  0
 22 18  2  0  0  0
 31 26  1  0  0  0
 38 33  1  0  0  0
 10  4  1  0  0  0
  9 11  1  0  0  0
  9 12  1  0  0  0
M  END
> <minimizedAffinity>
-8.40524

> <CNNscore>
0.4980072081

> <CNNaffinity>
7.2733144760

> <CNN_VS>
3.6221630573

> <CNNaffinity_variance>
0.1669796705

$$$$
[H]c1nc(N([H])[H])c2c(-c3sc4c(OC([H])([H])[H])c([H])c(C([H])([H])[H])c([H])c4c3[H])c(C([H])([H])N3C([H])([H])C([H])([H])OC([H])([H])C3([H])[H])c(C([H])([H])N3C([H])([H])C([H])([H])OC([H])([H])C3([H])[H])n2n1


 38 43  0  0  0  0  0  0  0  0999 V2000
   -1.5979   22.6445  -23.3307 C   0  0  0  0  0  0  0  0  0  0  0  0
   -2.9039   23.1616  -23.4177 C   0  0  0  0  0  0  0  0  0  0  0  0
   -3.2043   23.2397  -24.7611 C   0  0  0  0  0  0  0  0  0  0  0  0
   -2.1102   22.8294  -25.4880 N   0  0  0  0  0  0  0  0  0  0  0  0
   -1.9120   22.8430  -26.7821 N   0  0  0  0  0  0  0  0  0  0  0  0
   -0.7463   22.5185  -27.3374 C   0  0  0  0  0  0  0  0  0  0  0  0
    0.2522   22.1724  -26.5300 N   0  0  0  0  0  0  0  0  0  0  0  0
    0.0865   22.1495  -25.1959 C   0  0  0  0  0  0  0  0  0  0  0  0
    1.2454   21.9594  -24.3735 N   0  0  0  0  0  0  0  0  0  0  0  0
   -1.1324   22.4787  -24.6012 C   0  0  0  0  0  0  0  0  0  0  0  0
    1.7988   21.0926  -24.3809 H   0  0  0  0  0  0  0  0  0  0  0  0
    1.5125   22.7417  -23.7534 H   0  0  0  0  0  0  0  0  0  0  0  0
    0.4001   20.7568  -18.5635 C   0  0  0  0  0  0  0  0  0  0  0  0
    0.7634   19.4549  -18.3193 C   0  0  0  0  0  0  0  0  0  0  0  0
    0.6427   18.5623  -19.3467 C   0  0  0  0  0  0  0  0  0  0  0  0
    1.1120   17.1409  -19.1213 C   0  0  0  0  0  0  0  0  0  0  0  0
    0.1807   18.9366  -20.5723 C   0  0  0  0  0  0  0  0  0  0  0  0
   -0.1966   20.2536  -20.8516 C   0  0  0  0  0  0  0  0  0  0  0  0
   -0.6434   20.7302  -22.0231 C   0  0  0  0  0  0  0  0  0  0  0  0
   -0.9381   22.1166  -22.1070 C   0  0  0  0  0  0  0  0  0  0  0  0
   -0.5714   22.6032  -20.5477 S   0  0  0  0  0  0  0  0  0  0  0  0
   -0.0707   21.1364  -19.8235 C   0  0  0  0  0  0  0  0  0  0  0  0
    1.6902   22.4050  -17.4117 C   0  0  0  0  0  0  0  0  0  0  0  0
    0.4682   21.7433  -17.6122 O   0  0  0  0  0  0  0  0  0  0  0  0
   -3.6404   23.5021  -22.1798 C   0  0  0  0  0  0  0  0  0  0  0  0
   -4.4810   22.5703  -21.5819 N   0  0  0  0  0  0  0  0  0  0  0  0
   -4.3608   21.4139  -20.9050 C   0  0  0  0  0  0  0  0  0  0  0  0
   -5.3308   21.2497  -19.7007 C   0  0  0  0  0  0  0  0  0  0  0  0
   -6.5369   21.8436  -19.9605 O   0  0  0  0  0  0  0  0  0  0  0  0
   -6.8199   21.8433  -21.3198 C   0  0  0  0  0  0  0  0  0  0  0  0
   -5.9085   22.8190  -21.9998 C   0  0  0  0  0  0  0  0  0  0  0  0
   -4.5739   23.3753  -25.3112 C   0  0  0  0  0  0  0  0  0  0  0  0
   -5.1738   24.5948  -25.5326 N   0  0  0  0  0  0  0  0  0  0  0  0
   -5.3877   25.6355  -24.6614 C   0  0  0  0  0  0  0  0  0  0  0  0
   -5.7581   26.8843  -25.4662 C   0  0  0  0  0  0  0  0  0  0  0  0
   -5.2644   26.8080  -26.7888 O   0  0  0  0  0  0  0  0  0  0  0  0
   -5.8477   25.7895  -27.5015 C   0  0  0  0  0  0  0  0  0  0  0  0
   -6.1158   24.6023  -26.6432 C   0  0  0  0  0  0  0  0  0  0  0  0
 23 24  1  0  0  0
 24 13  1  0  0  0
 13 14  2  0  0  0
 14 15  1  0  0  0
 15 16  1  0  0  0
 15 17  2  0  0  0
 17 18  1  0  0  0
 18 19  1  0  0  0
 19 20  2  0  0  0
 20 21  1  0  0  0
 21 22  1  0  0  0
 20  1  1  0  0  0
  1  2  1  0  0  0
  2 25  1  0  0  0
 25 26  1  0  0  0
 26 27  1  0  0  0
 27 28  1  0  0  0
 28 29  1  0  0  0
 29 30  1  0  0  0
 30 31  1  0  0  0
  2  3  2  0  0  0
  3 32  1  0  0  0
 32 33  1  0  0  0
 33 34  1  0  0  0
 34 35  1  0  0  0
 35 36  1  0  0  0
 36 37  1  0  0  0
 37 38  1  0  0  0
  3  4  1  0  0  0
  4  5  1  0  0  0
  5  6  2  0  0  0
  6  7  1  0  0  0
  7  8  2  0  0  0
  8  9  1  0  0  0
  8 10  1  0  0  0
 22 13  1  0  0  0
 10  1  2  0  0  0
 22 18  2  0  0  0
 31 26  1  0  0  0
 38 33  1  0  0  0
 10  4  1  0  0  0
  9 11  1  0  0  0
  9 12  1  0  0  0
M  END
> <minimizedAffinity>
-7.77464

> <CNNscore>
0.3526335359

> <CNNaffinity>
7.0284385681

> <CNN_VS>
2.4784631729

> <CNNaffinity_variance>
0.0525111668

$$$$
[H]c1nc(N([H])[H])c2c(-c3sc4c(OC([H])([H])[H])c([H])c(C([H])([H])[H])c([H])c4c3[H])c(C([H])([H])N3C([H])([H])C([H])([H])OC([H])([H])C3([H])[H])c(C([H])([H])N3C([H])([H])C([H])([H])OC([H])([H])C3([H])[H])n2n1


 38 43  0  0  0  0  0  0  0  0999 V2000
   -1.5373   21.9003  -23.3237 C   0  0  0  0  0  0  0  0  0  0  0  0
   -2.9041   22.2100  -23.4511 C   0  0  0  0  0  0  0  0  0  0  0  0
   -3.1375   22.4013  -24.7965 C   0  0  0  0  0  0  0  0  0  0  0  0
   -1.9512   22.2610  -25.4799 N   0  0  0  0  0  0  0  0  0  0  0  0
   -1.6857   22.4623  -26.7460 N   0  0  0  0  0  0  0  0  0  0  0  0
   -0.4529   22.3966  -27.2445 C   0  0  0  0  0  0  0  0  0  0  0  0
    0.5424   22.1185  -26.4074 N   0  0  0  0  0  0  0  0  0  0  0  0
    0.3081   21.9083  -25.1001 C   0  0  0  0  0  0  0  0  0  0  0  0
    1.4344   21.8066  -24.2189 N   0  0  0  0  0  0  0  0  0  0  0  0
   -0.9801   21.9653  -24.5661 C   0  0  0  0  0  0  0  0  0  0  0  0
    2.1240   21.0461  -24.2801 H   0  0  0  0  0  0  0  0  0  0  0  0
    1.5323   22.5406  -23.4981 H   0  0  0  0  0  0  0  0  0  0  0  0
    1.3478   19.7537  -19.1583 C   0  0  0  0  0  0  0  0  0  0  0  0
    1.7894   20.4514  -18.0608 C   0  0  0  0  0  0  0  0  0  0  0  0
    1.4672   21.7771  -17.9837 C   0  0  0  0  0  0  0  0  0  0  0  0
    1.8765   22.5442  -16.7447 C   0  0  0  0  0  0  0  0  0  0  0  0
    0.7359   22.3955  -18.9524 C   0  0  0  0  0  0  0  0  0  0  0  0
    0.2724   21.7125  -20.0808 C   0  0  0  0  0  0  0  0  0  0  0  0
   -0.4679   22.2183  -21.0786 C   0  0  0  0  0  0  0  0  0  0  0  0
   -0.8686   21.3397  -22.1195 C   0  0  0  0  0  0  0  0  0  0  0  0
   -0.1652   19.9110  -21.6029 S   0  0  0  0  0  0  0  0  0  0  0  0
    0.5956   20.3922  -20.1482 C   0  0  0  0  0  0  0  0  0  0  0  0
    0.7663   17.4707  -18.7613 C   0  0  0  0  0  0  0  0  0  0  0  0
    1.6126   18.4215  -19.3539 O   0  0  0  0  0  0  0  0  0  0  0  0
   -3.7554   22.2770  -22.2422 C   0  0  0  0  0  0  0  0  0  0  0  0
   -4.5298   23.4029  -21.9879 N   0  0  0  0  0  0  0  0  0  0  0  0
   -4.6729   24.6439  -22.4874 C   0  0  0  0  0  0  0  0  0  0  0  0
   -6.1388   25.1552  -22.5759 C   0  0  0  0  0  0  0  0  0  0  0  0
   -6.8869   24.6764  -21.5337 O   0  0  0  0  0  0  0  0  0  0  0  0
   -6.1042   24.4506  -20.4094 C   0  0  0  0  0  0  0  0  0  0  0  0
   -5.2341   23.2573  -20.6624 C   0  0  0  0  0  0  0  0  0  0  0  0
   -4.4774   22.3833  -25.4297 C   0  0  0  0  0  0  0  0  0  0  0  0
   -5.0707   23.5083  -25.9575 N   0  0  0  0  0  0  0  0  0  0  0  0
   -6.3417   23.6770  -26.4514 C   0  0  0  0  0  0  0  0  0  0  0  0
   -6.6253   25.1760  -26.5814 C   0  0  0  0  0  0  0  0  0  0  0  0
   -5.8147   25.9302  -25.7023 O   0  0  0  0  0  0  0  0  0  0  0  0
   -4.4813   25.8336  -26.0159 C   0  0  0  0  0  0  0  0  0  0  0  0
   -4.1309   24.4733  -26.5109 C   0  0  0  0  0  0  0  0  0  0  0  0
 23 24  1  0  0  0
 24 13  1  0  0  0
 13 14  2  0  0  0
 14 15  1  0  0  0
 15 16  1  0  0  0
 15 17  2  0  0  0
 17 18  1  0  0  0
 18 19  1  0  0  0
 19 20  2  0  0  0
 20 21  1  0  0  0
 21 22  1  0  0  0
 20  1  1  0  0  0
  1  2  1  0  0  0
  2 25  1  0  0  0
 25 26  1  0  0  0
 26 27  1  0  0  0
 27 28  1  0  0  0
 28 29  1  0  0  0
 29 30  1  0  0  0
 30 31  1  0  0  0
  2  3  2  0  0  0
  3 32  1  0  0  0
 32 33  1  0  0  0
 33 34  1  0  0  0
 34 35  1  0  0  0
 35 36  1  0  0  0
 36 37  1  0  0  0
 37 38  1  0  0  0
  3  4  1  0  0  0
  4  5  1  0  0  0
  5  6  2  0  0  0
  6  7  1  0  0  0
  7  8  2  0  0  0
  8  9  1  0  0  0
  8 10  1  0  0  0
 22 13  1  0  0  0
 10  1  2  0  0  0
 22 18  2  0  0  0
 31 26  1  0  0  0
 38 33  1  0  0  0
 10  4  1  0  0  0
  9 11  1  0  0  0
  9 12  1  0  0  0
M  END
> <minimizedAffinity>
-7.80287

> <CNNscore>
0.3147614598

> <CNNaffinity>
6.9035630226

> <CNN_VS>
2.1729755402

> <CNNaffinity_variance>
0.0389009789

$$$$
[H]c1nc(N([H])[H])c2c(-c3sc4c(OC([H])([H])[H])c([H])c(C([H])([H])[H])c([H])c4c3[H])c(C([H])([H])N3C([H])([H])C([H])([H])OC([H])([H])C3([H])[H])c(C([H])([H])N3C([H])([H])C([H])([H])OC([H])([H])C3([H])[H])n2n1


 38 43  0  0  0  0  0  0  0  0999 V2000
   -2.0560   22.0798  -23.5278 C   0  0  0  0  0  0  0  0  0  0  0  0
   -2.4877   21.5081  -22.3165 C   0  0  0  0  0  0  0  0  0  0  0  0
   -1.3536   21.0731  -21.6640 C   0  0  0  0  0  0  0  0  0  0  0  0
   -0.2578   21.3228  -22.4583 N   0  0  0  0  0  0  0  0  0  0  0  0
    0.9947   20.9821  -22.2877 N   0  0  0  0  0  0  0  0  0  0  0  0
    1.9329   21.1963  -23.2078 C   0  0  0  0  0  0  0  0  0  0  0  0
    1.5662   21.7778  -24.3462 N   0  0  0  0  0  0  0  0  0  0  0  0
    0.2885   22.1392  -24.5579 C   0  0  0  0  0  0  0  0  0  0  0  0
   -0.0811   22.5803  -25.8710 N   0  0  0  0  0  0  0  0  0  0  0  0
   -0.7031   21.9287  -23.5985 C   0  0  0  0  0  0  0  0  0  0  0  0
    0.2958   23.4362  -26.2988 H   0  0  0  0  0  0  0  0  0  0  0  0
   -0.7596   21.9962  -26.3870 H   0  0  0  0  0  0  0  0  0  0  0  0
   -4.6356   25.5144  -26.9675 C   0  0  0  0  0  0  0  0  0  0  0  0
   -5.0737   25.1890  -28.2279 C   0  0  0  0  0  0  0  0  0  0  0  0
   -4.8760   23.9057  -28.6534 C   0  0  0  0  0  0  0  0  0  0  0  0
   -5.4221   23.5064  -30.0075 C   0  0  0  0  0  0  0  0  0  0  0  0
   -4.2685   22.9741  -27.8667 C   0  0  0  0  0  0  0  0  0  0  0  0
   -3.8120   23.2748  -26.5799 C   0  0  0  0  0  0  0  0  0  0  0  0
   -3.2215   22.4320  -25.7194 C   0  0  0  0  0  0  0  0  0  0  0  0
   -2.8658   22.9317  -24.4389 C   0  0  0  0  0  0  0  0  0  0  0  0
   -3.3817   24.5186  -24.5746 S   0  0  0  0  0  0  0  0  0  0  0  0
   -4.0153   24.5544  -26.1633 C   0  0  0  0  0  0  0  0  0  0  0  0
   -5.7526   26.9849  -25.4518 C   0  0  0  0  0  0  0  0  0  0  0  0
   -4.7690   26.7700  -26.4304 O   0  0  0  0  0  0  0  0  0  0  0  0
   -3.9326   21.4718  -21.9980 C   0  0  0  0  0  0  0  0  0  0  0  0
   -4.4904   22.4209  -21.1493 N   0  0  0  0  0  0  0  0  0  0  0  0
   -4.6931   23.7509  -21.1423 C   0  0  0  0  0  0  0  0  0  0  0  0
   -6.0622   24.2073  -20.5632 C   0  0  0  0  0  0  0  0  0  0  0  0
   -6.4606   23.3836  -19.5444 O   0  0  0  0  0  0  0  0  0  0  0  0
   -5.3716   22.8290  -18.8855 C   0  0  0  0  0  0  0  0  0  0  0  0
   -4.7286   21.8196  -19.7869 C   0  0  0  0  0  0  0  0  0  0  0  0
   -1.2857   20.7470  -20.2198 C   0  0  0  0  0  0  0  0  0  0  0  0
   -0.5257   21.4669  -19.3252 N   0  0  0  0  0  0  0  0  0  0  0  0
    0.4820   21.0425  -18.4933 C   0  0  0  0  0  0  0  0  0  0  0  0
    1.2401   22.2665  -17.9724 C   0  0  0  0  0  0  0  0  0  0  0  0
    1.0993   23.3683  -18.8471 O   0  0  0  0  0  0  0  0  0  0  0  0
   -0.1991   23.8093  -18.9198 C   0  0  0  0  0  0  0  0  0  0  0  0
   -1.1676   22.6807  -18.8399 C   0  0  0  0  0  0  0  0  0  0  0  0
 23 24  1  0  0  0
 24 13  1  0  0  0
 13 14  2  0  0  0
 14 15  1  0  0  0
 15 16  1  0  0  0
 15 17  2  0  0  0
 17 18  1  0  0  0
 18 19  1  0  0  0
 19 20  2  0  0  0
 20 21  1  0  0  0
 21 22  1  0  0  0
 20  1  1  0  0  0
  1  2  1  0  0  0
  2 25  1  0  0  0
 25 26  1  0  0  0
 26 27  1  0  0  0
 27 28  1  0  0  0
 28 29  1  0  0  0
 29 30  1  0  0  0
 30 31  1  0  0  0
  2  3  2  0  0  0
  3 32  1  0  0  0
 32 33  1  0  0  0
 33 34  1  0  0  0
 34 35  1  0  0  0
 35 36  1  0  0  0
 36 37  1  0  0  0
 37 38  1  0  0  0
  3  4  1  0  0  0
  4  5  1  0  0  0
  5  6  2  0  0  0
  6  7  1  0  0  0
  7  8  2  0  0  0
  8  9  1  0  0  0
  8 10  1  0  0  0
 22 13  1  0  0  0
 10  1  2  0  0  0
 22 18  2  0  0  0
 31 26  1  0  0  0
 38 33  1  0  0  0
 10  4  1  0  0  0
  9 11  1  0  0  0
  9 12  1  0  0  0
M  END
> <minimizedAffinity>
-7.80131

> <CNNscore>
0.2740707695

> <CNNaffinity>
7.0760550499

> <CNN_VS>
1.9393398762

> <CNNaffinity_variance>
0.3052055836

$$$$
[H]c1nc(N([H])[H])c2c(-c3sc4c(OC([H])([H])[H])c([H])c(C([H])([H])[H])c([H])c4c3[H])c(C([H])([H])N3C([H])([H])C([H])([H])OC([H])([H])C3([H])[H])c(C([H])([H])N3C([H])([H])C([H])([H])OC([H])([H])C3([H])[H])n2n1


 38 43  0  0  0  0  0  0  0  0999 V2000
   -1.7206   21.7520  -23.1589 C   0  0  0  0  0  0  0  0  0  0  0  0
   -2.2047   21.3574  -21.8979 C   0  0  0  0  0  0  0  0  0  0  0  0
   -1.0995   21.0384  -21.1376 C   0  0  0  0  0  0  0  0  0  0  0  0
    0.0306   21.1848  -21.9091 N   0  0  0  0  0  0  0  0  0  0  0  0
    1.2761   20.8903  -21.6335 N   0  0  0  0  0  0  0  0  0  0  0  0
    2.2551   20.9809  -22.5314 C   0  0  0  0  0  0  0  0  0  0  0  0
    1.9382   21.3846  -23.7583 N   0  0  0  0  0  0  0  0  0  0  0  0
    0.6693   21.6931  -24.0786 C   0  0  0  0  0  0  0  0  0  0  0  0
    0.3589   21.9324  -25.4577 N   0  0  0  0  0  0  0  0  0  0  0  0
   -0.3648   21.6112  -23.1450 C   0  0  0  0  0  0  0  0  0  0  0  0
    0.7493   22.7218  -25.9888 H   0  0  0  0  0  0  0  0  0  0  0  0
   -0.2903   21.2697  -25.9129 H   0  0  0  0  0  0  0  0  0  0  0  0
   -4.9774   24.0534  -26.9509 C   0  0  0  0  0  0  0  0  0  0  0  0
   -5.4169   25.3545  -26.9304 C   0  0  0  0  0  0  0  0  0  0  0  0
   -4.9936   26.1478  -25.9016 C   0  0  0  0  0  0  0  0  0  0  0  0
   -5.4026   27.6052  -25.9040 C   0  0  0  0  0  0  0  0  0  0  0  0
   -4.1666   25.6781  -24.9263 C   0  0  0  0  0  0  0  0  0  0  0  0
   -3.7025   24.3593  -24.9198 C   0  0  0  0  0  0  0  0  0  0  0  0
   -2.8741   23.8034  -24.0231 C   0  0  0  0  0  0  0  0  0  0  0  0
   -2.4927   22.4501  -24.2210 C   0  0  0  0  0  0  0  0  0  0  0  0
   -3.3340   22.0964  -25.6246 S   0  0  0  0  0  0  0  0  0  0  0  0
   -4.1268   23.5770  -25.9495 C   0  0  0  0  0  0  0  0  0  0  0  0
   -4.6239   23.1511  -29.1346 C   0  0  0  0  0  0  0  0  0  0  0  0
   -5.3380   23.1574  -27.9257 O   0  0  0  0  0  0  0  0  0  0  0  0
   -3.6628   21.3478  -21.6436 C   0  0  0  0  0  0  0  0  0  0  0  0
   -4.2625   22.3893  -20.9452 N   0  0  0  0  0  0  0  0  0  0  0  0
   -4.4760   23.7067  -21.1155 C   0  0  0  0  0  0  0  0  0  0  0  0
   -5.8712   24.2147  -20.6538 C   0  0  0  0  0  0  0  0  0  0  0  0
   -6.3045   23.5217  -19.5552 O   0  0  0  0  0  0  0  0  0  0  0  0
   -5.2391   23.0694  -18.7885 C   0  0  0  0  0  0  0  0  0  0  0  0
   -4.5515   21.9624  -19.5280 C   0  0  0  0  0  0  0  0  0  0  0  0
   -1.0975   20.9279  -19.6596 C   0  0  0  0  0  0  0  0  0  0  0  0
   -1.0216   19.7217  -18.9997 N   0  0  0  0  0  0  0  0  0  0  0  0
   -0.2686   18.6103  -19.2923 C   0  0  0  0  0  0  0  0  0  0  0  0
   -0.2649   17.6824  -18.0745 C   0  0  0  0  0  0  0  0  0  0  0  0
   -0.5208   18.3983  -16.8825 O   0  0  0  0  0  0  0  0  0  0  0  0
   -1.7832   18.9382  -16.8634 C   0  0  0  0  0  0  0  0  0  0  0  0
   -2.2052   19.3959  -18.2164 C   0  0  0  0  0  0  0  0  0  0  0  0
 23 24  1  0  0  0
 24 13  1  0  0  0
 13 14  2  0  0  0
 14 15  1  0  0  0
 15 16  1  0  0  0
 15 17  2  0  0  0
 17 18  1  0  0  0
 18 19  1  0  0  0
 19 20  2  0  0  0
 20 21  1  0  0  0
 21 22  1  0  0  0
 20  1  1  0  0  0
  1  2  1  0  0  0
  2 25  1  0  0  0
 25 26  1  0  0  0
 26 27  1  0  0  0
 27 28  1  0  0  0
 28 29  1  0  0  0
 29 30  1  0  0  0
 30 31  1  0  0  0
  2  3  2  0  0  0
  3 32  1  0  0  0
 32 33  1  0  0  0
 33 34  1  0  0  0
 34 35  1  0  0  0
 35 36  1  0  0  0
 36 37  1  0  0  0
 37 38  1  0  0  0
  3  4  1  0  0  0
  4  5  1  0  0  0
  5  6  2  0  0  0
  6  7  1  0  0  0
  7  8  2  0  0  0
  8  9  1  0  0  0
  8 10  1  0  0  0
 22 13  1  0  0  0
 10  1  2  0  0  0
 22 18  2  0  0  0
 31 26  1  0  0  0
 38 33  1  0  0  0
 10  4  1  0  0  0
  9 11  1  0  0  0
  9 12  1  0  0  0
M  END
> <minimizedAffinity>
-6.92167

> <CNNscore>
0.2195679396

> <CNNaffinity>
6.9527788162

> <CNN_VS>
1.5266072750

> <CNNaffinity_variance>
0.4458304048

$$$$
[H]c1nc(N([H])[H])c2c(C([H])([H])N3C([H])([H])C([H])([H])N(C([H])([H])[H])C([H])([H])C3([H])[H])c(-c3sc4c(OC([H])([H])[H])c([H])c(C([H])([H])[H])c([H])c4c3[H])c(=O)n([H])c2n1


 35 39  0  0  0  0  0  0  0  0999 V2000
   -1.2601   22.4762  -25.8905 C   0  0  0  0  0  0  0  0  0  0  0  0
   -1.6322   21.8703  -24.6331 C   0  0  0  0  0  0  0  0  0  0  0  0
   -0.5959   21.5344  -23.8010 C   0  0  0  0  0  0  0  0  0  0  0  0
   -0.7771   21.0518  -22.5403 C   0  0  0  0  0  0  0  0  0  0  0  0
   -2.0124   21.0304  -21.8711 N   0  0  0  0  0  0  0  0  0  0  0  0
    0.2984   20.7770  -21.7093 N   0  0  0  0  0  0  0  0  0  0  0  0
    1.5443   20.9882  -22.1225 C   0  0  0  0  0  0  0  0  0  0  0  0
    1.7653   21.4729  -23.3510 N   0  0  0  0  0  0  0  0  0  0  0  0
    0.7635   21.7514  -24.1917 C   0  0  0  0  0  0  0  0  0  0  0  0
    1.0310   22.3091  -25.3700 N   0  0  0  0  0  0  0  0  0  0  0  0
    0.0864   22.6610  -26.1834 C   0  0  0  0  0  0  0  0  0  0  0  0
    0.3417   23.2108  -27.3235 O   0  0  0  0  0  0  0  0  0  0  0  0
   -2.4820   21.9320  -21.6678 H   0  0  0  0  0  0  0  0  0  0  0  0
   -2.4089   20.1399  -21.5332 H   0  0  0  0  0  0  0  0  0  0  0  0
    2.0340   22.4466  -25.6104 H   0  0  0  0  0  0  0  0  0  0  0  0
   -5.2228   25.3134  -28.2363 C   0  0  0  0  0  0  0  0  0  0  0  0
   -5.8807   25.1057  -29.4218 C   0  0  0  0  0  0  0  0  0  0  0  0
   -5.4819   24.0220  -30.1640 C   0  0  0  0  0  0  0  0  0  0  0  0
   -6.2159   23.8090  -31.4611 C   0  0  0  0  0  0  0  0  0  0  0  0
   -4.4860   23.1755  -29.7719 C   0  0  0  0  0  0  0  0  0  0  0  0
   -3.7917   23.3648  -28.5572 C   0  0  0  0  0  0  0  0  0  0  0  0
   -2.7813   22.6083  -28.0317 C   0  0  0  0  0  0  0  0  0  0  0  0
   -2.2445   22.9487  -26.8562 C   0  0  0  0  0  0  0  0  0  0  0  0
   -3.1926   24.3787  -26.4746 S   0  0  0  0  0  0  0  0  0  0  0  0
   -4.1956   24.4370  -27.8358 C   0  0  0  0  0  0  0  0  0  0  0  0
   -6.0086   26.2698  -26.0825 C   0  0  0  0  0  0  0  0  0  0  0  0
   -5.4825   26.3465  -27.3585 O   0  0  0  0  0  0  0  0  0  0  0  0
   -3.0101   21.6002  -24.4775 C   0  0  0  0  0  0  0  0  0  0  0  0
   -4.0583   22.0382  -23.6607 N   0  0  0  0  0  0  0  0  0  0  0  0
   -3.7803   23.4839  -23.3708 C   0  0  0  0  0  0  0  0  0  0  0  0
   -4.6970   23.8488  -22.2280 C   0  0  0  0  0  0  0  0  0  0  0  0
   -5.8778   23.0372  -22.2647 N   0  0  0  0  0  0  0  0  0  0  0  0
   -6.9219   23.6784  -21.5022 C   0  0  0  0  0  0  0  0  0  0  0  0
   -6.3669   22.8470  -23.6219 C   0  0  0  0  0  0  0  0  0  0  0  0
   -5.3121   22.1968  -24.4844 C   0  0  0  0  0  0  0  0  0  0  0  0
 26 27  1  0  0  0
 27 16  1  0  0  0
 16 17  2  0  0  0
 17 18  1  0  0  0
 18 19  1  0  0  0
 18 20  2  0  0  0
 20 21  1  0  0  0
 21 22  1  0  0  0
 22 23  2  0  0  0
 23 24  1  0  0  0
 24 25  1  0  0  0
 23  1  1  0  0  0
  1  2  2  0  0  0
  2 28  1  0  0  0
 28 29  1  0  0  0
 29 30  1  0  0  0
 30 31  1  0  0  0
 31 32  1  0  0  0
 32 33  1  0  0  0
 32 34  1  0  0  0
 34 35  1  0  0  0
  2  3  1  0  0  0
  3  4  2  0  0  0
  4  5  1  0  0  0
  4  6  1  0  0  0
  6  7  2  0  0  0
  7  8  1  0  0  0
  8  9  2  0  0  0
  9 10  1  0  0  0
 10 11  1  0  0  0
 11 12  2  0  0  0
 25 16  1  0  0  0
 11  1  1  0  0  0
 25 21  2  0  0  0
 35 29  1  0  0  0
  9  3  1  0  0  0
  5 13  1  0  0  0
  5 14  1  0  0  0
 10 15  1  0  0  0
M  END
> <minimizedAffinity>
-9.97975

> <CNNscore>
0.7801069617

> <CNNaffinity>
7.7058191299

> <CNN_VS>
6.0113630295

> <CNNaffinity_variance>
0.1921780407

$$$$
[H]c1nc(N([H])[H])c2c(C([H])([H])N3C([H])([H])C([H])([H])N(C([H])([H])[H])C([H])([H])C3([H])[H])c(-c3sc4c(OC([H])([H])[H])c([H])c(C([H])([H])[H])c([H])c4c3[H])c(=O)n([H])c2n1


 35 39  0  0  0  0  0  0  0  0999 V2000
   -0.3055   21.6154  -23.5572 C   0  0  0  0  0  0  0  0  0  0  0  0
   -1.4610   21.9136  -24.3711 C   0  0  0  0  0  0  0  0  0  0  0  0
   -1.1995   22.3551  -25.6423 C   0  0  0  0  0  0  0  0  0  0  0  0
   -2.1719   22.5802  -26.5691 C   0  0  0  0  0  0  0  0  0  0  0  0
   -3.5162   22.2023  -26.4136 N   0  0  0  0  0  0  0  0  0  0  0  0
   -1.8617   22.9726  -27.8624 N   0  0  0  0  0  0  0  0  0  0  0  0
   -0.5958   23.1316  -28.2362 C   0  0  0  0  0  0  0  0  0  0  0  0
    0.3907   22.9091  -27.3586 N   0  0  0  0  0  0  0  0  0  0  0  0
    0.1448   22.5322  -26.0995 C   0  0  0  0  0  0  0  0  0  0  0  0
    1.1610   22.2431  -25.2902 N   0  0  0  0  0  0  0  0  0  0  0  0
    0.9659   21.8053  -24.0869 C   0  0  0  0  0  0  0  0  0  0  0  0
    1.9492   21.5149  -23.3020 O   0  0  0  0  0  0  0  0  0  0  0  0
   -3.7406   21.1943  -26.3218 H   0  0  0  0  0  0  0  0  0  0  0  0
   -4.2665   22.9091  -26.4556 H   0  0  0  0  0  0  0  0  0  0  0  0
    2.1202   22.3881  -25.6666 H   0  0  0  0  0  0  0  0  0  0  0  0
   -1.1137   21.2051  -18.2249 C   0  0  0  0  0  0  0  0  0  0  0  0
   -0.8970   20.1520  -17.3732 C   0  0  0  0  0  0  0  0  0  0  0  0
   -0.4136   18.9966  -17.9352 C   0  0  0  0  0  0  0  0  0  0  0  0
   -0.1807   17.8523  -16.9853 C   0  0  0  0  0  0  0  0  0  0  0  0
   -0.1519   18.8690  -19.2684 C   0  0  0  0  0  0  0  0  0  0  0  0
   -0.3654   19.9357  -20.1683 C   0  0  0  0  0  0  0  0  0  0  0  0
   -0.1508   19.9616  -21.5183 C   0  0  0  0  0  0  0  0  0  0  0  0
   -0.4140   21.0760  -22.2073 C   0  0  0  0  0  0  0  0  0  0  0  0
   -0.9801   22.1240  -20.9149 S   0  0  0  0  0  0  0  0  0  0  0  0
   -0.8420   21.0685  -19.6001 C   0  0  0  0  0  0  0  0  0  0  0  0
   -2.9069   22.8139  -17.6189 C   0  0  0  0  0  0  0  0  0  0  0  0
   -1.5950   22.4420  -17.8461 O   0  0  0  0  0  0  0  0  0  0  0  0
   -2.7058   21.8192  -23.7098 C   0  0  0  0  0  0  0  0  0  0  0  0
   -3.8224   22.6354  -23.4978 N   0  0  0  0  0  0  0  0  0  0  0  0
   -4.4810   22.1198  -22.2521 C   0  0  0  0  0  0  0  0  0  0  0  0
   -5.8486   22.7589  -22.2258 C   0  0  0  0  0  0  0  0  0  0  0  0
   -5.8145   24.0243  -22.8979 N   0  0  0  0  0  0  0  0  0  0  0  0
   -6.9431   24.8192  -22.4770 C   0  0  0  0  0  0  0  0  0  0  0  0
   -4.6030   24.7707  -22.5943 C   0  0  0  0  0  0  0  0  0  0  0  0
   -3.3767   23.9846  -22.9913 C   0  0  0  0  0  0  0  0  0  0  0  0
 26 27  1  0  0  0
 27 16  1  0  0  0
 16 17  2  0  0  0
 17 18  1  0  0  0
 18 19  1  0  0  0
 18 20  2  0  0  0
 20 21  1  0  0  0
 21 22  1  0  0  0
 22 23  2  0  0  0
 23 24  1  0  0  0
 24 25  1  0  0  0
 23  1  1  0  0  0
  1  2  2  0  0  0
  2 28  1  0  0  0
 28 29  1  0  0  0
 29 30  1  0  0  0
 30 31  1  0  0  0
 31 32  1  0  0  0
 32 33  1  0  0  0
 32 34  1  0  0  0
 34 35  1  0  0  0
  2  3  1  0  0  0
  3  4  2  0  0  0
  4  5  1  0  0  0
  4  6  1  0  0  0
  6  7  2  0  0  0
  7  8  1  0  0  0
  8  9  2  0  0  0
  9 10  1  0  0  0
 10 11  1  0  0  0
 11 12  2  0  0  0
 25 16  1  0  0  0
 11  1  1  0  0  0
 25 21  2  0  0  0
 35 29  1  0  0  0
  9  3  1  0  0  0
  5 13  1  0  0  0
  5 14  1  0  0  0
 10 15  1  0  0  0
M  END
> <minimizedAffinity>
-7.95752

> <CNNscore>
0.7797243595

> <CNNaffinity>
6.9651718140

> <CNN_VS>
5.4309139252

> <CNNaffinity_variance>
0.0332372189

$$$$
[H]c1nc(N([H])[H])c2c(C([H])([H])N3C([H])([H])C([H])([H])N(C([H])([H])[H])C([H])([H])C3([H])[H])c(-c3sc4c(OC([H])([H])[H])c([H])c(C([H])([H])[H])c([H])c4c3[H])c(=O)n([H])c2n1


 35 39  0  0  0  0  0  0  0  0999 V2000
   -3.8704   22.8018  -25.5598 C   0  0  0  0  0  0  0  0  0  0  0  0
   -2.4868   22.4597  -25.3243 C   0  0  0  0  0  0  0  0  0  0  0  0
   -1.6447   22.6011  -26.3967 C   0  0  0  0  0  0  0  0  0  0  0  0
   -0.2970   22.4212  -26.3163 C   0  0  0  0  0  0  0  0  0  0  0  0
    0.4113   22.2736  -25.1118 N   0  0  0  0  0  0  0  0  0  0  0  0
    0.5272   22.6291  -27.4118 N   0  0  0  0  0  0  0  0  0  0  0  0
    0.0193   23.0216  -28.5762 C   0  0  0  0  0  0  0  0  0  0  0  0
   -1.2995   23.2210  -28.6941 N   0  0  0  0  0  0  0  0  0  0  0  0
   -2.1373   23.0319  -27.6693 C   0  0  0  0  0  0  0  0  0  0  0  0
   -3.4277   23.3234  -27.8136 N   0  0  0  0  0  0  0  0  0  0  0  0
   -4.2598   23.2237  -26.8261 C   0  0  0  0  0  0  0  0  0  0  0  0
   -5.5107   23.5146  -26.9598 O   0  0  0  0  0  0  0  0  0  0  0  0
    0.4060   23.0580  -24.4340 H   0  0  0  0  0  0  0  0  0  0  0  0
    0.9763   21.4282  -24.9375 H   0  0  0  0  0  0  0  0  0  0  0  0
   -3.7392   23.6320  -28.7573 H   0  0  0  0  0  0  0  0  0  0  0  0
   -7.2177   24.3004  -21.5843 C   0  0  0  0  0  0  0  0  0  0  0  0
   -8.0255   23.5452  -20.7727 C   0  0  0  0  0  0  0  0  0  0  0  0
   -8.0192   22.1897  -20.9894 C   0  0  0  0  0  0  0  0  0  0  0  0
   -8.9105   21.3770  -20.0886 C   0  0  0  0  0  0  0  0  0  0  0  0
   -7.2607   21.5924  -21.9538 C   0  0  0  0  0  0  0  0  0  0  0  0
   -6.4204   22.3443  -22.8035 C   0  0  0  0  0  0  0  0  0  0  0  0
   -5.6067   21.8940  -23.8056 C   0  0  0  0  0  0  0  0  0  0  0  0
   -4.8779   22.7674  -24.5069 C   0  0  0  0  0  0  0  0  0  0  0  0
   -5.3497   24.2722  -23.7310 S   0  0  0  0  0  0  0  0  0  0  0  0
   -6.4367   23.6793  -22.5782 C   0  0  0  0  0  0  0  0  0  0  0  0
   -7.9561   26.5819  -20.9361 C   0  0  0  0  0  0  0  0  0  0  0  0
   -7.0918   25.6733  -21.5176 O   0  0  0  0  0  0  0  0  0  0  0  0
   -2.2078   21.9158  -24.0506 C   0  0  0  0  0  0  0  0  0  0  0  0
   -1.6342   22.3494  -22.8503 N   0  0  0  0  0  0  0  0  0  0  0  0
   -2.7225   22.2721  -21.8202 C   0  0  0  0  0  0  0  0  0  0  0  0
   -2.2129   23.0585  -20.6365 C   0  0  0  0  0  0  0  0  0  0  0  0
   -0.7809   23.0145  -20.5949 N   0  0  0  0  0  0  0  0  0  0  0  0
   -0.3316   23.3410  -19.2629 C   0  0  0  0  0  0  0  0  0  0  0  0
   -0.2658   21.6957  -20.9306 C   0  0  0  0  0  0  0  0  0  0  0  0
   -0.7177   21.2801  -22.3098 C   0  0  0  0  0  0  0  0  0  0  0  0
 26 27  1  0  0  0
 27 16  1  0  0  0
 16 17  2  0  0  0
 17 18  1  0  0  0
 18 19  1  0  0  0
 18 20  2  0  0  0
 20 21  1  0  0  0
 21 22  1  0  0  0
 22 23  2  0  0  0
 23 24  1  0  0  0
 24 25  1  0  0  0
 23  1  1  0  0  0
  1  2  2  0  0  0
  2 28  1  0  0  0
 28 29  1  0  0  0
 29 30  1  0  0  0
 30 31  1  0  0  0
 31 32  1  0  0  0
 32 33  1  0  0  0
 32 34  1  0  0  0
 34 35  1  0  0  0
  2  3  1  0  0  0
  3  4  2  0  0  0
  4  5  1  0  0  0
  4  6  1  0  0  0
  6  7  2  0  0  0
  7  8  1  0  0  0
  8  9  2  0  0  0
  9 10  1  0  0  0
 10 11  1  0  0  0
 11 12  2  0  0  0
 25 16  1  0  0  0
 11  1  1  0  0  0
 25 21  2  0  0  0
 35 29  1  0  0  0
  9  3  1  0  0  0
  5 13  1  0  0  0
  5 14  1  0  0  0
 10 15  1  0  0  0
M  END
> <minimizedAffinity>
-9.02898

> <CNNscore>
0.7571653724

> <CNNaffinity>
7.3090200424

> <CNN_VS>
5.5341367722

> <CNNaffinity_variance>
0.0935302526

$$$$
[H]c1nc(N([H])[H])c2c(C([H])([H])N3C([H])([H])C([H])([H])N(C([H])([H])[H])C([H])([H])C3([H])[H])c(-c3sc4c(OC([H])([H])[H])c([H])c(C([H])([H])[H])c([H])c4c3[H])c(=O)n([H])c2n1


 35 39  0  0  0  0  0  0  0  0999 V2000
   -0.1925   21.7991  -23.3039 C   0  0  0  0  0  0  0  0  0  0  0  0
   -1.3431   22.0810  -24.1305 C   0  0  0  0  0  0  0  0  0  0  0  0
   -1.0848   22.3120  -25.4568 C   0  0  0  0  0  0  0  0  0  0  0  0
   -2.0629   22.4894  -26.3879 C   0  0  0  0  0  0  0  0  0  0  0  0
   -3.4292   22.2596  -26.1541 N   0  0  0  0  0  0  0  0  0  0  0  0
   -1.7610   22.6645  -27.7299 N   0  0  0  0  0  0  0  0  0  0  0  0
   -0.4985   22.6545  -28.1466 C   0  0  0  0  0  0  0  0  0  0  0  0
    0.4923   22.4715  -27.2647 N   0  0  0  0  0  0  0  0  0  0  0  0
    0.2547   22.3010  -25.9600 C   0  0  0  0  0  0  0  0  0  0  0  0
    1.2672   22.0398  -25.1367 N   0  0  0  0  0  0  0  0  0  0  0  0
    1.0732   21.7968  -23.8794 C   0  0  0  0  0  0  0  0  0  0  0  0
    2.0521   21.5339  -23.0795 O   0  0  0  0  0  0  0  0  0  0  0  0
   -3.7365   21.2992  -25.9135 H   0  0  0  0  0  0  0  0  0  0  0  0
   -4.1168   23.0178  -26.2836 H   0  0  0  0  0  0  0  0  0  0  0  0
    2.2230   22.0432  -25.5481 H   0  0  0  0  0  0  0  0  0  0  0  0
   -0.4657   19.0244  -18.6691 C   0  0  0  0  0  0  0  0  0  0  0  0
   -0.7304   19.4525  -17.3931 C   0  0  0  0  0  0  0  0  0  0  0  0
   -0.9491   20.7978  -17.2293 C   0  0  0  0  0  0  0  0  0  0  0  0
   -1.2394   21.2489  -15.8227 C   0  0  0  0  0  0  0  0  0  0  0  0
   -0.9120   21.6901  -18.2610 C   0  0  0  0  0  0  0  0  0  0  0  0
   -0.6420   21.2783  -19.5842 C   0  0  0  0  0  0  0  0  0  0  0  0
   -0.5734   22.0459  -20.7135 C   0  0  0  0  0  0  0  0  0  0  0  0
   -0.3044   21.4689  -21.8885 C   0  0  0  0  0  0  0  0  0  0  0  0
   -0.1443   19.7909  -21.3908 S   0  0  0  0  0  0  0  0  0  0  0  0
   -0.4285   19.9492  -19.7307 C   0  0  0  0  0  0  0  0  0  0  0  0
   -1.1190   16.6665  -19.0978 C   0  0  0  0  0  0  0  0  0  0  0  0
   -0.2204   17.7146  -19.0286 O   0  0  0  0  0  0  0  0  0  0  0  0
   -2.5700   22.1937  -23.4391 C   0  0  0  0  0  0  0  0  0  0  0  0
   -3.6404   23.0931  -23.3834 N   0  0  0  0  0  0  0  0  0  0  0  0
   -4.7953   22.3264  -22.8091 C   0  0  0  0  0  0  0  0  0  0  0  0
   -6.0148   23.1756  -23.0761 C   0  0  0  0  0  0  0  0  0  0  0  0
   -5.6497   24.5607  -23.1261 N   0  0  0  0  0  0  0  0  0  0  0  0
   -6.8234   25.3721  -22.9098 C   0  0  0  0  0  0  0  0  0  0  0  0
   -4.6730   24.9046  -22.1039 C   0  0  0  0  0  0  0  0  0  0  0  0
   -3.4218   24.0739  -22.2584 C   0  0  0  0  0  0  0  0  0  0  0  0
 26 27  1  0  0  0
 27 16  1  0  0  0
 16 17  2  0  0  0
 17 18  1  0  0  0
 18 19  1  0  0  0
 18 20  2  0  0  0
 20 21  1  0  0  0
 21 22  1  0  0  0
 22 23  2  0  0  0
 23 24  1  0  0  0
 24 25  1  0  0  0
 23  1  1  0  0  0
  1  2  2  0  0  0
  2 28  1  0  0  0
 28 29  1  0  0  0
 29 30  1  0  0  0
 30 31  1  0  0  0
 31 32  1  0  0  0
 32 33  1  0  0  0
 32 34  1  0  0  0
 34 35  1  0  0  0
  2  3  1  0  0  0
  3  4  2  0  0  0
  4  5  1  0  0  0
  4  6  1  0  0  0
  6  7  2  0  0  0
  7  8  1  0  0  0
  8  9  2  0  0  0
  9 10  1  0  0  0
 10 11  1  0  0  0
 11 12  2  0  0  0
 25 16  1  0  0  0
 11  1  1  0  0  0
 25 21  2  0  0  0
 35 29  1  0  0  0
  9  3  1  0  0  0
  5 13  1  0  0  0
  5 14  1  0  0  0
 10 15  1  0  0  0
M  END
> <minimizedAffinity>
-7.67793

> <CNNscore>
0.7500155568

> <CNNaffinity>
7.0610456467

> <CNN_VS>
5.2958941460

> <CNNaffinity_variance>
0.1148827821

$$$$
[H]c1nc(N([H])[H])c2c(C([H])([H])N3C([H])([H])C([H])([H])N(C([H])([H])[H])C([H])([H])C3([H])[H])c(-c3sc4c(OC([H])([H])[H])c([H])c(C([H])([H])[H])c([H])c4c3[H])c(=O)n([H])c2n1


 35 39  0  0  0  0  0  0  0  0999 V2000
   -0.1083   21.4276  -23.3426 C   0  0  0  0  0  0  0  0  0  0  0  0
   -1.2977   21.7167  -24.1097 C   0  0  0  0  0  0  0  0  0  0  0  0
   -1.0903   22.1948  -25.3776 C   0  0  0  0  0  0  0  0  0  0  0  0
   -2.0988   22.4180  -26.2655 C   0  0  0  0  0  0  0  0  0  0  0  0
   -3.4277   22.0035  -26.0743 N   0  0  0  0  0  0  0  0  0  0  0  0
   -1.8423   22.8487  -27.5583 N   0  0  0  0  0  0  0  0  0  0  0  0
   -0.5940   23.0476  -27.9704 C   0  0  0  0  0  0  0  0  0  0  0  0
    0.4269   22.8285  -27.1320 N   0  0  0  0  0  0  0  0  0  0  0  0
    0.2331   22.4157  -25.8751 C   0  0  0  0  0  0  0  0  0  0  0  0
    1.2829   22.1324  -25.1078 N   0  0  0  0  0  0  0  0  0  0  0  0
    1.1394   21.6613  -23.9098 C   0  0  0  0  0  0  0  0  0  0  0  0
    2.1555   21.3765  -23.1658 O   0  0  0  0  0  0  0  0  0  0  0  0
   -3.6248   20.9885  -26.0000 H   0  0  0  0  0  0  0  0  0  0  0  0
   -4.1955   22.6925  -26.0736 H   0  0  0  0  0  0  0  0  0  0  0  0
    2.2250   22.3099  -25.5124 H   0  0  0  0  0  0  0  0  0  0  0  0
    0.1155   20.8692  -17.9674 C   0  0  0  0  0  0  0  0  0  0  0  0
    0.0225   19.7446  -17.1876 C   0  0  0  0  0  0  0  0  0  0  0  0
   -0.1762   18.5559  -17.8449 C   0  0  0  0  0  0  0  0  0  0  0  0
   -0.2744   17.3325  -16.9732 C   0  0  0  0  0  0  0  0  0  0  0  0
   -0.2805   18.4630  -19.2023 C   0  0  0  0  0  0  0  0  0  0  0  0
   -0.1888   19.6033  -20.0298 C   0  0  0  0  0  0  0  0  0  0  0  0
   -0.2708   19.6703  -21.3928 C   0  0  0  0  0  0  0  0  0  0  0  0
   -0.1578   20.8535  -22.0036 C   0  0  0  0  0  0  0  0  0  0  0  0
    0.0737   21.9078  -20.6165 S   0  0  0  0  0  0  0  0  0  0  0  0
    0.0073   20.7682  -19.3680 C   0  0  0  0  0  0  0  0  0  0  0  0
    1.5052   22.7509  -17.1316 C   0  0  0  0  0  0  0  0  0  0  0  0
    0.3134   22.1487  -17.4890 O   0  0  0  0  0  0  0  0  0  0  0  0
   -2.5166   21.5760  -23.4096 C   0  0  0  0  0  0  0  0  0  0  0  0
   -3.3411   22.3742  -22.6089 N   0  0  0  0  0  0  0  0  0  0  0  0
   -3.4495   23.6943  -23.3139 C   0  0  0  0  0  0  0  0  0  0  0  0
   -4.0320   24.6467  -22.2976 C   0  0  0  0  0  0  0  0  0  0  0  0
   -4.8529   23.9316  -21.3654 N   0  0  0  0  0  0  0  0  0  0  0  0
   -5.7534   24.8538  -20.7165 C   0  0  0  0  0  0  0  0  0  0  0  0
   -5.6544   22.9076  -22.0182 C   0  0  0  0  0  0  0  0  0  0  0  0
   -4.7724   21.9161  -22.7383 C   0  0  0  0  0  0  0  0  0  0  0  0
 26 27  1  0  0  0
 27 16  1  0  0  0
 16 17  2  0  0  0
 17 18  1  0  0  0
 18 19  1  0  0  0
 18 20  2  0  0  0
 20 21  1  0  0  0
 21 22  1  0  0  0
 22 23  2  0  0  0
 23 24  1  0  0  0
 24 25  1  0  0  0
 23  1  1  0  0  0
  1  2  2  0  0  0
  2 28  1  0  0  0
 28 29  1  0  0  0
 29 30  1  0  0  0
 30 31  1  0  0  0
 31 32  1  0  0  0
 32 33  1  0  0  0
 32 34  1  0  0  0
 34 35  1  0  0  0
  2  3  1  0  0  0
  3  4  2  0  0  0
  4  5  1  0  0  0
  4  6  1  0  0  0
  6  7  2  0  0  0
  7  8  1  0  0  0
  8  9  2  0  0  0
  9 10  1  0  0  0
 10 11  1  0  0  0
 11 12  2  0  0  0
 25 16  1  0  0  0
 11  1  1  0  0  0
 25 21  2  0  0  0
 35 29  1  0  0  0
  9  3  1  0  0  0
  5 13  1  0  0  0
  5 14  1  0  0  0
 10 15  1  0  0  0
M  END
> <minimizedAffinity>
-7.42562

> <CNNscore>
0.7193505168

> <CNNaffinity>
6.9344115257

> <CNN_VS>
4.9882726669

> <CNNaffinity_variance>
0.0606997237

$$$$
[H]c1nc(N([H])[H])c2c(C([H])([H])N3C([H])([H])C([H])([H])N(C([H])([H])[H])C([H])([H])C3([H])[H])c(-c3sc4c(OC([H])([H])[H])c([H])c(C([H])([H])[H])c([H])c4c3[H])c(=O)n([H])c2n1


 35 39  0  0  0  0  0  0  0  0999 V2000
   -1.4909   22.6861  -26.0986 C   0  0  0  0  0  0  0  0  0  0  0  0
   -1.8796   22.1253  -24.8254 C   0  0  0  0  0  0  0  0  0  0  0  0
   -0.8544   21.7006  -24.0206 C   0  0  0  0  0  0  0  0  0  0  0  0
   -1.0417   21.2450  -22.7508 C   0  0  0  0  0  0  0  0  0  0  0  0
   -2.2532   21.3422  -22.0458 N   0  0  0  0  0  0  0  0  0  0  0  0
    0.0282   20.8775  -21.9488 N   0  0  0  0  0  0  0  0  0  0  0  0
    1.2754   20.9699  -22.4000 C   0  0  0  0  0  0  0  0  0  0  0  0
    1.5035   21.4241  -23.6389 N   0  0  0  0  0  0  0  0  0  0  0  0
    0.5070   21.7885  -24.4526 C   0  0  0  0  0  0  0  0  0  0  0  0
    0.7895   22.3114  -25.6433 N   0  0  0  0  0  0  0  0  0  0  0  0
   -0.1424   22.7437  -26.4322 C   0  0  0  0  0  0  0  0  0  0  0  0
    0.1284   23.2602  -27.5842 O   0  0  0  0  0  0  0  0  0  0  0  0
   -2.6314   22.2846  -21.8373 H   0  0  0  0  0  0  0  0  0  0  0  0
   -2.7199   20.4944  -21.6883 H   0  0  0  0  0  0  0  0  0  0  0  0
    1.7934   22.3540  -25.9140 H   0  0  0  0  0  0  0  0  0  0  0  0
   -5.0760   23.1584  -30.1208 C   0  0  0  0  0  0  0  0  0  0  0  0
   -5.6778   24.2732  -30.6466 C   0  0  0  0  0  0  0  0  0  0  0  0
   -5.3521   25.4763  -30.0712 C   0  0  0  0  0  0  0  0  0  0  0  0
   -6.0209   26.6887  -30.6620 C   0  0  0  0  0  0  0  0  0  0  0  0
   -4.4792   25.5920  -29.0288 C   0  0  0  0  0  0  0  0  0  0  0  0
   -3.8452   24.4622  -28.4675 C   0  0  0  0  0  0  0  0  0  0  0  0
   -2.9536   24.4177  -27.4320 C   0  0  0  0  0  0  0  0  0  0  0  0
   -2.4559   23.2412  -27.0395 C   0  0  0  0  0  0  0  0  0  0  0  0
   -3.2661   22.1608  -28.1644 S   0  0  0  0  0  0  0  0  0  0  0  0
   -4.1757   23.2829  -29.0450 C   0  0  0  0  0  0  0  0  0  0  0  0
   -4.5043   21.1381  -31.4483 C   0  0  0  0  0  0  0  0  0  0  0  0
   -5.2781   21.8673  -30.5650 O   0  0  0  0  0  0  0  0  0  0  0  0
   -3.2713   21.9847  -24.6273 C   0  0  0  0  0  0  0  0  0  0  0  0
   -4.2553   22.5460  -23.8059 N   0  0  0  0  0  0  0  0  0  0  0  0
   -3.9791   24.0206  -23.7783 C   0  0  0  0  0  0  0  0  0  0  0  0
   -4.8037   24.5632  -22.6358 C   0  0  0  0  0  0  0  0  0  0  0  0
   -5.9692   23.7522  -22.4403 N   0  0  0  0  0  0  0  0  0  0  0  0
   -6.9571   24.5051  -21.7055 C   0  0  0  0  0  0  0  0  0  0  0  0
   -6.5663   23.3421  -23.7023 C   0  0  0  0  0  0  0  0  0  0  0  0
   -5.5758   22.5640  -24.5348 C   0  0  0  0  0  0  0  0  0  0  0  0
 26 27  1  0  0  0
 27 16  1  0  0  0
 16 17  2  0  0  0
 17 18  1  0  0  0
 18 19  1  0  0  0
 18 20  2  0  0  0
 20 21  1  0  0  0
 21 22  1  0  0  0
 22 23  2  0  0  0
 23 24  1  0  0  0
 24 25  1  0  0  0
 23  1  1  0  0  0
  1  2  2  0  0  0
  2 28  1  0  0  0
 28 29  1  0  0  0
 29 30  1  0  0  0
 30 31  1  0  0  0
 31 32  1  0  0  0
 32 33  1  0  0  0
 32 34  1  0  0  0
 34 35  1  0  0  0
  2  3  1  0  0  0
  3  4  2  0  0  0
  4  5  1  0  0  0
  4  6  1  0  0  0
  6  7  2  0  0  0
  7  8  1  0  0  0
  8  9  2  0  0  0
  9 10  1  0  0  0
 10 11  1  0  0  0
 11 12  2  0  0  0
 25 16  1  0  0  0
 11  1  1  0  0  0
 25 21  2  0  0  0
 35 29  1  0  0  0
  9  3  1  0  0  0
  5 13  1  0  0  0
  5 14  1  0  0  0
 10 15  1  0  0  0
M  END
> <minimizedAffinity>
-7.90445

> <CNNscore>
0.6899328232

> <CNNaffinity>
7.7250304222

> <CNN_VS>
5.3297519684

> <CNNaffinity_variance>
0.3722202182

$$$$
[H]c1nc(N([H])[H])c2c(C([H])([H])N3C([H])([H])C([H])([H])N(C([H])([H])[H])C([H])([H])C3([H])[H])c(-c3sc4c(OC([H])([H])[H])c([H])c(C([H])([H])[H])c([H])c4c3[H])c(=O)n([H])c2n1


 35 39  0  0  0  0  0  0  0  0999 V2000
   -0.6175   22.0192  -23.2628 C   0  0  0  0  0  0  0  0  0  0  0  0
   -1.9431   22.4035  -23.6889 C   0  0  0  0  0  0  0  0  0  0  0  0
   -2.1191   22.5461  -25.0409 C   0  0  0  0  0  0  0  0  0  0  0  0
   -3.3282   22.8015  -25.6135 C   0  0  0  0  0  0  0  0  0  0  0  0
   -4.5547   22.7484  -24.9299 N   0  0  0  0  0  0  0  0  0  0  0  0
   -3.4742   22.8827  -26.9901 N   0  0  0  0  0  0  0  0  0  0  0  0
   -2.4300   22.7029  -27.7932 C   0  0  0  0  0  0  0  0  0  0  0  0
   -1.2258   22.4383  -27.2707 N   0  0  0  0  0  0  0  0  0  0  0  0
   -1.0316   22.3523  -25.9506 C   0  0  0  0  0  0  0  0  0  0  0  0
    0.1655   22.0053  -25.4842 N   0  0  0  0  0  0  0  0  0  0  0  0
    0.3776   21.8400  -24.2172 C   0  0  0  0  0  0  0  0  0  0  0  0
    1.5353   21.4943  -23.7617 O   0  0  0  0  0  0  0  0  0  0  0  0
   -4.8590   21.8431  -24.5269 H   0  0  0  0  0  0  0  0  0  0  0  0
   -5.1664   23.5781  -24.8879 H   0  0  0  0  0  0  0  0  0  0  0  0
    0.9252   21.8759  -26.1835 H   0  0  0  0  0  0  0  0  0  0  0  0
    0.1497   19.5278  -18.5237 C   0  0  0  0  0  0  0  0  0  0  0  0
    0.4766   20.0408  -17.2944 C   0  0  0  0  0  0  0  0  0  0  0  0
    0.6624   21.3992  -17.2251 C   0  0  0  0  0  0  0  0  0  0  0  0
    1.0192   21.9444  -15.8681 C   0  0  0  0  0  0  0  0  0  0  0  0
    0.5363   22.2248  -18.3043 C   0  0  0  0  0  0  0  0  0  0  0  0
    0.2009   21.7248  -19.5814 C   0  0  0  0  0  0  0  0  0  0  0  0
    0.0377   22.4195  -20.7475 C   0  0  0  0  0  0  0  0  0  0  0  0
   -0.2846   21.7643  -21.8667 C   0  0  0  0  0  0  0  0  0  0  0  0
   -0.3633   20.1165  -21.2603 S   0  0  0  0  0  0  0  0  0  0  0  0
    0.0206   20.3839  -19.6346 C   0  0  0  0  0  0  0  0  0  0  0  0
   -1.1000   17.3903  -18.3229 C   0  0  0  0  0  0  0  0  0  0  0  0
   -0.0746   18.1919  -18.7886 O   0  0  0  0  0  0  0  0  0  0  0  0
   -2.8522   22.6923  -22.6468 C   0  0  0  0  0  0  0  0  0  0  0  0
   -3.6450   21.9740  -21.7449 N   0  0  0  0  0  0  0  0  0  0  0  0
   -3.3847   22.5757  -20.3953 C   0  0  0  0  0  0  0  0  0  0  0  0
   -3.9532   21.5930  -19.4000 C   0  0  0  0  0  0  0  0  0  0  0  0
   -5.0420   20.8699  -19.9881 N   0  0  0  0  0  0  0  0  0  0  0  0
   -5.8591   20.3029  -18.9423 C   0  0  0  0  0  0  0  0  0  0  0  0
   -5.8893   21.7273  -20.8031 C   0  0  0  0  0  0  0  0  0  0  0  0
   -5.0904   22.3729  -21.9095 C   0  0  0  0  0  0  0  0  0  0  0  0
 26 27  1  0  0  0
 27 16  1  0  0  0
 16 17  2  0  0  0
 17 18  1  0  0  0
 18 19  1  0  0  0
 18 20  2  0  0  0
 20 21  1  0  0  0
 21 22  1  0  0  0
 22 23  2  0  0  0
 23 24  1  0  0  0
 24 25  1  0  0  0
 23  1  1  0  0  0
  1  2  2  0  0  0
  2 28  1  0  0  0
 28 29  1  0  0  0
 29 30  1  0  0  0
 30 31  1  0  0  0
 31 32  1  0  0  0
 32 33  1  0  0  0
 32 34  1  0  0  0
 34 35  1  0  0  0
  2  3  1  0  0  0
  3  4  2  0  0  0
  4  5  1  0  0  0
  4  6  1  0  0  0
  6  7  2  0  0  0
  7  8  1  0  0  0
  8  9  2  0  0  0
  9 10  1  0  0  0
 10 11  1  0  0  0
 11 12  2  0  0  0
 25 16  1  0  0  0
 11  1  1  0  0  0
 25 21  2  0  0  0
 35 29  1  0  0  0
  9  3  1  0  0  0
  5 13  1  0  0  0
  5 14  1  0  0  0
 10 15  1  0  0  0
M  END
> <minimizedAffinity>
-6.73080

> <CNNscore>
0.3598006368

> <CNNaffinity>
6.6451888084

> <CNN_VS>
2.3909430504

> <CNNaffinity_variance>
0.3614405096

$$$$
[H]c1nc(N([H])[H])c2c(C([H])([H])N3C([H])([H])C([H])([H])N(C([H])([H])[H])C([H])([H])C3([H])[H])c(-c3sc4c(OC([H])([H])[H])c([H])c(C([H])([H])[H])c([H])c4c3[H])c(=O)n([H])c2n1


 35 39  0  0  0  0  0  0  0  0999 V2000
   -2.9004   23.2152  -26.1916 C   0  0  0  0  0  0  0  0  0  0  0  0
   -3.8916   24.2638  -26.1236 C   0  0  0  0  0  0  0  0  0  0  0  0
   -4.4618   24.6262  -27.3164 C   0  0  0  0  0  0  0  0  0  0  0  0
   -5.4832   25.5219  -27.4138 C   0  0  0  0  0  0  0  0  0  0  0  0
   -6.2044   26.0223  -26.3166 N   0  0  0  0  0  0  0  0  0  0  0  0
   -6.0706   25.8195  -28.6342 N   0  0  0  0  0  0  0  0  0  0  0  0
   -5.6540   25.2259  -29.7485 C   0  0  0  0  0  0  0  0  0  0  0  0
   -4.6599   24.3305  -29.6944 N   0  0  0  0  0  0  0  0  0  0  0  0
   -4.0586   24.0107  -28.5437 C   0  0  0  0  0  0  0  0  0  0  0  0
   -3.1330   23.0546  -28.5300 N   0  0  0  0  0  0  0  0  0  0  0  0
   -2.5781   22.6640  -27.4268 C   0  0  0  0  0  0  0  0  0  0  0  0
   -1.6864   21.7303  -27.4084 O   0  0  0  0  0  0  0  0  0  0  0  0
   -6.7503   25.3580  -25.7374 H   0  0  0  0  0  0  0  0  0  0  0  0
   -6.2403   27.0369  -26.1331 H   0  0  0  0  0  0  0  0  0  0  0  0
   -2.8722   22.6369  -29.4467 H   0  0  0  0  0  0  0  0  0  0  0  0
    0.8604   21.3586  -22.7763 C   0  0  0  0  0  0  0  0  0  0  0  0
    0.7281   20.7846  -21.5376 C   0  0  0  0  0  0  0  0  0  0  0  0
   -0.5495   20.6623  -21.0504 C   0  0  0  0  0  0  0  0  0  0  0  0
   -0.6754   20.0290  -19.6905 C   0  0  0  0  0  0  0  0  0  0  0  0
   -1.6523   21.0801  -21.7369 C   0  0  0  0  0  0  0  0  0  0  0  0
   -1.5464   21.6743  -23.0133 C   0  0  0  0  0  0  0  0  0  0  0  0
   -2.5495   22.1375  -23.8185 C   0  0  0  0  0  0  0  0  0  0  0  0
   -2.2492   22.6722  -25.0059 C   0  0  0  0  0  0  0  0  0  0  0  0
   -0.4985   22.5170  -24.9921 S   0  0  0  0  0  0  0  0  0  0  0  0
   -0.2808   21.7882  -23.4810 C   0  0  0  0  0  0  0  0  0  0  0  0
    3.2357   20.8511  -23.2969 C   0  0  0  0  0  0  0  0  0  0  0  0
    2.0596   21.5656  -23.4276 O   0  0  0  0  0  0  0  0  0  0  0  0
   -4.0585   24.8551  -24.8515 C   0  0  0  0  0  0  0  0  0  0  0  0
   -5.0634   24.9425  -23.8818 N   0  0  0  0  0  0  0  0  0  0  0  0
   -5.7649   23.6162  -23.8924 C   0  0  0  0  0  0  0  0  0  0  0  0
   -7.0430   23.8307  -23.1178 C   0  0  0  0  0  0  0  0  0  0  0  0
   -6.8617   24.8672  -22.1446 N   0  0  0  0  0  0  0  0  0  0  0  0
   -7.8785   24.7502  -21.1271 C   0  0  0  0  0  0  0  0  0  0  0  0
   -5.5637   24.7820  -21.4924 C   0  0  0  0  0  0  0  0  0  0  0  0
   -4.4487   24.8765  -22.5058 C   0  0  0  0  0  0  0  0  0  0  0  0
 26 27  1  0  0  0
 27 16  1  0  0  0
 16 17  2  0  0  0
 17 18  1  0  0  0
 18 19  1  0  0  0
 18 20  2  0  0  0
 20 21  1  0  0  0
 21 22  1  0  0  0
 22 23  2  0  0  0
 23 24  1  0  0  0
 24 25  1  0  0  0
 23  1  1  0  0  0
  1  2  2  0  0  0
  2 28  1  0  0  0
 28 29  1  0  0  0
 29 30  1  0  0  0
 30 31  1  0  0  0
 31 32  1  0  0  0
 32 33  1  0  0  0
 32 34  1  0  0  0
 34 35  1  0  0  0
  2  3  1  0  0  0
  3  4  2  0  0  0
  4  5  1  0  0  0
  4  6  1  0  0  0
  6  7  2  0  0  0
  7  8  1  0  0  0
  8  9  2  0  0  0
  9 10  1  0  0  0
 10 11  1  0  0  0
 11 12  2  0  0  0
 25 16  1  0  0  0
 11  1  1  0  0  0
 25 21  2  0  0  0
 35 29  1  0  0  0
  9  3  1  0  0  0
  5 13  1  0  0  0
  5 14  1  0  0  0
 10 15  1  0  0  0
M  END
> <minimizedAffinity>
-9.14322

> <CNNscore>
0.3529010415

> <CNNaffinity>
7.2506546974

> <CNN_VS>
2.5587635040

> <CNNaffinity_variance>
0.2817919850

$$$$
[H]c1nc(N([H])[H])c2c(C([H])([H])N3C([H])([H])C([H])([H])N(C([H])([H])[H])C([H])([H])C3([H])[H])c(-c3sc4c(OC([H])([H])[H])c([H])c(C([H])([H])[H])c([H])c4c3[H])c(=O)n([H])c2n1


 35 39  0  0  0  0  0  0  0  0999 V2000
   -2.7155   22.9896  -25.1652 C   0  0  0  0  0  0  0  0  0  0  0  0
   -4.1038   23.3601  -25.3137 C   0  0  0  0  0  0  0  0  0  0  0  0
   -4.5597   23.4678  -26.6020 C   0  0  0  0  0  0  0  0  0  0  0  0
   -5.8637   23.7059  -26.9149 C   0  0  0  0  0  0  0  0  0  0  0  0
   -6.9196   23.6679  -25.9887 N   0  0  0  0  0  0  0  0  0  0  0  0
   -6.2950   23.7517  -28.2321 N   0  0  0  0  0  0  0  0  0  0  0  0
   -5.4406   23.5535  -29.2312 C   0  0  0  0  0  0  0  0  0  0  0  0
   -4.1518   23.3049  -28.9661 N   0  0  0  0  0  0  0  0  0  0  0  0
   -3.6852   23.2530  -27.7141 C   0  0  0  0  0  0  0  0  0  0  0  0
   -2.4144   22.9204  -27.5003 N   0  0  0  0  0  0  0  0  0  0  0  0
   -1.9408   22.7881  -26.3020 C   0  0  0  0  0  0  0  0  0  0  0  0
   -0.7109   22.4565  -26.0906 O   0  0  0  0  0  0  0  0  0  0  0  0
   -7.1263   22.7724  -25.5088 H   0  0  0  0  0  0  0  0  0  0  0  0
   -7.5151   24.4970  -25.8400 H   0  0  0  0  0  0  0  0  0  0  0  0
   -1.8169   22.7748  -28.3397 H   0  0  0  0  0  0  0  0  0  0  0  0
   -0.4137   20.6001  -20.8935 C   0  0  0  0  0  0  0  0  0  0  0  0
   -0.0802   21.1100  -19.6647 C   0  0  0  0  0  0  0  0  0  0  0  0
   -0.3446   22.4414  -19.4596 C   0  0  0  0  0  0  0  0  0  0  0  0
    0.0268   22.9831  -18.1050 C   0  0  0  0  0  0  0  0  0  0  0  0
   -0.9087   23.2441  -20.4080 C   0  0  0  0  0  0  0  0  0  0  0  0
   -1.2621   22.7468  -21.6813 C   0  0  0  0  0  0  0  0  0  0  0  0
   -1.8316   23.4200  -22.7260 C   0  0  0  0  0  0  0  0  0  0  0  0
   -2.0961   22.7710  -23.8639 C   0  0  0  0  0  0  0  0  0  0  0  0
   -1.5275   21.1598  -23.4518 S   0  0  0  0  0  0  0  0  0  0  0  0
   -0.9959   21.4325  -21.8691 C   0  0  0  0  0  0  0  0  0  0  0  0
    0.4673   18.2937  -20.6199 C   0  0  0  0  0  0  0  0  0  0  0  0
   -0.2242   19.2897  -21.2836 O   0  0  0  0  0  0  0  0  0  0  0  0
   -4.7768   23.6735  -24.1119 C   0  0  0  0  0  0  0  0  0  0  0  0
   -5.8326   23.1499  -23.3575 N   0  0  0  0  0  0  0  0  0  0  0  0
   -5.2126   22.5913  -22.1105 C   0  0  0  0  0  0  0  0  0  0  0  0
   -6.2813   21.7310  -21.4802 C   0  0  0  0  0  0  0  0  0  0  0  0
   -7.5809   22.2282  -21.8241 N   0  0  0  0  0  0  0  0  0  0  0  0
   -8.5496   21.7262  -20.8795 C   0  0  0  0  0  0  0  0  0  0  0  0
   -7.6350   23.6819  -21.7912 C   0  0  0  0  0  0  0  0  0  0  0  0
   -6.6271   24.2765  -22.7451 C   0  0  0  0  0  0  0  0  0  0  0  0
 26 27  1  0  0  0
 27 16  1  0  0  0
 16 17  2  0  0  0
 17 18  1  0  0  0
 18 19  1  0  0  0
 18 20  2  0  0  0
 20 21  1  0  0  0
 21 22  1  0  0  0
 22 23  2  0  0  0
 23 24  1  0  0  0
 24 25  1  0  0  0
 23  1  1  0  0  0
  1  2  2  0  0  0
  2 28  1  0  0  0
 28 29  1  0  0  0
 29 30  1  0  0  0
 30 31  1  0  0  0
 31 32  1  0  0  0
 32 33  1  0  0  0
 32 34  1  0  0  0
 34 35  1  0  0  0
  2  3  1  0  0  0
  3  4  2  0  0  0
  4  5  1  0  0  0
  4  6  1  0  0  0
  6  7  2  0  0  0
  7  8  1  0  0  0
  8  9  2  0  0  0
  9 10  1  0  0  0
 10 11  1  0  0  0
 11 12  2  0  0  0
 25 16  1  0  0  0
 11  1  1  0  0  0
 25 21  2  0  0  0
 35 29  1  0  0  0
  9  3  1  0  0  0
  5 13  1  0  0  0
  5 14  1  0  0  0
 10 15  1  0  0  0
M  END
> <minimizedAffinity>
-8.18329

> <CNNscore>
0.3148297071

> <CNNaffinity>
7.0279631615

> <CNN_VS>
2.2126116753

> <CNNaffinity_variance>
0.3470566273

$$$$
[H]c1nc(N([H])[H])c2c(n1)N1C([H])([H])C([H])([H])N(C([H])([H])C(C(=O)N([H])C([H])([H])C(F)(F)F)=C2c2sc3c(OC([H])([H])[H])c([H])c(C([H])([H])[H])c([H])c3c2[H])C([H])([H])C1([H])[H]


 39 43  0  0  0  0  0  0  0  0999 V2000
   -4.2192   22.8328  -24.6975 C   0  0  0  0  0  0  0  0  0  0  0  0
   -5.4609   22.7654  -24.2707 C   0  0  0  0  0  0  0  0  0  0  0  0
   -6.6088   23.0757  -25.2295 C   0  0  0  0  0  0  0  0  0  0  0  0
   -7.2070   24.3085  -24.9296 N   0  0  0  0  0  0  0  0  0  0  0  0
   -6.4596   25.3108  -24.2345 C   0  0  0  0  0  0  0  0  0  0  0  0
   -5.1952   25.7307  -24.9640 C   0  0  0  0  0  0  0  0  0  0  0  0
   -5.2691   25.1473  -26.3497 N   0  0  0  0  0  0  0  0  0  0  0  0
   -6.5327   25.5772  -26.8864 C   0  0  0  0  0  0  0  0  0  0  0  0
   -7.6999   24.9250  -26.1437 C   0  0  0  0  0  0  0  0  0  0  0  0
   -4.2108   24.3284  -26.8063 C   0  0  0  0  0  0  0  0  0  0  0  0
   -3.5320   24.4938  -27.9970 N   0  0  0  0  0  0  0  0  0  0  0  0
   -2.5725   23.7703  -28.4928 C   0  0  0  0  0  0  0  0  0  0  0  0
   -2.1587   22.7171  -27.7894 N   0  0  0  0  0  0  0  0  0  0  0  0
   -2.7633   22.4597  -26.5888 C   0  0  0  0  0  0  0  0  0  0  0  0
   -2.2301   21.2666  -25.9656 N   0  0  0  0  0  0  0  0  0  0  0  0
   -3.7738   23.2157  -26.0513 C   0  0  0  0  0  0  0  0  0  0  0  0
   -2.8060   20.4043  -25.8952 H   0  0  0  0  0  0  0  0  0  0  0  0
   -1.2644   21.2418  -25.5873 H   0  0  0  0  0  0  0  0  0  0  0  0
   -0.5854   22.5707  -20.6266 C   0  0  0  0  0  0  0  0  0  0  0  0
    0.3284   21.5782  -20.3548 C   0  0  0  0  0  0  0  0  0  0  0  0
    0.3561   20.4971  -21.2032 C   0  0  0  0  0  0  0  0  0  0  0  0
    1.3420   19.3686  -20.9579 C   0  0  0  0  0  0  0  0  0  0  0  0
   -0.4909   20.4221  -22.2659 C   0  0  0  0  0  0  0  0  0  0  0  0
   -1.4359   21.4139  -22.5752 C   0  0  0  0  0  0  0  0  0  0  0  0
   -2.3147   21.4424  -23.5918 C   0  0  0  0  0  0  0  0  0  0  0  0
   -3.1421   22.5037  -23.7065 C   0  0  0  0  0  0  0  0  0  0  0  0
   -2.6733   23.4792  -22.3566 S   0  0  0  0  0  0  0  0  0  0  0  0
   -1.4509   22.4843  -21.7208 C   0  0  0  0  0  0  0  0  0  0  0  0
   -1.0500   23.6768  -18.4847 C   0  0  0  0  0  0  0  0  0  0  0  0
   -0.6854   23.6941  -19.8290 O   0  0  0  0  0  0  0  0  0  0  0  0
   -5.9380   22.5659  -22.9200 C   0  0  0  0  0  0  0  0  0  0  0  0
   -6.1015   21.4294  -22.3571 O   0  0  0  0  0  0  0  0  0  0  0  0
   -6.2761   23.6875  -22.0917 N   0  0  0  0  0  0  0  0  0  0  0  0
   -6.1865   24.6469  -22.4294 H   0  0  0  0  0  0  0  0  0  0  0  0
   -6.7611   23.4665  -20.7292 C   0  0  0  0  0  0  0  0  0  0  0  0
   -8.2644   23.5550  -20.7238 C   0  0  0  0  0  0  0  0  0  0  0  0
   -8.7332   24.1685  -21.8940 F   0  0  0  0  0  0  0  0  0  0  0  0
   -8.8468   22.3041  -20.7048 F   0  0  0  0  0  0  0  0  0  0  0  0
   -8.7425   24.2964  -19.6709 F   0  0  0  0  0  0  0  0  0  0  0  0
 29 30  1  0  0  0
 30 19  1  0  0  0
 19 20  1  0  0  0
 20 21  2  0  0  0
 21 22  1  0  0  0
 21 23  1  0  0  0
 23 24  2  0  0  0
 24 25  1  0  0  0
 25 26  2  0  0  0
 26 27  1  0  0  0
 27 28  1  0  0  0
 26  1  1  0  0  0
  1  2  2  0  0  0
  2  3  1  0  0  0
  3  4  1  0  0  0
  4  5  1  0  0  0
  5  6  1  0  0  0
  6  7  1  0  0  0
  7  8  1  0  0  0
  8  9  1  0  0  0
  7 10  1  0  0  0
 10 11  2  0  0  0
 11 12  1  0  0  0
 12 13  2  0  0  0
 13 14  1  0  0  0
 14 15  1  0  0  0
 14 16  2  0  0  0
  2 31  1  0  0  0
 31 32  2  0  0  0
 31 33  1  0  0  0
 33 35  1  0  0  0
 35 36  1  0  0  0
 36 37  1  0  0  0
 36 38  1  0  0  0
 36 39  1  0  0  0
 28 19  2  0  0  0
 16  1  1  0  0  0
 28 24  1  0  0  0
  9  4  1  0  0  0
 16 10  1  0  0  0
 15 17  1  0  0  0
 15 18  1  0  0  0
 33 34  1  0  0  0
M  END
> <minimizedAffinity>
-7.58746

> <CNNscore>
0.1602733433

> <CNNaffinity>
6.9600358009

> <CNN_VS>
1.1155081987

> <CNNaffinity_variance>
0.1099042445

$$$$
[H]c1nc(N([H])[H])c2c(n1)N1C([H])([H])C([H])([H])N(C([H])([H])C(C(=O)N([H])C([H])([H])C(F)(F)F)=C2c2sc3c(OC([H])([H])[H])c([H])c(C([H])([H])[H])c([H])c3c2[H])C([H])([H])C1([H])[H]


 39 43  0  0  0  0  0  0  0  0999 V2000
    0.6729   20.9616  -18.9693 C   0  0  0  0  0  0  0  0  0  0  0  0
    0.4222   19.8398  -18.3312 C   0  0  0  0  0  0  0  0  0  0  0  0
    1.0545   19.5894  -16.9635 C   0  0  0  0  0  0  0  0  0  0  0  0
    2.0653   18.6196  -17.0368 N   0  0  0  0  0  0  0  0  0  0  0  0
    2.7379   18.3865  -18.2777 C   0  0  0  0  0  0  0  0  0  0  0  0
    3.4307   19.6219  -18.8263 C   0  0  0  0  0  0  0  0  0  0  0  0
    3.4234   20.6561  -17.7325 N   0  0  0  0  0  0  0  0  0  0  0  0
    4.0016   20.0118  -16.5835 C   0  0  0  0  0  0  0  0  0  0  0  0
    3.0913   18.9023  -16.0548 C   0  0  0  0  0  0  0  0  0  0  0  0
    2.8640   21.9277  -17.9949 C   0  0  0  0  0  0  0  0  0  0  0  0
    3.4876   23.1366  -17.7594 N   0  0  0  0  0  0  0  0  0  0  0  0
    3.0293   24.3382  -17.9493 C   0  0  0  0  0  0  0  0  0  0  0  0
    1.7950   24.4650  -18.4348 N   0  0  0  0  0  0  0  0  0  0  0  0
    1.0840   23.3276  -18.7069 C   0  0  0  0  0  0  0  0  0  0  0  0
   -0.2461   23.6306  -19.1915 N   0  0  0  0  0  0  0  0  0  0  0  0
    1.5554   22.0537  -18.5153 C   0  0  0  0  0  0  0  0  0  0  0  0
   -1.0804   23.4358  -18.6031 H   0  0  0  0  0  0  0  0  0  0  0  0
   -0.3955   24.0560  -20.1259 H   0  0  0  0  0  0  0  0  0  0  0  0
   -0.7308   21.6287  -24.2067 C   0  0  0  0  0  0  0  0  0  0  0  0
   -1.9906   21.7314  -24.7510 C   0  0  0  0  0  0  0  0  0  0  0  0
   -3.0580   21.6626  -23.8875 C   0  0  0  0  0  0  0  0  0  0  0  0
   -4.4739   21.7699  -24.4255 C   0  0  0  0  0  0  0  0  0  0  0  0
   -2.8645   21.4992  -22.5503 C   0  0  0  0  0  0  0  0  0  0  0  0
   -1.5954   21.3905  -21.9585 C   0  0  0  0  0  0  0  0  0  0  0  0
   -1.2906   21.2286  -20.6595 C   0  0  0  0  0  0  0  0  0  0  0  0
    0.0093   21.1472  -20.3019 C   0  0  0  0  0  0  0  0  0  0  0  0
    0.8167   21.3014  -21.8244 S   0  0  0  0  0  0  0  0  0  0  0  0
   -0.5426   21.4611  -22.8319 C   0  0  0  0  0  0  0  0  0  0  0  0
    0.4032   22.0323  -26.3464 C   0  0  0  0  0  0  0  0  0  0  0  0
    0.4007   21.6868  -24.9969 O   0  0  0  0  0  0  0  0  0  0  0  0
   -0.2905   18.6746  -18.8067 C   0  0  0  0  0  0  0  0  0  0  0  0
   -1.4859   18.3586  -18.4805 O   0  0  0  0  0  0  0  0  0  0  0  0
    0.3342   17.7568  -19.7154 N   0  0  0  0  0  0  0  0  0  0  0  0
    1.2878   17.9024  -20.0498 H   0  0  0  0  0  0  0  0  0  0  0  0
   -0.4007   16.5811  -20.1828 C   0  0  0  0  0  0  0  0  0  0  0  0
    0.0390   15.3804  -19.3873 C   0  0  0  0  0  0  0  0  0  0  0  0
   -0.3278   14.1913  -20.0331 F   0  0  0  0  0  0  0  0  0  0  0  0
    1.4126   15.3260  -19.2672 F   0  0  0  0  0  0  0  0  0  0  0  0
   -0.5296   15.3422  -18.1376 F   0  0  0  0  0  0  0  0  0  0  0  0
 29 30  1  0  0  0
 30 19  1  0  0  0
 19 20  1  0  0  0
 20 21  2  0  0  0
 21 22  1  0  0  0
 21 23  1  0  0  0
 23 24  2  0  0  0
 24 25  1  0  0  0
 25 26  2  0  0  0
 26 27  1  0  0  0
 27 28  1  0  0  0
 26  1  1  0  0  0
  1  2  2  0  0  0
  2  3  1  0  0  0
  3  4  1  0  0  0
  4  5  1  0  0  0
  5  6  1  0  0  0
  6  7  1  0  0  0
  7  8  1  0  0  0
  8  9  1  0  0  0
  7 10  1  0  0  0
 10 11  2  0  0  0
 11 12  1  0  0  0
 12 13  2  0  0  0
 13 14  1  0  0  0
 14 15  1  0  0  0
 14 16  2  0  0  0
  2 31  1  0  0  0
 31 32  2  0  0  0
 31 33  1  0  0  0
 33 35  1  0  0  0
 35 36  1  0  0  0
 36 37  1  0  0  0
 36 38  1  0  0  0
 36 39  1  0  0  0
 28 19  2  0  0  0
 16  1  1  0  0  0
 28 24  1  0  0  0
  9  4  1  0  0  0
 16 10  1  0  0  0
 15 17  1  0  0  0
 15 18  1  0  0  0
 33 34  1  0  0  0
M  END
> <minimizedAffinity>
-5.97050

> <CNNscore>
0.1239298210

> <CNNaffinity>
5.6414089203

> <CNN_VS>
0.6991388202

> <CNNaffinity_variance>
0.2430936098

$$$$
[H]c1nc(N([H])[H])c2c(n1)N1C([H])([H])C([H])([H])N(C([H])([H])C(C(=O)N([H])C([H])([H])C(F)(F)F)=C2c2sc3c(OC([H])([H])[H])c([H])c(C([H])([H])[H])c([H])c3c2[H])C([H])([H])C1([H])[H]


 39 43  0  0  0  0  0  0  0  0999 V2000
   -5.5053   22.1394  -17.7947 C   0  0  0  0  0  0  0  0  0  0  0  0
   -6.1146   22.7571  -18.7826 C   0  0  0  0  0  0  0  0  0  0  0  0
   -7.5912   23.1244  -18.6495 C   0  0  0  0  0  0  0  0  0  0  0  0
   -8.3961   22.3101  -19.4597 N   0  0  0  0  0  0  0  0  0  0  0  0
   -7.9318   21.0141  -19.8489 C   0  0  0  0  0  0  0  0  0  0  0  0
   -7.6308   20.1052  -18.6697 C   0  0  0  0  0  0  0  0  0  0  0  0
   -8.1884   20.7738  -17.4417 N   0  0  0  0  0  0  0  0  0  0  0  0
   -9.5668   21.0547  -17.7431 C   0  0  0  0  0  0  0  0  0  0  0  0
   -9.6886   22.1182  -18.8355 C   0  0  0  0  0  0  0  0  0  0  0  0
   -7.3302   21.0200  -16.3454 C   0  0  0  0  0  0  0  0  0  0  0  0
   -7.5831   20.6560  -15.0380 N   0  0  0  0  0  0  0  0  0  0  0  0
   -6.8586   20.8701  -13.9801 C   0  0  0  0  0  0  0  0  0  0  0  0
   -5.7095   21.5265  -14.1340 N   0  0  0  0  0  0  0  0  0  0  0  0
   -5.3577   21.9343  -15.3923 C   0  0  0  0  0  0  0  0  0  0  0  0
   -4.1065   22.6625  -15.3891 N   0  0  0  0  0  0  0  0  0  0  0  0
   -6.1096   21.7126  -16.5179 C   0  0  0  0  0  0  0  0  0  0  0  0
   -4.0894   23.6853  -15.5732 H   0  0  0  0  0  0  0  0  0  0  0  0
   -3.2060   22.1858  -15.1938 H   0  0  0  0  0  0  0  0  0  0  0  0
   -0.5563   19.9480  -18.5367 C   0  0  0  0  0  0  0  0  0  0  0  0
    0.6568   20.5877  -18.6521 C   0  0  0  0  0  0  0  0  0  0  0  0
    0.6561   21.9599  -18.5723 C   0  0  0  0  0  0  0  0  0  0  0  0
    1.9624   22.7249  -18.6915 C   0  0  0  0  0  0  0  0  0  0  0  0
   -0.5036   22.6476  -18.3865 C   0  0  0  0  0  0  0  0  0  0  0  0
   -1.7594   22.0306  -18.2645 C   0  0  0  0  0  0  0  0  0  0  0  0
   -2.9592   22.6076  -18.0799 C   0  0  0  0  0  0  0  0  0  0  0  0
   -4.0523   21.8197  -17.9876 C   0  0  0  0  0  0  0  0  0  0  0  0
   -3.3769   20.2367  -18.1647 S   0  0  0  0  0  0  0  0  0  0  0  0
   -1.7418   20.6634  -18.3460 C   0  0  0  0  0  0  0  0  0  0  0  0
    0.0200   17.6914  -17.7602 C   0  0  0  0  0  0  0  0  0  0  0  0
   -0.6527   18.5717  -18.6047 O   0  0  0  0  0  0  0  0  0  0  0  0
   -5.6159   23.0395  -20.1105 C   0  0  0  0  0  0  0  0  0  0  0  0
   -5.2328   24.1871  -20.5246 O   0  0  0  0  0  0  0  0  0  0  0  0
   -5.5200   21.9971  -21.0916 N   0  0  0  0  0  0  0  0  0  0  0  0
   -5.7954   21.0371  -20.8794 H   0  0  0  0  0  0  0  0  0  0  0  0
   -5.0170   22.3021  -22.4313 C   0  0  0  0  0  0  0  0  0  0  0  0
   -6.1647   22.2656  -23.4056 C   0  0  0  0  0  0  0  0  0  0  0  0
   -7.3690   22.6036  -22.7723 F   0  0  0  0  0  0  0  0  0  0  0  0
   -6.0050   23.1945  -24.4135 F   0  0  0  0  0  0  0  0  0  0  0  0
   -6.3451   21.0208  -23.9574 F   0  0  0  0  0  0  0  0  0  0  0  0
 29 30  1  0  0  0
 30 19  1  0  0  0
 19 20  1  0  0  0
 20 21  2  0  0  0
 21 22  1  0  0  0
 21 23  1  0  0  0
 23 24  2  0  0  0
 24 25  1  0  0  0
 25 26  2  0  0  0
 26 27  1  0  0  0
 27 28  1  0  0  0
 26  1  1  0  0  0
  1  2  2  0  0  0
  2  3  1  0  0  0
  3  4  1  0  0  0
  4  5  1  0  0  0
  5  6  1  0  0  0
  6  7  1  0  0  0
  7  8  1  0  0  0
  8  9  1  0  0  0
  7 10  1  0  0  0
 10 11  2  0  0  0
 11 12  1  0  0  0
 12 13  2  0  0  0
 13 14  1  0  0  0
 14 15  1  0  0  0
 14 16  2  0  0  0
  2 31  1  0  0  0
 31 32  2  0  0  0
 31 33  1  0  0  0
 33 35  1  0  0  0
 35 36  1  0  0  0
 36 37  1  0  0  0
 36 38  1  0  0  0
 36 39  1  0  0  0
 28 19  2  0  0  0
 16  1  1  0  0  0
 28 24  1  0  0  0
  9  4  1  0  0  0
 16 10  1  0  0  0
 15 17  1  0  0  0
 15 18  1  0  0  0
 33 34  1  0  0  0
M  END
> <minimizedAffinity>
-5.71496

> <CNNscore>
0.1041486114

> <CNNaffinity>
5.8177528381

> <CNN_VS>
0.6059108973

> <CNNaffinity_variance>
0.2002326995

$$$$
[H]c1nc(N([H])[H])c2c(n1)N1C([H])([H])C([H])([H])N(C([H])([H])C(C(=O)N([H])C([H])([H])C(F)(F)F)=C2c2sc3c(OC([H])([H])[H])c([H])c(C([H])([H])[H])c([H])c3c2[H])C([H])([H])C1([H])[H]


 39 43  0  0  0  0  0  0  0  0999 V2000
    1.7152   20.6465  -19.3970 C   0  0  0  0  0  0  0  0  0  0  0  0
    1.7188   19.4011  -18.9756 C   0  0  0  0  0  0  0  0  0  0  0  0
    2.3948   19.0522  -17.6511 C   0  0  0  0  0  0  0  0  0  0  0  0
    3.5936   18.3536  -17.8567 N   0  0  0  0  0  0  0  0  0  0  0  0
    4.2973   18.4983  -19.0939 C   0  0  0  0  0  0  0  0  0  0  0  0
    4.7003   19.9323  -19.3910 C   0  0  0  0  0  0  0  0  0  0  0  0
    4.4694   20.7268  -18.1335 N   0  0  0  0  0  0  0  0  0  0  0  0
    5.1784   20.0275  -17.0952 C   0  0  0  0  0  0  0  0  0  0  0  0
    4.5354   18.6707  -16.8034 C   0  0  0  0  0  0  0  0  0  0  0  0
    3.6436   21.8731  -18.1885 C   0  0  0  0  0  0  0  0  0  0  0  0
    3.9873   23.1259  -17.7215 N   0  0  0  0  0  0  0  0  0  0  0  0
    3.2758   24.2138  -17.7138 C   0  0  0  0  0  0  0  0  0  0  0  0
    2.0424   24.1555  -18.2143 N   0  0  0  0  0  0  0  0  0  0  0  0
    1.5976   22.9589  -18.7079 C   0  0  0  0  0  0  0  0  0  0  0  0
    0.2320   23.0487  -19.1800 N   0  0  0  0  0  0  0  0  0  0  0  0
    2.3377   21.8041  -18.7261 C   0  0  0  0  0  0  0  0  0  0  0  0
   -0.5374   22.5754  -18.6659 H   0  0  0  0  0  0  0  0  0  0  0  0
   -0.0099   23.5923  -20.0299 H   0  0  0  0  0  0  0  0  0  0  0  0
   -1.7117   21.4967  -23.5659 C   0  0  0  0  0  0  0  0  0  0  0  0
   -1.4129   21.8163  -24.8707 C   0  0  0  0  0  0  0  0  0  0  0  0
   -0.0845   21.9437  -25.2003 C   0  0  0  0  0  0  0  0  0  0  0  0
    0.3111   22.2944  -26.6237 C   0  0  0  0  0  0  0  0  0  0  0  0
    0.8873   21.7590  -24.2655 C   0  0  0  0  0  0  0  0  0  0  0  0
    0.6218   21.4324  -22.9256 C   0  0  0  0  0  0  0  0  0  0  0  0
    1.4970   21.2284  -21.9262 C   0  0  0  0  0  0  0  0  0  0  0  0
    1.0231   20.9202  -20.6996 C   0  0  0  0  0  0  0  0  0  0  0  0
   -0.6875   20.9180  -20.9594 S   0  0  0  0  0  0  0  0  0  0  0  0
   -0.7062   21.3089  -22.6133 C   0  0  0  0  0  0  0  0  0  0  0  0
   -3.8340   22.3951  -22.7199 C   0  0  0  0  0  0  0  0  0  0  0  0
   -3.0183   21.3482  -23.1431 O   0  0  0  0  0  0  0  0  0  0  0  0
    1.2779   18.2141  -19.6743 C   0  0  0  0  0  0  0  0  0  0  0  0
    0.1399   17.6507  -19.5234 O   0  0  0  0  0  0  0  0  0  0  0  0
    2.1357   17.5640  -20.6230 N   0  0  0  0  0  0  0  0  0  0  0  0
    3.0696   17.9208  -20.8305 H   0  0  0  0  0  0  0  0  0  0  0  0
    1.6744   16.3617  -21.3175 C   0  0  0  0  0  0  0  0  0  0  0  0
    2.6547   16.0194  -22.4082 C   0  0  0  0  0  0  0  0  0  0  0  0
    3.2035   17.1809  -22.9696 F   0  0  0  0  0  0  0  0  0  0  0  0
    3.7284   15.3034  -21.9197 F   0  0  0  0  0  0  0  0  0  0  0  0
    2.0716   15.3213  -23.4375 F   0  0  0  0  0  0  0  0  0  0  0  0
 29 30  1  0  0  0
 30 19  1  0  0  0
 19 20  1  0  0  0
 20 21  2  0  0  0
 21 22  1  0  0  0
 21 23  1  0  0  0
 23 24  2  0  0  0
 24 25  1  0  0  0
 25 26  2  0  0  0
 26 27  1  0  0  0
 27 28  1  0  0  0
 26  1  1  0  0  0
  1  2  2  0  0  0
  2  3  1  0  0  0
  3  4  1  0  0  0
  4  5  1  0  0  0
  5  6  1  0  0  0
  6  7  1  0  0  0
  7  8  1  0  0  0
  8  9  1  0  0  0
  7 10  1  0  0  0
 10 11  2  0  0  0
 11 12  1  0  0  0
 12 13  2  0  0  0
 13 14  1  0  0  0
 14 15  1  0  0  0
 14 16  2  0  0  0
  2 31  1  0  0  0
 31 32  2  0  0  0
 31 33  1  0  0  0
 33 35  1  0  0  0
 35 36  1  0  0  0
 36 37  1  0  0  0
 36 38  1  0  0  0
 36 39  1  0  0  0
 28 19  2  0  0  0
 16  1  1  0  0  0
 28 24  1  0  0  0
  9  4  1  0  0  0
 16 10  1  0  0  0
 15 17  1  0  0  0
 15 18  1  0  0  0
 33 34  1  0  0  0
M  END
> <minimizedAffinity>
-7.07534

> <CNNscore>
0.0891190618

> <CNNaffinity>
5.6697359085

> <CNN_VS>
0.5052815676

> <CNNaffinity_variance>
0.1790350229

$$$$
[H]c1nc(N([H])[H])c2c(n1)N1C([H])([H])C([H])([H])N(C([H])([H])C(C(=O)N([H])C([H])([H])C(F)(F)F)=C2c2sc3c(OC([H])([H])[H])c([H])c(C([H])([H])[H])c([H])c3c2[H])C([H])([H])C1([H])[H]


 39 43  0  0  0  0  0  0  0  0999 V2000
   -4.2151   22.7696  -23.2100 C   0  0  0  0  0  0  0  0  0  0  0  0
   -5.3588   22.5860  -22.5881 C   0  0  0  0  0  0  0  0  0  0  0  0
   -6.6674   22.9481  -23.2877 C   0  0  0  0  0  0  0  0  0  0  0  0
   -7.2408   24.1026  -22.7348 N   0  0  0  0  0  0  0  0  0  0  0  0
   -6.4134   25.0523  -22.0565 C   0  0  0  0  0  0  0  0  0  0  0  0
   -5.3119   25.6229  -22.9331 C   0  0  0  0  0  0  0  0  0  0  0  0
   -5.6122   25.2070  -24.3483 N   0  0  0  0  0  0  0  0  0  0  0  0
   -6.9636   25.6309  -24.6005 C   0  0  0  0  0  0  0  0  0  0  0  0
   -7.9600   24.8336  -23.7573 C   0  0  0  0  0  0  0  0  0  0  0  0
   -4.6268   24.5059  -25.0807 C   0  0  0  0  0  0  0  0  0  0  0  0
   -4.1752   24.8487  -26.3394 N   0  0  0  0  0  0  0  0  0  0  0  0
   -3.2969   24.2416  -27.0810 C   0  0  0  0  0  0  0  0  0  0  0  0
   -2.7326   23.1349  -26.5993 N   0  0  0  0  0  0  0  0  0  0  0  0
   -3.1066   22.7036  -25.3554 C   0  0  0  0  0  0  0  0  0  0  0  0
   -2.4347   21.4742  -24.9905 N   0  0  0  0  0  0  0  0  0  0  0  0
   -4.0287   23.3352  -24.5602 C   0  0  0  0  0  0  0  0  0  0  0  0
   -2.9621   20.5805  -24.9326 H   0  0  0  0  0  0  0  0  0  0  0  0
   -1.4169   21.4552  -24.7902 H   0  0  0  0  0  0  0  0  0  0  0  0
    0.2566   22.3547  -20.0991 C   0  0  0  0  0  0  0  0  0  0  0  0
    1.0964   21.2756  -19.9434 C   0  0  0  0  0  0  0  0  0  0  0  0
    0.7981   20.1369  -20.6533 C   0  0  0  0  0  0  0  0  0  0  0  0
    1.6861   18.9118  -20.5256 C   0  0  0  0  0  0  0  0  0  0  0  0
   -0.2868   20.0901  -21.4738 C   0  0  0  0  0  0  0  0  0  0  0  0
   -1.1661   21.1697  -21.6582 C   0  0  0  0  0  0  0  0  0  0  0  0
   -2.2591   21.2331  -22.4378 C   0  0  0  0  0  0  0  0  0  0  0  0
   -2.9697   22.3812  -22.4691 C   0  0  0  0  0  0  0  0  0  0  0  0
   -2.0813   23.3899  -21.3797 S   0  0  0  0  0  0  0  0  0  0  0  0
   -0.8551   22.2966  -20.9443 C   0  0  0  0  0  0  0  0  0  0  0  0
    1.5333   23.7623  -18.5448 C   0  0  0  0  0  0  0  0  0  0  0  0
    0.4774   23.5406  -19.4260 O   0  0  0  0  0  0  0  0  0  0  0  0
   -5.5825   22.2008  -21.2121 C   0  0  0  0  0  0  0  0  0  0  0  0
   -6.2359   21.1690  -20.8332 O   0  0  0  0  0  0  0  0  0  0  0  0
   -5.0613   22.9954  -20.1373 N   0  0  0  0  0  0  0  0  0  0  0  0
   -4.5209   23.8436  -20.3137 H   0  0  0  0  0  0  0  0  0  0  0  0
   -5.3010   22.5926  -18.7513 C   0  0  0  0  0  0  0  0  0  0  0  0
   -4.0390   21.9922  -18.1904 C   0  0  0  0  0  0  0  0  0  0  0  0
   -3.0780   22.9839  -17.9486 F   0  0  0  0  0  0  0  0  0  0  0  0
   -4.2624   21.3899  -16.9690 F   0  0  0  0  0  0  0  0  0  0  0  0
   -3.4635   21.0857  -19.0470 F   0  0  0  0  0  0  0  0  0  0  0  0
 29 30  1  0  0  0
 30 19  1  0  0  0
 19 20  1  0  0  0
 20 21  2  0  0  0
 21 22  1  0  0  0
 21 23  1  0  0  0
 23 24  2  0  0  0
 24 25  1  0  0  0
 25 26  2  0  0  0
 26 27  1  0  0  0
 27 28  1  0  0  0
 26  1  1  0  0  0
  1  2  2  0  0  0
  2  3  1  0  0  0
  3  4  1  0  0  0
  4  5  1  0  0  0
  5  6  1  0  0  0
  6  7  1  0  0  0
  7  8  1  0  0  0
  8  9  1  0  0  0
  7 10  1  0  0  0
 10 11  2  0  0  0
 11 12  1  0  0  0
 12 13  2  0  0  0
 13 14  1  0  0  0
 14 15  1  0  0  0
 14 16  2  0  0  0
  2 31  1  0  0  0
 31 32  2  0  0  0
 31 33  1  0  0  0
 33 35  1  0  0  0
 35 36  1  0  0  0
 36 37  1  0  0  0
 36 38  1  0  0  0
 36 39  1  0  0  0
 28 19  2  0  0  0
 16  1  1  0  0  0
 28 24  1  0  0  0
  9  4  1  0  0  0
 16 10  1  0  0  0
 15 17  1  0  0  0
 15 18  1  0  0  0
 33 34  1  0  0  0
M  END
> <minimizedAffinity>
-6.79542

> <CNNscore>
0.0784261078

> <CNNaffinity>
6.3777208328

> <CNN_VS>
0.5001798272

> <CNNaffinity_variance>
0.1745725423

$$$$
[H]c1nc(N([H])[H])c2c(n1)N1C([H])([H])C([H])([H])N(C([H])([H])C(C(=O)N([H])C([H])([H])C(F)(F)F)=C2c2sc3c(OC([H])([H])[H])c([H])c(C([H])([H])[H])c([H])c3c2[H])C([H])([H])C1([H])[H]


 39 43  0  0  0  0  0  0  0  0999 V2000
   -1.4254   20.9757  -18.1246 C   0  0  0  0  0  0  0  0  0  0  0  0
   -1.8421   22.1261  -18.6055 C   0  0  0  0  0  0  0  0  0  0  0  0
   -2.9414   22.8973  -17.8775 C   0  0  0  0  0  0  0  0  0  0  0  0
   -4.1533   22.8484  -18.5820 N   0  0  0  0  0  0  0  0  0  0  0  0
   -4.4057   21.7706  -19.4883 C   0  0  0  0  0  0  0  0  0  0  0  0
   -4.3588   20.4050  -18.8248 C   0  0  0  0  0  0  0  0  0  0  0  0
   -4.3329   20.6361  -17.3375 N   0  0  0  0  0  0  0  0  0  0  0  0
   -5.4593   21.4854  -17.0556 C   0  0  0  0  0  0  0  0  0  0  0  0
   -5.2643   22.8795  -17.6537 C   0  0  0  0  0  0  0  0  0  0  0  0
   -3.2857   20.0709  -16.5740 C   0  0  0  0  0  0  0  0  0  0  0  0
   -3.4520   19.3004  -15.4407 N   0  0  0  0  0  0  0  0  0  0  0  0
   -2.5428   18.7722  -14.6764 C   0  0  0  0  0  0  0  0  0  0  0  0
   -1.2653   18.9784  -14.9935 N   0  0  0  0  0  0  0  0  0  0  0  0
   -0.9844   19.7296  -16.1026 C   0  0  0  0  0  0  0  0  0  0  0  0
    0.4416   19.8926  -16.2919 N   0  0  0  0  0  0  0  0  0  0  0  0
   -1.9325   20.2900  -16.9203 C   0  0  0  0  0  0  0  0  0  0  0  0
    0.8928   20.8168  -16.1420 H   0  0  0  0  0  0  0  0  0  0  0  0
    1.0433   19.0941  -16.5691 H   0  0  0  0  0  0  0  0  0  0  0  0
    3.1304   19.3126  -20.6395 C   0  0  0  0  0  0  0  0  0  0  0  0
    3.3584   18.1326  -21.3101 C   0  0  0  0  0  0  0  0  0  0  0  0
    2.3207   17.2334  -21.3746 C   0  0  0  0  0  0  0  0  0  0  0  0
    2.5083   15.9132  -22.1008 C   0  0  0  0  0  0  0  0  0  0  0  0
    1.1207   17.5098  -20.7949 C   0  0  0  0  0  0  0  0  0  0  0  0
    0.8506   18.7017  -20.1027 C   0  0  0  0  0  0  0  0  0  0  0  0
   -0.2893   19.0758  -19.4969 C   0  0  0  0  0  0  0  0  0  0  0  0
   -0.3351   20.2780  -18.8830 C   0  0  0  0  0  0  0  0  0  0  0  0
    1.2577   20.8922  -19.1647 S   0  0  0  0  0  0  0  0  0  0  0  0
    1.8943   19.5870  -20.0475 C   0  0  0  0  0  0  0  0  0  0  0  0
    5.3979   20.0363  -20.0380 C   0  0  0  0  0  0  0  0  0  0  0  0
    4.1143   20.2753  -20.5234 O   0  0  0  0  0  0  0  0  0  0  0  0
   -1.5019   22.7506  -19.8649 C   0  0  0  0  0  0  0  0  0  0  0  0
   -0.8620   23.8504  -19.9924 O   0  0  0  0  0  0  0  0  0  0  0  0
   -1.8844   22.1443  -21.1077 N   0  0  0  0  0  0  0  0  0  0  0  0
   -2.3988   21.2627  -21.1356 H   0  0  0  0  0  0  0  0  0  0  0  0
   -1.5352   22.7924  -22.3720 C   0  0  0  0  0  0  0  0  0  0  0  0
   -0.8387   21.7939  -23.2585 C   0  0  0  0  0  0  0  0  0  0  0  0
    0.3333   22.3392  -23.8011 F   0  0  0  0  0  0  0  0  0  0  0  0
   -0.4338   20.6812  -22.5498 F   0  0  0  0  0  0  0  0  0  0  0  0
   -1.6183   21.4002  -24.3187 F   0  0  0  0  0  0  0  0  0  0  0  0
 29 30  1  0  0  0
 30 19  1  0  0  0
 19 20  1  0  0  0
 20 21  2  0  0  0
 21 22  1  0  0  0
 21 23  1  0  0  0
 23 24  2  0  0  0
 24 25  1  0  0  0
 25 26  2  0  0  0
 26 27  1  0  0  0
 27 28  1  0  0  0
 26  1  1  0  0  0
  1  2  2  0  0  0
  2  3  1  0  0  0
  3  4  1  0  0  0
  4  5  1  0  0  0
  5  6  1  0  0  0
  6  7  1  0  0  0
  7  8  1  0  0  0
  8  9  1  0  0  0
  7 10  1  0  0  0
 10 11  2  0  0  0
 11 12  1  0  0  0
 12 13  2  0  0  0
 13 14  1  0  0  0
 14 15  1  0  0  0
 14 16  2  0  0  0
  2 31  1  0  0  0
 31 32  2  0  0  0
 31 33  1  0  0  0
 33 35  1  0  0  0
 35 36  1  0  0  0
 36 37  1  0  0  0
 36 38  1  0  0  0
 36 39  1  0  0  0
 28 19  2  0  0  0
 16  1  1  0  0  0
 28 24  1  0  0  0
  9  4  1  0  0  0
 16 10  1  0  0  0
 15 17  1  0  0  0
 15 18  1  0  0  0
 33 34  1  0  0  0
M  END
> <minimizedAffinity>
-5.79520

> <CNNscore>
0.0682440475

> <CNNaffinity>
5.4825625420

> <CNN_VS>
0.3741522729

> <CNNaffinity_variance>
0.2192942649

$$$$
[H]c1nc(N([H])[H])c2c(n1)N1C([H])([H])C([H])([H])N(C([H])([H])C(C(=O)N([H])C([H])([H])C(F)(F)F)=C2c2sc3c(OC([H])([H])[H])c([H])c(C([H])([H])[H])c([H])c3c2[H])C([H])([H])C1([H])[H]


 39 43  0  0  0  0  0  0  0  0999 V2000
   -5.6773   22.2861  -18.9320 C   0  0  0  0  0  0  0  0  0  0  0  0
   -5.5223   23.0139  -20.0159 C   0  0  0  0  0  0  0  0  0  0  0  0
   -6.5851   24.0435  -20.3947 C   0  0  0  0  0  0  0  0  0  0  0  0
   -7.3285   23.6256  -21.5083 N   0  0  0  0  0  0  0  0  0  0  0  0
   -7.4284   22.2316  -21.8137 C   0  0  0  0  0  0  0  0  0  0  0  0
   -8.0378   21.4128  -20.6888 C   0  0  0  0  0  0  0  0  0  0  0  0
   -8.6099   22.3857  -19.6927 N   0  0  0  0  0  0  0  0  0  0  0  0
   -9.4790   23.2493  -20.4467 C   0  0  0  0  0  0  0  0  0  0  0  0
   -8.6833   24.1282  -21.4128 C   0  0  0  0  0  0  0  0  0  0  0  0
   -8.1946   22.3093  -18.3434 C   0  0  0  0  0  0  0  0  0  0  0  0
   -9.0381   22.2417  -17.2527 N   0  0  0  0  0  0  0  0  0  0  0  0
   -8.7320   22.1962  -15.9901 C   0  0  0  0  0  0  0  0  0  0  0  0
   -7.4412   22.2160  -15.6606 N   0  0  0  0  0  0  0  0  0  0  0  0
   -6.5150   22.2806  -16.6662 C   0  0  0  0  0  0  0  0  0  0  0  0
   -5.1642   22.3313  -16.1477 N   0  0  0  0  0  0  0  0  0  0  0  0
   -6.8225   22.3255  -18.0022 C   0  0  0  0  0  0  0  0  0  0  0  0
   -4.6008   23.2014  -16.2240 H   0  0  0  0  0  0  0  0  0  0  0  0
   -4.7345   21.5099  -15.6820 H   0  0  0  0  0  0  0  0  0  0  0  0
   -1.0868   19.5867  -17.7128 C   0  0  0  0  0  0  0  0  0  0  0  0
   -0.9091   18.2339  -17.5323 C   0  0  0  0  0  0  0  0  0  0  0  0
   -2.0142   17.4286  -17.6726 C   0  0  0  0  0  0  0  0  0  0  0  0
   -1.8842   15.9272  -17.4866 C   0  0  0  0  0  0  0  0  0  0  0  0
   -3.2300   17.9588  -17.9778 C   0  0  0  0  0  0  0  0  0  0  0  0
   -3.4503   19.3327  -18.1692 C   0  0  0  0  0  0  0  0  0  0  0  0
   -4.5998   19.9601  -18.4715 C   0  0  0  0  0  0  0  0  0  0  0  0
   -4.5896   21.3033  -18.6132 C   0  0  0  0  0  0  0  0  0  0  0  0
   -2.9296   21.6889  -18.3145 S   0  0  0  0  0  0  0  0  0  0  0  0
   -2.3396   20.1214  -18.0262 C   0  0  0  0  0  0  0  0  0  0  0  0
    1.0954   20.4715  -18.4073 C   0  0  0  0  0  0  0  0  0  0  0  0
   -0.0340   20.4726  -17.5917 O   0  0  0  0  0  0  0  0  0  0  0  0
   -4.5121   22.8924  -21.0438 C   0  0  0  0  0  0  0  0  0  0  0  0
   -3.6090   23.7621  -21.2952 O   0  0  0  0  0  0  0  0  0  0  0  0
   -4.4634   21.7323  -21.8865 N   0  0  0  0  0  0  0  0  0  0  0  0
   -5.1319   20.9677  -21.7815 H   0  0  0  0  0  0  0  0  0  0  0  0
   -3.4370   21.6284  -22.9239 C   0  0  0  0  0  0  0  0  0  0  0  0
   -4.1074   21.4450  -24.2598 C   0  0  0  0  0  0  0  0  0  0  0  0
   -4.9503   22.5274  -24.5490 F   0  0  0  0  0  0  0  0  0  0  0  0
   -3.1883   21.4085  -25.2886 F   0  0  0  0  0  0  0  0  0  0  0  0
   -4.8870   20.3149  -24.3049 F   0  0  0  0  0  0  0  0  0  0  0  0
 29 30  1  0  0  0
 30 19  1  0  0  0
 19 20  1  0  0  0
 20 21  2  0  0  0
 21 22  1  0  0  0
 21 23  1  0  0  0
 23 24  2  0  0  0
 24 25  1  0  0  0
 25 26  2  0  0  0
 26 27  1  0  0  0
 27 28  1  0  0  0
 26  1  1  0  0  0
  1  2  2  0  0  0
  2  3  1  0  0  0
  3  4  1  0  0  0
  4  5  1  0  0  0
  5  6  1  0  0  0
  6  7  1  0  0  0
  7  8  1  0  0  0
  8  9  1  0  0  0
  7 10  1  0  0  0
 10 11  2  0  0  0
 11 12  1  0  0  0
 12 13  2  0  0  0
 13 14  1  0  0  0
 14 15  1  0  0  0
 14 16  2  0  0  0
  2 31  1  0  0  0
 31 32  2  0  0  0
 31 33  1  0  0  0
 33 35  1  0  0  0
 35 36  1  0  0  0
 36 37  1  0  0  0
 36 38  1  0  0  0
 36 39  1  0  0  0
 28 19  2  0  0  0
 16  1  1  0  0  0
 28 24  1  0  0  0
  9  4  1  0  0  0
 16 10  1  0  0  0
 15 17  1  0  0  0
 15 18  1  0  0  0
 33 34  1  0  0  0
M  END
> <minimizedAffinity>
-5.90709

> <CNNscore>
0.0532118566

> <CNNaffinity>
5.5750455856

> <CNN_VS>
0.2966585159

> <CNNaffinity_variance>
0.1784008890

$$$$
[H]c1nc(N([H])[H])c2c(n1)N1C([H])([H])C([H])([H])N(C([H])([H])C(C(=O)N([H])C([H])([H])C(F)(F)F)=C2c2sc3c(OC([H])([H])[H])c([H])c(C([H])([H])[H])c([H])c3c2[H])C([H])([H])C1([H])[H]


 39 43  0  0  0  0  0  0  0  0999 V2000
   -2.3710   21.5412  -18.6192 C   0  0  0  0  0  0  0  0  0  0  0  0
   -3.0853   22.3308  -19.3904 C   0  0  0  0  0  0  0  0  0  0  0  0
   -4.3497   22.9863  -18.8386 C   0  0  0  0  0  0  0  0  0  0  0  0
   -5.5056   22.4071  -19.3826 N   0  0  0  0  0  0  0  0  0  0  0  0
   -5.4599   21.0695  -19.8881 C   0  0  0  0  0  0  0  0  0  0  0  0
   -5.0429   20.0474  -18.8447 C   0  0  0  0  0  0  0  0  0  0  0  0
   -5.0754   20.7401  -17.5086 N   0  0  0  0  0  0  0  0  0  0  0  0
   -6.3886   21.3175  -17.4011 C   0  0  0  0  0  0  0  0  0  0  0  0
   -6.5803   22.4483  -18.4129 C   0  0  0  0  0  0  0  0  0  0  0  0
   -3.9117   20.7359  -16.7056 C   0  0  0  0  0  0  0  0  0  0  0  0
   -3.8594   20.3525  -15.3805 N   0  0  0  0  0  0  0  0  0  0  0  0
   -2.8385   20.3469  -14.5757 C   0  0  0  0  0  0  0  0  0  0  0  0
   -1.6656   20.7601  -15.0539 N   0  0  0  0  0  0  0  0  0  0  0  0
   -1.6023   21.1629  -16.3605 C   0  0  0  0  0  0  0  0  0  0  0  0
   -0.2743   21.6154  -16.7176 N   0  0  0  0  0  0  0  0  0  0  0  0
   -2.6695   21.1708  -17.2222 C   0  0  0  0  0  0  0  0  0  0  0  0
   -0.0897   22.6219  -16.8995 H   0  0  0  0  0  0  0  0  0  0  0  0
    0.5201   20.9519  -16.7893 H   0  0  0  0  0  0  0  0  0  0  0  0
    2.5128   20.3668  -20.7675 C   0  0  0  0  0  0  0  0  0  0  0  0
    3.0015   19.1449  -21.1703 C   0  0  0  0  0  0  0  0  0  0  0  0
    2.1741   18.0566  -21.0276 C   0  0  0  0  0  0  0  0  0  0  0  0
    2.6542   16.6807  -21.4539 C   0  0  0  0  0  0  0  0  0  0  0  0
    0.9238   18.1940  -20.5076 C   0  0  0  0  0  0  0  0  0  0  0  0
    0.3906   19.4230  -20.0858 C   0  0  0  0  0  0  0  0  0  0  0  0
   -0.8219   19.6718  -19.5620 C   0  0  0  0  0  0  0  0  0  0  0  0
   -1.1352   20.9407  -19.2215 C   0  0  0  0  0  0  0  0  0  0  0  0
    0.3057   21.7988  -19.6470 S   0  0  0  0  0  0  0  0  0  0  0  0
    1.2272   20.4973  -20.2347 C   0  0  0  0  0  0  0  0  0  0  0  0
    4.3369   21.8367  -20.0333 C   0  0  0  0  0  0  0  0  0  0  0  0
    3.2728   21.5154  -20.8729 O   0  0  0  0  0  0  0  0  0  0  0  0
   -2.9311   22.5851  -20.8058 C   0  0  0  0  0  0  0  0  0  0  0  0
   -2.6375   23.7172  -21.3229 O   0  0  0  0  0  0  0  0  0  0  0  0
   -3.1107   21.5300  -21.7612 N   0  0  0  0  0  0  0  0  0  0  0  0
   -3.3464   20.5803  -21.4699 H   0  0  0  0  0  0  0  0  0  0  0  0
   -2.9548   21.8066  -23.1895 C   0  0  0  0  0  0  0  0  0  0  0  0
   -4.2793   21.6007  -23.8759 C   0  0  0  0  0  0  0  0  0  0  0  0
   -5.3421   21.8899  -23.0086 F   0  0  0  0  0  0  0  0  0  0  0  0
   -4.4345   22.4564  -24.9473 F   0  0  0  0  0  0  0  0  0  0  0  0
   -4.4557   20.3055  -24.2978 F   0  0  0  0  0  0  0  0  0  0  0  0
 29 30  1  0  0  0
 30 19  1  0  0  0
 19 20  1  0  0  0
 20 21  2  0  0  0
 21 22  1  0  0  0
 21 23  1  0  0  0
 23 24  2  0  0  0
 24 25  1  0  0  0
 25 26  2  0  0  0
 26 27  1  0  0  0
 27 28  1  0  0  0
 26  1  1  0  0  0
  1  2  2  0  0  0
  2  3  1  0  0  0
  3  4  1  0  0  0
  4  5  1  0  0  0
  5  6  1  0  0  0
  6  7  1  0  0  0
  7  8  1  0  0  0
  8  9  1  0  0  0
  7 10  1  0  0  0
 10 11  2  0  0  0
 11 12  1  0  0  0
 12 13  2  0  0  0
 13 14  1  0  0  0
 14 15  1  0  0  0
 14 16  2  0  0  0
  2 31  1  0  0  0
 31 32  2  0  0  0
 31 33  1  0  0  0
 33 35  1  0  0  0
 35 36  1  0  0  0
 36 37  1  0  0  0
 36 38  1  0  0  0
 36 39  1  0  0  0
 28 19  2  0  0  0
 16  1  1  0  0  0
 28 24  1  0  0  0
  9  4  1  0  0  0
 16 10  1  0  0  0
 15 17  1  0  0  0
 15 18  1  0  0  0
 33 34  1  0  0  0
M  END
> <minimizedAffinity>
-5.86877

> <CNNscore>
0.0529348552

> <CNNaffinity>
5.5826845169

> <CNN_VS>
0.2955186069

> <CNNaffinity_variance>
0.1716196090

$$$$
[H]c1nc(N([H])[H])c2c(n1)N1C([H])([H])C([H])([H])N(C([H])([H])C(C(=O)N([H])C([H])([H])C(F)(F)F)=C2c2sc3c(OC([H])([H])[H])c([H])c(C([H])([H])[H])c([H])c3c2[H])C([H])([H])C1([H])[H]


 39 43  0  0  0  0  0  0  0  0999 V2000
   -6.1452   20.7505  -17.8462 C   0  0  0  0  0  0  0  0  0  0  0  0
   -6.5825   21.4724  -16.8382 C   0  0  0  0  0  0  0  0  0  0  0  0
   -7.4766   20.8305  -15.7792 C   0  0  0  0  0  0  0  0  0  0  0  0
   -8.8023   21.2748  -15.8910 N   0  0  0  0  0  0  0  0  0  0  0  0
   -9.2837   21.7665  -17.1453 C   0  0  0  0  0  0  0  0  0  0  0  0
   -9.1856   20.7472  -18.2672 C   0  0  0  0  0  0  0  0  0  0  0  0
   -8.8610   19.4210  -17.6333 N   0  0  0  0  0  0  0  0  0  0  0  0
   -9.8633   19.2172  -16.6216 C   0  0  0  0  0  0  0  0  0  0  0  0
   -9.7103   20.2241  -15.4805 C   0  0  0  0  0  0  0  0  0  0  0  0
   -7.7193   18.7122  -18.0726 C   0  0  0  0  0  0  0  0  0  0  0  0
   -7.7066   17.3908  -18.4722 N   0  0  0  0  0  0  0  0  0  0  0  0
   -6.6979   16.6690  -18.8610 C   0  0  0  0  0  0  0  0  0  0  0  0
   -5.4959   17.2430  -18.8922 N   0  0  0  0  0  0  0  0  0  0  0  0
   -5.3927   18.5551  -18.5168 C   0  0  0  0  0  0  0  0  0  0  0  0
   -4.0231   19.0211  -18.5695 N   0  0  0  0  0  0  0  0  0  0  0  0
   -6.4481   19.3302  -18.1079 C   0  0  0  0  0  0  0  0  0  0  0  0
   -3.5011   19.2289  -17.6951 H   0  0  0  0  0  0  0  0  0  0  0  0
   -3.5311   19.1473  -19.4742 H   0  0  0  0  0  0  0  0  0  0  0  0
   -2.2236   23.3173  -20.6531 C   0  0  0  0  0  0  0  0  0  0  0  0
   -2.2243   23.6983  -21.9756 C   0  0  0  0  0  0  0  0  0  0  0  0
   -3.3473   23.4104  -22.7141 C   0  0  0  0  0  0  0  0  0  0  0  0
   -3.4106   23.8052  -24.1790 C   0  0  0  0  0  0  0  0  0  0  0  0
   -4.4096   22.7739  -22.1496 C   0  0  0  0  0  0  0  0  0  0  0  0
   -4.4459   22.3699  -20.8050 C   0  0  0  0  0  0  0  0  0  0  0  0
   -5.4350   21.7398  -20.1484 C   0  0  0  0  0  0  0  0  0  0  0  0
   -5.2617   21.4413  -18.8427 C   0  0  0  0  0  0  0  0  0  0  0  0
   -3.6754   22.0597  -18.5346 S   0  0  0  0  0  0  0  0  0  0  0  0
   -3.3198   22.6641  -20.0827 C   0  0  0  0  0  0  0  0  0  0  0  0
   -0.0891   22.6735  -19.6255 C   0  0  0  0  0  0  0  0  0  0  0  0
   -1.1392   23.5647  -19.8341 O   0  0  0  0  0  0  0  0  0  0  0  0
   -6.4572   22.8985  -16.6321 C   0  0  0  0  0  0  0  0  0  0  0  0
   -6.6992   23.7938  -17.5124 O   0  0  0  0  0  0  0  0  0  0  0  0
   -6.0291   23.4185  -15.3653 N   0  0  0  0  0  0  0  0  0  0  0  0
   -5.8071   22.8018  -14.5824 H   0  0  0  0  0  0  0  0  0  0  0  0
   -5.9040   24.8639  -15.1763 C   0  0  0  0  0  0  0  0  0  0  0  0
   -6.4861   25.2352  -13.8379 C   0  0  0  0  0  0  0  0  0  0  0  0
   -6.9719   24.1010  -13.1721 F   0  0  0  0  0  0  0  0  0  0  0  0
   -5.5307   25.7734  -13.0002 F   0  0  0  0  0  0  0  0  0  0  0  0
   -7.5399   26.1093  -13.9484 F   0  0  0  0  0  0  0  0  0  0  0  0
 29 30  1  0  0  0
 30 19  1  0  0  0
 19 20  1  0  0  0
 20 21  2  0  0  0
 21 22  1  0  0  0
 21 23  1  0  0  0
 23 24  2  0  0  0
 24 25  1  0  0  0
 25 26  2  0  0  0
 26 27  1  0  0  0
 27 28  1  0  0  0
 26  1  1  0  0  0
  1  2  2  0  0  0
  2  3  1  0  0  0
  3  4  1  0  0  0
  4  5  1  0  0  0
  5  6  1  0  0  0
  6  7  1  0  0  0
  7  8  1  0  0  0
  8  9  1  0  0  0
  7 10  1  0  0  0
 10 11  2  0  0  0
 11 12  1  0  0  0
 12 13  2  0  0  0
 13 14  1  0  0  0
 14 15  1  0  0  0
 14 16  2  0  0  0
  2 31  1  0  0  0
 31 32  2  0  0  0
 31 33  1  0  0  0
 33 35  1  0  0  0
 35 36  1  0  0  0
 36 37  1  0  0  0
 36 38  1  0  0  0
 36 39  1  0  0  0
 28 19  2  0  0  0
 16  1  1  0  0  0
 28 24  1  0  0  0
  9  4  1  0  0  0
 16 10  1  0  0  0
 15 17  1  0  0  0
 15 18  1  0  0  0
 33 34  1  0  0  0
M  END
> <minimizedAffinity>
-6.09660

> <CNNscore>
0.0499842018

> <CNNaffinity>
5.4754261971

> <CNN_VS>
0.2736847997

> <CNNaffinity_variance>
0.2175630778

$$$$
[H]c1nc(N([H])[H])c2c(C([H])([H])N3C([H])([H])C([H])([H])OC([H])([H])C3([H])[H])c(-c3sc4c(OC([H])([H])[H])c([H])c(C([H])([H])[H])c([H])c4c3[H])c(=O)n([H])c2n1


 34 38  0  0  0  0  0  0  0  0999 V2000
   -1.4318   22.8662  -26.0766 C   0  0  0  0  0  0  0  0  0  0  0  0
   -1.8873   22.4118  -24.8480 C   0  0  0  0  0  0  0  0  0  0  0  0
   -0.9406   21.9144  -23.9360 C   0  0  0  0  0  0  0  0  0  0  0  0
   -1.2871   21.3742  -22.7363 C   0  0  0  0  0  0  0  0  0  0  0  0
   -2.6157   21.1738  -22.3144 N   0  0  0  0  0  0  0  0  0  0  0  0
   -0.3043   20.8713  -21.9302 N   0  0  0  0  0  0  0  0  0  0  0  0
    0.9718   20.8991  -22.3032 C   0  0  0  0  0  0  0  0  0  0  0  0
    1.3490   21.4157  -23.4778 N   0  0  0  0  0  0  0  0  0  0  0  0
    0.4162   21.9326  -24.3215 C   0  0  0  0  0  0  0  0  0  0  0  0
    0.8079   22.3894  -25.5120 N   0  0  0  0  0  0  0  0  0  0  0  0
   -0.0819   22.8490  -26.3889 C   0  0  0  0  0  0  0  0  0  0  0  0
    0.3419   23.2679  -27.5144 O   0  0  0  0  0  0  0  0  0  0  0  0
   -2.9624   21.6520  -21.4689 H   0  0  0  0  0  0  0  0  0  0  0  0
   -3.2270   20.5218  -22.8376 H   0  0  0  0  0  0  0  0  0  0  0  0
    1.8200   22.3882  -25.7604 H   0  0  0  0  0  0  0  0  0  0  0  0
   -5.0961   23.1620  -30.1453 C   0  0  0  0  0  0  0  0  0  0  0  0
   -5.5986   24.2871  -30.7245 C   0  0  0  0  0  0  0  0  0  0  0  0
   -5.1373   25.4892  -30.2204 C   0  0  0  0  0  0  0  0  0  0  0  0
   -5.6876   26.7246  -30.8840 C   0  0  0  0  0  0  0  0  0  0  0  0
   -4.2410   25.5961  -29.2116 C   0  0  0  0  0  0  0  0  0  0  0  0
   -3.7076   24.4409  -28.5963 C   0  0  0  0  0  0  0  0  0  0  0  0
   -2.8093   24.3998  -27.6042 C   0  0  0  0  0  0  0  0  0  0  0  0
   -2.3991   23.1675  -27.1526 C   0  0  0  0  0  0  0  0  0  0  0  0
   -3.3160   22.1182  -28.1572 S   0  0  0  0  0  0  0  0  0  0  0  0
   -4.1615   23.2531  -29.0942 C   0  0  0  0  0  0  0  0  0  0  0  0
   -4.5949   21.2264  -31.4428 C   0  0  0  0  0  0  0  0  0  0  0  0
   -5.4309   21.8666  -30.5072 O   0  0  0  0  0  0  0  0  0  0  0  0
   -3.2732   22.6053  -24.4334 C   0  0  0  0  0  0  0  0  0  0  0  0
   -3.3067   24.0989  -24.0869 N   0  0  0  0  0  0  0  0  0  0  0  0
   -3.2869   24.2858  -22.6838 C   0  0  0  0  0  0  0  0  0  0  0  0
   -4.5859   24.2561  -21.9580 C   0  0  0  0  0  0  0  0  0  0  0  0
   -5.6165   24.9258  -22.5702 O   0  0  0  0  0  0  0  0  0  0  0  0
   -5.7667   24.3926  -23.8484 C   0  0  0  0  0  0  0  0  0  0  0  0
   -4.5330   24.6669  -24.6223 C   0  0  0  0  0  0  0  0  0  0  0  0
 26 27  1  0  0  0
 27 16  1  0  0  0
 16 17  2  0  0  0
 17 18  1  0  0  0
 18 19  1  0  0  0
 18 20  2  0  0  0
 20 21  1  0  0  0
 21 22  1  0  0  0
 22 23  2  0  0  0
 23 24  1  0  0  0
 24 25  1  0  0  0
 23  1  1  0  0  0
  1  2  2  0  0  0
  2 28  1  0  0  0
 28 29  1  0  0  0
 29 30  1  0  0  0
 30 31  1  0  0  0
 31 32  1  0  0  0
 32 33  1  0  0  0
 33 34  1  0  0  0
  2  3  1  0  0  0
  3  4  2  0  0  0
  4  5  1  0  0  0
  4  6  1  0  0  0
  6  7  2  0  0  0
  7  8  1  0  0  0
  8  9  2  0  0  0
  9 10  1  0  0  0
 10 11  1  0  0  0
 11 12  2  0  0  0
 25 16  1  0  0  0
 11  1  1  0  0  0
 25 21  2  0  0  0
 34 29  1  0  0  0
  9  3  1  0  0  0
  5 13  1  0  0  0
  5 14  1  0  0  0
 10 15  1  0  0  0
M  END
> <minimizedAffinity>
-7.89424

> <CNNscore>
0.6617297530

> <CNNaffinity>
7.4082741737

> <CNN_VS>
4.9022755623

> <CNNaffinity_variance>
0.3899319172

$$$$
[H]c1nc(N([H])[H])c2c(C([H])([H])N3C([H])([H])C([H])([H])OC([H])([H])C3([H])[H])c(-c3sc4c(OC([H])([H])[H])c([H])c(C([H])([H])[H])c([H])c4c3[H])c(=O)n([H])c2n1


 34 38  0  0  0  0  0  0  0  0999 V2000
   -0.9230   22.3745  -24.7878 C   0  0  0  0  0  0  0  0  0  0  0  0
   -1.0243   21.7477  -23.5549 C   0  0  0  0  0  0  0  0  0  0  0  0
    0.1609   21.3185  -22.9333 C   0  0  0  0  0  0  0  0  0  0  0  0
    0.1691   20.6264  -21.7619 C   0  0  0  0  0  0  0  0  0  0  0  0
   -0.9916   20.1907  -21.0938 N   0  0  0  0  0  0  0  0  0  0  0  0
    1.3656   20.2068  -21.2514 N   0  0  0  0  0  0  0  0  0  0  0  0
    2.5087   20.4601  -21.8819 C   0  0  0  0  0  0  0  0  0  0  0  0
    2.5388   21.1314  -23.0384 N   0  0  0  0  0  0  0  0  0  0  0  0
    1.3802   21.5758  -23.5944 C   0  0  0  0  0  0  0  0  0  0  0  0
    1.4284   22.1918  -24.7765 N   0  0  0  0  0  0  0  0  0  0  0  0
    0.3109   22.5892  -25.3808 C   0  0  0  0  0  0  0  0  0  0  0  0
    0.4096   23.1669  -26.5114 O   0  0  0  0  0  0  0  0  0  0  0  0
   -1.1938   20.5330  -20.1420 H   0  0  0  0  0  0  0  0  0  0  0  0
   -1.6184   19.5039  -21.5496 H   0  0  0  0  0  0  0  0  0  0  0  0
    2.3487   22.3656  -25.2334 H   0  0  0  0  0  0  0  0  0  0  0  0
   -5.8382   23.3174  -27.0286 C   0  0  0  0  0  0  0  0  0  0  0  0
   -6.1338   23.4352  -28.3524 C   0  0  0  0  0  0  0  0  0  0  0  0
   -5.0699   23.3120  -29.2270 C   0  0  0  0  0  0  0  0  0  0  0  0
   -5.4156   23.4255  -30.6889 C   0  0  0  0  0  0  0  0  0  0  0  0
   -3.7916   23.0885  -28.8416 C   0  0  0  0  0  0  0  0  0  0  0  0
   -3.4632   22.9637  -27.4727 C   0  0  0  0  0  0  0  0  0  0  0  0
   -2.2510   22.7297  -26.9543 C   0  0  0  0  0  0  0  0  0  0  0  0
   -2.1407   22.6223  -25.5879 C   0  0  0  0  0  0  0  0  0  0  0  0
   -3.7692   22.8656  -25.0982 S   0  0  0  0  0  0  0  0  0  0  0  0
   -4.5133   23.0840  -26.6081 C   0  0  0  0  0  0  0  0  0  0  0  0
   -7.2515   24.6930  -25.6901 C   0  0  0  0  0  0  0  0  0  0  0  0
   -6.7613   23.4090  -25.9988 O   0  0  0  0  0  0  0  0  0  0  0  0
   -2.2919   21.6919  -22.8336 C   0  0  0  0  0  0  0  0  0  0  0  0
   -2.0769   22.7158  -21.7123 N   0  0  0  0  0  0  0  0  0  0  0  0
   -2.9950   22.4992  -20.6567 C   0  0  0  0  0  0  0  0  0  0  0  0
   -4.3364   23.1359  -20.7574 C   0  0  0  0  0  0  0  0  0  0  0  0
   -4.3388   24.4331  -21.2077 O   0  0  0  0  0  0  0  0  0  0  0  0
   -3.7026   24.4514  -22.4470 C   0  0  0  0  0  0  0  0  0  0  0  0
   -2.2897   24.0461  -22.2584 C   0  0  0  0  0  0  0  0  0  0  0  0
 26 27  1  0  0  0
 27 16  1  0  0  0
 16 17  2  0  0  0
 17 18  1  0  0  0
 18 19  1  0  0  0
 18 20  2  0  0  0
 20 21  1  0  0  0
 21 22  1  0  0  0
 22 23  2  0  0  0
 23 24  1  0  0  0
 24 25  1  0  0  0
 23  1  1  0  0  0
  1  2  2  0  0  0
  2 28  1  0  0  0
 28 29  1  0  0  0
 29 30  1  0  0  0
 30 31  1  0  0  0
 31 32  1  0  0  0
 32 33  1  0  0  0
 33 34  1  0  0  0
  2  3  1  0  0  0
  3  4  2  0  0  0
  4  5  1  0  0  0
  4  6  1  0  0  0
  6  7  2  0  0  0
  7  8  1  0  0  0
  8  9  2  0  0  0
  9 10  1  0  0  0
 10 11  1  0  0  0
 11 12  2  0  0  0
 25 16  1  0  0  0
 11  1  1  0  0  0
 25 21  2  0  0  0
 34 29  1  0  0  0
  9  3  1  0  0  0
  5 13  1  0  0  0
  5 14  1  0  0  0
 10 15  1  0  0  0
M  END
> <minimizedAffinity>
-9.93547

> <CNNscore>
0.6385248899

> <CNNaffinity>
7.0361237526

> <CNN_VS>
4.4927401543

> <CNNaffinity_variance>
0.2887299657

$$$$
[H]c1nc(N([H])[H])c2c(C([H])([H])N3C([H])([H])C([H])([H])OC([H])([H])C3([H])[H])c(-c3sc4c(OC([H])([H])[H])c([H])c(C([H])([H])[H])c([H])c4c3[H])c(=O)n([H])c2n1


 34 38  0  0  0  0  0  0  0  0999 V2000
   -0.8127   22.2921  -24.5451 C   0  0  0  0  0  0  0  0  0  0  0  0
   -0.8818   21.6149  -23.3368 C   0  0  0  0  0  0  0  0  0  0  0  0
    0.3134   21.1168  -22.7902 C   0  0  0  0  0  0  0  0  0  0  0  0
    0.3485   20.3731  -21.6514 C   0  0  0  0  0  0  0  0  0  0  0  0
   -0.7964   19.9493  -20.9492 N   0  0  0  0  0  0  0  0  0  0  0  0
    1.5503   19.8891  -21.2157 N   0  0  0  0  0  0  0  0  0  0  0  0
    2.6725   20.1299  -21.8874 C   0  0  0  0  0  0  0  0  0  0  0  0
    2.6756   20.8507  -23.0140 N   0  0  0  0  0  0  0  0  0  0  0  0
    1.5104   21.3601  -23.4958 C   0  0  0  0  0  0  0  0  0  0  0  0
    1.5283   22.0262  -24.6512 N   0  0  0  0  0  0  0  0  0  0  0  0
    0.4003   22.4895  -25.1852 C   0  0  0  0  0  0  0  0  0  0  0  0
    0.4696   23.1133  -26.2933 O   0  0  0  0  0  0  0  0  0  0  0  0
   -0.9426   20.2556  -19.9752 H   0  0  0  0  0  0  0  0  0  0  0  0
   -1.4683   19.3060  -21.4045 H   0  0  0  0  0  0  0  0  0  0  0  0
    2.4330   22.1877  -25.1427 H   0  0  0  0  0  0  0  0  0  0  0  0
   -5.0287   23.2147  -27.9280 C   0  0  0  0  0  0  0  0  0  0  0  0
   -6.2395   23.7511  -27.6120 C   0  0  0  0  0  0  0  0  0  0  0  0
   -6.4268   24.0915  -26.2849 C   0  0  0  0  0  0  0  0  0  0  0  0
   -7.7641   24.7014  -25.9543 C   0  0  0  0  0  0  0  0  0  0  0  0
   -5.4947   23.9212  -25.3181 C   0  0  0  0  0  0  0  0  0  0  0  0
   -4.2318   23.3658  -25.6247 C   0  0  0  0  0  0  0  0  0  0  0  0
   -3.2181   23.1549  -24.7757 C   0  0  0  0  0  0  0  0  0  0  0  0
   -2.0551   22.6183  -25.2761 C   0  0  0  0  0  0  0  0  0  0  0  0
   -2.4573   22.4308  -26.9356 S   0  0  0  0  0  0  0  0  0  0  0  0
   -4.0453   23.0303  -26.9352 C   0  0  0  0  0  0  0  0  0  0  0  0
   -5.4603   23.2225  -30.2721 C   0  0  0  0  0  0  0  0  0  0  0  0
   -4.6474   22.8110  -29.1979 O   0  0  0  0  0  0  0  0  0  0  0  0
   -2.1168   21.5717  -22.5603 C   0  0  0  0  0  0  0  0  0  0  0  0
   -1.9683   22.7890  -21.6395 N   0  0  0  0  0  0  0  0  0  0  0  0
   -2.0667   22.4016  -20.2813 C   0  0  0  0  0  0  0  0  0  0  0  0
   -3.4242   22.3160  -19.6772 C   0  0  0  0  0  0  0  0  0  0  0  0
   -4.2775   23.3416  -20.0018 O   0  0  0  0  0  0  0  0  0  0  0  0
   -4.3707   23.3901  -21.3910 C   0  0  0  0  0  0  0  0  0  0  0  0
   -3.0369   23.7267  -21.9422 C   0  0  0  0  0  0  0  0  0  0  0  0
 26 27  1  0  0  0
 27 16  1  0  0  0
 16 17  2  0  0  0
 17 18  1  0  0  0
 18 19  1  0  0  0
 18 20  2  0  0  0
 20 21  1  0  0  0
 21 22  1  0  0  0
 22 23  2  0  0  0
 23 24  1  0  0  0
 24 25  1  0  0  0
 23  1  1  0  0  0
  1  2  2  0  0  0
  2 28  1  0  0  0
 28 29  1  0  0  0
 29 30  1  0  0  0
 30 31  1  0  0  0
 31 32  1  0  0  0
 32 33  1  0  0  0
 33 34  1  0  0  0
  2  3  1  0  0  0
  3  4  2  0  0  0
  4  5  1  0  0  0
  4  6  1  0  0  0
  6  7  2  0  0  0
  7  8  1  0  0  0
  8  9  2  0  0  0
  9 10  1  0  0  0
 10 11  1  0  0  0
 11 12  2  0  0  0
 25 16  1  0  0  0
 11  1  1  0  0  0
 25 21  2  0  0  0
 34 29  1  0  0  0
  9  3  1  0  0  0
  5 13  1  0  0  0
  5 14  1  0  0  0
 10 15  1  0  0  0
M  END
> <minimizedAffinity>
-9.12774

> <CNNscore>
0.6142137051

> <CNNaffinity>
7.0441575050

> <CNN_VS>
4.3266181946

> <CNNaffinity_variance>
0.3464087844

$$$$
[H]c1nc(N([H])[H])c2c(C([H])([H])N3C([H])([H])C([H])([H])OC([H])([H])C3([H])[H])c(-c3sc4c(OC([H])([H])[H])c([H])c(C([H])([H])[H])c([H])c4c3[H])c(=O)n([H])c2n1


 34 38  0  0  0  0  0  0  0  0999 V2000
   -2.8612   23.2330  -25.9308 C   0  0  0  0  0  0  0  0  0  0  0  0
   -3.9506   24.0908  -25.9027 C   0  0  0  0  0  0  0  0  0  0  0  0
   -4.4311   24.5877  -27.1264 C   0  0  0  0  0  0  0  0  0  0  0  0
   -5.4432   25.4935  -27.2068 C   0  0  0  0  0  0  0  0  0  0  0  0
   -6.0563   26.0940  -26.0903 N   0  0  0  0  0  0  0  0  0  0  0  0
   -5.8164   25.9589  -28.4367 N   0  0  0  0  0  0  0  0  0  0  0  0
   -5.2051   25.5450  -29.5428 C   0  0  0  0  0  0  0  0  0  0  0  0
   -4.2022   24.6612  -29.5019 N   0  0  0  0  0  0  0  0  0  0  0  0
   -3.7878   24.1612  -28.3071 C   0  0  0  0  0  0  0  0  0  0  0  0
   -2.7482   23.3258  -28.2848 N   0  0  0  0  0  0  0  0  0  0  0  0
   -2.2758   22.8608  -27.1304 C   0  0  0  0  0  0  0  0  0  0  0  0
   -1.2772   22.0711  -27.1619 O   0  0  0  0  0  0  0  0  0  0  0  0
   -7.0636   25.9511  -25.9203 H   0  0  0  0  0  0  0  0  0  0  0  0
   -5.4987   26.7023  -25.4644 H   0  0  0  0  0  0  0  0  0  0  0  0
   -2.2998   23.0320  -29.1785 H   0  0  0  0  0  0  0  0  0  0  0  0
    0.1315   21.3894  -21.7220 C   0  0  0  0  0  0  0  0  0  0  0  0
    0.0542   21.7793  -20.4198 C   0  0  0  0  0  0  0  0  0  0  0  0
   -0.8794   22.7579  -20.1318 C   0  0  0  0  0  0  0  0  0  0  0  0
   -0.9666   23.1650  -18.6840 C   0  0  0  0  0  0  0  0  0  0  0  0
   -1.6915   23.3278  -21.0529 C   0  0  0  0  0  0  0  0  0  0  0  0
   -1.6269   22.9380  -22.4098 C   0  0  0  0  0  0  0  0  0  0  0  0
   -2.3749   23.4050  -23.4175 C   0  0  0  0  0  0  0  0  0  0  0  0
   -2.1715   22.8804  -24.6722 C   0  0  0  0  0  0  0  0  0  0  0  0
   -0.9177   21.7471  -24.3644 S   0  0  0  0  0  0  0  0  0  0  0  0
   -0.7061   21.9708  -22.6952 C   0  0  0  0  0  0  0  0  0  0  0  0
    2.3560   20.5431  -21.8514 C   0  0  0  0  0  0  0  0  0  0  0  0
    0.9991   20.4254  -22.2109 O   0  0  0  0  0  0  0  0  0  0  0  0
   -4.6941   24.3333  -24.6704 C   0  0  0  0  0  0  0  0  0  0  0  0
   -5.9431   23.4649  -24.8643 N   0  0  0  0  0  0  0  0  0  0  0  0
   -7.0018   23.9240  -24.0441 C   0  0  0  0  0  0  0  0  0  0  0  0
   -7.0691   23.4201  -22.6454 C   0  0  0  0  0  0  0  0  0  0  0  0
   -6.8191   22.0787  -22.4914 O   0  0  0  0  0  0  0  0  0  0  0  0
   -5.5645   21.8173  -23.0376 C   0  0  0  0  0  0  0  0  0  0  0  0
   -5.6147   22.0987  -24.4918 C   0  0  0  0  0  0  0  0  0  0  0  0
 26 27  1  0  0  0
 27 16  1  0  0  0
 16 17  2  0  0  0
 17 18  1  0  0  0
 18 19  1  0  0  0
 18 20  2  0  0  0
 20 21  1  0  0  0
 21 22  1  0  0  0
 22 23  2  0  0  0
 23 24  1  0  0  0
 24 25  1  0  0  0
 23  1  1  0  0  0
  1  2  2  0  0  0
  2 28  1  0  0  0
 28 29  1  0  0  0
 29 30  1  0  0  0
 30 31  1  0  0  0
 31 32  1  0  0  0
 32 33  1  0  0  0
 33 34  1  0  0  0
  2  3  1  0  0  0
  3  4  2  0  0  0
  4  5  1  0  0  0
  4  6  1  0  0  0
  6  7  2  0  0  0
  7  8  1  0  0  0
  8  9  2  0  0  0
  9 10  1  0  0  0
 10 11  1  0  0  0
 11 12  2  0  0  0
 25 16  1  0  0  0
 11  1  1  0  0  0
 25 21  2  0  0  0
 34 29  1  0  0  0
  9  3  1  0  0  0
  5 13  1  0  0  0
  5 14  1  0  0  0
 10 15  1  0  0  0
M  END
> <minimizedAffinity>
-8.89277

> <CNNscore>
0.5283755660

> <CNNaffinity>
7.1669120789

> <CNN_VS>
3.7868211269

> <CNNaffinity_variance>
0.1828394234

$$$$
[H]c1nc(N([H])[H])c2c(C([H])([H])N3C([H])([H])C([H])([H])OC([H])([H])C3([H])[H])c(-c3sc4c(OC([H])([H])[H])c([H])c(C([H])([H])[H])c([H])c4c3[H])c(=O)n([H])c2n1


 34 38  0  0  0  0  0  0  0  0999 V2000
   -2.7691   22.7089  -25.7444 C   0  0  0  0  0  0  0  0  0  0  0  0
   -4.1380   22.8492  -25.9163 C   0  0  0  0  0  0  0  0  0  0  0  0
   -4.6007   23.3550  -27.1433 C   0  0  0  0  0  0  0  0  0  0  0  0
   -5.9157   23.6041  -27.3882 C   0  0  0  0  0  0  0  0  0  0  0  0
   -6.9372   23.4700  -26.4280 N   0  0  0  0  0  0  0  0  0  0  0  0
   -6.2727   24.1403  -28.5938 N   0  0  0  0  0  0  0  0  0  0  0  0
   -5.3592   24.4228  -29.5180 C   0  0  0  0  0  0  0  0  0  0  0  0
   -4.0572   24.1980  -29.3100 N   0  0  0  0  0  0  0  0  0  0  0  0
   -3.6416   23.6643  -28.1303 C   0  0  0  0  0  0  0  0  0  0  0  0
   -2.3340   23.5028  -27.9222 N   0  0  0  0  0  0  0  0  0  0  0  0
   -1.8842   23.0385  -26.7586 C   0  0  0  0  0  0  0  0  0  0  0  0
   -0.6265   22.9087  -26.6069 O   0  0  0  0  0  0  0  0  0  0  0  0
   -7.7021   22.7961  -26.5845 H   0  0  0  0  0  0  0  0  0  0  0  0
   -6.9315   24.0725  -25.5856 H   0  0  0  0  0  0  0  0  0  0  0  0
   -1.6556   23.7411  -28.6766 H   0  0  0  0  0  0  0  0  0  0  0  0
   -0.6687   20.8450  -21.0344 C   0  0  0  0  0  0  0  0  0  0  0  0
   -0.4286   21.5559  -19.8983 C   0  0  0  0  0  0  0  0  0  0  0  0
   -0.7423   22.9018  -19.9447 C   0  0  0  0  0  0  0  0  0  0  0  0
   -0.4891   23.6709  -18.6743 C   0  0  0  0  0  0  0  0  0  0  0  0
   -1.2584   23.5247  -21.0302 C   0  0  0  0  0  0  0  0  0  0  0  0
   -1.5146   22.8054  -22.2195 C   0  0  0  0  0  0  0  0  0  0  0  0
   -2.0325   23.2884  -23.3560 C   0  0  0  0  0  0  0  0  0  0  0  0
   -2.2237   22.4168  -24.4022 C   0  0  0  0  0  0  0  0  0  0  0  0
   -1.6514   20.9458  -23.7243 S   0  0  0  0  0  0  0  0  0  0  0  0
   -1.2063   21.4759  -22.1745 C   0  0  0  0  0  0  0  0  0  0  0  0
    0.8664   19.0302  -20.8588 C   0  0  0  0  0  0  0  0  0  0  0  0
   -0.4238   19.4896  -21.1883 O   0  0  0  0  0  0  0  0  0  0  0  0
   -5.0839   22.3247  -24.9363 C   0  0  0  0  0  0  0  0  0  0  0  0
   -4.8149   23.2106  -23.7138 N   0  0  0  0  0  0  0  0  0  0  0  0
   -5.2452   22.5680  -22.5280 C   0  0  0  0  0  0  0  0  0  0  0  0
   -6.6691   22.7278  -22.1256 C   0  0  0  0  0  0  0  0  0  0  0  0
   -7.1788   23.9958  -22.2593 O   0  0  0  0  0  0  0  0  0  0  0  0
   -7.0071   24.3824  -23.5867 C   0  0  0  0  0  0  0  0  0  0  0  0
   -5.5549   24.4515  -23.8743 C   0  0  0  0  0  0  0  0  0  0  0  0
 26 27  1  0  0  0
 27 16  1  0  0  0
 16 17  2  0  0  0
 17 18  1  0  0  0
 18 19  1  0  0  0
 18 20  2  0  0  0
 20 21  1  0  0  0
 21 22  1  0  0  0
 22 23  2  0  0  0
 23 24  1  0  0  0
 24 25  1  0  0  0
 23  1  1  0  0  0
  1  2  2  0  0  0
  2 28  1  0  0  0
 28 29  1  0  0  0
 29 30  1  0  0  0
 30 31  1  0  0  0
 31 32  1  0  0  0
 32 33  1  0  0  0
 33 34  1  0  0  0
  2  3  1  0  0  0
  3  4  2  0  0  0
  4  5  1  0  0  0
  4  6  1  0  0  0
  6  7  2  0  0  0
  7  8  1  0  0  0
  8  9  2  0  0  0
  9 10  1  0  0  0
 10 11  1  0  0  0
 11 12  2  0  0  0
 25 16  1  0  0  0
 11  1  1  0  0  0
 25 21  2  0  0  0
 34 29  1  0  0  0
  9  3  1  0  0  0
  5 13  1  0  0  0
  5 14  1  0  0  0
 10 15  1  0  0  0
M  END
> <minimizedAffinity>
-7.25625

> <CNNscore>
0.4433922172

> <CNNaffinity>
7.0268821716

> <CNN_VS>
3.1156649590

> <CNNaffinity_variance>
0.3648940623

$$$$
[H]c1nc(N([H])[H])c2c(C([H])([H])N3C([H])([H])C([H])([H])OC([H])([H])C3([H])[H])c(-c3sc4c(OC([H])([H])[H])c([H])c(C([H])([H])[H])c([H])c4c3[H])c(=O)n([H])c2n1


 34 38  0  0  0  0  0  0  0  0999 V2000
   -2.7875   22.3969  -24.2864 C   0  0  0  0  0  0  0  0  0  0  0  0
   -3.0279   22.6607  -25.6266 C   0  0  0  0  0  0  0  0  0  0  0  0
   -1.9326   22.6541  -26.5073 C   0  0  0  0  0  0  0  0  0  0  0  0
   -2.0453   22.9748  -27.8248 C   0  0  0  0  0  0  0  0  0  0  0  0
   -3.2342   23.4278  -28.4286 N   0  0  0  0  0  0  0  0  0  0  0  0
   -0.9192   22.9881  -28.5996 N   0  0  0  0  0  0  0  0  0  0  0  0
    0.2725   22.6993  -28.0852 C   0  0  0  0  0  0  0  0  0  0  0  0
    0.4226   22.3864  -26.7935 N   0  0  0  0  0  0  0  0  0  0  0  0
   -0.6617   22.3551  -25.9734 C   0  0  0  0  0  0  0  0  0  0  0  0
   -0.4810   22.0977  -24.6771 N   0  0  0  0  0  0  0  0  0  0  0  0
   -1.5091   22.1158  -23.8318 C   0  0  0  0  0  0  0  0  0  0  0  0
   -1.2834   21.8700  -22.6028 O   0  0  0  0  0  0  0  0  0  0  0  0
   -3.6628   22.8802  -29.1903 H   0  0  0  0  0  0  0  0  0  0  0  0
   -3.6534   24.3251  -28.1260 H   0  0  0  0  0  0  0  0  0  0  0  0
    0.4734   21.8794  -24.3200 H   0  0  0  0  0  0  0  0  0  0  0  0
   -6.4288   24.0277  -20.5246 C   0  0  0  0  0  0  0  0  0  0  0  0
   -7.4370   23.2938  -19.9781 C   0  0  0  0  0  0  0  0  0  0  0  0
   -7.5591   21.9937  -20.4327 C   0  0  0  0  0  0  0  0  0  0  0  0
   -8.6668   21.1884  -19.8049 C   0  0  0  0  0  0  0  0  0  0  0  0
   -6.7514   21.4357  -21.3648 C   0  0  0  0  0  0  0  0  0  0  0  0
   -5.6994   22.1801  -21.9451 C   0  0  0  0  0  0  0  0  0  0  0  0
   -4.8218   21.7528  -22.8617 C   0  0  0  0  0  0  0  0  0  0  0  0
   -3.8533   22.6302  -23.2895 C   0  0  0  0  0  0  0  0  0  0  0  0
   -4.2379   24.0304  -22.3715 S   0  0  0  0  0  0  0  0  0  0  0  0
   -5.5771   23.4639  -21.4960 C   0  0  0  0  0  0  0  0  0  0  0  0
   -7.2056   26.2662  -20.2661 C   0  0  0  0  0  0  0  0  0  0  0  0
   -6.1420   25.3448  -20.2024 O   0  0  0  0  0  0  0  0  0  0  0  0
   -4.3872   22.7633  -26.1481 C   0  0  0  0  0  0  0  0  0  0  0  0
   -4.8814   24.0725  -25.5207 N   0  0  0  0  0  0  0  0  0  0  0  0
   -6.2680   24.0004  -25.2441 C   0  0  0  0  0  0  0  0  0  0  0  0
   -7.2161   24.3564  -26.3346 C   0  0  0  0  0  0  0  0  0  0  0  0
   -6.8765   25.4653  -27.0697 O   0  0  0  0  0  0  0  0  0  0  0  0
   -5.6017   25.2533  -27.5900 C   0  0  0  0  0  0  0  0  0  0  0  0
   -4.6431   25.1523  -26.4643 C   0  0  0  0  0  0  0  0  0  0  0  0
 26 27  1  0  0  0
 27 16  1  0  0  0
 16 17  2  0  0  0
 17 18  1  0  0  0
 18 19  1  0  0  0
 18 20  2  0  0  0
 20 21  1  0  0  0
 21 22  1  0  0  0
 22 23  2  0  0  0
 23 24  1  0  0  0
 24 25  1  0  0  0
 23  1  1  0  0  0
  1  2  2  0  0  0
  2 28  1  0  0  0
 28 29  1  0  0  0
 29 30  1  0  0  0
 30 31  1  0  0  0
 31 32  1  0  0  0
 32 33  1  0  0  0
 33 34  1  0  0  0
  2  3  1  0  0  0
  3  4  2  0  0  0
  4  5  1  0  0  0
  4  6  1  0  0  0
  6  7  2  0  0  0
  7  8  1  0  0  0
  8  9  2  0  0  0
  9 10  1  0  0  0
 10 11  1  0  0  0
 11 12  2  0  0  0
 25 16  1  0  0  0
 11  1  1  0  0  0
 25 21  2  0  0  0
 34 29  1  0  0  0
  9  3  1  0  0  0
  5 13  1  0  0  0
  5 14  1  0  0  0
 10 15  1  0  0  0
M  END
> <minimizedAffinity>
-8.28827

> <CNNscore>
0.3765136600

> <CNNaffinity>
6.8854088783

> <CNN_VS>
2.5924503803

> <CNNaffinity_variance>
0.3697757721

$$$$
[H]c1nc(N([H])[H])c2c(C([H])([H])N3C([H])([H])C([H])([H])OC([H])([H])C3([H])[H])c(-c3sc4c(OC([H])([H])[H])c([H])c(C([H])([H])[H])c([H])c4c3[H])c(=O)n([H])c2n1


 34 38  0  0  0  0  0  0  0  0999 V2000
   -2.7416   22.9657  -26.1367 C   0  0  0  0  0  0  0  0  0  0  0  0
   -3.5890   24.0328  -25.8793 C   0  0  0  0  0  0  0  0  0  0  0  0
   -4.2352   24.6404  -26.9696 C   0  0  0  0  0  0  0  0  0  0  0  0
   -5.0254   25.7401  -26.8376 C   0  0  0  0  0  0  0  0  0  0  0  0
   -5.2134   26.4372  -25.6284 N   0  0  0  0  0  0  0  0  0  0  0  0
   -5.5777   26.2945  -27.9583 N   0  0  0  0  0  0  0  0  0  0  0  0
   -5.3501   25.7801  -29.1633 C   0  0  0  0  0  0  0  0  0  0  0  0
   -4.5734   24.7044  -29.3322 N   0  0  0  0  0  0  0  0  0  0  0  0
   -3.9977   24.1082  -28.2541 C   0  0  0  0  0  0  0  0  0  0  0  0
   -3.1806   23.0725  -28.4514 N   0  0  0  0  0  0  0  0  0  0  0  0
   -2.5522   22.4991  -27.4276 C   0  0  0  0  0  0  0  0  0  0  0  0
   -1.7775   21.5176  -27.6691 O   0  0  0  0  0  0  0  0  0  0  0  0
   -6.1573   26.5065  -25.2185 H   0  0  0  0  0  0  0  0  0  0  0  0
   -4.4077   26.9038  -25.1749 H   0  0  0  0  0  0  0  0  0  0  0  0
   -3.0314   22.7062  -29.4156 H   0  0  0  0  0  0  0  0  0  0  0  0
    1.1595   21.2820  -22.6702 C   0  0  0  0  0  0  0  0  0  0  0  0
    0.9870   20.7177  -21.4432 C   0  0  0  0  0  0  0  0  0  0  0  0
   -0.3212   20.5621  -21.0233 C   0  0  0  0  0  0  0  0  0  0  0  0
   -0.4966   19.9189  -19.6723 C   0  0  0  0  0  0  0  0  0  0  0  0
   -1.4016   20.9329  -21.7498 C   0  0  0  0  0  0  0  0  0  0  0  0
   -1.2447   21.5209  -23.0254 C   0  0  0  0  0  0  0  0  0  0  0  0
   -2.2190   21.9200  -23.8527 C   0  0  0  0  0  0  0  0  0  0  0  0
   -1.8587   22.4546  -25.0673 C   0  0  0  0  0  0  0  0  0  0  0  0
   -0.1452   22.3716  -24.9771 S   0  0  0  0  0  0  0  0  0  0  0  0
    0.0469   21.6740  -23.4417 C   0  0  0  0  0  0  0  0  0  0  0  0
    3.4466   20.6600  -22.9216 C   0  0  0  0  0  0  0  0  0  0  0  0
    2.3871   21.5214  -23.2673 O   0  0  0  0  0  0  0  0  0  0  0  0
   -3.9474   24.4055  -24.5144 C   0  0  0  0  0  0  0  0  0  0  0  0
   -4.8622   23.2507  -24.0883 N   0  0  0  0  0  0  0  0  0  0  0  0
   -6.1368   23.3758  -24.6915 C   0  0  0  0  0  0  0  0  0  0  0  0
   -7.1538   24.2179  -24.0047 C   0  0  0  0  0  0  0  0  0  0  0  0
   -7.2222   24.0623  -22.6421 O   0  0  0  0  0  0  0  0  0  0  0  0
   -5.9548   24.3185  -22.1234 C   0  0  0  0  0  0  0  0  0  0  0  0
   -5.0164   23.2963  -22.6436 C   0  0  0  0  0  0  0  0  0  0  0  0
 26 27  1  0  0  0
 27 16  1  0  0  0
 16 17  2  0  0  0
 17 18  1  0  0  0
 18 19  1  0  0  0
 18 20  2  0  0  0
 20 21  1  0  0  0
 21 22  1  0  0  0
 22 23  2  0  0  0
 23 24  1  0  0  0
 24 25  1  0  0  0
 23  1  1  0  0  0
  1  2  2  0  0  0
  2 28  1  0  0  0
 28 29  1  0  0  0
 29 30  1  0  0  0
 30 31  1  0  0  0
 31 32  1  0  0  0
 32 33  1  0  0  0
 33 34  1  0  0  0
  2  3  1  0  0  0
  3  4  2  0  0  0
  4  5  1  0  0  0
  4  6  1  0  0  0
  6  7  2  0  0  0
  7  8  1  0  0  0
  8  9  2  0  0  0
  9 10  1  0  0  0
 10 11  1  0  0  0
 11 12  2  0  0  0
 25 16  1  0  0  0
 11  1  1  0  0  0
 25 21  2  0  0  0
 34 29  1  0  0  0
  9  3  1  0  0  0
  5 13  1  0  0  0
  5 14  1  0  0  0
 10 15  1  0  0  0
M  END
> <minimizedAffinity>
-8.73396

> <CNNscore>
0.3678284883

> <CNNaffinity>
7.0713906288

> <CNN_VS>
2.6010589600

> <CNNaffinity_variance>
0.2625844479

$$$$
[H]c1nc(N([H])[H])c2c(C([H])([H])N3C([H])([H])C([H])([H])OC([H])([H])C3([H])[H])c(-c3sc4c(OC([H])([H])[H])c([H])c(C([H])([H])[H])c([H])c4c3[H])c(=O)n([H])c2n1


 34 38  0  0  0  0  0  0  0  0999 V2000
   -3.1782   22.8663  -24.5563 C   0  0  0  0  0  0  0  0  0  0  0  0
   -2.8182   23.3342  -25.8112 C   0  0  0  0  0  0  0  0  0  0  0  0
   -1.6256   22.8527  -26.3781 C   0  0  0  0  0  0  0  0  0  0  0  0
   -1.1415   23.3028  -27.5673 C   0  0  0  0  0  0  0  0  0  0  0  0
   -1.7221   24.3476  -28.3120 N   0  0  0  0  0  0  0  0  0  0  0  0
    0.0509   22.8133  -28.0225 N   0  0  0  0  0  0  0  0  0  0  0  0
    0.7378   21.9158  -27.3217 C   0  0  0  0  0  0  0  0  0  0  0  0
    0.2966   21.4558  -26.1459 N   0  0  0  0  0  0  0  0  0  0  0  0
   -0.8841   21.9047  -25.6425 C   0  0  0  0  0  0  0  0  0  0  0  0
   -1.2762   21.4763  -24.4417 N   0  0  0  0  0  0  0  0  0  0  0  0
   -2.3963   21.9369  -23.8891 C   0  0  0  0  0  0  0  0  0  0  0  0
   -2.7239   21.5016  -22.7380 O   0  0  0  0  0  0  0  0  0  0  0  0
   -2.0766   24.1634  -29.2629 H   0  0  0  0  0  0  0  0  0  0  0  0
   -1.7602   25.3024  -27.9126 H   0  0  0  0  0  0  0  0  0  0  0  0
   -0.7023   20.7736  -23.9290 H   0  0  0  0  0  0  0  0  0  0  0  0
   -6.7088   25.4167  -21.2248 C   0  0  0  0  0  0  0  0  0  0  0  0
   -8.0310   25.6536  -21.4475 C   0  0  0  0  0  0  0  0  0  0  0  0
   -8.5343   25.2075  -22.6556 C   0  0  0  0  0  0  0  0  0  0  0  0
  -10.0026   25.4597  -22.8794 C   0  0  0  0  0  0  0  0  0  0  0  0
   -7.7988   24.5690  -23.5958 C   0  0  0  0  0  0  0  0  0  0  0  0
   -6.4248   24.3137  -23.3849 C   0  0  0  0  0  0  0  0  0  0  0  0
   -5.5864   23.6841  -24.2177 C   0  0  0  0  0  0  0  0  0  0  0  0
   -4.2812   23.5168  -23.8186 C   0  0  0  0  0  0  0  0  0  0  0  0
   -4.3018   24.2699  -22.2747 S   0  0  0  0  0  0  0  0  0  0  0  0
   -5.9269   24.7528  -22.1915 C   0  0  0  0  0  0  0  0  0  0  0  0
   -6.2762   25.0397  -18.9114 C   0  0  0  0  0  0  0  0  0  0  0  0
   -6.0194   25.7835  -20.0798 O   0  0  0  0  0  0  0  0  0  0  0  0
   -3.7263   24.1575  -26.6035 C   0  0  0  0  0  0  0  0  0  0  0  0
   -4.6408   23.1094  -27.2491 N   0  0  0  0  0  0  0  0  0  0  0  0
   -4.2993   22.9201  -28.6099 C   0  0  0  0  0  0  0  0  0  0  0  0
   -4.9090   23.8324  -29.6154 C   0  0  0  0  0  0  0  0  0  0  0  0
   -6.2435   24.0997  -29.4333 O   0  0  0  0  0  0  0  0  0  0  0  0
   -6.3986   24.6229  -28.1515 C   0  0  0  0  0  0  0  0  0  0  0  0
   -6.0123   23.5842  -27.1676 C   0  0  0  0  0  0  0  0  0  0  0  0
 26 27  1  0  0  0
 27 16  1  0  0  0
 16 17  2  0  0  0
 17 18  1  0  0  0
 18 19  1  0  0  0
 18 20  2  0  0  0
 20 21  1  0  0  0
 21 22  1  0  0  0
 22 23  2  0  0  0
 23 24  1  0  0  0
 24 25  1  0  0  0
 23  1  1  0  0  0
  1  2  2  0  0  0
  2 28  1  0  0  0
 28 29  1  0  0  0
 29 30  1  0  0  0
 30 31  1  0  0  0
 31 32  1  0  0  0
 32 33  1  0  0  0
 33 34  1  0  0  0
  2  3  1  0  0  0
  3  4  2  0  0  0
  4  5  1  0  0  0
  4  6  1  0  0  0
  6  7  2  0  0  0
  7  8  1  0  0  0
  8  9  2  0  0  0
  9 10  1  0  0  0
 10 11  1  0  0  0
 11 12  2  0  0  0
 25 16  1  0  0  0
 11  1  1  0  0  0
 25 21  2  0  0  0
 34 29  1  0  0  0
  9  3  1  0  0  0
  5 13  1  0  0  0
  5 14  1  0  0  0
 10 15  1  0  0  0
M  END
> <minimizedAffinity>
-7.05392

> <CNNscore>
0.3623910546

> <CNNaffinity>
6.7531762123

> <CNN_VS>
2.4472906590

> <CNNaffinity_variance>
0.2307112962

$$$$
[H]c1nc(N([H])[H])c2c(C([H])([H])N3C([H])([H])C([H])([H])OC([H])([H])C3([H])[H])c(-c3sc4c(OC([H])([H])[H])c([H])c(C([H])([H])[H])c([H])c4c3[H])c(=O)n([H])c2n1


 34 38  0  0  0  0  0  0  0  0999 V2000
   -1.2108   21.6498  -23.9339 C   0  0  0  0  0  0  0  0  0  0  0  0
   -2.5568   21.8103  -24.2263 C   0  0  0  0  0  0  0  0  0  0  0  0
   -2.9042   22.2525  -25.5144 C   0  0  0  0  0  0  0  0  0  0  0  0
   -4.1877   22.5160  -25.8813 C   0  0  0  0  0  0  0  0  0  0  0  0
   -5.2871   22.4622  -25.0029 N   0  0  0  0  0  0  0  0  0  0  0  0
   -4.4307   22.9875  -27.1411 N   0  0  0  0  0  0  0  0  0  0  0  0
   -3.4376   23.1940  -28.0011 C   0  0  0  0  0  0  0  0  0  0  0  0
   -2.1635   22.9529  -27.6735 N   0  0  0  0  0  0  0  0  0  0  0  0
   -1.8599   22.4811  -26.4347 C   0  0  0  0  0  0  0  0  0  0  0  0
   -0.5785   22.3030  -26.1101 N   0  0  0  0  0  0  0  0  0  0  0  0
   -0.2376   21.8987  -24.8885 C   0  0  0  0  0  0  0  0  0  0  0  0
    0.9996   21.7500  -24.6260 O   0  0  0  0  0  0  0  0  0  0  0  0
   -6.0548   21.7974  -25.1832 H   0  0  0  0  0  0  0  0  0  0  0  0
   -5.3336   23.1133  -24.1989 H   0  0  0  0  0  0  0  0  0  0  0  0
    0.1653   22.4808  -26.8181 H   0  0  0  0  0  0  0  0  0  0  0  0
    0.4181   21.6454  -18.6978 C   0  0  0  0  0  0  0  0  0  0  0  0
    0.6332   20.5630  -17.9004 C   0  0  0  0  0  0  0  0  0  0  0  0
    0.4048   19.3272  -18.4770 C   0  0  0  0  0  0  0  0  0  0  0  0
    0.6654   18.1388  -17.5885 C   0  0  0  0  0  0  0  0  0  0  0  0
   -0.0097   19.1492  -19.7534 C   0  0  0  0  0  0  0  0  0  0  0  0
   -0.2394   20.2592  -20.5976 C   0  0  0  0  0  0  0  0  0  0  0  0
   -0.6349   20.2290  -21.8765 C   0  0  0  0  0  0  0  0  0  0  0  0
   -0.7845   21.4259  -22.5366 C   0  0  0  0  0  0  0  0  0  0  0  0
   -0.3611   22.5455  -21.3043 S   0  0  0  0  0  0  0  0  0  0  0  0
   -0.0129   21.4802  -20.0296 C   0  0  0  0  0  0  0  0  0  0  0  0
    1.8993   23.4829  -18.3648 C   0  0  0  0  0  0  0  0  0  0  0  0
    0.5909   22.9642  -18.3081 O   0  0  0  0  0  0  0  0  0  0  0  0
   -3.5932   21.3663  -23.2995 C   0  0  0  0  0  0  0  0  0  0  0  0
   -3.3684   22.2840  -22.0916 N   0  0  0  0  0  0  0  0  0  0  0  0
   -3.9401   21.7216  -20.9250 C   0  0  0  0  0  0  0  0  0  0  0  0
   -5.3786   21.9904  -20.6540 C   0  0  0  0  0  0  0  0  0  0  0  0
   -5.7873   23.2820  -20.8781 O   0  0  0  0  0  0  0  0  0  0  0  0
   -5.4783   23.5999  -22.1988 C   0  0  0  0  0  0  0  0  0  0  0  0
   -4.0058   23.5623  -22.3613 C   0  0  0  0  0  0  0  0  0  0  0  0
 26 27  1  0  0  0
 27 16  1  0  0  0
 16 17  2  0  0  0
 17 18  1  0  0  0
 18 19  1  0  0  0
 18 20  2  0  0  0
 20 21  1  0  0  0
 21 22  1  0  0  0
 22 23  2  0  0  0
 23 24  1  0  0  0
 24 25  1  0  0  0
 23  1  1  0  0  0
  1  2  2  0  0  0
  2 28  1  0  0  0
 28 29  1  0  0  0
 29 30  1  0  0  0
 30 31  1  0  0  0
 31 32  1  0  0  0
 32 33  1  0  0  0
 33 34  1  0  0  0
  2  3  1  0  0  0
  3  4  2  0  0  0
  4  5  1  0  0  0
  4  6  1  0  0  0
  6  7  2  0  0  0
  7  8  1  0  0  0
  8  9  2  0  0  0
  9 10  1  0  0  0
 10 11  1  0  0  0
 11 12  2  0  0  0
 25 16  1  0  0  0
 11  1  1  0  0  0
 25 21  2  0  0  0
 34 29  1  0  0  0
  9  3  1  0  0  0
  5 13  1  0  0  0
  5 14  1  0  0  0
 10 15  1  0  0  0
M  END
> <minimizedAffinity>
-7.13677

> <CNNscore>
0.3289246857

> <CNNaffinity>
6.5747284889

> <CNN_VS>
2.1625905037

> <CNNaffinity_variance>
0.4896889627

$$$$
[H]C([H])=C([H])C(=O)N1C([H])([H])C([H])([H])N(C([H])([H])C2=C(c3sc4c(OC([H])([H])[H])c([H])c(C([H])([H])[H])c([H])c4c3[H])c3nc([H])nc(N([H])[H])c32)C([H])([H])C1([H])[H]


 34 38  0  0  0  0  0  0  0  0999 V2000
   -0.9968   21.9598  -25.0413 C   0  0  0  0  0  0  0  0  0  0  0  0
   -2.2299   21.9502  -25.4346 C   0  0  0  0  0  0  0  0  0  0  0  0
   -1.8692   22.4522  -26.7412 C   0  0  0  0  0  0  0  0  0  0  0  0
   -2.1996   22.8743  -28.0440 C   0  0  0  0  0  0  0  0  0  0  0  0
   -3.5677   22.8300  -28.4072 N   0  0  0  0  0  0  0  0  0  0  0  0
   -1.1995   23.2682  -28.8134 N   0  0  0  0  0  0  0  0  0  0  0  0
    0.0866   23.2876  -28.4264 C   0  0  0  0  0  0  0  0  0  0  0  0
    0.3606   22.8804  -27.1836 N   0  0  0  0  0  0  0  0  0  0  0  0
   -0.5687   22.4618  -26.3210 C   0  0  0  0  0  0  0  0  0  0  0  0
   -3.8302   22.1641  -29.1878 H   0  0  0  0  0  0  0  0  0  0  0  0
   -4.2751   23.4273  -27.9260 H   0  0  0  0  0  0  0  0  0  0  0  0
    0.9978   20.8877  -20.0777 C   0  0  0  0  0  0  0  0  0  0  0  0
    2.3024   20.6261  -19.7277 C   0  0  0  0  0  0  0  0  0  0  0  0
    3.2257   20.6145  -20.7415 C   0  0  0  0  0  0  0  0  0  0  0  0
    4.6790   20.3247  -20.4065 C   0  0  0  0  0  0  0  0  0  0  0  0
    2.8963   20.8477  -22.0344 C   0  0  0  0  0  0  0  0  0  0  0  0
    1.5713   21.1192  -22.4270 C   0  0  0  0  0  0  0  0  0  0  0  0
    1.1181   21.3744  -23.6791 C   0  0  0  0  0  0  0  0  0  0  0  0
   -0.2147   21.6197  -23.8199 C   0  0  0  0  0  0  0  0  0  0  0  0
   -0.8081   21.4885  -22.2131 S   0  0  0  0  0  0  0  0  0  0  0  0
    0.6541   21.1292  -21.4190 C   0  0  0  0  0  0  0  0  0  0  0  0
   -0.2675   22.0714  -18.3985 C   0  0  0  0  0  0  0  0  0  0  0  0
   -0.0712   20.9424  -19.2060 O   0  0  0  0  0  0  0  0  0  0  0  0
   -3.5243   21.5591  -24.7700 C   0  0  0  0  0  0  0  0  0  0  0  0
   -4.3561   22.6940  -24.6028 N   0  0  0  0  0  0  0  0  0  0  0  0
   -3.7306   23.9664  -24.7030 C   0  0  0  0  0  0  0  0  0  0  0  0
   -4.7619   25.0569  -24.9063 C   0  0  0  0  0  0  0  0  0  0  0  0
   -5.5030   24.7433  -26.1670 N   0  0  0  0  0  0  0  0  0  0  0  0
   -6.0753   23.4571  -26.2200 C   0  0  0  0  0  0  0  0  0  0  0  0
   -5.7069   22.6382  -24.9811 C   0  0  0  0  0  0  0  0  0  0  0  0
   -5.5647   25.7015  -27.1790 C   0  0  0  0  0  0  0  0  0  0  0  0
   -4.9012   26.8335  -26.9546 O   0  0  0  0  0  0  0  0  0  0  0  0
   -6.2408   25.6530  -28.4285 C   0  0  0  0  0  0  0  0  0  0  0  0
   -5.7295   25.7352  -29.6207 C   0  0  0  0  0  0  0  0  0  0  0  0
 22 23  1  0  0  0
 23 12  1  0  0  0
 12 13  2  0  0  0
 13 14  1  0  0  0
 14 15  1  0  0  0
 14 16  2  0  0  0
 16 17  1  0  0  0
 17 18  1  0  0  0
 18 19  2  0  0  0
 19 20  1  0  0  0
 20 21  1  0  0  0
 19  1  1  0  0  0
  1  2  2  0  0  0
  2 24  1  0  0  0
 24 25  1  0  0  0
 25 26  1  0  0  0
 26 27  1  0  0  0
 27 28  1  0  0  0
 28 29  1  0  0  0
 29 30  1  0  0  0
 28 31  1  0  0  0
 31 32  2  0  0  0
 31 33  1  0  0  0
 33 34  2  0  0  0
  2  3  1  0  0  0
  3  4  2  0  0  0
  4  5  1  0  0  0
  4  6  1  0  0  0
  6  7  2  0  0  0
  7  8  1  0  0  0
  8  9  2  0  0  0
 21 12  1  0  0  0
  9  1  1  0  0  0
 21 17  2  0  0  0
 30 25  1  0  0  0
  9  3  1  0  0  0
  5 10  1  0  0  0
  5 11  1  0  0  0
M  END
> <minimizedAffinity>
-8.49554

> <CNNscore>
0.7499615550

> <CNNaffinity>
7.6921224594

> <CNN_VS>
5.7687959671

> <CNNaffinity_variance>
0.1080996841

$$$$
[H]C([H])=C([H])C(=O)N1C([H])([H])C([H])([H])N(C([H])([H])C2=C(c3sc4c(OC([H])([H])[H])c([H])c(C([H])([H])[H])c([H])c4c3[H])c3nc([H])nc(N([H])[H])c32)C([H])([H])C1([H])[H]


 34 38  0  0  0  0  0  0  0  0999 V2000
   -1.0717   22.0451  -25.1726 C   0  0  0  0  0  0  0  0  0  0  0  0
   -2.3118   22.1022  -25.5392 C   0  0  0  0  0  0  0  0  0  0  0  0
   -1.9517   22.5633  -26.8609 C   0  0  0  0  0  0  0  0  0  0  0  0
   -2.2860   22.9853  -28.1627 C   0  0  0  0  0  0  0  0  0  0  0  0
   -3.6621   23.0161  -28.4958 N   0  0  0  0  0  0  0  0  0  0  0  0
   -1.2821   23.3088  -28.9595 N   0  0  0  0  0  0  0  0  0  0  0  0
    0.0114   23.2584  -28.6006 C   0  0  0  0  0  0  0  0  0  0  0  0
    0.2888   22.8537  -27.3577 N   0  0  0  0  0  0  0  0  0  0  0  0
   -0.6438   22.5027  -26.4690 C   0  0  0  0  0  0  0  0  0  0  0  0
   -3.9804   22.3556  -29.2601 H   0  0  0  0  0  0  0  0  0  0  0  0
   -4.3226   23.6607  -28.0089 H   0  0  0  0  0  0  0  0  0  0  0  0
    0.9530   20.8823  -20.2418 C   0  0  0  0  0  0  0  0  0  0  0  0
    2.2560   20.5928  -19.9082 C   0  0  0  0  0  0  0  0  0  0  0  0
    3.1685   20.5753  -20.9316 C   0  0  0  0  0  0  0  0  0  0  0  0
    4.6196   20.2550  -20.6148 C   0  0  0  0  0  0  0  0  0  0  0  0
    2.8305   20.8285  -22.2185 C   0  0  0  0  0  0  0  0  0  0  0  0
    1.5068   21.1287  -22.5943 C   0  0  0  0  0  0  0  0  0  0  0  0
    1.0457   21.4059  -23.8388 C   0  0  0  0  0  0  0  0  0  0  0  0
   -0.2837   21.6773  -23.9632 C   0  0  0  0  0  0  0  0  0  0  0  0
   -0.8631   21.5396  -22.3517 S   0  0  0  0  0  0  0  0  0  0  0  0
    0.6003   21.1448  -21.5768 C   0  0  0  0  0  0  0  0  0  0  0  0
   -0.2767   22.0737  -18.5417 C   0  0  0  0  0  0  0  0  0  0  0  0
   -0.1059   20.9472  -19.3585 O   0  0  0  0  0  0  0  0  0  0  0  0
   -3.6116   21.7972  -24.8409 C   0  0  0  0  0  0  0  0  0  0  0  0
   -3.9371   22.8321  -23.9293 N   0  0  0  0  0  0  0  0  0  0  0  0
   -3.9625   24.1558  -24.4463 C   0  0  0  0  0  0  0  0  0  0  0  0
   -4.6968   25.0863  -23.5034 C   0  0  0  0  0  0  0  0  0  0  0  0
   -6.0896   24.5626  -23.3517 N   0  0  0  0  0  0  0  0  0  0  0  0
   -6.1814   23.2168  -22.9454 C   0  0  0  0  0  0  0  0  0  0  0  0
   -4.7962   22.5741  -22.8495 C   0  0  0  0  0  0  0  0  0  0  0  0
   -7.1686   25.4028  -23.6272 C   0  0  0  0  0  0  0  0  0  0  0  0
   -6.8640   26.6241  -24.0600 O   0  0  0  0  0  0  0  0  0  0  0  0
   -8.5626   25.1500  -23.5107 C   0  0  0  0  0  0  0  0  0  0  0  0
   -9.3161   25.2797  -22.4595 C   0  0  0  0  0  0  0  0  0  0  0  0
 22 23  1  0  0  0
 23 12  1  0  0  0
 12 13  2  0  0  0
 13 14  1  0  0  0
 14 15  1  0  0  0
 14 16  2  0  0  0
 16 17  1  0  0  0
 17 18  1  0  0  0
 18 19  2  0  0  0
 19 20  1  0  0  0
 20 21  1  0  0  0
 19  1  1  0  0  0
  1  2  2  0  0  0
  2 24  1  0  0  0
 24 25  1  0  0  0
 25 26  1  0  0  0
 26 27  1  0  0  0
 27 28  1  0  0  0
 28 29  1  0  0  0
 29 30  1  0  0  0
 28 31  1  0  0  0
 31 32  2  0  0  0
 31 33  1  0  0  0
 33 34  2  0  0  0
  2  3  1  0  0  0
  3  4  2  0  0  0
  4  5  1  0  0  0
  4  6  1  0  0  0
  6  7  2  0  0  0
  7  8  1  0  0  0
  8  9  2  0  0  0
 21 12  1  0  0  0
  9  1  1  0  0  0
 21 17  2  0  0  0
 30 25  1  0  0  0
  9  3  1  0  0  0
  5 10  1  0  0  0
  5 11  1  0  0  0
M  END
> <minimizedAffinity>
-8.78235

> <CNNscore>
0.5707525015

> <CNNaffinity>
7.3084764481

> <CNN_VS>
4.1713314056

> <CNNaffinity_variance>
0.0790350810

$$$$
[H]C([H])=C([H])C(=O)N1C([H])([H])C([H])([H])N(C([H])([H])C2=C(c3sc4c(OC([H])([H])[H])c([H])c(C([H])([H])[H])c([H])c4c3[H])c3nc([H])nc(N([H])[H])c32)C([H])([H])C1([H])[H]


 34 38  0  0  0  0  0  0  0  0999 V2000
   -1.2277   22.0378  -25.2182 C   0  0  0  0  0  0  0  0  0  0  0  0
   -2.4450   22.1229  -25.6501 C   0  0  0  0  0  0  0  0  0  0  0  0
   -2.0056   22.5902  -26.9453 C   0  0  0  0  0  0  0  0  0  0  0  0
   -2.2614   23.0319  -28.2584 C   0  0  0  0  0  0  0  0  0  0  0  0
   -3.6168   23.0931  -28.6643 N   0  0  0  0  0  0  0  0  0  0  0  0
   -1.2101   23.3436  -28.9967 N   0  0  0  0  0  0  0  0  0  0  0  0
    0.0610   23.2642  -28.5696 C   0  0  0  0  0  0  0  0  0  0  0  0
    0.2634   22.8416  -27.3182 N   0  0  0  0  0  0  0  0  0  0  0  0
   -0.7221   22.5000  -26.4846 C   0  0  0  0  0  0  0  0  0  0  0  0
   -3.9060   22.4467  -29.4519 H   0  0  0  0  0  0  0  0  0  0  0  0
   -4.2901   23.7455  -28.2063 H   0  0  0  0  0  0  0  0  0  0  0  0
    2.2211   20.6216  -21.2352 C   0  0  0  0  0  0  0  0  0  0  0  0
    1.9176   20.2310  -19.9514 C   0  0  0  0  0  0  0  0  0  0  0  0
    0.5899   20.2033  -19.6096 C   0  0  0  0  0  0  0  0  0  0  0  0
    0.2040   19.7841  -18.2011 C   0  0  0  0  0  0  0  0  0  0  0  0
   -0.3962   20.5383  -20.4754 C   0  0  0  0  0  0  0  0  0  0  0  0
   -0.1208   20.9417  -21.7963 C   0  0  0  0  0  0  0  0  0  0  0  0
   -1.0135   21.2927  -22.7545 C   0  0  0  0  0  0  0  0  0  0  0  0
   -0.5130   21.6423  -23.9725 C   0  0  0  0  0  0  0  0  0  0  0  0
    1.1838   21.4780  -23.7597 S   0  0  0  0  0  0  0  0  0  0  0  0
    1.1991   20.9702  -22.1349 C   0  0  0  0  0  0  0  0  0  0  0  0
    4.3177   19.5821  -21.8233 C   0  0  0  0  0  0  0  0  0  0  0  0
    3.4919   20.7136  -21.7666 O   0  0  0  0  0  0  0  0  0  0  0  0
   -3.7860   21.8364  -25.0258 C   0  0  0  0  0  0  0  0  0  0  0  0
   -4.0931   22.8127  -24.0457 N   0  0  0  0  0  0  0  0  0  0  0  0
   -4.0971   24.1686  -24.4722 C   0  0  0  0  0  0  0  0  0  0  0  0
   -4.8147   25.0453  -23.4669 C   0  0  0  0  0  0  0  0  0  0  0  0
   -6.2158   24.5357  -23.3476 N   0  0  0  0  0  0  0  0  0  0  0  0
   -6.3295   23.1672  -23.0328 C   0  0  0  0  0  0  0  0  0  0  0  0
   -4.9551   22.4966  -22.9837 C   0  0  0  0  0  0  0  0  0  0  0  0
   -7.2810   25.4102  -23.5632 C   0  0  0  0  0  0  0  0  0  0  0  0
   -6.9566   26.6528  -23.9134 O   0  0  0  0  0  0  0  0  0  0  0  0
   -8.6789   25.1732  -23.4608 C   0  0  0  0  0  0  0  0  0  0  0  0
   -9.4254   25.2256  -22.3980 C   0  0  0  0  0  0  0  0  0  0  0  0
 22 23  1  0  0  0
 23 12  1  0  0  0
 12 13  2  0  0  0
 13 14  1  0  0  0
 14 15  1  0  0  0
 14 16  2  0  0  0
 16 17  1  0  0  0
 17 18  1  0  0  0
 18 19  2  0  0  0
 19 20  1  0  0  0
 20 21  1  0  0  0
 19  1  1  0  0  0
  1  2  2  0  0  0
  2 24  1  0  0  0
 24 25  1  0  0  0
 25 26  1  0  0  0
 26 27  1  0  0  0
 27 28  1  0  0  0
 28 29  1  0  0  0
 29 30  1  0  0  0
 28 31  1  0  0  0
 31 32  2  0  0  0
 31 33  1  0  0  0
 33 34  2  0  0  0
  2  3  1  0  0  0
  3  4  2  0  0  0
  4  5  1  0  0  0
  4  6  1  0  0  0
  6  7  2  0  0  0
  7  8  1  0  0  0
  8  9  2  0  0  0
 21 12  1  0  0  0
  9  1  1  0  0  0
 21 17  2  0  0  0
 30 25  1  0  0  0
  9  3  1  0  0  0
  5 10  1  0  0  0
  5 11  1  0  0  0
M  END
> <minimizedAffinity>
-8.75679

> <CNNscore>
0.5086961985

> <CNNaffinity>
7.2935357094

> <CNN_VS>
3.7101938725

> <CNNaffinity_variance>
0.0759571046

$$$$
[H]C([H])=C([H])C(=O)N1C([H])([H])C([H])([H])N(C([H])([H])C2=C(c3sc4c(OC([H])([H])[H])c([H])c(C([H])([H])[H])c([H])c4c3[H])c3nc([H])nc(N([H])[H])c32)C([H])([H])C1([H])[H]


 34 38  0  0  0  0  0  0  0  0999 V2000
   -0.8084   21.8032  -24.3406 C   0  0  0  0  0  0  0  0  0  0  0  0
   -2.0744   21.8468  -24.6069 C   0  0  0  0  0  0  0  0  0  0  0  0
   -1.8250   22.2813  -25.9627 C   0  0  0  0  0  0  0  0  0  0  0  0
   -2.2659   22.6740  -27.2417 C   0  0  0  0  0  0  0  0  0  0  0  0
   -3.6646   22.6914  -27.4631 N   0  0  0  0  0  0  0  0  0  0  0  0
   -1.3317   22.9851  -28.1236 N   0  0  0  0  0  0  0  0  0  0  0  0
   -0.0132   22.9482  -27.8694 C   0  0  0  0  0  0  0  0  0  0  0  0
    0.3662   22.5714  -26.6449 N   0  0  0  0  0  0  0  0  0  0  0  0
   -0.4894   22.2350  -25.6765 C   0  0  0  0  0  0  0  0  0  0  0  0
   -4.0394   22.0133  -28.1852 H   0  0  0  0  0  0  0  0  0  0  0  0
   -4.2877   23.3431  -26.9379 H   0  0  0  0  0  0  0  0  0  0  0  0
    3.1388   20.4058  -20.8433 C   0  0  0  0  0  0  0  0  0  0  0  0
    3.0394   20.2225  -19.4833 C   0  0  0  0  0  0  0  0  0  0  0  0
    1.8065   20.4268  -18.9189 C   0  0  0  0  0  0  0  0  0  0  0  0
    1.6469   20.2424  -17.4192 C   0  0  0  0  0  0  0  0  0  0  0  0
    0.7211   20.7910  -19.6427 C   0  0  0  0  0  0  0  0  0  0  0  0
    0.7878   20.9865  -21.0358 C   0  0  0  0  0  0  0  0  0  0  0  0
   -0.2220   21.3418  -21.8679 C   0  0  0  0  0  0  0  0  0  0  0  0
    0.0770   21.4648  -23.1914 C   0  0  0  0  0  0  0  0  0  0  0  0
    1.7518   21.0867  -23.2505 S   0  0  0  0  0  0  0  0  0  0  0  0
    2.0137   20.7844  -21.5958 C   0  0  0  0  0  0  0  0  0  0  0  0
    4.9410   19.0096  -21.6336 C   0  0  0  0  0  0  0  0  0  0  0  0
    4.2880   20.2495  -21.5920 O   0  0  0  0  0  0  0  0  0  0  0  0
   -3.3116   21.5507  -23.7996 C   0  0  0  0  0  0  0  0  0  0  0  0
   -4.0344   22.7434  -23.5484 N   0  0  0  0  0  0  0  0  0  0  0  0
   -3.2898   23.9541  -23.5439 C   0  0  0  0  0  0  0  0  0  0  0  0
   -4.2102   25.1507  -23.6668 C   0  0  0  0  0  0  0  0  0  0  0  0
   -4.9602   25.0087  -24.9530 N   0  0  0  0  0  0  0  0  0  0  0  0
   -5.6510   23.7912  -25.1110 C   0  0  0  0  0  0  0  0  0  0  0  0
   -5.3790   22.8466  -23.9384 C   0  0  0  0  0  0  0  0  0  0  0  0
   -4.9169   26.0445  -25.8864 C   0  0  0  0  0  0  0  0  0  0  0  0
   -4.1524   27.0869  -25.5691 O   0  0  0  0  0  0  0  0  0  0  0  0
   -5.5774   26.1585  -27.1400 C   0  0  0  0  0  0  0  0  0  0  0  0
   -5.1410   25.8027  -28.3116 C   0  0  0  0  0  0  0  0  0  0  0  0
 22 23  1  0  0  0
 23 12  1  0  0  0
 12 13  2  0  0  0
 13 14  1  0  0  0
 14 15  1  0  0  0
 14 16  2  0  0  0
 16 17  1  0  0  0
 17 18  1  0  0  0
 18 19  2  0  0  0
 19 20  1  0  0  0
 20 21  1  0  0  0
 19  1  1  0  0  0
  1  2  2  0  0  0
  2 24  1  0  0  0
 24 25  1  0  0  0
 25 26  1  0  0  0
 26 27  1  0  0  0
 27 28  1  0  0  0
 28 29  1  0  0  0
 29 30  1  0  0  0
 28 31  1  0  0  0
 31 32  2  0  0  0
 31 33  1  0  0  0
 33 34  2  0  0  0
  2  3  1  0  0  0
  3  4  2  0  0  0
  4  5  1  0  0  0
  4  6  1  0  0  0
  6  7  2  0  0  0
  7  8  1  0  0  0
  8  9  2  0  0  0
 21 12  1  0  0  0
  9  1  1  0  0  0
 21 17  2  0  0  0
 30 25  1  0  0  0
  9  3  1  0  0  0
  5 10  1  0  0  0
  5 11  1  0  0  0
M  END
> <minimizedAffinity>
-8.12235

> <CNNscore>
0.3636152744

> <CNNaffinity>
7.1561012268

> <CNN_VS>
2.6020677090

> <CNNaffinity_variance>
0.1040157676

$$$$
[H]C([H])=C([H])C(=O)N1C([H])([H])C([H])([H])N(C([H])([H])C2=C(c3sc4c(OC([H])([H])[H])c([H])c(C([H])([H])[H])c([H])c4c3[H])c3nc([H])nc(N([H])[H])c32)C([H])([H])C1([H])[H]


 34 38  0  0  0  0  0  0  0  0999 V2000
   -2.3658   22.8923  -24.7605 C   0  0  0  0  0  0  0  0  0  0  0  0
   -3.4651   23.5755  -24.7776 C   0  0  0  0  0  0  0  0  0  0  0  0
   -3.4461   23.6639  -26.2202 C   0  0  0  0  0  0  0  0  0  0  0  0
   -3.9935   24.0931  -27.4452 C   0  0  0  0  0  0  0  0  0  0  0  0
   -5.2016   24.8298  -27.3875 N   0  0  0  0  0  0  0  0  0  0  0  0
   -3.3316   23.7630  -28.5408 N   0  0  0  0  0  0  0  0  0  0  0  0
   -2.1893   23.0562  -28.5470 C   0  0  0  0  0  0  0  0  0  0  0  0
   -1.7010   22.6672  -27.3657 N   0  0  0  0  0  0  0  0  0  0  0  0
   -2.2850   22.9434  -26.1971 C   0  0  0  0  0  0  0  0  0  0  0  0
   -6.0513   24.3839  -27.8356 H   0  0  0  0  0  0  0  0  0  0  0  0
   -5.2440   25.7646  -26.9257 H   0  0  0  0  0  0  0  0  0  0  0  0
    1.6304   20.6126  -21.8283 C   0  0  0  0  0  0  0  0  0  0  0  0
    1.5503   20.0666  -20.5680 C   0  0  0  0  0  0  0  0  0  0  0  0
    0.3256   20.1055  -19.9524 C   0  0  0  0  0  0  0  0  0  0  0  0
    0.1872   19.5203  -18.5571 C   0  0  0  0  0  0  0  0  0  0  0  0
   -0.7699   20.6485  -20.5352 C   0  0  0  0  0  0  0  0  0  0  0  0
   -0.7230   21.2151  -21.8237 C   0  0  0  0  0  0  0  0  0  0  0  0
   -1.7444   21.7792  -22.5141 C   0  0  0  0  0  0  0  0  0  0  0  0
   -1.4642   22.2579  -23.7586 C   0  0  0  0  0  0  0  0  0  0  0  0
    0.2095   21.9163  -23.9410 S   0  0  0  0  0  0  0  0  0  0  0  0
    0.4949   21.1771  -22.4343 C   0  0  0  0  0  0  0  0  0  0  0  0
    3.8548   19.8260  -22.3338 C   0  0  0  0  0  0  0  0  0  0  0  0
    2.7689   20.6696  -22.6070 O   0  0  0  0  0  0  0  0  0  0  0  0
   -4.3910   24.0718  -23.6976 C   0  0  0  0  0  0  0  0  0  0  0  0
   -5.6009   23.3342  -23.7070 N   0  0  0  0  0  0  0  0  0  0  0  0
   -5.5950   22.0863  -23.0266 C   0  0  0  0  0  0  0  0  0  0  0  0
   -7.0091   21.6077  -22.7710 C   0  0  0  0  0  0  0  0  0  0  0  0
   -7.6907   22.6477  -21.9398 N   0  0  0  0  0  0  0  0  0  0  0  0
   -7.6613   23.9519  -22.4717 C   0  0  0  0  0  0  0  0  0  0  0  0
   -6.8333   24.0046  -23.7573 C   0  0  0  0  0  0  0  0  0  0  0  0
   -8.2761   22.2780  -20.7288 C   0  0  0  0  0  0  0  0  0  0  0  0
   -8.1374   21.0017  -20.3770 O   0  0  0  0  0  0  0  0  0  0  0  0
   -9.0112   23.0675  -19.8029 C   0  0  0  0  0  0  0  0  0  0  0  0
  -10.1444   22.7863  -19.2316 C   0  0  0  0  0  0  0  0  0  0  0  0
 22 23  1  0  0  0
 23 12  1  0  0  0
 12 13  2  0  0  0
 13 14  1  0  0  0
 14 15  1  0  0  0
 14 16  2  0  0  0
 16 17  1  0  0  0
 17 18  1  0  0  0
 18 19  2  0  0  0
 19 20  1  0  0  0
 20 21  1  0  0  0
 19  1  1  0  0  0
  1  2  2  0  0  0
  2 24  1  0  0  0
 24 25  1  0  0  0
 25 26  1  0  0  0
 26 27  1  0  0  0
 27 28  1  0  0  0
 28 29  1  0  0  0
 29 30  1  0  0  0
 28 31  1  0  0  0
 31 32  2  0  0  0
 31 33  1  0  0  0
 33 34  2  0  0  0
  2  3  1  0  0  0
  3  4  2  0  0  0
  4  5  1  0  0  0
  4  6  1  0  0  0
  6  7  2  0  0  0
  7  8  1  0  0  0
  8  9  2  0  0  0
 21 12  1  0  0  0
  9  1  1  0  0  0
 21 17  2  0  0  0
 30 25  1  0  0  0
  9  3  1  0  0  0
  5 10  1  0  0  0
  5 11  1  0  0  0
M  END
> <minimizedAffinity>
-7.75473

> <CNNscore>
0.2215410620

> <CNNaffinity>
7.0273504257

> <CNN_VS>
1.5568466187

> <CNNaffinity_variance>
0.5122594833

$$$$
[H]C([H])=C([H])C(=O)N1C([H])([H])C([H])([H])N(C([H])([H])C2=C(c3sc4c(OC([H])([H])[H])c([H])c(C([H])([H])[H])c([H])c4c3[H])c3nc([H])nc(N([H])[H])c32)C([H])([H])C1([H])[H]


 34 38  0  0  0  0  0  0  0  0999 V2000
   -1.4906   22.2215  -23.5070 C   0  0  0  0  0  0  0  0  0  0  0  0
   -1.5665   21.8106  -22.2819 C   0  0  0  0  0  0  0  0  0  0  0  0
   -0.1756   21.4175  -22.2751 C   0  0  0  0  0  0  0  0  0  0  0  0
    0.9573   20.8712  -21.6405 C   0  0  0  0  0  0  0  0  0  0  0  0
    0.8019   20.4492  -20.2976 N   0  0  0  0  0  0  0  0  0  0  0  0
    2.0672   20.8077  -22.3557 N   0  0  0  0  0  0  0  0  0  0  0  0
    2.1689   21.2267  -23.6279 C   0  0  0  0  0  0  0  0  0  0  0  0
    1.0730   21.7385  -24.1957 N   0  0  0  0  0  0  0  0  0  0  0  0
   -0.1005   21.8515  -23.5688 C   0  0  0  0  0  0  0  0  0  0  0  0
    1.3695   20.9671  -19.5687 H   0  0  0  0  0  0  0  0  0  0  0  0
    0.1594   19.6661  -20.0472 H   0  0  0  0  0  0  0  0  0  0  0  0
   -4.9340   25.1683  -26.5440 C   0  0  0  0  0  0  0  0  0  0  0  0
   -5.4152   24.8793  -27.8001 C   0  0  0  0  0  0  0  0  0  0  0  0
   -4.9732   23.7185  -28.3811 C   0  0  0  0  0  0  0  0  0  0  0  0
   -5.4714   23.3579  -29.7705 C   0  0  0  0  0  0  0  0  0  0  0  0
   -4.1052   22.8778  -27.7693 C   0  0  0  0  0  0  0  0  0  0  0  0
   -3.5938   23.1430  -26.4841 C   0  0  0  0  0  0  0  0  0  0  0  0
   -2.7309   22.3821  -25.7669 C   0  0  0  0  0  0  0  0  0  0  0  0
   -2.3786   22.8376  -24.5321 C   0  0  0  0  0  0  0  0  0  0  0  0
   -3.2509   24.3114  -24.3958 S   0  0  0  0  0  0  0  0  0  0  0  0
   -4.0327   24.2974  -25.9078 C   0  0  0  0  0  0  0  0  0  0  0  0
   -6.3650   26.2607  -24.9375 C   0  0  0  0  0  0  0  0  0  0  0  0
   -5.2582   26.2835  -25.7977 O   0  0  0  0  0  0  0  0  0  0  0  0
   -2.6838   21.7709  -21.2719 C   0  0  0  0  0  0  0  0  0  0  0  0
   -3.8698   22.3135  -21.8260 N   0  0  0  0  0  0  0  0  0  0  0  0
   -4.7883   21.3924  -22.3989 C   0  0  0  0  0  0  0  0  0  0  0  0
   -6.1486   22.0333  -22.5803 C   0  0  0  0  0  0  0  0  0  0  0  0
   -6.6235   22.4661  -21.2297 N   0  0  0  0  0  0  0  0  0  0  0  0
   -5.7354   23.3002  -20.5225 C   0  0  0  0  0  0  0  0  0  0  0  0
   -4.4246   23.4862  -21.2896 C   0  0  0  0  0  0  0  0  0  0  0  0
   -7.8614   22.0204  -20.7662 C   0  0  0  0  0  0  0  0  0  0  0  0
   -8.5196   21.1845  -21.5661 O   0  0  0  0  0  0  0  0  0  0  0  0
   -8.5371   22.3307  -19.5546 C   0  0  0  0  0  0  0  0  0  0  0  0
   -9.8175   22.3436  -19.3310 C   0  0  0  0  0  0  0  0  0  0  0  0
 22 23  1  0  0  0
 23 12  1  0  0  0
 12 13  2  0  0  0
 13 14  1  0  0  0
 14 15  1  0  0  0
 14 16  2  0  0  0
 16 17  1  0  0  0
 17 18  1  0  0  0
 18 19  2  0  0  0
 19 20  1  0  0  0
 20 21  1  0  0  0
 19  1  1  0  0  0
  1  2  2  0  0  0
  2 24  1  0  0  0
 24 25  1  0  0  0
 25 26  1  0  0  0
 26 27  1  0  0  0
 27 28  1  0  0  0
 28 29  1  0  0  0
 29 30  1  0  0  0
 28 31  1  0  0  0
 31 32  2  0  0  0
 31 33  1  0  0  0
 33 34  2  0  0  0
  2  3  1  0  0  0
  3  4  2  0  0  0
  4  5  1  0  0  0
  4  6  1  0  0  0
  6  7  2  0  0  0
  7  8  1  0  0  0
  8  9  2  0  0  0
 21 12  1  0  0  0
  9  1  1  0  0  0
 21 17  2  0  0  0
 30 25  1  0  0  0
  9  3  1  0  0  0
  5 10  1  0  0  0
  5 11  1  0  0  0
M  END
> <minimizedAffinity>
-8.30660

> <CNNscore>
0.1193293929

> <CNNaffinity>
6.6897096634

> <CNN_VS>
0.7982789874

> <CNNaffinity_variance>
0.2599954009

$$$$
[H]C([H])=C([H])C(=O)N1C([H])([H])C([H])([H])N(C([H])([H])C2=C(c3sc4c(OC([H])([H])[H])c([H])c(C([H])([H])[H])c([H])c4c3[H])c3nc([H])nc(N([H])[H])c32)C([H])([H])C1([H])[H]


 34 38  0  0  0  0  0  0  0  0999 V2000
   -4.2774   22.8745  -21.8045 C   0  0  0  0  0  0  0  0  0  0  0  0
   -5.2093   23.7677  -21.7078 C   0  0  0  0  0  0  0  0  0  0  0  0
   -5.8176   23.0838  -20.5891 C   0  0  0  0  0  0  0  0  0  0  0  0
   -6.8121   22.9645  -19.5984 C   0  0  0  0  0  0  0  0  0  0  0  0
   -7.7953   23.9825  -19.5475 N   0  0  0  0  0  0  0  0  0  0  0  0
   -6.7335   21.9139  -18.8000 N   0  0  0  0  0  0  0  0  0  0  0  0
   -5.7768   20.9745  -18.8825 C   0  0  0  0  0  0  0  0  0  0  0  0
   -4.8515   21.1220  -19.8351 N   0  0  0  0  0  0  0  0  0  0  0  0
   -4.8325   22.1426  -20.6958 C   0  0  0  0  0  0  0  0  0  0  0  0
   -7.8197   24.5753  -18.6702 H   0  0  0  0  0  0  0  0  0  0  0  0
   -8.4592   24.1339  -20.3382 H   0  0  0  0  0  0  0  0  0  0  0  0
    0.5712   21.6983  -24.0117 C   0  0  0  0  0  0  0  0  0  0  0  0
    0.9443   21.7878  -25.3329 C   0  0  0  0  0  0  0  0  0  0  0  0
   -0.0130   22.2084  -26.2201 C   0  0  0  0  0  0  0  0  0  0  0  0
    0.3487   22.3181  -27.6918 C   0  0  0  0  0  0  0  0  0  0  0  0
   -1.2732   22.5282  -25.8404 C   0  0  0  0  0  0  0  0  0  0  0  0
   -1.6879   22.4484  -24.4969 C   0  0  0  0  0  0  0  0  0  0  0  0
   -2.9107   22.7457  -23.9923 C   0  0  0  0  0  0  0  0  0  0  0  0
   -3.0809   22.6002  -22.6484 C   0  0  0  0  0  0  0  0  0  0  0  0
   -1.5418   22.0527  -22.1166 S   0  0  0  0  0  0  0  0  0  0  0  0
   -0.7362   22.0291  -23.6160 C   0  0  0  0  0  0  0  0  0  0  0  0
    2.7226   20.9477  -23.2180 C   0  0  0  0  0  0  0  0  0  0  0  0
    1.3871   21.2966  -22.9731 O   0  0  0  0  0  0  0  0  0  0  0  0
   -5.5178   25.0273  -22.4747 C   0  0  0  0  0  0  0  0  0  0  0  0
   -6.4237   24.7538  -23.5295 N   0  0  0  0  0  0  0  0  0  0  0  0
   -6.5931   25.7711  -24.5076 C   0  0  0  0  0  0  0  0  0  0  0  0
   -7.2500   25.2138  -25.7534 C   0  0  0  0  0  0  0  0  0  0  0  0
   -6.3638   24.1305  -26.2808 N   0  0  0  0  0  0  0  0  0  0  0  0
   -6.0405   23.1189  -25.3552 C   0  0  0  0  0  0  0  0  0  0  0  0
   -6.6117   23.4347  -23.9713 C   0  0  0  0  0  0  0  0  0  0  0  0
   -5.9170   24.1960  -27.6006 C   0  0  0  0  0  0  0  0  0  0  0  0
   -6.2877   25.2717  -28.2915 O   0  0  0  0  0  0  0  0  0  0  0  0
   -5.1183   23.2739  -28.3304 C   0  0  0  0  0  0  0  0  0  0  0  0
   -3.8215   23.2038  -28.3847 C   0  0  0  0  0  0  0  0  0  0  0  0
 22 23  1  0  0  0
 23 12  1  0  0  0
 12 13  2  0  0  0
 13 14  1  0  0  0
 14 15  1  0  0  0
 14 16  2  0  0  0
 16 17  1  0  0  0
 17 18  1  0  0  0
 18 19  2  0  0  0
 19 20  1  0  0  0
 20 21  1  0  0  0
 19  1  1  0  0  0
  1  2  2  0  0  0
  2 24  1  0  0  0
 24 25  1  0  0  0
 25 26  1  0  0  0
 26 27  1  0  0  0
 27 28  1  0  0  0
 28 29  1  0  0  0
 29 30  1  0  0  0
 28 31  1  0  0  0
 31 32  2  0  0  0
 31 33  1  0  0  0
 33 34  2  0  0  0
  2  3  1  0  0  0
  3  4  2  0  0  0
  4  5  1  0  0  0
  4  6  1  0  0  0
  6  7  2  0  0  0
  7  8  1  0  0  0
  8  9  2  0  0  0
 21 12  1  0  0  0
  9  1  1  0  0  0
 21 17  2  0  0  0
 30 25  1  0  0  0
  9  3  1  0  0  0
  5 10  1  0  0  0
  5 11  1  0  0  0
M  END
> <minimizedAffinity>
-8.81656

> <CNNscore>
0.1134891137

> <CNNaffinity>
6.6772012711

> <CNN_VS>
0.7577896714

> <CNNaffinity_variance>
0.2340257913

$$$$
[H]C([H])=C([H])C(=O)N1C([H])([H])C([H])([H])N(C([H])([H])C2=C(c3sc4c(OC([H])([H])[H])c([H])c(C([H])([H])[H])c([H])c4c3[H])c3nc([H])nc(N([H])[H])c32)C([H])([H])C1([H])[H]


 34 38  0  0  0  0  0  0  0  0999 V2000
   -5.3818   23.4237  -23.0082 C   0  0  0  0  0  0  0  0  0  0  0  0
   -6.1105   24.4852  -22.8754 C   0  0  0  0  0  0  0  0  0  0  0  0
   -7.1510   23.7466  -22.1964 C   0  0  0  0  0  0  0  0  0  0  0  0
   -8.4049   23.6690  -21.5590 C   0  0  0  0  0  0  0  0  0  0  0  0
   -9.1437   24.8717  -21.4433 N   0  0  0  0  0  0  0  0  0  0  0  0
   -8.7764   22.4789  -21.1196 N   0  0  0  0  0  0  0  0  0  0  0  0
   -8.0377   21.3642  -21.2472 C   0  0  0  0  0  0  0  0  0  0  0  0
   -6.8546   21.4777  -21.8577 N   0  0  0  0  0  0  0  0  0  0  0  0
   -6.3787   22.6283  -22.3400 C   0  0  0  0  0  0  0  0  0  0  0  0
   -9.3226   25.2263  -20.4615 H   0  0  0  0  0  0  0  0  0  0  0  0
   -9.4916   25.3766  -22.2877 H   0  0  0  0  0  0  0  0  0  0  0  0
   -0.2751   21.8711  -24.1372 C   0  0  0  0  0  0  0  0  0  0  0  0
    0.3651   21.8865  -25.3549 C   0  0  0  0  0  0  0  0  0  0  0  0
   -0.3604   22.3297  -26.4309 C   0  0  0  0  0  0  0  0  0  0  0  0
    0.3006   22.3601  -27.7986 C   0  0  0  0  0  0  0  0  0  0  0  0
   -1.6471   22.7397  -26.3276 C   0  0  0  0  0  0  0  0  0  0  0  0
   -2.3318   22.7374  -25.0969 C   0  0  0  0  0  0  0  0  0  0  0  0
   -3.6090   23.1276  -24.8631 C   0  0  0  0  0  0  0  0  0  0  0  0
   -4.0595   23.0449  -23.5799 C   0  0  0  0  0  0  0  0  0  0  0  0
   -2.7018   22.4261  -22.7283 S   0  0  0  0  0  0  0  0  0  0  0  0
   -1.6105   22.2957  -24.0282 C   0  0  0  0  0  0  0  0  0  0  0  0
    1.6371   21.1046  -22.8809 C   0  0  0  0  0  0  0  0  0  0  0  0
    0.2827   21.4612  -22.9428 O   0  0  0  0  0  0  0  0  0  0  0  0
   -5.9234   25.9249  -23.2783 C   0  0  0  0  0  0  0  0  0  0  0  0
   -6.2704   26.1056  -24.6403 N   0  0  0  0  0  0  0  0  0  0  0  0
   -5.2812   26.6838  -25.4815 C   0  0  0  0  0  0  0  0  0  0  0  0
   -5.6158   26.4528  -26.9405 C   0  0  0  0  0  0  0  0  0  0  0  0
   -5.6798   24.9743  -27.1569 N   0  0  0  0  0  0  0  0  0  0  0  0
   -6.5548   24.2815  -26.2971 C   0  0  0  0  0  0  0  0  0  0  0  0
   -7.1697   25.2238  -25.2602 C   0  0  0  0  0  0  0  0  0  0  0  0
   -4.8872   24.3944  -28.1476 C   0  0  0  0  0  0  0  0  0  0  0  0
   -4.0798   25.2201  -28.8093 O   0  0  0  0  0  0  0  0  0  0  0  0
   -4.8130   23.0376  -28.5655 C   0  0  0  0  0  0  0  0  0  0  0  0
   -5.0475   22.5484  -29.7467 C   0  0  0  0  0  0  0  0  0  0  0  0
 22 23  1  0  0  0
 23 12  1  0  0  0
 12 13  2  0  0  0
 13 14  1  0  0  0
 14 15  1  0  0  0
 14 16  2  0  0  0
 16 17  1  0  0  0
 17 18  1  0  0  0
 18 19  2  0  0  0
 19 20  1  0  0  0
 20 21  1  0  0  0
 19  1  1  0  0  0
  1  2  2  0  0  0
  2 24  1  0  0  0
 24 25  1  0  0  0
 25 26  1  0  0  0
 26 27  1  0  0  0
 27 28  1  0  0  0
 28 29  1  0  0  0
 29 30  1  0  0  0
 28 31  1  0  0  0
 31 32  2  0  0  0
 31 33  1  0  0  0
 33 34  2  0  0  0
  2  3  1  0  0  0
  3  4  2  0  0  0
  4  5  1  0  0  0
  4  6  1  0  0  0
  6  7  2  0  0  0
  7  8  1  0  0  0
  8  9  2  0  0  0
 21 12  1  0  0  0
  9  1  1  0  0  0
 21 17  2  0  0  0
 30 25  1  0  0  0
  9  3  1  0  0  0
  5 10  1  0  0  0
  5 11  1  0  0  0
M  END
> <minimizedAffinity>
-8.90443

> <CNNscore>
0.1132406741

> <CNNaffinity>
6.6801514626

> <CNN_VS>
0.7564648390

> <CNNaffinity_variance>
0.2929909825

$$$$
[H]C([H])=C([H])C(=O)N1C([H])([H])C([H])([H])N(C([H])([H])C2=C(c3sc4c(OC([H])([H])[H])c([H])c(C([H])([H])[H])c([H])c4c3[H])c3nc([H])nc(N([H])[H])c32)C([H])([H])C1([H])[H]


 34 38  0  0  0  0  0  0  0  0999 V2000
   -2.9660   23.4830  -25.2664 C   0  0  0  0  0  0  0  0  0  0  0  0
   -3.8474   24.4310  -25.2746 C   0  0  0  0  0  0  0  0  0  0  0  0
   -4.0859   24.2646  -26.6905 C   0  0  0  0  0  0  0  0  0  0  0  0
   -4.7376   24.6146  -27.8894 C   0  0  0  0  0  0  0  0  0  0  0  0
   -5.6949   25.6560  -27.8214 N   0  0  0  0  0  0  0  0  0  0  0  0
   -4.4004   23.9331  -28.9707 N   0  0  0  0  0  0  0  0  0  0  0  0
   -3.4884   22.9469  -28.9860 C   0  0  0  0  0  0  0  0  0  0  0  0
   -2.8914   22.6440  -27.8296 N   0  0  0  0  0  0  0  0  0  0  0  0
   -3.1538   23.2653  -26.6772 C   0  0  0  0  0  0  0  0  0  0  0  0
   -6.6977   25.3939  -28.0390 H   0  0  0  0  0  0  0  0  0  0  0  0
   -5.4180   26.6301  -27.5699 H   0  0  0  0  0  0  0  0  0  0  0  0
    0.9745   20.9675  -22.4541 C   0  0  0  0  0  0  0  0  0  0  0  0
    0.9102   20.4562  -21.1785 C   0  0  0  0  0  0  0  0  0  0  0  0
   -0.2793   20.6016  -20.5118 C   0  0  0  0  0  0  0  0  0  0  0  0
   -0.3986   20.0585  -19.0979 C   0  0  0  0  0  0  0  0  0  0  0  0
   -1.3557   21.2142  -21.0600 C   0  0  0  0  0  0  0  0  0  0  0  0
   -1.3242   21.7480  -22.3629 C   0  0  0  0  0  0  0  0  0  0  0  0
   -2.3301   22.3737  -23.0222 C   0  0  0  0  0  0  0  0  0  0  0  0
   -2.0708   22.8031  -24.2890 C   0  0  0  0  0  0  0  0  0  0  0  0
   -0.4374   22.3308  -24.5350 S   0  0  0  0  0  0  0  0  0  0  0  0
   -0.1413   21.6041  -23.0243 C   0  0  0  0  0  0  0  0  0  0  0  0
    3.3662   20.8222  -22.7384 C   0  0  0  0  0  0  0  0  0  0  0  0
    2.0780   20.9208  -23.2824 O   0  0  0  0  0  0  0  0  0  0  0  0
   -4.3980   25.3402  -24.2069 C   0  0  0  0  0  0  0  0  0  0  0  0
   -5.3854   24.6666  -23.4457 N   0  0  0  0  0  0  0  0  0  0  0  0
   -5.1599   24.5719  -22.0456 C   0  0  0  0  0  0  0  0  0  0  0  0
   -6.4375   24.2042  -21.3199 C   0  0  0  0  0  0  0  0  0  0  0  0
   -7.4420   25.2733  -21.6116 N   0  0  0  0  0  0  0  0  0  0  0  0
   -7.6645   25.5275  -22.9793 C   0  0  0  0  0  0  0  0  0  0  0  0
   -6.7281   24.6924  -23.8549 C   0  0  0  0  0  0  0  0  0  0  0  0
   -8.0597   25.9372  -20.5516 C   0  0  0  0  0  0  0  0  0  0  0  0
   -7.6608   25.5887  -19.3304 O   0  0  0  0  0  0  0  0  0  0  0  0
   -9.0667   26.9402  -20.5783 C   0  0  0  0  0  0  0  0  0  0  0  0
  -10.3557   26.7844  -20.5176 C   0  0  0  0  0  0  0  0  0  0  0  0
 22 23  1  0  0  0
 23 12  1  0  0  0
 12 13  2  0  0  0
 13 14  1  0  0  0
 14 15  1  0  0  0
 14 16  2  0  0  0
 16 17  1  0  0  0
 17 18  1  0  0  0
 18 19  2  0  0  0
 19 20  1  0  0  0
 20 21  1  0  0  0
 19  1  1  0  0  0
  1  2  2  0  0  0
  2 24  1  0  0  0
 24 25  1  0  0  0
 25 26  1  0  0  0
 26 27  1  0  0  0
 27 28  1  0  0  0
 28 29  1  0  0  0
 29 30  1  0  0  0
 28 31  1  0  0  0
 31 32  2  0  0  0
 31 33  1  0  0  0
 33 34  2  0  0  0
  2  3  1  0  0  0
  3  4  2  0  0  0
  4  5  1  0  0  0
  4  6  1  0  0  0
  6  7  2  0  0  0
  7  8  1  0  0  0
  8  9  2  0  0  0
 21 12  1  0  0  0
  9  1  1  0  0  0
 21 17  2  0  0  0
 30 25  1  0  0  0
  9  3  1  0  0  0
  5 10  1  0  0  0
  5 11  1  0  0  0
M  END
> <minimizedAffinity>
-8.15189

> <CNNscore>
0.0789904743

> <CNNaffinity>
6.6317796707

> <CNN_VS>
0.5238474011

> <CNNaffinity_variance>
0.2088794261

$$$$
[H]C([H])=C([H])C(=O)N1C([H])([H])C([H])([H])C([H])(C(=O)N2C([H])([H])C([H])([H])N(C([H])([H])C3=C(c4sc5c(OC([H])([H])[H])c([H])c(C([H])([H])[H])c([H])c5c4[H])c4c([H])c([H])c([H])c([H])c43)C([H])([H])C2([H])[H])C([H])([H])C1([H])[H]


 39 44  0  0  0  0  0  0  0  0999 V2000
   -1.1914   21.9208  -25.0134 C   0  0  0  0  0  0  0  0  0  0  0  0
   -2.4528   21.9677  -25.3419 C   0  0  0  0  0  0  0  0  0  0  0  0
   -2.1778   22.4849  -26.7036 C   0  0  0  0  0  0  0  0  0  0  0  0
   -2.5422   22.9231  -27.9543 C   0  0  0  0  0  0  0  0  0  0  0  0
   -1.5981   23.3136  -28.8669 C   0  0  0  0  0  0  0  0  0  0  0  0
   -0.2765   23.2542  -28.4949 C   0  0  0  0  0  0  0  0  0  0  0  0
    0.1223   22.8218  -27.2551 C   0  0  0  0  0  0  0  0  0  0  0  0
   -0.8488   22.4240  -26.3267 C   0  0  0  0  0  0  0  0  0  0  0  0
    0.9116   20.4496  -20.2189 C   0  0  0  0  0  0  0  0  0  0  0  0
    2.2370   20.2383  -19.9139 C   0  0  0  0  0  0  0  0  0  0  0  0
    3.1513   20.4128  -20.9189 C   0  0  0  0  0  0  0  0  0  0  0  0
    4.6222   20.1897  -20.6312 C   0  0  0  0  0  0  0  0  0  0  0  0
    2.7538   20.7815  -22.1698 C   0  0  0  0  0  0  0  0  0  0  0  0
    1.4018   21.0019  -22.5005 C   0  0  0  0  0  0  0  0  0  0  0  0
    0.9168   21.3620  -23.6998 C   0  0  0  0  0  0  0  0  0  0  0  0
   -0.4448   21.5214  -23.8143 C   0  0  0  0  0  0  0  0  0  0  0  0
   -0.9942   21.1624  -22.2412 S   0  0  0  0  0  0  0  0  0  0  0  0
    0.4982   20.8236  -21.4871 C   0  0  0  0  0  0  0  0  0  0  0  0
   -0.3032   21.2417  -18.2473 C   0  0  0  0  0  0  0  0  0  0  0  0
   -0.0717   20.2926  -19.2400 O   0  0  0  0  0  0  0  0  0  0  0  0
   -3.7367   21.6503  -24.6899 C   0  0  0  0  0  0  0  0  0  0  0  0
   -4.4239   22.7351  -24.0871 N   0  0  0  0  0  0  0  0  0  0  0  0
   -5.3036   23.3850  -24.9983 C   0  0  0  0  0  0  0  0  0  0  0  0
   -6.0323   24.5843  -24.3770 C   0  0  0  0  0  0  0  0  0  0  0  0
   -5.4037   24.9014  -23.1230 N   0  0  0  0  0  0  0  0  0  0  0  0
   -3.9300   24.9857  -23.1915 C   0  0  0  0  0  0  0  0  0  0  0  0
   -3.4592   23.5834  -23.4549 C   0  0  0  0  0  0  0  0  0  0  0  0
   -6.0152   25.1466  -21.8956 C   0  0  0  0  0  0  0  0  0  0  0  0
   -5.1949   25.3829  -20.9042 O   0  0  0  0  0  0  0  0  0  0  0  0
   -7.4205   25.1867  -21.5296 C   0  0  0  0  0  0  0  0  0  0  0  0
   -8.1172   23.8407  -21.5015 C   0  0  0  0  0  0  0  0  0  0  0  0
   -9.6215   24.1390  -21.5577 C   0  0  0  0  0  0  0  0  0  0  0  0
   -9.8638   25.5668  -21.4959 N   0  0  0  0  0  0  0  0  0  0  0  0
   -9.2539   26.3110  -20.3990 C   0  0  0  0  0  0  0  0  0  0  0  0
   -7.7665   25.9818  -20.3057 C   0  0  0  0  0  0  0  0  0  0  0  0
  -10.6448   26.2367  -22.4471 C   0  0  0  0  0  0  0  0  0  0  0  0
  -10.8019   27.4956  -22.2964 O   0  0  0  0  0  0  0  0  0  0  0  0
  -11.2997   25.6525  -23.5909 C   0  0  0  0  0  0  0  0  0  0  0  0
  -12.4307   26.1356  -24.0397 C   0  0  0  0  0  0  0  0  0  0  0  0
 19 20  1  0  0  0
 20  9  1  0  0  0
  9 10  2  0  0  0
 10 11  1  0  0  0
 11 12  1  0  0  0
 11 13  2  0  0  0
 13 14  1  0  0  0
 14 15  1  0  0  0
 15 16  2  0  0  0
 16 17  1  0  0  0
 17 18  1  0  0  0
 16  1  1  0  0  0
  1  2  2  0  0  0
  2 21  1  0  0  0
 21 22  1  0  0  0
 22 23  1  0  0  0
 23 24  1  0  0  0
 24 25  1  0  0  0
 25 26  1  0  0  0
 26 27  1  0  0  0
 25 28  1  0  0  0
 28 29  2  0  0  0
 28 30  1  0  0  0
 30 31  1  0  0  0
 31 32  1  0  0  0
 32 33  1  0  0  0
 33 34  1  0  0  0
 34 35  1  0  0  0
 33 36  1  0  0  0
 36 37  2  0  0  0
 36 38  1  0  0  0
 38 39  2  0  0  0
  2  3  1  0  0  0
  3  4  2  0  0  0
  4  5  1  0  0  0
  5  6  2  0  0  0
  6  7  1  0  0  0
  7  8  2  0  0  0
 18  9  1  0  0  0
  8  1  1  0  0  0
 18 14  2  0  0  0
 27 22  1  0  0  0
 35 30  1  0  0  0
  8  3  1  0  0  0
M  END
> <minimizedAffinity>
-10.13131

> <CNNscore>
0.1066742241

> <CNNaffinity>
6.3262414932

> <CNN_VS>
0.6748468876

> <CNNaffinity_variance>
0.4720286429

$$$$
[H]C([H])=C([H])C(=O)N1C([H])([H])C([H])([H])C([H])(C(=O)N2C([H])([H])C([H])([H])N(C([H])([H])C3=C(c4sc5c(OC([H])([H])[H])c([H])c(C([H])([H])[H])c([H])c5c4[H])c4c([H])c([H])c([H])c([H])c43)C([H])([H])C2([H])[H])C([H])([H])C1([H])[H]


 39 44  0  0  0  0  0  0  0  0999 V2000
    1.1939   20.7003  -21.0823 C   0  0  0  0  0  0  0  0  0  0  0  0
    0.9246   19.9503  -20.0498 C   0  0  0  0  0  0  0  0  0  0  0  0
    2.2467   20.1778  -19.4189 C   0  0  0  0  0  0  0  0  0  0  0  0
    3.1872   20.0132  -18.4304 C   0  0  0  0  0  0  0  0  0  0  0  0
    4.4093   20.6269  -18.5112 C   0  0  0  0  0  0  0  0  0  0  0  0
    4.6669   21.4114  -19.6097 C   0  0  0  0  0  0  0  0  0  0  0  0
    3.7511   21.5975  -20.6145 C   0  0  0  0  0  0  0  0  0  0  0  0
    2.5031   20.9668  -20.5252 C   0  0  0  0  0  0  0  0  0  0  0  0
   -2.1257   22.0419  -25.1755 C   0  0  0  0  0  0  0  0  0  0  0  0
   -1.7736   22.4265  -26.4493 C   0  0  0  0  0  0  0  0  0  0  0  0
   -0.4370   22.4857  -26.7437 C   0  0  0  0  0  0  0  0  0  0  0  0
   -0.0008   22.9058  -28.1327 C   0  0  0  0  0  0  0  0  0  0  0  0
    0.5005   22.1738  -25.8042 C   0  0  0  0  0  0  0  0  0  0  0  0
    0.1589   21.7785  -24.4955 C   0  0  0  0  0  0  0  0  0  0  0  0
    1.0081   21.4570  -23.5062 C   0  0  0  0  0  0  0  0  0  0  0  0
    0.4665   21.1008  -22.2928 C   0  0  0  0  0  0  0  0  0  0  0  0
   -1.2084   21.2284  -22.5820 S   0  0  0  0  0  0  0  0  0  0  0  0
   -1.1802   21.7239  -24.2142 C   0  0  0  0  0  0  0  0  0  0  0  0
   -4.4914   22.5399  -25.5577 C   0  0  0  0  0  0  0  0  0  0  0  0
   -3.4708   21.9572  -24.8103 O   0  0  0  0  0  0  0  0  0  0  0  0
   -0.2202   19.1444  -19.5871 C   0  0  0  0  0  0  0  0  0  0  0  0
   -1.3276   19.8616  -19.0659 N   0  0  0  0  0  0  0  0  0  0  0  0
   -1.1046   21.2676  -19.0679 C   0  0  0  0  0  0  0  0  0  0  0  0
   -2.2765   22.0620  -18.4758 C   0  0  0  0  0  0  0  0  0  0  0  0
   -3.1612   21.1439  -17.8105 N   0  0  0  0  0  0  0  0  0  0  0  0
   -2.4779   20.1980  -16.9038 C   0  0  0  0  0  0  0  0  0  0  0  0
   -1.6724   19.2969  -17.7962 C   0  0  0  0  0  0  0  0  0  0  0  0
   -4.5482   21.0643  -17.9121 C   0  0  0  0  0  0  0  0  0  0  0  0
   -5.1019   20.1066  -17.2135 O   0  0  0  0  0  0  0  0  0  0  0  0
   -5.4899   21.8733  -18.6665 C   0  0  0  0  0  0  0  0  0  0  0  0
   -6.1179   21.1838  -19.8616 C   0  0  0  0  0  0  0  0  0  0  0  0
   -6.6828   22.3013  -20.7490 C   0  0  0  0  0  0  0  0  0  0  0  0
   -6.5382   23.5911  -20.1036 N   0  0  0  0  0  0  0  0  0  0  0  0
   -7.0536   23.7313  -18.7458 C   0  0  0  0  0  0  0  0  0  0  0  0
   -6.5351   22.5950  -17.8686 C   0  0  0  0  0  0  0  0  0  0  0  0
   -5.9220   24.6802  -20.7342 C   0  0  0  0  0  0  0  0  0  0  0  0
   -5.8524   25.7751  -20.0796 O   0  0  0  0  0  0  0  0  0  0  0  0
   -5.3518   24.7003  -22.0581 C   0  0  0  0  0  0  0  0  0  0  0  0
   -4.0946   24.3927  -22.2553 C   0  0  0  0  0  0  0  0  0  0  0  0
 19 20  1  0  0  0
 20  9  1  0  0  0
  9 10  2  0  0  0
 10 11  1  0  0  0
 11 12  1  0  0  0
 11 13  2  0  0  0
 13 14  1  0  0  0
 14 15  1  0  0  0
 15 16  2  0  0  0
 16 17  1  0  0  0
 17 18  1  0  0  0
 16  1  1  0  0  0
  1  2  2  0  0  0
  2 21  1  0  0  0
 21 22  1  0  0  0
 22 23  1  0  0  0
 23 24  1  0  0  0
 24 25  1  0  0  0
 25 26  1  0  0  0
 26 27  1  0  0  0
 25 28  1  0  0  0
 28 29  2  0  0  0
 28 30  1  0  0  0
 30 31  1  0  0  0
 31 32  1  0  0  0
 32 33  1  0  0  0
 33 34  1  0  0  0
 34 35  1  0  0  0
 33 36  1  0  0  0
 36 37  2  0  0  0
 36 38  1  0  0  0
 38 39  2  0  0  0
  2  3  1  0  0  0
  3  4  2  0  0  0
  4  5  1  0  0  0
  5  6  2  0  0  0
  6  7  1  0  0  0
  7  8  2  0  0  0
 18  9  1  0  0  0
  8  1  1  0  0  0
 18 14  2  0  0  0
 27 22  1  0  0  0
 35 30  1  0  0  0
  8  3  1  0  0  0
M  END
> <minimizedAffinity>
-8.18437

> <CNNscore>
0.1015850082

> <CNNaffinity>
6.0458755493

> <CNN_VS>
0.6141703129

> <CNNaffinity_variance>
0.7682530880

$$$$
[H]C([H])=C([H])C(=O)N1C([H])([H])C([H])([H])C([H])(C(=O)N2C([H])([H])C([H])([H])N(C([H])([H])C3=C(c4sc5c(OC([H])([H])[H])c([H])c(C([H])([H])[H])c([H])c5c4[H])c4c([H])c([H])c([H])c([H])c43)C([H])([H])C2([H])[H])C([H])([H])C1([H])[H]


 39 44  0  0  0  0  0  0  0  0999 V2000
   -2.5405   22.4303  -23.4961 C   0  0  0  0  0  0  0  0  0  0  0  0
   -1.3507   22.3930  -22.9630 C   0  0  0  0  0  0  0  0  0  0  0  0
   -0.6630   22.2827  -24.2716 C   0  0  0  0  0  0  0  0  0  0  0  0
    0.4443   22.1770  -25.0788 C   0  0  0  0  0  0  0  0  0  0  0  0
    0.3192   22.1100  -26.4414 C   0  0  0  0  0  0  0  0  0  0  0  0
   -0.9458   22.1514  -26.9768 C   0  0  0  0  0  0  0  0  0  0  0  0
   -2.0724   22.2567  -26.2005 C   0  0  0  0  0  0  0  0  0  0  0  0
   -1.9369   22.3248  -24.8076 C   0  0  0  0  0  0  0  0  0  0  0  0
   -7.5005   22.1398  -21.2852 C   0  0  0  0  0  0  0  0  0  0  0  0
   -8.5109   23.0709  -21.3668 C   0  0  0  0  0  0  0  0  0  0  0  0
   -8.2613   24.2116  -22.0830 C   0  0  0  0  0  0  0  0  0  0  0  0
   -9.3430   25.2665  -22.1993 C   0  0  0  0  0  0  0  0  0  0  0  0
   -7.0554   24.4080  -22.6879 C   0  0  0  0  0  0  0  0  0  0  0  0
   -6.0095   23.4664  -22.6150 C   0  0  0  0  0  0  0  0  0  0  0  0
   -4.7923   23.5733  -23.1721 C   0  0  0  0  0  0  0  0  0  0  0  0
   -3.9088   22.5374  -22.9755 C   0  0  0  0  0  0  0  0  0  0  0  0
   -4.8136   21.4540  -22.0201 S   0  0  0  0  0  0  0  0  0  0  0  0
   -6.2717   22.3309  -21.8958 C   0  0  0  0  0  0  0  0  0  0  0  0
   -7.6104   20.8881  -19.1848 C   0  0  0  0  0  0  0  0  0  0  0  0
   -7.6898   20.9533  -20.5738 O   0  0  0  0  0  0  0  0  0  0  0  0
   -0.7917   22.4386  -21.5994 C   0  0  0  0  0  0  0  0  0  0  0  0
   -0.5266   21.1884  -20.9836 N   0  0  0  0  0  0  0  0  0  0  0  0
   -0.5830   21.2678  -19.5634 C   0  0  0  0  0  0  0  0  0  0  0  0
   -0.2651   19.9338  -18.8746 C   0  0  0  0  0  0  0  0  0  0  0  0
    0.2912   19.0364  -19.8510 N   0  0  0  0  0  0  0  0  0  0  0  0
    1.3670   19.6302  -20.6718 C   0  0  0  0  0  0  0  0  0  0  0  0
    0.6958   20.6721  -21.5211 C   0  0  0  0  0  0  0  0  0  0  0  0
   -0.0516   17.7070  -20.0868 C   0  0  0  0  0  0  0  0  0  0  0  0
    0.5992   17.1310  -21.0647 O   0  0  0  0  0  0  0  0  0  0  0  0
   -1.0150   16.8459  -19.4229 C   0  0  0  0  0  0  0  0  0  0  0  0
   -0.8089   15.3602  -19.6419 C   0  0  0  0  0  0  0  0  0  0  0  0
   -2.1374   14.6872  -19.2715 C   0  0  0  0  0  0  0  0  0  0  0  0
   -3.0719   15.6573  -18.7362 N   0  0  0  0  0  0  0  0  0  0  0  0
   -2.6193   16.4967  -17.6318 C   0  0  0  0  0  0  0  0  0  0  0  0
   -1.2738   17.1312  -17.9732 C   0  0  0  0  0  0  0  0  0  0  0  0
   -4.3676   15.8115  -19.2470 C   0  0  0  0  0  0  0  0  0  0  0  0
   -5.1142   16.6910  -18.6982 O   0  0  0  0  0  0  0  0  0  0  0  0
   -4.9576   15.0758  -20.3373 C   0  0  0  0  0  0  0  0  0  0  0  0
   -5.8630   14.1560  -20.1179 C   0  0  0  0  0  0  0  0  0  0  0  0
 19 20  1  0  0  0
 20  9  1  0  0  0
  9 10  2  0  0  0
 10 11  1  0  0  0
 11 12  1  0  0  0
 11 13  2  0  0  0
 13 14  1  0  0  0
 14 15  1  0  0  0
 15 16  2  0  0  0
 16 17  1  0  0  0
 17 18  1  0  0  0
 16  1  1  0  0  0
  1  2  2  0  0  0
  2 21  1  0  0  0
 21 22  1  0  0  0
 22 23  1  0  0  0
 23 24  1  0  0  0
 24 25  1  0  0  0
 25 26  1  0  0  0
 26 27  1  0  0  0
 25 28  1  0  0  0
 28 29  2  0  0  0
 28 30  1  0  0  0
 30 31  1  0  0  0
 31 32  1  0  0  0
 32 33  1  0  0  0
 33 34  1  0  0  0
 34 35  1  0  0  0
 33 36  1  0  0  0
 36 37  2  0  0  0
 36 38  1  0  0  0
 38 39  2  0  0  0
  2  3  1  0  0  0
  3  4  2  0  0  0
  4  5  1  0  0  0
  5  6  2  0  0  0
  6  7  1  0  0  0
  7  8  2  0  0  0
 18  9  1  0  0  0
  8  1  1  0  0  0
 18 14  2  0  0  0
 27 22  1  0  0  0
 35 30  1  0  0  0
  8  3  1  0  0  0
M  END
> <minimizedAffinity>
-8.45765

> <CNNscore>
0.0978366956

> <CNNaffinity>
6.0846304893

> <CNN_VS>
0.5953001380

> <CNNaffinity_variance>
0.3868317306

$$$$
[H]C([H])=C([H])C(=O)N1C([H])([H])C([H])([H])C([H])(C(=O)N2C([H])([H])C([H])([H])N(C([H])([H])C3=C(c4sc5c(OC([H])([H])[H])c([H])c(C([H])([H])[H])c([H])c5c4[H])c4c([H])c([H])c([H])c([H])c43)C([H])([H])C2([H])[H])C([H])([H])C1([H])[H]


 39 44  0  0  0  0  0  0  0  0999 V2000
   -2.6643   22.1742  -25.0620 C   0  0  0  0  0  0  0  0  0  0  0  0
   -3.9651   22.2198  -25.1440 C   0  0  0  0  0  0  0  0  0  0  0  0
   -3.9565   22.6534  -26.5615 C   0  0  0  0  0  0  0  0  0  0  0  0
   -4.5540   23.0235  -27.7426 C   0  0  0  0  0  0  0  0  0  0  0  0
   -3.8025   23.3471  -28.8414 C   0  0  0  0  0  0  0  0  0  0  0  0
   -2.4342   23.2907  -28.7276 C   0  0  0  0  0  0  0  0  0  0  0  0
   -1.8050   22.9252  -27.5641 C   0  0  0  0  0  0  0  0  0  0  0  0
   -2.5799   22.5956  -26.4443 C   0  0  0  0  0  0  0  0  0  0  0  0
    1.4325   21.0272  -21.6745 C   0  0  0  0  0  0  0  0  0  0  0  0
    1.3470   20.6226  -20.3617 C   0  0  0  0  0  0  0  0  0  0  0  0
    0.0945   20.4860  -19.8239 C   0  0  0  0  0  0  0  0  0  0  0  0
   -0.0497   20.0447  -18.3815 C   0  0  0  0  0  0  0  0  0  0  0  0
   -1.0182   20.7434  -20.5685 C   0  0  0  0  0  0  0  0  0  0  0  0
   -0.9501   21.1586  -21.9134 C   0  0  0  0  0  0  0  0  0  0  0  0
   -1.9859   21.4375  -22.7212 C   0  0  0  0  0  0  0  0  0  0  0  0
   -1.7015   21.8343  -24.0073 C   0  0  0  0  0  0  0  0  0  0  0  0
    0.0024   21.8017  -24.0377 S   0  0  0  0  0  0  0  0  0  0  0  0
    0.3076   21.2917  -22.4386 C   0  0  0  0  0  0  0  0  0  0  0  0
    3.4963   20.1035  -22.6116 C   0  0  0  0  0  0  0  0  0  0  0  0
    2.6785   21.1827  -22.2855 O   0  0  0  0  0  0  0  0  0  0  0  0
   -5.1001   21.9589  -24.2395 C   0  0  0  0  0  0  0  0  0  0  0  0
   -5.7591   23.0975  -23.7088 N   0  0  0  0  0  0  0  0  0  0  0  0
   -6.5117   23.7910  -24.6984 C   0  0  0  0  0  0  0  0  0  0  0  0
   -7.2056   25.0468  -24.1539 C   0  0  0  0  0  0  0  0  0  0  0  0
   -6.6649   25.3406  -22.8541 N   0  0  0  0  0  0  0  0  0  0  0  0
   -5.1884   25.3234  -22.7974 C   0  0  0  0  0  0  0  0  0  0  0  0
   -4.7951   23.8883  -23.0051 C   0  0  0  0  0  0  0  0  0  0  0  0
   -7.3596   25.6465  -21.6860 C   0  0  0  0  0  0  0  0  0  0  0  0
   -6.6117   25.8424  -20.6306 O   0  0  0  0  0  0  0  0  0  0  0  0
   -8.7846   25.7880  -21.4418 C   0  0  0  0  0  0  0  0  0  0  0  0
   -9.5194   24.4945  -21.1503 C   0  0  0  0  0  0  0  0  0  0  0  0
  -11.0075   24.7888  -21.3831 C   0  0  0  0  0  0  0  0  0  0  0  0
  -11.2129   26.1938  -21.6742 N   0  0  0  0  0  0  0  0  0  0  0  0
  -10.6575   27.1678  -20.7405 C   0  0  0  0  0  0  0  0  0  0  0  0
   -9.1896   26.8524  -20.4658 C   0  0  0  0  0  0  0  0  0  0  0  0
  -11.9089   26.6304  -22.8093 C   0  0  0  0  0  0  0  0  0  0  0  0
  -12.0400   27.8912  -22.9686 O   0  0  0  0  0  0  0  0  0  0  0  0
  -12.5014   25.8015  -23.8291 C   0  0  0  0  0  0  0  0  0  0  0  0
  -12.7560   26.2782  -25.0215 C   0  0  0  0  0  0  0  0  0  0  0  0
 19 20  1  0  0  0
 20  9  1  0  0  0
  9 10  2  0  0  0
 10 11  1  0  0  0
 11 12  1  0  0  0
 11 13  2  0  0  0
 13 14  1  0  0  0
 14 15  1  0  0  0
 15 16  2  0  0  0
 16 17  1  0  0  0
 17 18  1  0  0  0
 16  1  1  0  0  0
  1  2  2  0  0  0
  2 21  1  0  0  0
 21 22  1  0  0  0
 22 23  1  0  0  0
 23 24  1  0  0  0
 24 25  1  0  0  0
 25 26  1  0  0  0
 26 27  1  0  0  0
 25 28  1  0  0  0
 28 29  2  0  0  0
 28 30  1  0  0  0
 30 31  1  0  0  0
 31 32  1  0  0  0
 32 33  1  0  0  0
 33 34  1  0  0  0
 34 35  1  0  0  0
 33 36  1  0  0  0
 36 37  2  0  0  0
 36 38  1  0  0  0
 38 39  2  0  0  0
  2  3  1  0  0  0
  3  4  2  0  0  0
  4  5  1  0  0  0
  5  6  2  0  0  0
  6  7  1  0  0  0
  7  8  2  0  0  0
 18  9  1  0  0  0
  8  1  1  0  0  0
 18 14  2  0  0  0
 27 22  1  0  0  0
 35 30  1  0  0  0
  8  3  1  0  0  0
M  END
> <minimizedAffinity>
-10.05554

> <CNNscore>
0.0937748998

> <CNNaffinity>
6.4848237038

> <CNN_VS>
0.6081137061

> <CNNaffinity_variance>
0.2513361573

$$$$
[H]C([H])=C([H])C(=O)N1C([H])([H])C([H])([H])C([H])(C(=O)N2C([H])([H])C([H])([H])N(C([H])([H])C3=C(c4sc5c(OC([H])([H])[H])c([H])c(C([H])([H])[H])c([H])c5c4[H])c4c([H])c([H])c([H])c([H])c43)C([H])([H])C2([H])[H])C([H])([H])C1([H])[H]


 39 44  0  0  0  0  0  0  0  0999 V2000
   -7.7647   24.6965  -23.1757 C   0  0  0  0  0  0  0  0  0  0  0  0
   -7.5619   24.6174  -21.8897 C   0  0  0  0  0  0  0  0  0  0  0  0
   -8.9182   25.1090  -21.5486 C   0  0  0  0  0  0  0  0  0  0  0  0
   -9.9175   25.4680  -20.6761 C   0  0  0  0  0  0  0  0  0  0  0  0
  -11.1298   25.9097  -21.1364 C   0  0  0  0  0  0  0  0  0  0  0  0
  -11.3168   25.9833  -22.4959 C   0  0  0  0  0  0  0  0  0  0  0  0
  -10.3412   25.6328  -23.3949 C   0  0  0  0  0  0  0  0  0  0  0  0
   -9.1037   25.1819  -22.9170 C   0  0  0  0  0  0  0  0  0  0  0  0
   -5.3917   23.8838  -28.0010 C   0  0  0  0  0  0  0  0  0  0  0  0
   -4.1546   23.3320  -28.2448 C   0  0  0  0  0  0  0  0  0  0  0  0
   -3.4168   22.9336  -27.1615 C   0  0  0  0  0  0  0  0  0  0  0  0
   -2.0478   22.3221  -27.3803 C   0  0  0  0  0  0  0  0  0  0  0  0
   -3.8981   23.0823  -25.8946 C   0  0  0  0  0  0  0  0  0  0  0  0
   -5.1617   23.6452  -25.6258 C   0  0  0  0  0  0  0  0  0  0  0  0
   -5.7159   23.8345  -24.4174 C   0  0  0  0  0  0  0  0  0  0  0  0
   -6.9652   24.4087  -24.3727 C   0  0  0  0  0  0  0  0  0  0  0  0
   -7.3169   24.6612  -26.0213 S   0  0  0  0  0  0  0  0  0  0  0  0
   -5.8887   24.0396  -26.7172 C   0  0  0  0  0  0  0  0  0  0  0  0
   -5.7174   24.4472  -30.3604 C   0  0  0  0  0  0  0  0  0  0  0  0
   -6.1968   24.3076  -29.0603 O   0  0  0  0  0  0  0  0  0  0  0  0
   -6.4526   24.2085  -21.0086 C   0  0  0  0  0  0  0  0  0  0  0  0
   -6.7339   23.1764  -20.0769 N   0  0  0  0  0  0  0  0  0  0  0  0
   -6.5690   23.6099  -18.7310 C   0  0  0  0  0  0  0  0  0  0  0  0
   -6.8346   22.4991  -17.7060 C   0  0  0  0  0  0  0  0  0  0  0  0
   -6.8934   21.2411  -18.4002 N   0  0  0  0  0  0  0  0  0  0  0  0
   -5.7764   21.0192  -19.3418 C   0  0  0  0  0  0  0  0  0  0  0  0
   -5.9769   22.0185  -20.4456 C   0  0  0  0  0  0  0  0  0  0  0  0
   -7.8488   20.2353  -18.2721 C   0  0  0  0  0  0  0  0  0  0  0  0
   -7.6738   19.2008  -19.0536 O   0  0  0  0  0  0  0  0  0  0  0  0
   -9.0133   20.1405  -17.4088 C   0  0  0  0  0  0  0  0  0  0  0  0
   -8.7170   19.7876  -15.9646 C   0  0  0  0  0  0  0  0  0  0  0  0
  -10.0416   19.2945  -15.3668 C   0  0  0  0  0  0  0  0  0  0  0  0
  -11.1223   19.4449  -16.3210 N   0  0  0  0  0  0  0  0  0  0  0  0
  -11.3133   20.7582  -16.9274 C   0  0  0  0  0  0  0  0  0  0  0  0
   -9.9892   21.2773  -17.4812 C   0  0  0  0  0  0  0  0  0  0  0  0
  -11.9642   18.3819  -16.6741 C   0  0  0  0  0  0  0  0  0  0  0  0
  -12.8911   18.6229  -17.5197 O   0  0  0  0  0  0  0  0  0  0  0  0
  -11.8983   17.0292  -16.1800 C   0  0  0  0  0  0  0  0  0  0  0  0
  -11.3107   16.0864  -16.8728 C   0  0  0  0  0  0  0  0  0  0  0  0
 19 20  1  0  0  0
 20  9  1  0  0  0
  9 10  2  0  0  0
 10 11  1  0  0  0
 11 12  1  0  0  0
 11 13  2  0  0  0
 13 14  1  0  0  0
 14 15  1  0  0  0
 15 16  2  0  0  0
 16 17  1  0  0  0
 17 18  1  0  0  0
 16  1  1  0  0  0
  1  2  2  0  0  0
  2 21  1  0  0  0
 21 22  1  0  0  0
 22 23  1  0  0  0
 23 24  1  0  0  0
 24 25  1  0  0  0
 25 26  1  0  0  0
 26 27  1  0  0  0
 25 28  1  0  0  0
 28 29  2  0  0  0
 28 30  1  0  0  0
 30 31  1  0  0  0
 31 32  1  0  0  0
 32 33  1  0  0  0
 33 34  1  0  0  0
 34 35  1  0  0  0
 33 36  1  0  0  0
 36 37  2  0  0  0
 36 38  1  0  0  0
 38 39  2  0  0  0
  2  3  1  0  0  0
  3  4  2  0  0  0
  4  5  1  0  0  0
  5  6  2  0  0  0
  6  7  1  0  0  0
  7  8  2  0  0  0
 18  9  1  0  0  0
  8  1  1  0  0  0
 18 14  2  0  0  0
 27 22  1  0  0  0
 35 30  1  0  0  0
  8  3  1  0  0  0
M  END
> <minimizedAffinity>
-8.98811

> <CNNscore>
0.0891169235

> <CNNaffinity>
5.7883663177

> <CNN_VS>
0.5158414245

> <CNNaffinity_variance>
0.5637722611

$$$$
[H]C([H])=C([H])C(=O)N1C([H])([H])C([H])([H])C([H])(C(=O)N2C([H])([H])C([H])([H])N(C([H])([H])C3=C(c4sc5c(OC([H])([H])[H])c([H])c(C([H])([H])[H])c([H])c5c4[H])c4c([H])c([H])c([H])c([H])c43)C([H])([H])C2([H])[H])C([H])([H])C1([H])[H]


 39 44  0  0  0  0  0  0  0  0999 V2000
   -1.1023   21.7565  -23.8848 C   0  0  0  0  0  0  0  0  0  0  0  0
   -2.3456   21.6752  -24.2702 C   0  0  0  0  0  0  0  0  0  0  0  0
   -2.0400   22.0762  -25.6643 C   0  0  0  0  0  0  0  0  0  0  0  0
   -2.3713   22.3612  -26.9673 C   0  0  0  0  0  0  0  0  0  0  0  0
   -1.4127   22.7310  -27.8734 C   0  0  0  0  0  0  0  0  0  0  0  0
   -0.1107   22.8087  -27.4408 C   0  0  0  0  0  0  0  0  0  0  0  0
    0.2550   22.5311  -26.1477 C   0  0  0  0  0  0  0  0  0  0  0  0
   -0.7307   22.1534  -25.2264 C   0  0  0  0  0  0  0  0  0  0  0  0
    2.0858   20.6431  -19.6221 C   0  0  0  0  0  0  0  0  0  0  0  0
    1.7994   20.8307  -18.2889 C   0  0  0  0  0  0  0  0  0  0  0  0
    0.5747   21.3579  -17.9749 C   0  0  0  0  0  0  0  0  0  0  0  0
    0.2150   21.5843  -16.5204 C   0  0  0  0  0  0  0  0  0  0  0  0
   -0.3191   21.6813  -18.9523 C   0  0  0  0  0  0  0  0  0  0  0  0
   -0.0433   21.4967  -20.3218 C   0  0  0  0  0  0  0  0  0  0  0  0
   -0.8555   21.7873  -21.3510 C   0  0  0  0  0  0  0  0  0  0  0  0
   -0.3903   21.5339  -22.6205 C   0  0  0  0  0  0  0  0  0  0  0  0
    1.1639   20.8988  -22.3266 S   0  0  0  0  0  0  0  0  0  0  0  0
    1.1844   20.9694  -20.6221 C   0  0  0  0  0  0  0  0  0  0  0  0
    3.5259   18.7371  -20.1546 C   0  0  0  0  0  0  0  0  0  0  0  0
    3.3147   20.1063  -20.0112 O   0  0  0  0  0  0  0  0  0  0  0  0
   -3.6348   21.3266  -23.6453 C   0  0  0  0  0  0  0  0  0  0  0  0
   -4.5134   22.4049  -23.3664 N   0  0  0  0  0  0  0  0  0  0  0  0
   -5.2241   22.8303  -24.5242 C   0  0  0  0  0  0  0  0  0  0  0  0
   -6.1555   24.0195  -24.2534 C   0  0  0  0  0  0  0  0  0  0  0  0
   -5.8344   24.5670  -22.9629 N   0  0  0  0  0  0  0  0  0  0  0  0
   -4.3904   24.7949  -22.7471 C   0  0  0  0  0  0  0  0  0  0  0  0
   -3.7716   23.4270  -22.6919 C   0  0  0  0  0  0  0  0  0  0  0  0
   -6.7102   24.9102  -21.9355 C   0  0  0  0  0  0  0  0  0  0  0  0
   -6.1402   25.3627  -20.8482 O   0  0  0  0  0  0  0  0  0  0  0  0
   -8.1602   24.8521  -21.8689 C   0  0  0  0  0  0  0  0  0  0  0  0
   -8.8802   25.2734  -23.1347 C   0  0  0  0  0  0  0  0  0  0  0  0
  -10.3254   25.5807  -22.7198 C   0  0  0  0  0  0  0  0  0  0  0  0
  -10.5382   25.2555  -21.3234 N   0  0  0  0  0  0  0  0  0  0  0  0
  -10.1706   23.9165  -20.8755 C   0  0  0  0  0  0  0  0  0  0  0  0
   -8.7509   23.5843  -21.3270 C   0  0  0  0  0  0  0  0  0  0  0  0
  -11.0687   26.1775  -20.4112 C   0  0  0  0  0  0  0  0  0  0  0  0
  -11.2228   25.7873  -19.2045 O   0  0  0  0  0  0  0  0  0  0  0  0
  -11.4656   27.5351  -20.6899 C   0  0  0  0  0  0  0  0  0  0  0  0
  -10.6293   28.5290  -20.5259 C   0  0  0  0  0  0  0  0  0  0  0  0
 19 20  1  0  0  0
 20  9  1  0  0  0
  9 10  2  0  0  0
 10 11  1  0  0  0
 11 12  1  0  0  0
 11 13  2  0  0  0
 13 14  1  0  0  0
 14 15  1  0  0  0
 15 16  2  0  0  0
 16 17  1  0  0  0
 17 18  1  0  0  0
 16  1  1  0  0  0
  1  2  2  0  0  0
  2 21  1  0  0  0
 21 22  1  0  0  0
 22 23  1  0  0  0
 23 24  1  0  0  0
 24 25  1  0  0  0
 25 26  1  0  0  0
 26 27  1  0  0  0
 25 28  1  0  0  0
 28 29  2  0  0  0
 28 30  1  0  0  0
 30 31  1  0  0  0
 31 32  1  0  0  0
 32 33  1  0  0  0
 33 34  1  0  0  0
 34 35  1  0  0  0
 33 36  1  0  0  0
 36 37  2  0  0  0
 36 38  1  0  0  0
 38 39  2  0  0  0
  2  3  1  0  0  0
  3  4  2  0  0  0
  4  5  1  0  0  0
  5  6  2  0  0  0
  6  7  1  0  0  0
  7  8  2  0  0  0
 18  9  1  0  0  0
  8  1  1  0  0  0
 18 14  2  0  0  0
 27 22  1  0  0  0
 35 30  1  0  0  0
  8  3  1  0  0  0
M  END
> <minimizedAffinity>
-9.82542

> <CNNscore>
0.0881548896

> <CNNaffinity>
6.1152625084

> <CNN_VS>
0.5390902758

> <CNNaffinity_variance>
0.4881218374

$$$$
[H]C([H])=C([H])C(=O)N1C([H])([H])C([H])([H])C([H])(C(=O)N2C([H])([H])C([H])([H])N(C([H])([H])C3=C(c4sc5c(OC([H])([H])[H])c([H])c(C([H])([H])[H])c([H])c5c4[H])c4c([H])c([H])c([H])c([H])c43)C([H])([H])C2([H])[H])C([H])([H])C1([H])[H]


 39 44  0  0  0  0  0  0  0  0999 V2000
   -7.4600   24.6365  -23.1228 C   0  0  0  0  0  0  0  0  0  0  0  0
   -7.2132   24.6003  -21.8426 C   0  0  0  0  0  0  0  0  0  0  0  0
   -8.5689   25.0707  -21.4705 C   0  0  0  0  0  0  0  0  0  0  0  0
   -9.5473   25.4325  -20.5758 C   0  0  0  0  0  0  0  0  0  0  0  0
  -10.7843   25.8326  -21.0078 C   0  0  0  0  0  0  0  0  0  0  0  0
  -11.0175   25.8615  -22.3618 C   0  0  0  0  0  0  0  0  0  0  0  0
  -10.0638   25.5069  -23.2825 C   0  0  0  0  0  0  0  0  0  0  0  0
   -8.8009   25.0987  -22.8334 C   0  0  0  0  0  0  0  0  0  0  0  0
   -5.2364   23.7124  -27.9989 C   0  0  0  0  0  0  0  0  0  0  0  0
   -3.9830   23.2112  -28.2677 C   0  0  0  0  0  0  0  0  0  0  0  0
   -3.1846   22.9018  -27.1984 C   0  0  0  0  0  0  0  0  0  0  0  0
   -1.7955   22.3488  -27.4448 C   0  0  0  0  0  0  0  0  0  0  0  0
   -3.6236   23.0869  -25.9210 C   0  0  0  0  0  0  0  0  0  0  0  0
   -4.9030   23.5991  -25.6267 C   0  0  0  0  0  0  0  0  0  0  0  0
   -5.4192   23.8183  -24.4065 C   0  0  0  0  0  0  0  0  0  0  0  0
   -6.6935   24.3317  -24.3371 C   0  0  0  0  0  0  0  0  0  0  0  0
   -7.1211   24.4875  -25.9797 S   0  0  0  0  0  0  0  0  0  0  0  0
   -5.6908   23.9046  -26.7043 C   0  0  0  0  0  0  0  0  0  0  0  0
   -5.6904   24.1048  -30.3717 C   0  0  0  0  0  0  0  0  0  0  0  0
   -6.1024   24.0449  -29.0426 O   0  0  0  0  0  0  0  0  0  0  0  0
   -6.0662   24.2431  -20.9877 C   0  0  0  0  0  0  0  0  0  0  0  0
   -6.2664   23.1743  -20.0766 N   0  0  0  0  0  0  0  0  0  0  0  0
   -5.8449   23.5076  -18.7584 C   0  0  0  0  0  0  0  0  0  0  0  0
   -6.0201   22.3533  -17.7624 C   0  0  0  0  0  0  0  0  0  0  0  0
   -6.2921   21.1497  -18.5010 N   0  0  0  0  0  0  0  0  0  0  0  0
   -5.3695   20.9142  -19.6310 C   0  0  0  0  0  0  0  0  0  0  0  0
   -5.6742   21.9941  -20.6301 C   0  0  0  0  0  0  0  0  0  0  0  0
   -7.2875   20.2046  -18.2631 C   0  0  0  0  0  0  0  0  0  0  0  0
   -7.3270   19.2133  -19.1160 O   0  0  0  0  0  0  0  0  0  0  0  0
   -8.2945   20.1331  -17.2185 C   0  0  0  0  0  0  0  0  0  0  0  0
   -9.3840   21.1838  -17.3014 C   0  0  0  0  0  0  0  0  0  0  0  0
  -10.0388   21.2280  -15.9141 C   0  0  0  0  0  0  0  0  0  0  0  0
   -9.4928   20.1951  -15.0562 N   0  0  0  0  0  0  0  0  0  0  0  0
   -9.4944   18.8254  -15.5590 C   0  0  0  0  0  0  0  0  0  0  0  0
   -8.8890   18.7806  -16.9593 C   0  0  0  0  0  0  0  0  0  0  0  0
   -8.9675   20.4743  -13.7875 C   0  0  0  0  0  0  0  0  0  0  0  0
   -8.5175   19.4899  -13.1088 O   0  0  0  0  0  0  0  0  0  0  0  0
   -8.8794   21.7674  -13.1564 C   0  0  0  0  0  0  0  0  0  0  0  0
   -7.7837   22.4803  -13.2301 C   0  0  0  0  0  0  0  0  0  0  0  0
 19 20  1  0  0  0
 20  9  1  0  0  0
  9 10  2  0  0  0
 10 11  1  0  0  0
 11 12  1  0  0  0
 11 13  2  0  0  0
 13 14  1  0  0  0
 14 15  1  0  0  0
 15 16  2  0  0  0
 16 17  1  0  0  0
 17 18  1  0  0  0
 16  1  1  0  0  0
  1  2  2  0  0  0
  2 21  1  0  0  0
 21 22  1  0  0  0
 22 23  1  0  0  0
 23 24  1  0  0  0
 24 25  1  0  0  0
 25 26  1  0  0  0
 26 27  1  0  0  0
 25 28  1  0  0  0
 28 29  2  0  0  0
 28 30  1  0  0  0
 30 31  1  0  0  0
 31 32  1  0  0  0
 32 33  1  0  0  0
 33 34  1  0  0  0
 34 35  1  0  0  0
 33 36  1  0  0  0
 36 37  2  0  0  0
 36 38  1  0  0  0
 38 39  2  0  0  0
  2  3  1  0  0  0
  3  4  2  0  0  0
  4  5  1  0  0  0
  5  6  2  0  0  0
  6  7  1  0  0  0
  7  8  2  0  0  0
 18  9  1  0  0  0
  8  1  1  0  0  0
 18 14  2  0  0  0
 27 22  1  0  0  0
 35 30  1  0  0  0
  8  3  1  0  0  0
M  END
> <minimizedAffinity>
-8.49914

> <CNNscore>
0.0875152200

> <CNNaffinity>
5.8957824707

> <CNN_VS>
0.5159707069

> <CNNaffinity_variance>
0.6567390561

$$$$
[H]C([H])=C([H])C(=O)N1C([H])([H])C([H])([H])C([H])(C(=O)N2C([H])([H])C([H])([H])N(C([H])([H])C3=C(c4sc5c(OC([H])([H])[H])c([H])c(C([H])([H])[H])c([H])c5c4[H])c4c([H])c([H])c([H])c([H])c43)C([H])([H])C2([H])[H])C([H])([H])C1([H])[H]


 39 44  0  0  0  0  0  0  0  0999 V2000
   -0.4304   21.7868  -19.7959 C   0  0  0  0  0  0  0  0  0  0  0  0
   -0.9335   21.1202  -18.7941 C   0  0  0  0  0  0  0  0  0  0  0  0
    0.1212   21.5579  -17.8488 C   0  0  0  0  0  0  0  0  0  0  0  0
    0.7373   21.6015  -16.6210 C   0  0  0  0  0  0  0  0  0  0  0  0
    1.8771   22.3372  -16.4303 C   0  0  0  0  0  0  0  0  0  0  0  0
    2.3859   23.0298  -17.5027 C   0  0  0  0  0  0  0  0  0  0  0  0
    1.7964   23.0086  -18.7416 C   0  0  0  0  0  0  0  0  0  0  0  0
    0.6308   22.2540  -18.9294 C   0  0  0  0  0  0  0  0  0  0  0  0
   -2.4879   22.5925  -24.7651 C   0  0  0  0  0  0  0  0  0  0  0  0
   -1.8215   22.5354  -25.9680 C   0  0  0  0  0  0  0  0  0  0  0  0
   -0.4836   22.2434  -25.9349 C   0  0  0  0  0  0  0  0  0  0  0  0
    0.2928   22.1715  -27.2343 C   0  0  0  0  0  0  0  0  0  0  0  0
    0.1544   22.0197  -24.7510 C   0  0  0  0  0  0  0  0  0  0  0  0
   -0.5111   22.0741  -23.5101 C   0  0  0  0  0  0  0  0  0  0  0  0
    0.0313   21.8726  -22.2983 C   0  0  0  0  0  0  0  0  0  0  0  0
   -0.7965   21.9777  -21.2047 C   0  0  0  0  0  0  0  0  0  0  0  0
   -2.3009   22.3534  -21.9124 S   0  0  0  0  0  0  0  0  0  0  0  0
   -1.8479   22.3673  -23.5571 C   0  0  0  0  0  0  0  0  0  0  0  0
   -4.6549   22.8768  -25.8667 C   0  0  0  0  0  0  0  0  0  0  0  0
   -3.8535   22.8816  -24.7276 O   0  0  0  0  0  0  0  0  0  0  0  0
   -2.0975   20.2420  -18.5751 C   0  0  0  0  0  0  0  0  0  0  0  0
   -3.3758   20.8393  -18.7228 N   0  0  0  0  0  0  0  0  0  0  0  0
   -3.5779   21.9070  -17.8031 C   0  0  0  0  0  0  0  0  0  0  0  0
   -4.9682   22.5459  -17.9215 C   0  0  0  0  0  0  0  0  0  0  0  0
   -5.7944   21.6951  -18.7350 N   0  0  0  0  0  0  0  0  0  0  0  0
   -5.7522   20.2686  -18.3519 C   0  0  0  0  0  0  0  0  0  0  0  0
   -4.3635   19.8035  -18.6870 C   0  0  0  0  0  0  0  0  0  0  0  0
   -6.6160   22.0614  -19.7987 C   0  0  0  0  0  0  0  0  0  0  0  0
   -7.2379   21.0714  -20.3861 O   0  0  0  0  0  0  0  0  0  0  0  0
   -6.9024   23.3671  -20.3674 C   0  0  0  0  0  0  0  0  0  0  0  0
   -7.4017   24.4037  -19.3806 C   0  0  0  0  0  0  0  0  0  0  0  0
   -8.0628   25.5058  -20.2193 C   0  0  0  0  0  0  0  0  0  0  0  0
   -7.8825   25.2508  -21.6348 N   0  0  0  0  0  0  0  0  0  0  0  0
   -6.5246   25.0141  -22.1133 C   0  0  0  0  0  0  0  0  0  0  0  0
   -5.8432   23.9536  -21.2529 C   0  0  0  0  0  0  0  0  0  0  0  0
   -8.9570   25.2182  -22.5337 C   0  0  0  0  0  0  0  0  0  0  0  0
   -8.6881   24.9921  -23.7620 O   0  0  0  0  0  0  0  0  0  0  0  0
  -10.3500   25.4157  -22.2196 C   0  0  0  0  0  0  0  0  0  0  0  0
  -11.1930   25.8359  -23.1289 C   0  0  0  0  0  0  0  0  0  0  0  0
 19 20  1  0  0  0
 20  9  1  0  0  0
  9 10  2  0  0  0
 10 11  1  0  0  0
 11 12  1  0  0  0
 11 13  2  0  0  0
 13 14  1  0  0  0
 14 15  1  0  0  0
 15 16  2  0  0  0
 16 17  1  0  0  0
 17 18  1  0  0  0
 16  1  1  0  0  0
  1  2  2  0  0  0
  2 21  1  0  0  0
 21 22  1  0  0  0
 22 23  1  0  0  0
 23 24  1  0  0  0
 24 25  1  0  0  0
 25 26  1  0  0  0
 26 27  1  0  0  0
 25 28  1  0  0  0
 28 29  2  0  0  0
 28 30  1  0  0  0
 30 31  1  0  0  0
 31 32  1  0  0  0
 32 33  1  0  0  0
 33 34  1  0  0  0
 34 35  1  0  0  0
 33 36  1  0  0  0
 36 37  2  0  0  0
 36 38  1  0  0  0
 38 39  2  0  0  0
  2  3  1  0  0  0
  3  4  2  0  0  0
  4  5  1  0  0  0
  5  6  2  0  0  0
  6  7  1  0  0  0
  7  8  2  0  0  0
 18  9  1  0  0  0
  8  1  1  0  0  0
 18 14  2  0  0  0
 27 22  1  0  0  0
 35 30  1  0  0  0
  8  3  1  0  0  0
M  END
> <minimizedAffinity>
-8.51657

> <CNNscore>
0.0857608244

> <CNNaffinity>
5.9681310654

> <CNN_VS>
0.5118318200

> <CNNaffinity_variance>
0.8740990758

$$$$
[H]C([H])=C([H])C(=O)N1C([H])([H])C([H])([H])C([H])(C(=O)N2C([H])([H])C([H])([H])N(C([H])([H])C3=C(c4sc5c(OC([H])([H])[H])c([H])c(C([H])([H])[H])c([H])c5c4[H])c4c([H])c([H])c([H])c([H])c43)C([H])([H])C2([H])[H])C([H])([H])C1([H])[H]


 39 44  0  0  0  0  0  0  0  0999 V2000
   -4.7634   22.4967  -22.4221 C   0  0  0  0  0  0  0  0  0  0  0  0
   -4.2832   22.6966  -21.2261 C   0  0  0  0  0  0  0  0  0  0  0  0
   -5.5481   22.3197  -20.5510 C   0  0  0  0  0  0  0  0  0  0  0  0
   -6.3445   22.1083  -19.4511 C   0  0  0  0  0  0  0  0  0  0  0  0
   -7.6412   21.6886  -19.5901 C   0  0  0  0  0  0  0  0  0  0  0  0
   -8.1217   21.4857  -20.8615 C   0  0  0  0  0  0  0  0  0  0  0  0
   -7.3543   21.6869  -21.9811 C   0  0  0  0  0  0  0  0  0  0  0  0
   -6.0290   22.1161  -21.8314 C   0  0  0  0  0  0  0  0  0  0  0  0
   -3.5150   22.9897  -27.6921 C   0  0  0  0  0  0  0  0  0  0  0  0
   -2.2673   22.9175  -28.2687 C   0  0  0  0  0  0  0  0  0  0  0  0
   -1.2004   22.6964  -27.4385 C   0  0  0  0  0  0  0  0  0  0  0  0
    0.1932   22.6111  -28.0274 C   0  0  0  0  0  0  0  0  0  0  0  0
   -1.3779   22.5548  -26.0941 C   0  0  0  0  0  0  0  0  0  0  0  0
   -2.6472   22.6260  -25.4863 C   0  0  0  0  0  0  0  0  0  0  0  0
   -2.9187   22.5030  -24.1769 C   0  0  0  0  0  0  0  0  0  0  0  0
   -4.2333   22.6103  -23.7864 C   0  0  0  0  0  0  0  0  0  0  0  0
   -5.0390   22.8784  -25.2642 S   0  0  0  0  0  0  0  0  0  0  0  0
   -3.7050   22.8478  -26.3272 C   0  0  0  0  0  0  0  0  0  0  0  0
   -5.1402   24.4835  -28.7494 C   0  0  0  0  0  0  0  0  0  0  0  0
   -4.6457   23.2093  -28.4815 O   0  0  0  0  0  0  0  0  0  0  0  0
   -2.9950   23.1276  -20.6528 C   0  0  0  0  0  0  0  0  0  0  0  0
   -2.1134   22.0975  -20.2355 N   0  0  0  0  0  0  0  0  0  0  0  0
   -1.9992   22.0314  -18.8181 C   0  0  0  0  0  0  0  0  0  0  0  0
   -1.0230   20.9460  -18.3447 C   0  0  0  0  0  0  0  0  0  0  0  0
   -0.2666   20.4858  -19.4779 N   0  0  0  0  0  0  0  0  0  0  0  0
    0.3009   21.5709  -20.3049 C   0  0  0  0  0  0  0  0  0  0  0  0
   -0.8784   22.2476  -20.9442 C   0  0  0  0  0  0  0  0  0  0  0  0
   -0.0055   19.1711  -19.8573 C   0  0  0  0  0  0  0  0  0  0  0  0
    0.6899   19.0386  -20.9576 O   0  0  0  0  0  0  0  0  0  0  0  0
   -0.3760   17.9139  -19.2308 C   0  0  0  0  0  0  0  0  0  0  0  0
   -0.3912   16.7133  -20.1563 C   0  0  0  0  0  0  0  0  0  0  0  0
   -1.2246   15.6386  -19.4452 C   0  0  0  0  0  0  0  0  0  0  0  0
   -1.6004   16.0774  -18.1158 N   0  0  0  0  0  0  0  0  0  0  0  0
   -0.5386   16.5441  -17.2306 C   0  0  0  0  0  0  0  0  0  0  0  0
    0.3250   17.5781  -17.9480 C   0  0  0  0  0  0  0  0  0  0  0  0
   -2.9296   16.0725  -17.6724 C   0  0  0  0  0  0  0  0  0  0  0  0
   -3.1521   16.4727  -16.4797 O   0  0  0  0  0  0  0  0  0  0  0  0
   -4.0878   15.6587  -18.4244 C   0  0  0  0  0  0  0  0  0  0  0  0
   -4.9355   16.5385  -18.8950 C   0  0  0  0  0  0  0  0  0  0  0  0
 19 20  1  0  0  0
 20  9  1  0  0  0
  9 10  2  0  0  0
 10 11  1  0  0  0
 11 12  1  0  0  0
 11 13  2  0  0  0
 13 14  1  0  0  0
 14 15  1  0  0  0
 15 16  2  0  0  0
 16 17  1  0  0  0
 17 18  1  0  0  0
 16  1  1  0  0  0
  1  2  2  0  0  0
  2 21  1  0  0  0
 21 22  1  0  0  0
 22 23  1  0  0  0
 23 24  1  0  0  0
 24 25  1  0  0  0
 25 26  1  0  0  0
 26 27  1  0  0  0
 25 28  1  0  0  0
 28 29  2  0  0  0
 28 30  1  0  0  0
 30 31  1  0  0  0
 31 32  1  0  0  0
 32 33  1  0  0  0
 33 34  1  0  0  0
 34 35  1  0  0  0
 33 36  1  0  0  0
 36 37  2  0  0  0
 36 38  1  0  0  0
 38 39  2  0  0  0
  2  3  1  0  0  0
  3  4  2  0  0  0
  4  5  1  0  0  0
  5  6  2  0  0  0
  6  7  1  0  0  0
  7  8  2  0  0  0
 18  9  1  0  0  0
  8  1  1  0  0  0
 18 14  2  0  0  0
 27 22  1  0  0  0
 35 30  1  0  0  0
  8  3  1  0  0  0
M  END
> <minimizedAffinity>
-7.79113

> <CNNscore>
0.0839714929

> <CNNaffinity>
6.3399796486

> <CNN_VS>
0.5323775411

> <CNNaffinity_variance>
0.1955610812

$$$$
[H]c1nc(N([H])[H])c2c(n1)N1C([H])([H])C([H])([H])N(C([H])([H])C(C(=O)N([H])C([H])(C([H])([H])[H])C([H])([H])[H])=C2c2sc3c(OC([H])([H])[H])c([H])c(C([H])([H])[H])c([H])c3c2[H])C([H])([H])C1([H])[H]


 37 41  0  0  0  0  0  0  0  0999 V2000
   -0.8188   22.3407  -22.5119 C   0  0  0  0  0  0  0  0  0  0  0  0
   -1.4431   23.2385  -21.7996 C   0  0  0  0  0  0  0  0  0  0  0  0
   -2.2793   24.3608  -22.3011 C   0  0  0  0  0  0  0  0  0  0  0  0
   -3.6668   24.1608  -22.0580 N   0  0  0  0  0  0  0  0  0  0  0  0
   -4.1318   22.8108  -21.9020 C   0  0  0  0  0  0  0  0  0  0  0  0
   -3.8850   21.9914  -23.1506 C   0  0  0  0  0  0  0  0  0  0  0  0
   -3.2228   22.8368  -24.1834 N   0  0  0  0  0  0  0  0  0  0  0  0
   -3.9887   24.0778  -24.3880 C   0  0  0  0  0  0  0  0  0  0  0  0
   -4.5467   24.6564  -23.1047 C   0  0  0  0  0  0  0  0  0  0  0  0
   -2.0097   22.4271  -24.7866 C   0  0  0  0  0  0  0  0  0  0  0  0
   -1.7996   22.1809  -26.1325 N   0  0  0  0  0  0  0  0  0  0  0  0
   -0.7029   21.8447  -26.7335 C   0  0  0  0  0  0  0  0  0  0  0  0
    0.4007   21.7049  -26.0028 N   0  0  0  0  0  0  0  0  0  0  0  0
    0.3137   21.9217  -24.6549 C   0  0  0  0  0  0  0  0  0  0  0  0
    1.5664   21.8218  -23.9423 N   0  0  0  0  0  0  0  0  0  0  0  0
   -0.8452   22.2744  -23.9975 C   0  0  0  0  0  0  0  0  0  0  0  0
    2.0007   22.6754  -23.5227 H   0  0  0  0  0  0  0  0  0  0  0  0
    2.0383   20.9033  -23.8664 H   0  0  0  0  0  0  0  0  0  0  0  0
    2.6902   18.8644  -20.1103 C   0  0  0  0  0  0  0  0  0  0  0  0
    2.4730   17.5339  -19.8397 C   0  0  0  0  0  0  0  0  0  0  0  0
    1.2592   16.9932  -20.1837 C   0  0  0  0  0  0  0  0  0  0  0  0
    0.9760   15.5257  -19.9027 C   0  0  0  0  0  0  0  0  0  0  0  0
    0.2991   17.7613  -20.7775 C   0  0  0  0  0  0  0  0  0  0  0  0
    0.4717   19.1215  -21.0741 C   0  0  0  0  0  0  0  0  0  0  0  0
   -0.3989   19.9639  -21.6498 C   0  0  0  0  0  0  0  0  0  0  0  0
   -0.0003   21.2629  -21.8364 C   0  0  0  0  0  0  0  0  0  0  0  0
    1.5824   21.2616  -21.1993 S   0  0  0  0  0  0  0  0  0  0  0  0
    1.6901   19.6346  -20.7209 C   0  0  0  0  0  0  0  0  0  0  0  0
    4.9599   19.3770  -20.7146 C   0  0  0  0  0  0  0  0  0  0  0  0
    3.8908   19.4865  -19.7935 O   0  0  0  0  0  0  0  0  0  0  0  0
   -1.4593   23.1279  -20.3316 C   0  0  0  0  0  0  0  0  0  0  0  0
   -0.7389   23.7961  -19.5543 O   0  0  0  0  0  0  0  0  0  0  0  0
   -2.3321   22.2175  -19.6358 N   0  0  0  0  0  0  0  0  0  0  0  0
   -2.9663   21.6101  -20.1580 H   0  0  0  0  0  0  0  0  0  0  0  0
   -2.3529   22.1134  -18.1977 C   0  0  0  0  0  0  0  0  0  0  0  0
   -1.9312   20.7449  -17.7449 C   0  0  0  0  0  0  0  0  0  0  0  0
   -3.7598   22.4535  -17.7094 C   0  0  0  0  0  0  0  0  0  0  0  0
 29 30  1  0  0  0
 30 19  1  0  0  0
 19 20  1  0  0  0
 20 21  2  0  0  0
 21 22  1  0  0  0
 21 23  1  0  0  0
 23 24  2  0  0  0
 24 25  1  0  0  0
 25 26  2  0  0  0
 26 27  1  0  0  0
 27 28  1  0  0  0
 26  1  1  0  0  0
  1  2  2  0  0  0
  2  3  1  0  0  0
  3  4  1  0  0  0
  4  5  1  0  0  0
  5  6  1  0  0  0
  6  7  1  0  0  0
  7  8  1  0  0  0
  8  9  1  0  0  0
  7 10  1  0  0  0
 10 11  2  0  0  0
 11 12  1  0  0  0
 12 13  2  0  0  0
 13 14  1  0  0  0
 14 15  1  0  0  0
 14 16  2  0  0  0
  2 31  1  0  0  0
 31 32  2  0  0  0
 31 33  1  0  0  0
 33 35  1  0  0  0
 35 36  1  0  0  0
 35 37  1  0  0  0
 28 19  2  0  0  0
 16  1  1  0  0  0
 28 24  1  0  0  0
  9  4  1  0  0  0
 16 10  1  0  0  0
 15 17  1  0  0  0
 15 18  1  0  0  0
 33 34  1  0  0  0
M  END
> <minimizedAffinity>
-7.51216

> <CNNscore>
0.3892050683

> <CNNaffinity>
6.5569901466

> <CNN_VS>
2.5520138741

> <CNNaffinity_variance>
0.1728295386

$$$$
[H]c1nc(N([H])[H])c2c(n1)N1C([H])([H])C([H])([H])N(C([H])([H])C(C(=O)N([H])C([H])(C([H])([H])[H])C([H])([H])[H])=C2c2sc3c(OC([H])([H])[H])c([H])c(C([H])([H])[H])c([H])c3c2[H])C([H])([H])C1([H])[H]


 37 41  0  0  0  0  0  0  0  0999 V2000
   -2.2804   23.0533  -23.7736 C   0  0  0  0  0  0  0  0  0  0  0  0
   -3.3279   23.8041  -23.5687 C   0  0  0  0  0  0  0  0  0  0  0  0
   -4.1221   24.5363  -24.5901 C   0  0  0  0  0  0  0  0  0  0  0  0
   -5.4024   23.9551  -24.8082 N   0  0  0  0  0  0  0  0  0  0  0  0
   -5.5668   22.5620  -24.4997 C   0  0  0  0  0  0  0  0  0  0  0  0
   -4.6537   21.6959  -25.3410 C   0  0  0  0  0  0  0  0  0  0  0  0
   -3.8432   22.5551  -26.2493 N   0  0  0  0  0  0  0  0  0  0  0  0
   -4.7229   23.4611  -27.0068 C   0  0  0  0  0  0  0  0  0  0  0  0
   -5.8701   24.0093  -26.1843 C   0  0  0  0  0  0  0  0  0  0  0  0
   -2.4312   22.4595  -26.2686 C   0  0  0  0  0  0  0  0  0  0  0  0
   -1.6428   22.1090  -27.3512 N   0  0  0  0  0  0  0  0  0  0  0  0
   -0.3515   22.0472  -27.4273 C   0  0  0  0  0  0  0  0  0  0  0  0
    0.3606   22.3537  -26.3454 N   0  0  0  0  0  0  0  0  0  0  0  0
   -0.3130   22.7146  -25.2108 C   0  0  0  0  0  0  0  0  0  0  0  0
    0.5292   23.1021  -24.1027 N   0  0  0  0  0  0  0  0  0  0  0  0
   -1.6860   22.7805  -25.1095 C   0  0  0  0  0  0  0  0  0  0  0  0
    0.5471   24.0965  -23.7802 H   0  0  0  0  0  0  0  0  0  0  0  0
    1.1270   22.3921  -23.6437 H   0  0  0  0  0  0  0  0  0  0  0  0
    0.0305   20.0129  -19.8264 C   0  0  0  0  0  0  0  0  0  0  0  0
    0.5664   20.4693  -18.6452 C   0  0  0  0  0  0  0  0  0  0  0  0
    0.5462   21.8206  -18.4046 C   0  0  0  0  0  0  0  0  0  0  0  0
    1.1280   22.3691  -17.1111 C   0  0  0  0  0  0  0  0  0  0  0  0
    0.0074   22.6812  -19.3176 C   0  0  0  0  0  0  0  0  0  0  0  0
   -0.5508   22.2658  -20.5356 C   0  0  0  0  0  0  0  0  0  0  0  0
   -1.1011   23.0204  -21.4983 C   0  0  0  0  0  0  0  0  0  0  0  0
   -1.5826   22.3811  -22.6121 C   0  0  0  0  0  0  0  0  0  0  0  0
   -1.2488   20.7425  -22.2739 S   0  0  0  0  0  0  0  0  0  0  0  0
   -0.5176   20.9146  -20.7497 C   0  0  0  0  0  0  0  0  0  0  0  0
    1.2237   18.0605  -20.5638 C   0  0  0  0  0  0  0  0  0  0  0  0
    0.0125   18.6612  -20.1448 O   0  0  0  0  0  0  0  0  0  0  0  0
   -3.9122   23.8947  -22.2205 C   0  0  0  0  0  0  0  0  0  0  0  0
   -4.1063   24.9619  -21.5933 O   0  0  0  0  0  0  0  0  0  0  0  0
   -4.3286   22.7315  -21.4799 N   0  0  0  0  0  0  0  0  0  0  0  0
   -4.2171   21.7981  -21.8800 H   0  0  0  0  0  0  0  0  0  0  0  0
   -4.9069   22.8202  -20.1620 C   0  0  0  0  0  0  0  0  0  0  0  0
   -3.9650   22.2929  -19.1177 C   0  0  0  0  0  0  0  0  0  0  0  0
   -6.2270   22.0517  -20.1613 C   0  0  0  0  0  0  0  0  0  0  0  0
 29 30  1  0  0  0
 30 19  1  0  0  0
 19 20  1  0  0  0
 20 21  2  0  0  0
 21 22  1  0  0  0
 21 23  1  0  0  0
 23 24  2  0  0  0
 24 25  1  0  0  0
 25 26  2  0  0  0
 26 27  1  0  0  0
 27 28  1  0  0  0
 26  1  1  0  0  0
  1  2  2  0  0  0
  2  3  1  0  0  0
  3  4  1  0  0  0
  4  5  1  0  0  0
  5  6  1  0  0  0
  6  7  1  0  0  0
  7  8  1  0  0  0
  8  9  1  0  0  0
  7 10  1  0  0  0
 10 11  2  0  0  0
 11 12  1  0  0  0
 12 13  2  0  0  0
 13 14  1  0  0  0
 14 15  1  0  0  0
 14 16  2  0  0  0
  2 31  1  0  0  0
 31 32  2  0  0  0
 31 33  1  0  0  0
 33 35  1  0  0  0
 35 36  1  0  0  0
 35 37  1  0  0  0
 28 19  2  0  0  0
 16  1  1  0  0  0
 28 24  1  0  0  0
  9  4  1  0  0  0
 16 10  1  0  0  0
 15 17  1  0  0  0
 15 18  1  0  0  0
 33 34  1  0  0  0
M  END
> <minimizedAffinity>
-6.95561

> <CNNscore>
0.3090957999

> <CNNaffinity>
6.9406280518

> <CNN_VS>
2.1453189850

> <CNNaffinity_variance>
0.2443052232

$$$$
[H]c1nc(N([H])[H])c2c(n1)N1C([H])([H])C([H])([H])N(C([H])([H])C(C(=O)N([H])C([H])(C([H])([H])[H])C([H])([H])[H])=C2c2sc3c(OC([H])([H])[H])c([H])c(C([H])([H])[H])c([H])c3c2[H])C([H])([H])C1([H])[H]


 37 41  0  0  0  0  0  0  0  0999 V2000
   -2.2200   22.4105  -23.0991 C   0  0  0  0  0  0  0  0  0  0  0  0
   -3.3375   22.9385  -22.6802 C   0  0  0  0  0  0  0  0  0  0  0  0
   -4.3675   23.6293  -23.5001 C   0  0  0  0  0  0  0  0  0  0  0  0
   -5.5556   22.8606  -23.6479 N   0  0  0  0  0  0  0  0  0  0  0  0
   -5.4524   21.4347  -23.5099 C   0  0  0  0  0  0  0  0  0  0  0  0
   -4.5326   20.8413  -24.5556 C   0  0  0  0  0  0  0  0  0  0  0  0
   -3.9984   21.9250  -25.4275 N   0  0  0  0  0  0  0  0  0  0  0  0
   -5.1047   22.7414  -25.9548 C   0  0  0  0  0  0  0  0  0  0  0  0
   -6.2050   22.9850  -24.9434 C   0  0  0  0  0  0  0  0  0  0  0  0
   -2.6045   22.0812  -25.6179 C   0  0  0  0  0  0  0  0  0  0  0  0
   -1.9214   21.9971  -26.8189 N   0  0  0  0  0  0  0  0  0  0  0  0
   -0.6587   22.1715  -27.0472 C   0  0  0  0  0  0  0  0  0  0  0  0
    0.1328   22.4756  -26.0211 N   0  0  0  0  0  0  0  0  0  0  0  0
   -0.4328   22.5842  -24.7803 C   0  0  0  0  0  0  0  0  0  0  0  0
    0.4764   22.9874  -23.7324 N   0  0  0  0  0  0  0  0  0  0  0  0
   -1.7728   22.3967  -24.5176 C   0  0  0  0  0  0  0  0  0  0  0  0
    0.3776   23.9273  -23.2853 H   0  0  0  0  0  0  0  0  0  0  0  0
    1.2358   22.3465  -23.4415 H   0  0  0  0  0  0  0  0  0  0  0  0
    1.3709   20.6387  -19.3399 C   0  0  0  0  0  0  0  0  0  0  0  0
    1.8650   19.3618  -19.2132 C   0  0  0  0  0  0  0  0  0  0  0  0
    1.4253   18.4070  -20.0959 C   0  0  0  0  0  0  0  0  0  0  0  0
    1.9454   16.9818  -19.9922 C   0  0  0  0  0  0  0  0  0  0  0  0
    0.5224   18.7239  -21.0699 C   0  0  0  0  0  0  0  0  0  0  0  0
   -0.0109   20.0101  -21.2405 C   0  0  0  0  0  0  0  0  0  0  0  0
   -0.8982   20.4277  -22.1556 C   0  0  0  0  0  0  0  0  0  0  0  0
   -1.2753   21.7459  -22.1225 C   0  0  0  0  0  0  0  0  0  0  0  0
   -0.3735   22.3580  -20.8099 S   0  0  0  0  0  0  0  0  0  0  0  0
    0.4443   20.9419  -20.3477 C   0  0  0  0  0  0  0  0  0  0  0  0
    2.9024   22.4243  -18.8445 C   0  0  0  0  0  0  0  0  0  0  0  0
    1.7652   21.6612  -18.4869 O   0  0  0  0  0  0  0  0  0  0  0  0
   -3.7441   22.7745  -21.2749 C   0  0  0  0  0  0  0  0  0  0  0  0
   -3.8645   23.7094  -20.4495 O   0  0  0  0  0  0  0  0  0  0  0  0
   -4.0522   21.4877  -20.7056 N   0  0  0  0  0  0  0  0  0  0  0  0
   -3.9855   20.6422  -21.2754 H   0  0  0  0  0  0  0  0  0  0  0  0
   -4.4566   21.3272  -19.3309 C   0  0  0  0  0  0  0  0  0  0  0  0
   -3.4444   20.5343  -18.5547 C   0  0  0  0  0  0  0  0  0  0  0  0
   -5.8286   20.6560  -19.3065 C   0  0  0  0  0  0  0  0  0  0  0  0
 29 30  1  0  0  0
 30 19  1  0  0  0
 19 20  1  0  0  0
 20 21  2  0  0  0
 21 22  1  0  0  0
 21 23  1  0  0  0
 23 24  2  0  0  0
 24 25  1  0  0  0
 25 26  2  0  0  0
 26 27  1  0  0  0
 27 28  1  0  0  0
 26  1  1  0  0  0
  1  2  2  0  0  0
  2  3  1  0  0  0
  3  4  1  0  0  0
  4  5  1  0  0  0
  5  6  1  0  0  0
  6  7  1  0  0  0
  7  8  1  0  0  0
  8  9  1  0  0  0
  7 10  1  0  0  0
 10 11  2  0  0  0
 11 12  1  0  0  0
 12 13  2  0  0  0
 13 14  1  0  0  0
 14 15  1  0  0  0
 14 16  2  0  0  0
  2 31  1  0  0  0
 31 32  2  0  0  0
 31 33  1  0  0  0
 33 35  1  0  0  0
 35 36  1  0  0  0
 35 37  1  0  0  0
 28 19  2  0  0  0
 16  1  1  0  0  0
 28 24  1  0  0  0
  9  4  1  0  0  0
 16 10  1  0  0  0
 15 17  1  0  0  0
 15 18  1  0  0  0
 33 34  1  0  0  0
M  END
> <minimizedAffinity>
-6.74874

> <CNNscore>
0.2611044645

> <CNNaffinity>
6.6068601608

> <CNN_VS>
1.7250807285

> <CNNaffinity_variance>
0.1682426035

$$$$
[H]c1nc(N([H])[H])c2c(n1)N1C([H])([H])C([H])([H])N(C([H])([H])C(C(=O)N([H])C([H])(C([H])([H])[H])C([H])([H])[H])=C2c2sc3c(OC([H])([H])[H])c([H])c(C([H])([H])[H])c([H])c3c2[H])C([H])([H])C1([H])[H]


 37 41  0  0  0  0  0  0  0  0999 V2000
   -4.9069   22.4140  -19.7888 C   0  0  0  0  0  0  0  0  0  0  0  0
   -5.8198   22.9893  -20.5227 C   0  0  0  0  0  0  0  0  0  0  0  0
   -5.6369   24.1412  -21.4448 C   0  0  0  0  0  0  0  0  0  0  0  0
   -5.7155   23.7640  -22.8144 N   0  0  0  0  0  0  0  0  0  0  0  0
   -5.4157   22.4005  -23.1519 C   0  0  0  0  0  0  0  0  0  0  0  0
   -3.9936   22.0372  -22.7814 C   0  0  0  0  0  0  0  0  0  0  0  0
   -3.3183   23.2146  -22.1669 N   0  0  0  0  0  0  0  0  0  0  0  0
   -3.4584   24.3911  -23.0412 C   0  0  0  0  0  0  0  0  0  0  0  0
   -4.8185   24.4906  -23.6992 C   0  0  0  0  0  0  0  0  0  0  0  0
   -2.6981   23.1140  -20.8985 C   0  0  0  0  0  0  0  0  0  0  0  0
   -1.3587   23.3206  -20.6165 N   0  0  0  0  0  0  0  0  0  0  0  0
   -0.7558   23.2796  -19.4711 C   0  0  0  0  0  0  0  0  0  0  0  0
   -1.4776   23.0067  -18.3866 N   0  0  0  0  0  0  0  0  0  0  0  0
   -2.8177   22.7816  -18.5435 C   0  0  0  0  0  0  0  0  0  0  0  0
   -3.5443   22.5642  -17.3139 N   0  0  0  0  0  0  0  0  0  0  0  0
   -3.4752   22.8155  -19.7544 C   0  0  0  0  0  0  0  0  0  0  0  0
   -4.2347   23.2749  -16.9799 H   0  0  0  0  0  0  0  0  0  0  0  0
   -3.3628   21.7094  -16.7584 H   0  0  0  0  0  0  0  0  0  0  0  0
   -6.4925   18.6519  -16.1149 C   0  0  0  0  0  0  0  0  0  0  0  0
   -6.1242   17.3275  -16.0837 C   0  0  0  0  0  0  0  0  0  0  0  0
   -5.2831   16.8662  -17.0655 C   0  0  0  0  0  0  0  0  0  0  0  0
   -4.8501   15.4085  -17.0696 C   0  0  0  0  0  0  0  0  0  0  0  0
   -4.8291   17.7051  -18.0426 C   0  0  0  0  0  0  0  0  0  0  0  0
   -5.1754   19.0624  -18.1182 C   0  0  0  0  0  0  0  0  0  0  0  0
   -4.7913   19.9689  -19.0291 C   0  0  0  0  0  0  0  0  0  0  0  0
   -5.2675   21.2481  -18.8952 C   0  0  0  0  0  0  0  0  0  0  0  0
   -6.2381   21.1392  -17.4962 S   0  0  0  0  0  0  0  0  0  0  0  0
   -6.0143   19.4955  -17.1277 C   0  0  0  0  0  0  0  0  0  0  0  0
   -7.7250   18.3783  -14.0691 C   0  0  0  0  0  0  0  0  0  0  0  0
   -7.3399   19.1959  -15.1584 O   0  0  0  0  0  0  0  0  0  0  0  0
   -7.1772   22.4225  -20.5819 C   0  0  0  0  0  0  0  0  0  0  0  0
   -7.4777   21.3371  -21.1310 O   0  0  0  0  0  0  0  0  0  0  0  0
   -8.3152   23.0818  -19.9945 N   0  0  0  0  0  0  0  0  0  0  0  0
   -8.2034   23.9803  -19.5212 H   0  0  0  0  0  0  0  0  0  0  0  0
   -9.6439   22.5239  -20.0466 C   0  0  0  0  0  0  0  0  0  0  0  0
  -10.6609   23.5719  -20.3975 C   0  0  0  0  0  0  0  0  0  0  0  0
   -9.9504   21.8797  -18.6959 C   0  0  0  0  0  0  0  0  0  0  0  0
 29 30  1  0  0  0
 30 19  1  0  0  0
 19 20  1  0  0  0
 20 21  2  0  0  0
 21 22  1  0  0  0
 21 23  1  0  0  0
 23 24  2  0  0  0
 24 25  1  0  0  0
 25 26  2  0  0  0
 26 27  1  0  0  0
 27 28  1  0  0  0
 26  1  1  0  0  0
  1  2  2  0  0  0
  2  3  1  0  0  0
  3  4  1  0  0  0
  4  5  1  0  0  0
  5  6  1  0  0  0
  6  7  1  0  0  0
  7  8  1  0  0  0
  8  9  1  0  0  0
  7 10  1  0  0  0
 10 11  2  0  0  0
 11 12  1  0  0  0
 12 13  2  0  0  0
 13 14  1  0  0  0
 14 15  1  0  0  0
 14 16  2  0  0  0
  2 31  1  0  0  0
 31 32  2  0  0  0
 31 33  1  0  0  0
 33 35  1  0  0  0
 35 36  1  0  0  0
 35 37  1  0  0  0
 28 19  2  0  0  0
 16  1  1  0  0  0
 28 24  1  0  0  0
  9  4  1  0  0  0
 16 10  1  0  0  0
 15 17  1  0  0  0
 15 18  1  0  0  0
 33 34  1  0  0  0
M  END
> <minimizedAffinity>
-5.79090

> <CNNscore>
0.0772318318

> <CNNaffinity>
5.7479834557

> <CNN_VS>
0.4439272881

> <CNNaffinity_variance>
0.1369687468

$$$$
[H]c1nc(N([H])[H])c2c(n1)N1C([H])([H])C([H])([H])N(C([H])([H])C(C(=O)N([H])C([H])(C([H])([H])[H])C([H])([H])[H])=C2c2sc3c(OC([H])([H])[H])c([H])c(C([H])([H])[H])c([H])c3c2[H])C([H])([H])C1([H])[H]


 37 41  0  0  0  0  0  0  0  0999 V2000
   -4.9385   22.6350  -19.6652 C   0  0  0  0  0  0  0  0  0  0  0  0
   -5.6081   23.5446  -19.0114 C   0  0  0  0  0  0  0  0  0  0  0  0
   -6.6935   24.4132  -19.5383 C   0  0  0  0  0  0  0  0  0  0  0  0
   -7.9751   24.0539  -19.0354 N   0  0  0  0  0  0  0  0  0  0  0  0
   -8.1642   22.7021  -18.5882 C   0  0  0  0  0  0  0  0  0  0  0  0
   -7.9511   21.7110  -19.7124 C   0  0  0  0  0  0  0  0  0  0  0  0
   -7.6019   22.4392  -20.9644 N   0  0  0  0  0  0  0  0  0  0  0  0
   -8.5987   23.4892  -21.2335 C   0  0  0  0  0  0  0  0  0  0  0  0
   -9.0668   24.2057  -19.9843 C   0  0  0  0  0  0  0  0  0  0  0  0
   -6.4312   22.1131  -21.6900 C   0  0  0  0  0  0  0  0  0  0  0  0
   -6.3702   21.6546  -22.9948 N   0  0  0  0  0  0  0  0  0  0  0  0
   -5.3257   21.3826  -23.7104 C   0  0  0  0  0  0  0  0  0  0  0  0
   -4.1239   21.5509  -23.1637 N   0  0  0  0  0  0  0  0  0  0  0  0
   -4.0596   21.9999  -21.8731 C   0  0  0  0  0  0  0  0  0  0  0  0
   -2.7222   22.2263  -21.3756 N   0  0  0  0  0  0  0  0  0  0  0  0
   -5.1597   22.2891  -21.0948 C   0  0  0  0  0  0  0  0  0  0  0  0
   -2.3938   23.1992  -21.1782 H   0  0  0  0  0  0  0  0  0  0  0  0
   -2.0875   21.4207  -21.2339 H   0  0  0  0  0  0  0  0  0  0  0  0
   -0.5972   20.3046  -17.2389 C   0  0  0  0  0  0  0  0  0  0  0  0
   -0.4550   18.9776  -16.9079 C   0  0  0  0  0  0  0  0  0  0  0  0
   -1.4930   18.1251  -17.1906 C   0  0  0  0  0  0  0  0  0  0  0  0
   -1.3786   16.6494  -16.8416 C   0  0  0  0  0  0  0  0  0  0  0  0
   -2.6318   18.5892  -17.7839 C   0  0  0  0  0  0  0  0  0  0  0  0
   -2.8254   19.9320  -18.1406 C   0  0  0  0  0  0  0  0  0  0  0  0
   -3.8969   20.4918  -18.7217 C   0  0  0  0  0  0  0  0  0  0  0  0
   -3.8541   21.8393  -18.9734 C   0  0  0  0  0  0  0  0  0  0  0  0
   -2.3129   22.2784  -18.3878 S   0  0  0  0  0  0  0  0  0  0  0  0
   -1.7756   20.7595  -17.8477 C   0  0  0  0  0  0  0  0  0  0  0  0
    1.6043   21.1339  -17.7337 C   0  0  0  0  0  0  0  0  0  0  0  0
    0.4063   21.2308  -16.9862 O   0  0  0  0  0  0  0  0  0  0  0  0
   -5.3993   23.7090  -17.5634 C   0  0  0  0  0  0  0  0  0  0  0  0
   -4.8347   24.6907  -17.0273 O   0  0  0  0  0  0  0  0  0  0  0  0
   -5.8403   22.7295  -16.6038 N   0  0  0  0  0  0  0  0  0  0  0  0
   -6.3103   21.8774  -16.9152 H   0  0  0  0  0  0  0  0  0  0  0  0
   -5.6417   22.8931  -15.1850 C   0  0  0  0  0  0  0  0  0  0  0  0
   -4.4540   22.1076  -14.7075 C   0  0  0  0  0  0  0  0  0  0  0  0
   -6.9195   22.4643  -14.4661 C   0  0  0  0  0  0  0  0  0  0  0  0
 29 30  1  0  0  0
 30 19  1  0  0  0
 19 20  1  0  0  0
 20 21  2  0  0  0
 21 22  1  0  0  0
 21 23  1  0  0  0
 23 24  2  0  0  0
 24 25  1  0  0  0
 25 26  2  0  0  0
 26 27  1  0  0  0
 27 28  1  0  0  0
 26  1  1  0  0  0
  1  2  2  0  0  0
  2  3  1  0  0  0
  3  4  1  0  0  0
  4  5  1  0  0  0
  5  6  1  0  0  0
  6  7  1  0  0  0
  7  8  1  0  0  0
  8  9  1  0  0  0
  7 10  1  0  0  0
 10 11  2  0  0  0
 11 12  1  0  0  0
 12 13  2  0  0  0
 13 14  1  0  0  0
 14 15  1  0  0  0
 14 16  2  0  0  0
  2 31  1  0  0  0
 31 32  2  0  0  0
 31 33  1  0  0  0
 33 35  1  0  0  0
 35 36  1  0  0  0
 35 37  1  0  0  0
 28 19  2  0  0  0
 16  1  1  0  0  0
 28 24  1  0  0  0
  9  4  1  0  0  0
 16 10  1  0  0  0
 15 17  1  0  0  0
 15 18  1  0  0  0
 33 34  1  0  0  0
M  END
> <minimizedAffinity>
-5.46395

> <CNNscore>
0.0718720853

> <CNNaffinity>
5.4701290131

> <CNN_VS>
0.3931495845

> <CNNaffinity_variance>
0.1694293916

$$$$
[H]c1nc(N([H])[H])c2c(n1)N1C([H])([H])C([H])([H])N(C([H])([H])C(C(=O)N([H])C([H])(C([H])([H])[H])C([H])([H])[H])=C2c2sc3c(OC([H])([H])[H])c([H])c(C([H])([H])[H])c([H])c3c2[H])C([H])([H])C1([H])[H]


 37 41  0  0  0  0  0  0  0  0999 V2000
   -5.4531   23.3395  -19.8466 C   0  0  0  0  0  0  0  0  0  0  0  0
   -6.1068   24.2369  -19.1609 C   0  0  0  0  0  0  0  0  0  0  0  0
   -6.6736   25.5156  -19.6650 C   0  0  0  0  0  0  0  0  0  0  0  0
   -8.0944   25.4939  -19.7372 N   0  0  0  0  0  0  0  0  0  0  0  0
   -8.7393   24.2167  -19.8625 C   0  0  0  0  0  0  0  0  0  0  0  0
   -8.3245   23.5082  -21.1343 C   0  0  0  0  0  0  0  0  0  0  0  0
   -7.3567   24.3542  -21.8877 N   0  0  0  0  0  0  0  0  0  0  0  0
   -7.9061   25.7078  -22.0735 C   0  0  0  0  0  0  0  0  0  0  0  0
   -8.6586   26.2207  -20.8637 C   0  0  0  0  0  0  0  0  0  0  0  0
   -6.0985   23.8398  -22.2824 C   0  0  0  0  0  0  0  0  0  0  0  0
   -5.6298   23.7110  -23.5786 N   0  0  0  0  0  0  0  0  0  0  0  0
   -4.4761   23.2856  -23.9848 C   0  0  0  0  0  0  0  0  0  0  0  0
   -3.5838   22.9101  -23.0714 N   0  0  0  0  0  0  0  0  0  0  0  0
   -3.9373   22.9920  -21.7525 C   0  0  0  0  0  0  0  0  0  0  0  0
   -2.8917   22.6362  -20.8210 N   0  0  0  0  0  0  0  0  0  0  0  0
   -5.1615   23.4367  -21.3018 C   0  0  0  0  0  0  0  0  0  0  0  0
   -2.4615   23.3681  -20.2108 H   0  0  0  0  0  0  0  0  0  0  0  0
   -2.5605   21.6562  -20.7760 H   0  0  0  0  0  0  0  0  0  0  0  0
   -3.0129   19.1698  -17.2342 C   0  0  0  0  0  0  0  0  0  0  0  0
   -3.4001   17.8505  -17.2508 C   0  0  0  0  0  0  0  0  0  0  0  0
   -4.5142   17.5119  -17.9775 C   0  0  0  0  0  0  0  0  0  0  0  0
   -4.9782   16.0645  -18.0237 C   0  0  0  0  0  0  0  0  0  0  0  0
   -5.2134   18.4641  -18.6622 C   0  0  0  0  0  0  0  0  0  0  0  0
   -4.8597   19.8215  -18.6768 C   0  0  0  0  0  0  0  0  0  0  0  0
   -5.4722   20.8336  -19.3091 C   0  0  0  0  0  0  0  0  0  0  0  0
   -4.9363   22.0885  -19.1714 C   0  0  0  0  0  0  0  0  0  0  0  0
   -3.5907   21.8096  -18.1602 S   0  0  0  0  0  0  0  0  0  0  0  0
   -3.7459   20.1311  -17.9446 C   0  0  0  0  0  0  0  0  0  0  0  0
   -0.6233   19.4006  -17.1081 C   0  0  0  0  0  0  0  0  0  0  0  0
   -1.8977   19.5936  -16.5233 O   0  0  0  0  0  0  0  0  0  0  0  0
   -6.4569   23.9738  -17.7553 C   0  0  0  0  0  0  0  0  0  0  0  0
   -7.3990   23.2399  -17.3764 O   0  0  0  0  0  0  0  0  0  0  0  0
   -5.7252   24.5503  -16.6567 N   0  0  0  0  0  0  0  0  0  0  0  0
   -4.9358   25.1744  -16.8336 H   0  0  0  0  0  0  0  0  0  0  0  0
   -6.0637   24.2878  -15.2798 C   0  0  0  0  0  0  0  0  0  0  0  0
   -6.1422   25.5607  -14.4864 C   0  0  0  0  0  0  0  0  0  0  0  0
   -5.0219   23.3328  -14.7002 C   0  0  0  0  0  0  0  0  0  0  0  0
 29 30  1  0  0  0
 30 19  1  0  0  0
 19 20  1  0  0  0
 20 21  2  0  0  0
 21 22  1  0  0  0
 21 23  1  0  0  0
 23 24  2  0  0  0
 24 25  1  0  0  0
 25 26  2  0  0  0
 26 27  1  0  0  0
 27 28  1  0  0  0
 26  1  1  0  0  0
  1  2  2  0  0  0
  2  3  1  0  0  0
  3  4  1  0  0  0
  4  5  1  0  0  0
  5  6  1  0  0  0
  6  7  1  0  0  0
  7  8  1  0  0  0
  8  9  1  0  0  0
  7 10  1  0  0  0
 10 11  2  0  0  0
 11 12  1  0  0  0
 12 13  2  0  0  0
 13 14  1  0  0  0
 14 15  1  0  0  0
 14 16  2  0  0  0
  2 31  1  0  0  0
 31 32  2  0  0  0
 31 33  1  0  0  0
 33 35  1  0  0  0
 35 36  1  0  0  0
 35 37  1  0  0  0
 28 19  2  0  0  0
 16  1  1  0  0  0
 28 24  1  0  0  0
  9  4  1  0  0  0
 16 10  1  0  0  0
 15 17  1  0  0  0
 15 18  1  0  0  0
 33 34  1  0  0  0
M  END
> <minimizedAffinity>
-6.07819

> <CNNscore>
0.0717011243

> <CNNaffinity>
5.4200644493

> <CNN_VS>
0.3886247277

> <CNNaffinity_variance>
0.1149078161

$$$$
[H]c1nc(N([H])[H])c2c(n1)N1C([H])([H])C([H])([H])N(C([H])([H])C(C(=O)N([H])C([H])(C([H])([H])[H])C([H])([H])[H])=C2c2sc3c(OC([H])([H])[H])c([H])c(C([H])([H])[H])c([H])c3c2[H])C([H])([H])C1([H])[H]


 37 41  0  0  0  0  0  0  0  0999 V2000
   -5.0589   22.7020  -19.7525 C   0  0  0  0  0  0  0  0  0  0  0  0
   -5.7351   23.6031  -19.0938 C   0  0  0  0  0  0  0  0  0  0  0  0
   -6.8673   24.4237  -19.5989 C   0  0  0  0  0  0  0  0  0  0  0  0
   -8.1173   24.0334  -19.0427 N   0  0  0  0  0  0  0  0  0  0  0  0
   -8.2448   22.6863  -18.5611 C   0  0  0  0  0  0  0  0  0  0  0  0
   -8.0384   21.6784  -19.6716 C   0  0  0  0  0  0  0  0  0  0  0  0
   -7.7585   22.3901  -20.9502 N   0  0  0  0  0  0  0  0  0  0  0  0
   -8.7990   23.4006  -21.2047 C   0  0  0  0  0  0  0  0  0  0  0  0
   -9.2465   24.1284  -19.9545 C   0  0  0  0  0  0  0  0  0  0  0  0
   -6.6040   22.0870  -21.7108 C   0  0  0  0  0  0  0  0  0  0  0  0
   -6.5739   21.6024  -23.0072 N   0  0  0  0  0  0  0  0  0  0  0  0
   -5.5468   21.3493  -23.7543 C   0  0  0  0  0  0  0  0  0  0  0  0
   -4.3328   21.5691  -23.2550 N   0  0  0  0  0  0  0  0  0  0  0  0
   -4.2379   22.0481  -21.9772 C   0  0  0  0  0  0  0  0  0  0  0  0
   -2.8921   22.3292  -21.5331 N   0  0  0  0  0  0  0  0  0  0  0  0
   -5.3188   22.3178  -21.1657 C   0  0  0  0  0  0  0  0  0  0  0  0
   -2.5899   23.3164  -21.3678 H   0  0  0  0  0  0  0  0  0  0  0  0
   -2.2259   21.5482  -21.3979 H   0  0  0  0  0  0  0  0  0  0  0  0
   -1.3866   19.4731  -17.2518 C   0  0  0  0  0  0  0  0  0  0  0  0
   -0.1576   19.8507  -16.7643 C   0  0  0  0  0  0  0  0  0  0  0  0
    0.2232   21.1610  -16.9135 C   0  0  0  0  0  0  0  0  0  0  0  0
    1.5741   21.6223  -16.3893 C   0  0  0  0  0  0  0  0  0  0  0  0
   -0.6008   22.0586  -17.5298 C   0  0  0  0  0  0  0  0  0  0  0  0
   -1.8625   21.7233  -18.0434 C   0  0  0  0  0  0  0  0  0  0  0  0
   -2.7456   22.5193  -18.6644 C   0  0  0  0  0  0  0  0  0  0  0  0
   -3.9244   21.9577  -19.0841 C   0  0  0  0  0  0  0  0  0  0  0  0
   -3.7572   20.3319  -18.5944 S   0  0  0  0  0  0  0  0  0  0  0  0
   -2.2168   20.4115  -17.8813 C   0  0  0  0  0  0  0  0  0  0  0  0
   -1.0968   17.1436  -17.7700 C   0  0  0  0  0  0  0  0  0  0  0  0
   -1.8452   18.1669  -17.1407 O   0  0  0  0  0  0  0  0  0  0  0  0
   -5.4808   23.8059  -17.6581 C   0  0  0  0  0  0  0  0  0  0  0  0
   -4.9944   24.8457  -17.1559 O   0  0  0  0  0  0  0  0  0  0  0  0
   -5.7793   22.7997  -16.6716 N   0  0  0  0  0  0  0  0  0  0  0  0
   -6.1748   21.9011  -16.9546 H   0  0  0  0  0  0  0  0  0  0  0  0
   -5.5363   23.0002  -15.2645 C   0  0  0  0  0  0  0  0  0  0  0  0
   -4.2216   22.4047  -14.8488 C   0  0  0  0  0  0  0  0  0  0  0  0
   -6.6974   22.3895  -14.4821 C   0  0  0  0  0  0  0  0  0  0  0  0
 29 30  1  0  0  0
 30 19  1  0  0  0
 19 20  1  0  0  0
 20 21  2  0  0  0
 21 22  1  0  0  0
 21 23  1  0  0  0
 23 24  2  0  0  0
 24 25  1  0  0  0
 25 26  2  0  0  0
 26 27  1  0  0  0
 27 28  1  0  0  0
 26  1  1  0  0  0
  1  2  2  0  0  0
  2  3  1  0  0  0
  3  4  1  0  0  0
  4  5  1  0  0  0
  5  6  1  0  0  0
  6  7  1  0  0  0
  7  8  1  0  0  0
  8  9  1  0  0  0
  7 10  1  0  0  0
 10 11  2  0  0  0
 11 12  1  0  0  0
 12 13  2  0  0  0
 13 14  1  0  0  0
 14 15  1  0  0  0
 14 16  2  0  0  0
  2 31  1  0  0  0
 31 32  2  0  0  0
 31 33  1  0  0  0
 33 35  1  0  0  0
 35 36  1  0  0  0
 35 37  1  0  0  0
 28 19  2  0  0  0
 16  1  1  0  0  0
 28 24  1  0  0  0
  9  4  1  0  0  0
 16 10  1  0  0  0
 15 17  1  0  0  0
 15 18  1  0  0  0
 33 34  1  0  0  0
M  END
> <minimizedAffinity>
-5.75344

> <CNNscore>
0.0702760443

> <CNNaffinity>
5.3766722679

> <CNN_VS>
0.3778512478

> <CNNaffinity_variance>
0.2498459816

$$$$
[H]c1nc(N([H])[H])c2c(n1)N1C([H])([H])C([H])([H])N(C([H])([H])C(C(=O)N([H])C([H])(C([H])([H])[H])C([H])([H])[H])=C2c2sc3c(OC([H])([H])[H])c([H])c(C([H])([H])[H])c([H])c3c2[H])C([H])([H])C1([H])[H]


 37 41  0  0  0  0  0  0  0  0999 V2000
   -5.5347   21.3231  -17.9160 C   0  0  0  0  0  0  0  0  0  0  0  0
   -4.4331   21.5117  -17.2421 C   0  0  0  0  0  0  0  0  0  0  0  0
   -3.9952   20.7924  -16.0169 C   0  0  0  0  0  0  0  0  0  0  0  0
   -2.9123   19.9027  -16.2620 N   0  0  0  0  0  0  0  0  0  0  0  0
   -2.7452   19.4030  -17.5981 C   0  0  0  0  0  0  0  0  0  0  0  0
   -3.9495   18.6024  -18.0456 C   0  0  0  0  0  0  0  0  0  0  0  0
   -4.9650   18.5712  -16.9557 N   0  0  0  0  0  0  0  0  0  0  0  0
   -4.3438   18.1214  -15.6986 C   0  0  0  0  0  0  0  0  0  0  0  0
   -2.9485   18.6710  -15.4891 C   0  0  0  0  0  0  0  0  0  0  0  0
   -6.2991   18.9783  -17.1963 C   0  0  0  0  0  0  0  0  0  0  0  0
   -7.4357   18.1991  -17.0654 N   0  0  0  0  0  0  0  0  0  0  0  0
   -8.6743   18.5373  -17.2347 C   0  0  0  0  0  0  0  0  0  0  0  0
   -8.9445   19.7937  -17.5810 N   0  0  0  0  0  0  0  0  0  0  0  0
   -7.8965   20.6581  -17.7418 C   0  0  0  0  0  0  0  0  0  0  0  0
   -8.2739   22.0191  -18.0462 N   0  0  0  0  0  0  0  0  0  0  0  0
   -6.5725   20.3149  -17.5715 C   0  0  0  0  0  0  0  0  0  0  0  0
   -8.1118   22.7776  -17.3450 H   0  0  0  0  0  0  0  0  0  0  0  0
   -8.7216   22.2332  -18.9549 H   0  0  0  0  0  0  0  0  0  0  0  0
   -6.8799   24.8016  -21.9478 C   0  0  0  0  0  0  0  0  0  0  0  0
   -6.8689   24.5389  -23.2974 C   0  0  0  0  0  0  0  0  0  0  0  0
   -6.4749   23.2907  -23.7108 C   0  0  0  0  0  0  0  0  0  0  0  0
   -6.4477   22.9568  -25.1941 C   0  0  0  0  0  0  0  0  0  0  0  0
   -6.1056   22.3417  -22.8012 C   0  0  0  0  0  0  0  0  0  0  0  0
   -6.0996   22.5601  -21.4155 C   0  0  0  0  0  0  0  0  0  0  0  0
   -5.7561   21.7054  -20.4406 C   0  0  0  0  0  0  0  0  0  0  0  0
   -5.8297   22.1524  -19.1461 C   0  0  0  0  0  0  0  0  0  0  0  0
   -6.3786   23.7565  -19.3370 S   0  0  0  0  0  0  0  0  0  0  0  0
   -6.4966   23.8120  -21.0313 C   0  0  0  0  0  0  0  0  0  0  0  0
   -8.6414   26.2562  -21.1993 C   0  0  0  0  0  0  0  0  0  0  0  0
   -7.2652   26.0391  -21.4488 O   0  0  0  0  0  0  0  0  0  0  0  0
   -3.4126   22.4426  -17.7514 C   0  0  0  0  0  0  0  0  0  0  0  0
   -3.2768   23.6313  -17.3792 O   0  0  0  0  0  0  0  0  0  0  0  0
   -2.4482   22.0596  -18.7503 N   0  0  0  0  0  0  0  0  0  0  0  0
   -2.4573   21.1156  -19.1411 H   0  0  0  0  0  0  0  0  0  0  0  0
   -1.4444   22.9691  -19.2448 C   0  0  0  0  0  0  0  0  0  0  0  0
   -1.4733   23.0487  -20.7444 C   0  0  0  0  0  0  0  0  0  0  0  0
   -0.0804   22.5052  -18.7372 C   0  0  0  0  0  0  0  0  0  0  0  0
 29 30  1  0  0  0
 30 19  1  0  0  0
 19 20  1  0  0  0
 20 21  2  0  0  0
 21 22  1  0  0  0
 21 23  1  0  0  0
 23 24  2  0  0  0
 24 25  1  0  0  0
 25 26  2  0  0  0
 26 27  1  0  0  0
 27 28  1  0  0  0
 26  1  1  0  0  0
  1  2  2  0  0  0
  2  3  1  0  0  0
  3  4  1  0  0  0
  4  5  1  0  0  0
  5  6  1  0  0  0
  6  7  1  0  0  0
  7  8  1  0  0  0
  8  9  1  0  0  0
  7 10  1  0  0  0
 10 11  2  0  0  0
 11 12  1  0  0  0
 12 13  2  0  0  0
 13 14  1  0  0  0
 14 15  1  0  0  0
 14 16  2  0  0  0
  2 31  1  0  0  0
 31 32  2  0  0  0
 31 33  1  0  0  0
 33 35  1  0  0  0
 35 36  1  0  0  0
 35 37  1  0  0  0
 28 19  2  0  0  0
 16  1  1  0  0  0
 28 24  1  0  0  0
  9  4  1  0  0  0
 16 10  1  0  0  0
 15 17  1  0  0  0
 15 18  1  0  0  0
 33 34  1  0  0  0
M  END
> <minimizedAffinity>
-5.43544

> <CNNscore>
0.0672366917

> <CNNaffinity>
5.5688505173

> <CNN_VS>
0.3744310737

> <CNNaffinity_variance>
0.2766630054

$$$$
[H]c1nc(N([H])[H])c2c(n1)N1C([H])([H])C([H])([H])N(C([H])([H])C(C(=O)N([H])C([H])(C([H])([H])[H])C([H])([H])[H])=C2c2sc3c(OC([H])([H])[H])c([H])c(C([H])([H])[H])c([H])c3c2[H])C([H])([H])C1([H])[H]


 37 41  0  0  0  0  0  0  0  0999 V2000
   -6.0973   22.5205  -19.6170 C   0  0  0  0  0  0  0  0  0  0  0  0
   -5.1262   22.2542  -20.4471 C   0  0  0  0  0  0  0  0  0  0  0  0
   -5.2230   22.0977  -21.9224 C   0  0  0  0  0  0  0  0  0  0  0  0
   -4.6416   23.1879  -22.6279 N   0  0  0  0  0  0  0  0  0  0  0  0
   -4.5514   24.4517  -21.9514 C   0  0  0  0  0  0  0  0  0  0  0  0
   -5.9200   24.9804  -21.5789 C   0  0  0  0  0  0  0  0  0  0  0  0
   -6.9681   24.0211  -22.0273 N   0  0  0  0  0  0  0  0  0  0  0  0
   -6.7849   23.7021  -23.4532 C   0  0  0  0  0  0  0  0  0  0  0  0
   -5.3316   23.5584  -23.8535 C   0  0  0  0  0  0  0  0  0  0  0  0
   -7.9286   23.5192  -21.1168 C   0  0  0  0  0  0  0  0  0  0  0  0
   -9.3015   23.6785  -21.1948 N   0  0  0  0  0  0  0  0  0  0  0  0
  -10.2181   23.2061  -20.4114 C   0  0  0  0  0  0  0  0  0  0  0  0
   -9.8412   22.4588  -19.3765 N   0  0  0  0  0  0  0  0  0  0  0  0
   -8.5039   22.2337  -19.1965 C   0  0  0  0  0  0  0  0  0  0  0  0
   -8.1793   21.3554  -18.0963 N   0  0  0  0  0  0  0  0  0  0  0  0
   -7.5144   22.7325  -20.0161 C   0  0  0  0  0  0  0  0  0  0  0  0
   -7.7809   20.4068  -18.2824 H   0  0  0  0  0  0  0  0  0  0  0  0
   -8.3611   21.6655  -17.1253 H   0  0  0  0  0  0  0  0  0  0  0  0
   -5.2337   23.6361  -14.3090 C   0  0  0  0  0  0  0  0  0  0  0  0
   -4.6783   22.7962  -13.3726 C   0  0  0  0  0  0  0  0  0  0  0  0
   -4.3012   21.5387  -13.7736 C   0  0  0  0  0  0  0  0  0  0  0  0
   -3.6828   20.5769  -12.7711 C   0  0  0  0  0  0  0  0  0  0  0  0
   -4.4759   21.1402  -15.0678 C   0  0  0  0  0  0  0  0  0  0  0  0
   -5.0371   21.9585  -16.0594 C   0  0  0  0  0  0  0  0  0  0  0  0
   -5.2549   21.6695  -17.3510 C   0  0  0  0  0  0  0  0  0  0  0  0
   -5.8240   22.6409  -18.1342 C   0  0  0  0  0  0  0  0  0  0  0  0
   -6.0352   23.9287  -17.0351 S   0  0  0  0  0  0  0  0  0  0  0  0
   -5.4038   23.2059  -15.6327 C   0  0  0  0  0  0  0  0  0  0  0  0
   -6.9736   25.1074  -13.5428 C   0  0  0  0  0  0  0  0  0  0  0  0
   -5.6412   24.9232  -13.9836 O   0  0  0  0  0  0  0  0  0  0  0  0
   -3.7387   22.1987  -19.9583 C   0  0  0  0  0  0  0  0  0  0  0  0
   -3.0933   23.1790  -19.5197 O   0  0  0  0  0  0  0  0  0  0  0  0
   -2.9762   20.9769  -19.9366 N   0  0  0  0  0  0  0  0  0  0  0  0
   -3.3884   20.1055  -20.2751 H   0  0  0  0  0  0  0  0  0  0  0  0
   -1.6192   20.9209  -19.4521 C   0  0  0  0  0  0  0  0  0  0  0  0
   -0.6483   20.7009  -20.5767 C   0  0  0  0  0  0  0  0  0  0  0  0
   -1.5248   19.8094  -18.4084 C   0  0  0  0  0  0  0  0  0  0  0  0
 29 30  1  0  0  0
 30 19  1  0  0  0
 19 20  1  0  0  0
 20 21  2  0  0  0
 21 22  1  0  0  0
 21 23  1  0  0  0
 23 24  2  0  0  0
 24 25  1  0  0  0
 25 26  2  0  0  0
 26 27  1  0  0  0
 27 28  1  0  0  0
 26  1  1  0  0  0
  1  2  2  0  0  0
  2  3  1  0  0  0
  3  4  1  0  0  0
  4  5  1  0  0  0
  5  6  1  0  0  0
  6  7  1  0  0  0
  7  8  1  0  0  0
  8  9  1  0  0  0
  7 10  1  0  0  0
 10 11  2  0  0  0
 11 12  1  0  0  0
 12 13  2  0  0  0
 13 14  1  0  0  0
 14 15  1  0  0  0
 14 16  2  0  0  0
  2 31  1  0  0  0
 31 32  2  0  0  0
 31 33  1  0  0  0
 33 35  1  0  0  0
 35 36  1  0  0  0
 35 37  1  0  0  0
 28 19  2  0  0  0
 16  1  1  0  0  0
 28 24  1  0  0  0
  9  4  1  0  0  0
 16 10  1  0  0  0
 15 17  1  0  0  0
 15 18  1  0  0  0
 33 34  1  0  0  0
M  END
> <minimizedAffinity>
-5.59699

> <CNNscore>
0.0463297516

> <CNNaffinity>
5.5444850922

> <CNN_VS>
0.2568746209

> <CNNaffinity_variance>
0.1407580525

$$$$
[H]c1c(OC([H])([H])[H])c([H])c(C([H])([H])[H])c([H])c1C(=O)N1C([H])([H])C([H])([H])N(C([H])([H])C2=C(OC([H])([H])[H])C(OC([H])([H])[H])=C2c2sc3c(OC([H])([H])[H])c([H])c(C([H])([H])[H])c([H])c3c2[H])C([H])([H])C1([H])[H]


 38 42  0  0  0  0  0  0  0  0999 V2000
   -0.9690   21.0481  -21.0047 C   0  0  0  0  0  0  0  0  0  0  0  0
   -1.5194   21.4703  -19.6925 C   0  0  0  0  0  0  0  0  0  0  0  0
   -0.6836   20.6795  -19.1021 C   0  0  0  0  0  0  0  0  0  0  0  0
   -0.1370   20.2633  -20.3837 C   0  0  0  0  0  0  0  0  0  0  0  0
   -2.8280   22.2769  -25.9883 C   0  0  0  0  0  0  0  0  0  0  0  0
   -2.0669   22.5640  -27.1183 C   0  0  0  0  0  0  0  0  0  0  0  0
   -0.7008   22.5264  -26.9530 C   0  0  0  0  0  0  0  0  0  0  0  0
    0.1140   22.8420  -28.1789 C   0  0  0  0  0  0  0  0  0  0  0  0
   -0.0780   22.2343  -25.7839 C   0  0  0  0  0  0  0  0  0  0  0  0
   -0.8371   21.9409  -24.6287 C   0  0  0  0  0  0  0  0  0  0  0  0
   -0.3522   21.6403  -23.4000 C   0  0  0  0  0  0  0  0  0  0  0  0
   -1.2632   21.3956  -22.4130 C   0  0  0  0  0  0  0  0  0  0  0  0
   -2.7530   21.5835  -23.1970 S   0  0  0  0  0  0  0  0  0  0  0  0
   -2.1973   21.9705  -24.7665 C   0  0  0  0  0  0  0  0  0  0  0  0
   -4.8790   23.5226  -25.8154 C   0  0  0  0  0  0  0  0  0  0  0  0
   -4.2078   22.2686  -25.9728 O   0  0  0  0  0  0  0  0  0  0  0  0
   -0.3149   20.2712  -17.8294 O   0  0  0  0  0  0  0  0  0  0  0  0
    0.9240   20.4394  -17.2228 C   0  0  0  0  0  0  0  0  0  0  0  0
    0.8661   19.3883  -20.8296 O   0  0  0  0  0  0  0  0  0  0  0  0
    2.2289   19.8640  -20.8686 C   0  0  0  0  0  0  0  0  0  0  0  0
   -2.5928   22.4230  -19.4242 C   0  0  0  0  0  0  0  0  0  0  0  0
   -3.6950   22.0584  -18.6692 N   0  0  0  0  0  0  0  0  0  0  0  0
   -4.1725   20.7036  -18.9996 C   0  0  0  0  0  0  0  0  0  0  0  0
   -5.1811   20.9282  -20.1366 C   0  0  0  0  0  0  0  0  0  0  0  0
   -6.3352   21.6200  -19.5269 N   0  0  0  0  0  0  0  0  0  0  0  0
   -6.1162   22.1809  -18.2432 C   0  0  0  0  0  0  0  0  0  0  0  0
   -4.7276   22.9213  -18.3182 C   0  0  0  0  0  0  0  0  0  0  0  0
   -7.5032   21.7532  -20.2724 C   0  0  0  0  0  0  0  0  0  0  0  0
   -7.4439   21.3388  -21.5116 O   0  0  0  0  0  0  0  0  0  0  0  0
   -8.7929   22.2827  -19.9100 C   0  0  0  0  0  0  0  0  0  0  0  0
   -9.3902   23.3122  -20.5832 C   0  0  0  0  0  0  0  0  0  0  0  0
  -10.6860   23.7307  -20.2831 C   0  0  0  0  0  0  0  0  0  0  0  0
  -11.2742   24.8450  -21.0437 C   0  0  0  0  0  0  0  0  0  0  0  0
  -11.3788   23.1036  -19.2947 C   0  0  0  0  0  0  0  0  0  0  0  0
  -10.7838   22.0687  -18.6122 C   0  0  0  0  0  0  0  0  0  0  0  0
   -9.5081   21.6339  -18.8856 C   0  0  0  0  0  0  0  0  0  0  0  0
  -11.5331   21.4445  -17.5978 O   0  0  0  0  0  0  0  0  0  0  0  0
  -11.1115   20.2516  -16.9889 C   0  0  0  0  0  0  0  0  0  0  0  0
 15 16  1  0  0  0
 16  5  1  0  0  0
  5  6  2  0  0  0
  6  7  1  0  0  0
  7  8  1  0  0  0
  7  9  2  0  0  0
  9 10  1  0  0  0
 10 11  1  0  0  0
 11 12  2  0  0  0
 12 13  1  0  0  0
 13 14  1  0  0  0
 12  1  1  0  0  0
  1  2  1  0  0  0
  2 21  1  0  0  0
 21 22  1  0  0  0
 22 23  1  0  0  0
 23 24  1  0  0  0
 24 25  1  0  0  0
 25 26  1  0  0  0
 26 27  1  0  0  0
 25 28  1  0  0  0
 28 29  2  0  0  0
 28 30  1  0  0  0
 30 31  2  0  0  0
 31 32  1  0  0  0
 32 33  1  0  0  0
 32 34  2  0  0  0
 34 35  1  0  0  0
 35 37  1  0  0  0
 37 38  1  0  0  0
 35 36  2  0  0  0
  2  3  2  0  0  0
  3 17  1  0  0  0
 17 18  1  0  0  0
  3  4  1  0  0  0
  4 19  1  0  0  0
 19 20  1  0  0  0
 14  5  1  0  0  0
  4  1  2  0  0  0
 14 10  2  0  0  0
 27 22  1  0  0  0
 36 30  1  0  0  0
M  END
> <minimizedAffinity>
-7.90499

> <CNNscore>
0.1891510338

> <CNNaffinity>
5.6575775146

> <CNN_VS>
1.0701366663

> <CNNaffinity_variance>
0.6144573092

$$$$
[H]c1c(OC([H])([H])[H])c([H])c(C([H])([H])[H])c([H])c1C(=O)N1C([H])([H])C([H])([H])N(C([H])([H])C2=C(OC([H])([H])[H])C(OC([H])([H])[H])=C2c2sc3c(OC([H])([H])[H])c([H])c(C([H])([H])[H])c([H])c3c2[H])C([H])([H])C1([H])[H]


 38 42  0  0  0  0  0  0  0  0999 V2000
   -0.2960   21.2968  -21.1536 C   0  0  0  0  0  0  0  0  0  0  0  0
   -0.6516   21.8341  -19.8165 C   0  0  0  0  0  0  0  0  0  0  0  0
    0.1870   21.0106  -19.2769 C   0  0  0  0  0  0  0  0  0  0  0  0
    0.5429   20.4813  -20.5836 C   0  0  0  0  0  0  0  0  0  0  0  0
   -2.6451   22.2890  -25.9805 C   0  0  0  0  0  0  0  0  0  0  0  0
   -2.0018   22.5853  -27.1793 C   0  0  0  0  0  0  0  0  0  0  0  0
   -0.6265   22.6249  -27.1341 C   0  0  0  0  0  0  0  0  0  0  0  0
    0.0603   22.9498  -28.4337 C   0  0  0  0  0  0  0  0  0  0  0  0
    0.1104   22.3982  -26.0181 C   0  0  0  0  0  0  0  0  0  0  0  0
   -0.5283   22.0964  -24.7943 C   0  0  0  0  0  0  0  0  0  0  0  0
    0.0771   21.8556  -23.6066 C   0  0  0  0  0  0  0  0  0  0  0  0
   -0.7299   21.5897  -22.5380 C   0  0  0  0  0  0  0  0  0  0  0  0
   -2.2902   21.6768  -23.1919 S   0  0  0  0  0  0  0  0  0  0  0  0
   -1.8949   22.0499  -24.8124 C   0  0  0  0  0  0  0  0  0  0  0  0
   -4.8102   23.1993  -26.5020 C   0  0  0  0  0  0  0  0  0  0  0  0
   -4.0157   22.2078  -25.8434 O   0  0  0  0  0  0  0  0  0  0  0  0
    0.6737   20.6436  -18.0316 O   0  0  0  0  0  0  0  0  0  0  0  0
    1.6314   21.3111  -17.2776 C   0  0  0  0  0  0  0  0  0  0  0  0
    1.4165   19.5035  -21.0851 O   0  0  0  0  0  0  0  0  0  0  0  0
    1.1851   18.1236  -20.7286 C   0  0  0  0  0  0  0  0  0  0  0  0
   -1.6103   22.8852  -19.4879 C   0  0  0  0  0  0  0  0  0  0  0  0
   -2.9422   22.5857  -19.2553 N   0  0  0  0  0  0  0  0  0  0  0  0
   -3.2856   22.6515  -17.8233 C   0  0  0  0  0  0  0  0  0  0  0  0
   -3.0047   21.2329  -17.3046 C   0  0  0  0  0  0  0  0  0  0  0  0
   -4.0281   20.3637  -17.9206 N   0  0  0  0  0  0  0  0  0  0  0  0
   -4.7371   20.9185  -19.0160 C   0  0  0  0  0  0  0  0  0  0  0  0
   -3.6579   21.6062  -19.9350 C   0  0  0  0  0  0  0  0  0  0  0  0
   -4.1610   19.0578  -17.4570 C   0  0  0  0  0  0  0  0  0  0  0  0
   -3.2810   18.6710  -16.5700 O   0  0  0  0  0  0  0  0  0  0  0  0
   -5.1177   18.0350  -17.7940 C   0  0  0  0  0  0  0  0  0  0  0  0
   -6.3996   18.0296  -17.3180 C   0  0  0  0  0  0  0  0  0  0  0  0
   -7.3376   17.0918  -17.7482 C   0  0  0  0  0  0  0  0  0  0  0  0
   -8.7020   17.1379  -17.1985 C   0  0  0  0  0  0  0  0  0  0  0  0
   -6.9738   16.1542  -18.6640 C   0  0  0  0  0  0  0  0  0  0  0  0
   -5.6859   16.1525  -19.1458 C   0  0  0  0  0  0  0  0  0  0  0  0
   -4.7392   17.0641  -18.7407 C   0  0  0  0  0  0  0  0  0  0  0  0
   -5.3484   15.1678  -20.0926 O   0  0  0  0  0  0  0  0  0  0  0  0
   -6.3263   14.4538  -20.8037 C   0  0  0  0  0  0  0  0  0  0  0  0
 15 16  1  0  0  0
 16  5  1  0  0  0
  5  6  2  0  0  0
  6  7  1  0  0  0
  7  8  1  0  0  0
  7  9  2  0  0  0
  9 10  1  0  0  0
 10 11  1  0  0  0
 11 12  2  0  0  0
 12 13  1  0  0  0
 13 14  1  0  0  0
 12  1  1  0  0  0
  1  2  1  0  0  0
  2 21  1  0  0  0
 21 22  1  0  0  0
 22 23  1  0  0  0
 23 24  1  0  0  0
 24 25  1  0  0  0
 25 26  1  0  0  0
 26 27  1  0  0  0
 25 28  1  0  0  0
 28 29  2  0  0  0
 28 30  1  0  0  0
 30 31  2  0  0  0
 31 32  1  0  0  0
 32 33  1  0  0  0
 32 34  2  0  0  0
 34 35  1  0  0  0
 35 37  1  0  0  0
 37 38  1  0  0  0
 35 36  2  0  0  0
  2  3  2  0  0  0
  3 17  1  0  0  0
 17 18  1  0  0  0
  3  4  1  0  0  0
  4 19  1  0  0  0
 19 20  1  0  0  0
 14  5  1  0  0  0
  4  1  2  0  0  0
 14 10  2  0  0  0
 27 22  1  0  0  0
 36 30  1  0  0  0
M  END
> <minimizedAffinity>
-7.19782

> <CNNscore>
0.1762446165

> <CNNaffinity>
5.6856589317

> <CNN_VS>
1.0020667315

> <CNNaffinity_variance>
0.3687334061

$$$$
[H]c1c(OC([H])([H])[H])c([H])c(C([H])([H])[H])c([H])c1C(=O)N1C([H])([H])C([H])([H])N(C([H])([H])C2=C(OC([H])([H])[H])C(OC([H])([H])[H])=C2c2sc3c(OC([H])([H])[H])c([H])c(C([H])([H])[H])c([H])c3c2[H])C([H])([H])C1([H])[H]


 38 42  0  0  0  0  0  0  0  0999 V2000
   -2.0028   22.4629  -26.1646 C   0  0  0  0  0  0  0  0  0  0  0  0
   -3.4212   22.7939  -26.4505 C   0  0  0  0  0  0  0  0  0  0  0  0
   -3.1172   22.9633  -27.6960 C   0  0  0  0  0  0  0  0  0  0  0  0
   -1.7264   22.6371  -27.4244 C   0  0  0  0  0  0  0  0  0  0  0  0
    0.0692   21.1499  -21.2877 C   0  0  0  0  0  0  0  0  0  0  0  0
    1.3957   20.8418  -20.9973 C   0  0  0  0  0  0  0  0  0  0  0  0
    2.2718   20.8802  -22.0584 C   0  0  0  0  0  0  0  0  0  0  0  0
    3.7029   20.5419  -21.7358 C   0  0  0  0  0  0  0  0  0  0  0  0
    1.9210   21.1917  -23.3311 C   0  0  0  0  0  0  0  0  0  0  0  0
    0.5788   21.5065  -23.6411 C   0  0  0  0  0  0  0  0  0  0  0  0
    0.0871   21.8278  -24.8618 C   0  0  0  0  0  0  0  0  0  0  0  0
   -1.2498   22.0913  -24.9458 C   0  0  0  0  0  0  0  0  0  0  0  0
   -1.7911   21.8920  -23.3531 S   0  0  0  0  0  0  0  0  0  0  0  0
   -0.3120   21.4767  -22.6039 C   0  0  0  0  0  0  0  0  0  0  0  0
   -0.5990   21.5290  -19.0078 C   0  0  0  0  0  0  0  0  0  0  0  0
   -0.9408   21.1606  -20.3477 O   0  0  0  0  0  0  0  0  0  0  0  0
   -3.7075   23.3021  -28.9039 O   0  0  0  0  0  0  0  0  0  0  0  0
   -5.0189   23.0557  -29.2925 C   0  0  0  0  0  0  0  0  0  0  0  0
   -0.5387   22.5348  -28.1658 O   0  0  0  0  0  0  0  0  0  0  0  0
   -0.1214   23.6666  -28.9595 C   0  0  0  0  0  0  0  0  0  0  0  0
   -4.5449   22.8459  -25.5197 C   0  0  0  0  0  0  0  0  0  0  0  0
   -5.2279   24.0294  -25.2947 N   0  0  0  0  0  0  0  0  0  0  0  0
   -4.4939   24.9323  -24.3899 C   0  0  0  0  0  0  0  0  0  0  0  0
   -4.9767   24.5318  -22.9874 C   0  0  0  0  0  0  0  0  0  0  0  0
   -6.3910   24.9512  -22.9082 N   0  0  0  0  0  0  0  0  0  0  0  0
   -7.0154   25.2675  -24.1412 C   0  0  0  0  0  0  0  0  0  0  0  0
   -6.6073   24.1248  -25.1462 C   0  0  0  0  0  0  0  0  0  0  0  0
   -7.0279   24.9197  -21.6707 C   0  0  0  0  0  0  0  0  0  0  0  0
   -6.3377   24.4120  -20.6825 O   0  0  0  0  0  0  0  0  0  0  0  0
   -8.3447   25.3549  -21.2815 C   0  0  0  0  0  0  0  0  0  0  0  0
   -9.4142   24.5069  -21.1988 C   0  0  0  0  0  0  0  0  0  0  0  0
  -10.6501   24.9306  -20.7117 C   0  0  0  0  0  0  0  0  0  0  0  0
  -11.7634   23.9701  -20.6474 C   0  0  0  0  0  0  0  0  0  0  0  0
  -10.8028   26.2205  -20.3080 C   0  0  0  0  0  0  0  0  0  0  0  0
   -9.7321   27.0794  -20.3898 C   0  0  0  0  0  0  0  0  0  0  0  0
   -8.5017   26.6907  -20.8655 C   0  0  0  0  0  0  0  0  0  0  0  0
   -9.9293   28.4052  -19.9614 O   0  0  0  0  0  0  0  0  0  0  0  0
  -10.8136   29.2754  -20.6190 C   0  0  0  0  0  0  0  0  0  0  0  0
 15 16  1  0  0  0
 16  5  1  0  0  0
  5  6  2  0  0  0
  6  7  1  0  0  0
  7  8  1  0  0  0
  7  9  2  0  0  0
  9 10  1  0  0  0
 10 11  1  0  0  0
 11 12  2  0  0  0
 12 13  1  0  0  0
 13 14  1  0  0  0
 12  1  1  0  0  0
  1  2  1  0  0  0
  2 21  1  0  0  0
 21 22  1  0  0  0
 22 23  1  0  0  0
 23 24  1  0  0  0
 24 25  1  0  0  0
 25 26  1  0  0  0
 26 27  1  0  0  0
 25 28  1  0  0  0
 28 29  2  0  0  0
 28 30  1  0  0  0
 30 31  2  0  0  0
 31 32  1  0  0  0
 32 33  1  0  0  0
 32 34  2  0  0  0
 34 35  1  0  0  0
 35 37  1  0  0  0
 37 38  1  0  0  0
 35 36  2  0  0  0
  2  3  2  0  0  0
  3 17  1  0  0  0
 17 18  1  0  0  0
  3  4  1  0  0  0
  4 19  1  0  0  0
 19 20  1  0  0  0
 14  5  1  0  0  0
  4  1  2  0  0  0
 14 10  2  0  0  0
 27 22  1  0  0  0
 36 30  1  0  0  0
M  END
> <minimizedAffinity>
-8.75851

> <CNNscore>
0.1609878540

> <CNNaffinity>
6.4581856728

> <CNN_VS>
1.0396894217

> <CNNaffinity_variance>
0.3028335869

$$$$
[H]c1c(OC([H])([H])[H])c([H])c(C([H])([H])[H])c([H])c1C(=O)N1C([H])([H])C([H])([H])N(C([H])([H])C2=C(OC([H])([H])[H])C(OC([H])([H])[H])=C2c2sc3c(OC([H])([H])[H])c([H])c(C([H])([H])[H])c([H])c3c2[H])C([H])([H])C1([H])[H]


 38 42  0  0  0  0  0  0  0  0999 V2000
   -0.4967   21.2000  -21.5579 C   0  0  0  0  0  0  0  0  0  0  0  0
   -1.0731   21.3997  -20.2048 C   0  0  0  0  0  0  0  0  0  0  0  0
   -0.0561   20.7848  -19.6949 C   0  0  0  0  0  0  0  0  0  0  0  0
    0.5165   20.5879  -21.0169 C   0  0  0  0  0  0  0  0  0  0  0  0
   -2.8106   22.4456  -26.3429 C   0  0  0  0  0  0  0  0  0  0  0  0
   -2.1578   22.7806  -27.5262 C   0  0  0  0  0  0  0  0  0  0  0  0
   -0.7822   22.7910  -27.4762 C   0  0  0  0  0  0  0  0  0  0  0  0
   -0.0851   23.1581  -28.7590 C   0  0  0  0  0  0  0  0  0  0  0  0
   -0.0534   22.5019  -26.3693 C   0  0  0  0  0  0  0  0  0  0  0  0
   -0.7017   22.1603  -25.1612 C   0  0  0  0  0  0  0  0  0  0  0  0
   -0.1049   21.8565  -23.9836 C   0  0  0  0  0  0  0  0  0  0  0  0
   -0.9204   21.5608  -22.9293 C   0  0  0  0  0  0  0  0  0  0  0  0
   -2.4766   21.7068  -23.5824 S   0  0  0  0  0  0  0  0  0  0  0  0
   -2.0689   22.1415  -25.1844 C   0  0  0  0  0  0  0  0  0  0  0  0
   -4.8903   23.6187  -26.0478 C   0  0  0  0  0  0  0  0  0  0  0  0
   -4.1830   22.3856  -26.2126 O   0  0  0  0  0  0  0  0  0  0  0  0
    0.4482   20.3905  -18.4650 O   0  0  0  0  0  0  0  0  0  0  0  0
    1.5274   20.9443  -17.7867 C   0  0  0  0  0  0  0  0  0  0  0  0
    1.6722   19.9961  -21.5507 O   0  0  0  0  0  0  0  0  0  0  0  0
    2.9221   20.7123  -21.4527 C   0  0  0  0  0  0  0  0  0  0  0  0
   -2.3222   22.0624  -19.8406 C   0  0  0  0  0  0  0  0  0  0  0  0
   -3.2020   21.4787  -18.9446 N   0  0  0  0  0  0  0  0  0  0  0  0
   -4.5795   21.4322  -19.4673 C   0  0  0  0  0  0  0  0  0  0  0  0
   -5.1975   22.7641  -19.0151 C   0  0  0  0  0  0  0  0  0  0  0  0
   -5.3252   22.6761  -17.5460 N   0  0  0  0  0  0  0  0  0  0  0  0
   -4.5924   21.6364  -16.9196 C   0  0  0  0  0  0  0  0  0  0  0  0
   -3.1561   21.6598  -17.5666 C   0  0  0  0  0  0  0  0  0  0  0  0
   -6.0632   23.6513  -16.8809 C   0  0  0  0  0  0  0  0  0  0  0  0
   -6.5019   24.6403  -17.6159 O   0  0  0  0  0  0  0  0  0  0  0  0
   -6.4329   23.7651  -15.4933 C   0  0  0  0  0  0  0  0  0  0  0  0
   -6.0669   24.8250  -14.7106 C   0  0  0  0  0  0  0  0  0  0  0  0
   -6.5316   24.9662  -13.4035 C   0  0  0  0  0  0  0  0  0  0  0  0
   -6.1016   26.1296  -12.6112 C   0  0  0  0  0  0  0  0  0  0  0  0
   -7.3698   24.0277  -12.8871 C   0  0  0  0  0  0  0  0  0  0  0  0
   -7.7406   22.9582  -13.6678 C   0  0  0  0  0  0  0  0  0  0  0  0
   -7.2990   22.7920  -14.9595 C   0  0  0  0  0  0  0  0  0  0  0  0
   -8.6098   22.0094  -13.0983 O   0  0  0  0  0  0  0  0  0  0  0  0
   -8.9883   20.8428  -13.7821 C   0  0  0  0  0  0  0  0  0  0  0  0
 15 16  1  0  0  0
 16  5  1  0  0  0
  5  6  2  0  0  0
  6  7  1  0  0  0
  7  8  1  0  0  0
  7  9  2  0  0  0
  9 10  1  0  0  0
 10 11  1  0  0  0
 11 12  2  0  0  0
 12 13  1  0  0  0
 13 14  1  0  0  0
 12  1  1  0  0  0
  1  2  1  0  0  0
  2 21  1  0  0  0
 21 22  1  0  0  0
 22 23  1  0  0  0
 23 24  1  0  0  0
 24 25  1  0  0  0
 25 26  1  0  0  0
 26 27  1  0  0  0
 25 28  1  0  0  0
 28 29  2  0  0  0
 28 30  1  0  0  0
 30 31  2  0  0  0
 31 32  1  0  0  0
 32 33  1  0  0  0
 32 34  2  0  0  0
 34 35  1  0  0  0
 35 37  1  0  0  0
 37 38  1  0  0  0
 35 36  2  0  0  0
  2  3  2  0  0  0
  3 17  1  0  0  0
 17 18  1  0  0  0
  3  4  1  0  0  0
  4 19  1  0  0  0
 19 20  1  0  0  0
 14  5  1  0  0  0
  4  1  2  0  0  0
 14 10  2  0  0  0
 27 22  1  0  0  0
 36 30  1  0  0  0
M  END
> <minimizedAffinity>
-7.44209

> <CNNscore>
0.1511265635

> <CNNaffinity>
5.6375761032

> <CNN_VS>
0.8519874811

> <CNNaffinity_variance>
0.2065000236

$$$$
[H]c1c(OC([H])([H])[H])c([H])c(C([H])([H])[H])c([H])c1C(=O)N1C([H])([H])C([H])([H])N(C([H])([H])C2=C(OC([H])([H])[H])C(OC([H])([H])[H])=C2c2sc3c(OC([H])([H])[H])c([H])c(C([H])([H])[H])c([H])c3c2[H])C([H])([H])C1([H])[H]


 38 42  0  0  0  0  0  0  0  0999 V2000
   -2.7069   23.1711  -26.0963 C   0  0  0  0  0  0  0  0  0  0  0  0
   -3.9612   23.8572  -26.4952 C   0  0  0  0  0  0  0  0  0  0  0  0
   -3.6461   23.6831  -27.7373 C   0  0  0  0  0  0  0  0  0  0  0  0
   -2.4169   23.0072  -27.3544 C   0  0  0  0  0  0  0  0  0  0  0  0
    0.0683   21.4031  -21.7403 C   0  0  0  0  0  0  0  0  0  0  0  0
   -0.0954   21.8143  -20.4202 C   0  0  0  0  0  0  0  0  0  0  0  0
   -1.0666   22.7643  -20.1986 C   0  0  0  0  0  0  0  0  0  0  0  0
   -1.2339   23.2057  -18.7690 C   0  0  0  0  0  0  0  0  0  0  0  0
   -1.8465   23.3037  -21.1684 C   0  0  0  0  0  0  0  0  0  0  0  0
   -1.6919   22.8965  -22.5126 C   0  0  0  0  0  0  0  0  0  0  0  0
   -2.3924   23.3520  -23.5790 C   0  0  0  0  0  0  0  0  0  0  0  0
   -2.0787   22.8292  -24.8005 C   0  0  0  0  0  0  0  0  0  0  0  0
   -0.8369   21.7311  -24.4515 S   0  0  0  0  0  0  0  0  0  0  0  0
   -0.7340   21.9523  -22.7597 C   0  0  0  0  0  0  0  0  0  0  0  0
    2.3607   20.8697  -22.2389 C   0  0  0  0  0  0  0  0  0  0  0  0
    0.9927   20.4610  -22.1429 O   0  0  0  0  0  0  0  0  0  0  0  0
   -4.1294   23.9468  -29.0098 O   0  0  0  0  0  0  0  0  0  0  0  0
   -4.3000   25.1942  -29.5981 C   0  0  0  0  0  0  0  0  0  0  0  0
   -1.3336   22.4073  -28.0156 O   0  0  0  0  0  0  0  0  0  0  0  0
   -0.0525   23.0728  -27.9849 C   0  0  0  0  0  0  0  0  0  0  0  0
   -4.9951   24.4270  -25.6360 C   0  0  0  0  0  0  0  0  0  0  0  0
   -5.8795   23.6111  -24.9504 N   0  0  0  0  0  0  0  0  0  0  0  0
   -6.7598   24.3773  -24.0499 C   0  0  0  0  0  0  0  0  0  0  0  0
   -5.9821   24.4366  -22.7262 C   0  0  0  0  0  0  0  0  0  0  0  0
   -5.9730   23.0575  -22.1967 N   0  0  0  0  0  0  0  0  0  0  0  0
   -6.3342   22.0376  -23.1131 C   0  0  0  0  0  0  0  0  0  0  0  0
   -5.5615   22.3536  -24.4492 C   0  0  0  0  0  0  0  0  0  0  0  0
   -5.5320   22.8462  -20.8933 C   0  0  0  0  0  0  0  0  0  0  0  0
   -5.0552   23.8935  -20.2716 O   0  0  0  0  0  0  0  0  0  0  0  0
   -5.5056   21.6481  -20.0941 C   0  0  0  0  0  0  0  0  0  0  0  0
   -4.3711   21.1826  -19.4889 C   0  0  0  0  0  0  0  0  0  0  0  0
   -4.3960   20.0846  -18.6297 C   0  0  0  0  0  0  0  0  0  0  0  0
   -3.1411   19.6312  -18.0087 C   0  0  0  0  0  0  0  0  0  0  0  0
   -5.5763   19.4548  -18.3842 C   0  0  0  0  0  0  0  0  0  0  0  0
   -6.7209   19.9163  -18.9906 C   0  0  0  0  0  0  0  0  0  0  0  0
   -6.7276   20.9961  -19.8422 C   0  0  0  0  0  0  0  0  0  0  0  0
   -7.9221   19.2390  -18.7105 O   0  0  0  0  0  0  0  0  0  0  0  0
   -8.4457   19.1605  -17.4100 C   0  0  0  0  0  0  0  0  0  0  0  0
 15 16  1  0  0  0
 16  5  1  0  0  0
  5  6  2  0  0  0
  6  7  1  0  0  0
  7  8  1  0  0  0
  7  9  2  0  0  0
  9 10  1  0  0  0
 10 11  1  0  0  0
 11 12  2  0  0  0
 12 13  1  0  0  0
 13 14  1  0  0  0
 12  1  1  0  0  0
  1  2  1  0  0  0
  2 21  1  0  0  0
 21 22  1  0  0  0
 22 23  1  0  0  0
 23 24  1  0  0  0
 24 25  1  0  0  0
 25 26  1  0  0  0
 26 27  1  0  0  0
 25 28  1  0  0  0
 28 29  2  0  0  0
 28 30  1  0  0  0
 30 31  2  0  0  0
 31 32  1  0  0  0
 32 33  1  0  0  0
 32 34  2  0  0  0
 34 35  1  0  0  0
 35 37  1  0  0  0
 37 38  1  0  0  0
 35 36  2  0  0  0
  2  3  2  0  0  0
  3 17  1  0  0  0
 17 18  1  0  0  0
  3  4  1  0  0  0
  4 19  1  0  0  0
 19 20  1  0  0  0
 14  5  1  0  0  0
  4  1  2  0  0  0
 14 10  2  0  0  0
 27 22  1  0  0  0
 36 30  1  0  0  0
M  END
> <minimizedAffinity>
-7.81277

> <CNNscore>
0.1309373379

> <CNNaffinity>
6.7156448364

> <CNN_VS>
0.8793286681

> <CNNaffinity_variance>
0.1881246567

$$$$
[H]c1c(OC([H])([H])[H])c([H])c(C([H])([H])[H])c([H])c1C(=O)N1C([H])([H])C([H])([H])N(C([H])([H])C2=C(OC([H])([H])[H])C(OC([H])([H])[H])=C2c2sc3c(OC([H])([H])[H])c([H])c(C([H])([H])[H])c([H])c3c2[H])C([H])([H])C1([H])[H]


 38 42  0  0  0  0  0  0  0  0999 V2000
   -0.7313   21.0795  -21.2387 C   0  0  0  0  0  0  0  0  0  0  0  0
   -1.3110   21.3690  -19.9033 C   0  0  0  0  0  0  0  0  0  0  0  0
   -0.3594   20.6853  -19.3562 C   0  0  0  0  0  0  0  0  0  0  0  0
    0.2163   20.3999  -20.6607 C   0  0  0  0  0  0  0  0  0  0  0  0
   -2.8504   22.3128  -26.1162 C   0  0  0  0  0  0  0  0  0  0  0  0
   -2.1500   22.6260  -27.2781 C   0  0  0  0  0  0  0  0  0  0  0  0
   -0.7771   22.6159  -27.1781 C   0  0  0  0  0  0  0  0  0  0  0  0
   -0.0283   22.9595  -28.4380 C   0  0  0  0  0  0  0  0  0  0  0  0
   -0.0935   22.3267  -26.0427 C   0  0  0  0  0  0  0  0  0  0  0  0
   -0.7905   22.0070  -24.8559 C   0  0  0  0  0  0  0  0  0  0  0  0
   -0.2416   21.7059  -23.6545 C   0  0  0  0  0  0  0  0  0  0  0  0
   -1.0993   21.4332  -22.6279 C   0  0  0  0  0  0  0  0  0  0  0  0
   -2.6283   21.5964  -23.3386 S   0  0  0  0  0  0  0  0  0  0  0  0
   -2.1561   22.0090  -24.9287 C   0  0  0  0  0  0  0  0  0  0  0  0
   -4.9222   23.5219  -25.9310 C   0  0  0  0  0  0  0  0  0  0  0  0
   -4.2274   22.2752  -26.0353 O   0  0  0  0  0  0  0  0  0  0  0  0
    0.0884   20.2872  -18.1059 O   0  0  0  0  0  0  0  0  0  0  0  0
    0.1632   18.9879  -17.6186 C   0  0  0  0  0  0  0  0  0  0  0  0
    1.3256   19.6954  -21.1546 O   0  0  0  0  0  0  0  0  0  0  0  0
    2.5757   20.4004  -21.3128 C   0  0  0  0  0  0  0  0  0  0  0  0
   -2.5044   22.1469  -19.5828 C   0  0  0  0  0  0  0  0  0  0  0  0
   -3.7694   21.6532  -19.8546 N   0  0  0  0  0  0  0  0  0  0  0  0
   -4.6582   22.6824  -20.4232 C   0  0  0  0  0  0  0  0  0  0  0  0
   -5.3119   23.3337  -19.1948 C   0  0  0  0  0  0  0  0  0  0  0  0
   -6.2061   22.3092  -18.6177 N   0  0  0  0  0  0  0  0  0  0  0  0
   -6.0040   20.9812  -19.0714 C   0  0  0  0  0  0  0  0  0  0  0  0
   -4.4469   20.7422  -19.0516 C   0  0  0  0  0  0  0  0  0  0  0  0
   -7.1028   22.6899  -17.6233 C   0  0  0  0  0  0  0  0  0  0  0  0
   -7.0032   23.9243  -17.2022 O   0  0  0  0  0  0  0  0  0  0  0  0
   -8.1415   21.9439  -16.9604 C   0  0  0  0  0  0  0  0  0  0  0  0
   -9.4305   21.8986  -17.4148 C   0  0  0  0  0  0  0  0  0  0  0  0
  -10.3895   21.0798  -16.8197 C   0  0  0  0  0  0  0  0  0  0  0  0
  -11.7605   21.0750  -17.3548 C   0  0  0  0  0  0  0  0  0  0  0  0
  -10.0405   20.3046  -15.7579 C   0  0  0  0  0  0  0  0  0  0  0  0
   -8.7465   20.3464  -15.2944 C   0  0  0  0  0  0  0  0  0  0  0  0
   -7.7793   21.1434  -15.8604 C   0  0  0  0  0  0  0  0  0  0  0  0
   -8.4242   19.5291  -14.1952 O   0  0  0  0  0  0  0  0  0  0  0  0
   -7.1421   19.5247  -13.6224 C   0  0  0  0  0  0  0  0  0  0  0  0
 15 16  1  0  0  0
 16  5  1  0  0  0
  5  6  2  0  0  0
  6  7  1  0  0  0
  7  8  1  0  0  0
  7  9  2  0  0  0
  9 10  1  0  0  0
 10 11  1  0  0  0
 11 12  2  0  0  0
 12 13  1  0  0  0
 13 14  1  0  0  0
 12  1  1  0  0  0
  1  2  1  0  0  0
  2 21  1  0  0  0
 21 22  1  0  0  0
 22 23  1  0  0  0
 23 24  1  0  0  0
 24 25  1  0  0  0
 25 26  1  0  0  0
 26 27  1  0  0  0
 25 28  1  0  0  0
 28 29  2  0  0  0
 28 30  1  0  0  0
 30 31  2  0  0  0
 31 32  1  0  0  0
 32 33  1  0  0  0
 32 34  2  0  0  0
 34 35  1  0  0  0
 35 37  1  0  0  0
 37 38  1  0  0  0
 35 36  2  0  0  0
  2  3  2  0  0  0
  3 17  1  0  0  0
 17 18  1  0  0  0
  3  4  1  0  0  0
  4 19  1  0  0  0
 19 20  1  0  0  0
 14  5  1  0  0  0
  4  1  2  0  0  0
 14 10  2  0  0  0
 27 22  1  0  0  0
 36 30  1  0  0  0
M  END
> <minimizedAffinity>
-7.29937

> <CNNscore>
0.1187208965

> <CNNaffinity>
5.5755896568

> <CNN_VS>
0.6619390249

> <CNNaffinity_variance>
0.2411203086

$$$$
[H]c1c(OC([H])([H])[H])c([H])c(C([H])([H])[H])c([H])c1C(=O)N1C([H])([H])C([H])([H])N(C([H])([H])C2=C(OC([H])([H])[H])C(OC([H])([H])[H])=C2c2sc3c(OC([H])([H])[H])c([H])c(C([H])([H])[H])c([H])c3c2[H])C([H])([H])C1([H])[H]


 38 42  0  0  0  0  0  0  0  0999 V2000
   -2.5448   23.1047  -25.4608 C   0  0  0  0  0  0  0  0  0  0  0  0
   -3.7017   23.9223  -25.9038 C   0  0  0  0  0  0  0  0  0  0  0  0
   -3.4535   23.5869  -27.1279 C   0  0  0  0  0  0  0  0  0  0  0  0
   -2.3205   22.7814  -26.7014 C   0  0  0  0  0  0  0  0  0  0  0  0
   -0.8093   22.5112  -20.3191 C   0  0  0  0  0  0  0  0  0  0  0  0
    0.2132   21.6787  -19.8716 C   0  0  0  0  0  0  0  0  0  0  0  0
    0.8526   20.9337  -20.8366 C   0  0  0  0  0  0  0  0  0  0  0  0
    1.9539   20.0337  -20.3432 C   0  0  0  0  0  0  0  0  0  0  0  0
    0.5473   20.9669  -22.1578 C   0  0  0  0  0  0  0  0  0  0  0  0
   -0.4878   21.8067  -22.6268 C   0  0  0  0  0  0  0  0  0  0  0  0
   -0.9027   21.9357  -23.9099 C   0  0  0  0  0  0  0  0  0  0  0  0
   -1.9307   22.8017  -24.1487 C   0  0  0  0  0  0  0  0  0  0  0  0
   -2.2961   23.4123  -22.6114 S   0  0  0  0  0  0  0  0  0  0  0  0
   -1.1385   22.5586  -21.6880 C   0  0  0  0  0  0  0  0  0  0  0  0
   -2.1694   22.7279  -18.3464 C   0  0  0  0  0  0  0  0  0  0  0  0
   -1.5544   23.3262  -19.4917 O   0  0  0  0  0  0  0  0  0  0  0  0
   -3.9345   23.7944  -28.4116 O   0  0  0  0  0  0  0  0  0  0  0  0
   -5.1058   23.2846  -28.9588 C   0  0  0  0  0  0  0  0  0  0  0  0
   -1.3539   21.9719  -27.3187 O   0  0  0  0  0  0  0  0  0  0  0  0
   -0.0418   22.5250  -27.5580 C   0  0  0  0  0  0  0  0  0  0  0  0
   -4.6174   24.7141  -25.0874 C   0  0  0  0  0  0  0  0  0  0  0  0
   -5.7366   24.1370  -24.5111 N   0  0  0  0  0  0  0  0  0  0  0  0
   -6.4361   25.0643  -23.6036 C   0  0  0  0  0  0  0  0  0  0  0  0
   -5.7670   24.8312  -22.2404 C   0  0  0  0  0  0  0  0  0  0  0  0
   -6.1712   23.4756  -21.8145 N   0  0  0  0  0  0  0  0  0  0  0  0
   -6.7311   22.6490  -22.8213 C   0  0  0  0  0  0  0  0  0  0  0  0
   -5.8094   22.8142  -24.0883 C   0  0  0  0  0  0  0  0  0  0  0  0
   -5.8975   23.0770  -20.5091 C   0  0  0  0  0  0  0  0  0  0  0  0
   -5.1985   23.9146  -19.7876 O   0  0  0  0  0  0  0  0  0  0  0  0
   -6.2548   21.8750  -19.8003 C   0  0  0  0  0  0  0  0  0  0  0  0
   -5.3427   20.9171  -19.4532 C   0  0  0  0  0  0  0  0  0  0  0  0
   -5.6949   19.8186  -18.6700 C   0  0  0  0  0  0  0  0  0  0  0  0
   -4.6675   18.8211  -18.3300 C   0  0  0  0  0  0  0  0  0  0  0  0
   -6.9782   19.6897  -18.2381 C   0  0  0  0  0  0  0  0  0  0  0  0
   -7.9013   20.6482  -18.5846 C   0  0  0  0  0  0  0  0  0  0  0  0
   -7.5838   21.7420  -19.3553 C   0  0  0  0  0  0  0  0  0  0  0  0
   -9.2180   20.4802  -18.1175 O   0  0  0  0  0  0  0  0  0  0  0  0
  -10.2178   21.4381  -18.3509 C   0  0  0  0  0  0  0  0  0  0  0  0
 15 16  1  0  0  0
 16  5  1  0  0  0
  5  6  2  0  0  0
  6  7  1  0  0  0
  7  8  1  0  0  0
  7  9  2  0  0  0
  9 10  1  0  0  0
 10 11  1  0  0  0
 11 12  2  0  0  0
 12 13  1  0  0  0
 13 14  1  0  0  0
 12  1  1  0  0  0
  1  2  1  0  0  0
  2 21  1  0  0  0
 21 22  1  0  0  0
 22 23  1  0  0  0
 23 24  1  0  0  0
 24 25  1  0  0  0
 25 26  1  0  0  0
 26 27  1  0  0  0
 25 28  1  0  0  0
 28 29  2  0  0  0
 28 30  1  0  0  0
 30 31  2  0  0  0
 31 32  1  0  0  0
 32 33  1  0  0  0
 32 34  2  0  0  0
 34 35  1  0  0  0
 35 37  1  0  0  0
 37 38  1  0  0  0
 35 36  2  0  0  0
  2  3  2  0  0  0
  3 17  1  0  0  0
 17 18  1  0  0  0
  3  4  1  0  0  0
  4 19  1  0  0  0
 19 20  1  0  0  0
 14  5  1  0  0  0
  4  1  2  0  0  0
 14 10  2  0  0  0
 27 22  1  0  0  0
 36 30  1  0  0  0
M  END
> <minimizedAffinity>
-7.92909

> <CNNscore>
0.1168914810

> <CNNaffinity>
6.3379373550

> <CNN_VS>
0.7408508658

> <CNNaffinity_variance>
0.4457560480

$$$$
[H]c1c(OC([H])([H])[H])c([H])c(C([H])([H])[H])c([H])c1C(=O)N1C([H])([H])C([H])([H])N(C([H])([H])C2=C(OC([H])([H])[H])C(OC([H])([H])[H])=C2c2sc3c(OC([H])([H])[H])c([H])c(C([H])([H])[H])c([H])c3c2[H])C([H])([H])C1([H])[H]


 38 42  0  0  0  0  0  0  0  0999 V2000
   -1.6416   22.4851  -25.0684 C   0  0  0  0  0  0  0  0  0  0  0  0
   -1.6193   21.8160  -23.7437 C   0  0  0  0  0  0  0  0  0  0  0  0
   -0.3307   21.7372  -23.8196 C   0  0  0  0  0  0  0  0  0  0  0  0
   -0.3442   22.3950  -25.1163 C   0  0  0  0  0  0  0  0  0  0  0  0
   -5.8198   24.8766  -27.6423 C   0  0  0  0  0  0  0  0  0  0  0  0
   -6.1870   24.7113  -28.9752 C   0  0  0  0  0  0  0  0  0  0  0  0
   -5.4110   23.8465  -29.7135 C   0  0  0  0  0  0  0  0  0  0  0  0
   -5.8129   23.6770  -31.1544 C   0  0  0  0  0  0  0  0  0  0  0  0
   -4.3415   23.1697  -29.2257 C   0  0  0  0  0  0  0  0  0  0  0  0
   -3.9568   23.3274  -27.8752 C   0  0  0  0  0  0  0  0  0  0  0  0
   -2.9128   22.7236  -27.2583 C   0  0  0  0  0  0  0  0  0  0  0  0
   -2.7095   23.0215  -25.9416 C   0  0  0  0  0  0  0  0  0  0  0  0
   -3.9530   24.1167  -25.5893 S   0  0  0  0  0  0  0  0  0  0  0  0
   -4.7124   24.1805  -27.1193 C   0  0  0  0  0  0  0  0  0  0  0  0
   -7.3630   25.0912  -25.8090 C   0  0  0  0  0  0  0  0  0  0  0  0
   -6.4843   25.7025  -26.7589 O   0  0  0  0  0  0  0  0  0  0  0  0
    0.7563   21.2729  -23.0950 O   0  0  0  0  0  0  0  0  0  0  0  0
    0.8067   21.0246  -21.7286 C   0  0  0  0  0  0  0  0  0  0  0  0
    0.6075   22.7939  -26.0682 O   0  0  0  0  0  0  0  0  0  0  0  0
    0.5835   22.1708  -27.3705 C   0  0  0  0  0  0  0  0  0  0  0  0
   -2.7469   21.4801  -22.8790 C   0  0  0  0  0  0  0  0  0  0  0  0
   -3.2918   22.4222  -22.0227 N   0  0  0  0  0  0  0  0  0  0  0  0
   -3.4718   21.8956  -20.6577 C   0  0  0  0  0  0  0  0  0  0  0  0
   -4.8793   21.2799  -20.6758 C   0  0  0  0  0  0  0  0  0  0  0  0
   -5.8187   22.4140  -20.7927 N   0  0  0  0  0  0  0  0  0  0  0  0
   -5.2513   23.6531  -21.1838 C   0  0  0  0  0  0  0  0  0  0  0  0
   -4.2795   23.3328  -22.3818 C   0  0  0  0  0  0  0  0  0  0  0  0
   -7.1777   22.1765  -20.6067 C   0  0  0  0  0  0  0  0  0  0  0  0
   -7.5251   20.9260  -20.4445 O   0  0  0  0  0  0  0  0  0  0  0  0
   -8.2926   23.0876  -20.5644 C   0  0  0  0  0  0  0  0  0  0  0  0
   -8.5698   23.9711  -21.5707 C   0  0  0  0  0  0  0  0  0  0  0  0
   -9.7179   24.7623  -21.5563 C   0  0  0  0  0  0  0  0  0  0  0  0
   -9.9606   25.6945  -22.6690 C   0  0  0  0  0  0  0  0  0  0  0  0
  -10.5881   24.6585  -20.5160 C   0  0  0  0  0  0  0  0  0  0  0  0
  -10.3149   23.7735  -19.4997 C   0  0  0  0  0  0  0  0  0  0  0  0
   -9.1915   22.9804  -19.4862 C   0  0  0  0  0  0  0  0  0  0  0  0
  -11.2397   23.6942  -18.4421 O   0  0  0  0  0  0  0  0  0  0  0  0
  -11.4043   22.5235  -17.6844 C   0  0  0  0  0  0  0  0  0  0  0  0
 15 16  1  0  0  0
 16  5  1  0  0  0
  5  6  2  0  0  0
  6  7  1  0  0  0
  7  8  1  0  0  0
  7  9  2  0  0  0
  9 10  1  0  0  0
 10 11  1  0  0  0
 11 12  2  0  0  0
 12 13  1  0  0  0
 13 14  1  0  0  0
 12  1  1  0  0  0
  1  2  1  0  0  0
  2 21  1  0  0  0
 21 22  1  0  0  0
 22 23  1  0  0  0
 23 24  1  0  0  0
 24 25  1  0  0  0
 25 26  1  0  0  0
 26 27  1  0  0  0
 25 28  1  0  0  0
 28 29  2  0  0  0
 28 30  1  0  0  0
 30 31  2  0  0  0
 31 32  1  0  0  0
 32 33  1  0  0  0
 32 34  2  0  0  0
 34 35  1  0  0  0
 35 37  1  0  0  0
 37 38  1  0  0  0
 35 36  2  0  0  0
  2  3  2  0  0  0
  3 17  1  0  0  0
 17 18  1  0  0  0
  3  4  1  0  0  0
  4 19  1  0  0  0
 19 20  1  0  0  0
 14  5  1  0  0  0
  4  1  2  0  0  0
 14 10  2  0  0  0
 27 22  1  0  0  0
 36 30  1  0  0  0
M  END
> <minimizedAffinity>
-9.10320

> <CNNscore>
0.1105015725

> <CNNaffinity>
6.3835210800

> <CNN_VS>
0.7053891420

> <CNNaffinity_variance>
0.4048078656

$$$$
[H]c1c(OC([H])([H])[H])c([H])c(C([H])([H])[H])c([H])c1C(=O)N1C([H])([H])C([H])([H])N(C([H])([H])C2=C(OC([H])([H])[H])C(OC([H])([H])[H])=C2c2sc3c(OC([H])([H])[H])c([H])c(C([H])([H])[H])c([H])c3c2[H])C([H])([H])C1([H])[H]


 38 42  0  0  0  0  0  0  0  0999 V2000
   -4.3179   23.5299  -28.1651 C   0  0  0  0  0  0  0  0  0  0  0  0
   -4.8328   24.8525  -28.5996 C   0  0  0  0  0  0  0  0  0  0  0  0
   -5.2765   24.3084  -29.6857 C   0  0  0  0  0  0  0  0  0  0  0  0
   -4.7777   23.0088  -29.2655 C   0  0  0  0  0  0  0  0  0  0  0  0
   -2.3661   21.6526  -23.4251 C   0  0  0  0  0  0  0  0  0  0  0  0
   -1.0308   21.4310  -23.0987 C   0  0  0  0  0  0  0  0  0  0  0  0
   -0.1114   21.7246  -24.0803 C   0  0  0  0  0  0  0  0  0  0  0  0
    1.3294   21.4783  -23.7200 C   0  0  0  0  0  0  0  0  0  0  0  0
   -0.4289   22.2023  -25.3095 C   0  0  0  0  0  0  0  0  0  0  0  0
   -1.7796   22.4320  -25.6552 C   0  0  0  0  0  0  0  0  0  0  0  0
   -2.2406   22.8974  -26.8410 C   0  0  0  0  0  0  0  0  0  0  0  0
   -3.5920   23.0407  -26.9716 C   0  0  0  0  0  0  0  0  0  0  0  0
   -4.1885   22.5355  -25.4688 S   0  0  0  0  0  0  0  0  0  0  0  0
   -2.7132   22.1493  -24.6968 C   0  0  0  0  0  0  0  0  0  0  0  0
   -3.3024   21.8990  -21.2226 C   0  0  0  0  0  0  0  0  0  0  0  0
   -3.4175   21.4139  -22.5640 O   0  0  0  0  0  0  0  0  0  0  0  0
   -5.9519   24.6420  -30.8497 O   0  0  0  0  0  0  0  0  0  0  0  0
   -5.7615   25.7745  -31.6323 C   0  0  0  0  0  0  0  0  0  0  0  0
   -4.7663   21.7040  -29.7832 O   0  0  0  0  0  0  0  0  0  0  0  0
   -4.6826   21.5304  -31.2142 C   0  0  0  0  0  0  0  0  0  0  0  0
   -4.7482   26.1319  -27.9012 C   0  0  0  0  0  0  0  0  0  0  0  0
   -5.6311   26.4452  -26.8814 N   0  0  0  0  0  0  0  0  0  0  0  0
   -5.0641   27.4228  -25.9350 C   0  0  0  0  0  0  0  0  0  0  0  0
   -4.3515   26.5577  -24.8842 C   0  0  0  0  0  0  0  0  0  0  0  0
   -5.4189   25.8566  -24.1416 N   0  0  0  0  0  0  0  0  0  0  0  0
   -6.7030   25.8654  -24.7428 C   0  0  0  0  0  0  0  0  0  0  0  0
   -6.4775   25.5297  -26.2656 C   0  0  0  0  0  0  0  0  0  0  0  0
   -5.0825   25.1720  -22.9771 C   0  0  0  0  0  0  0  0  0  0  0  0
   -3.8075   25.1188  -22.6903 O   0  0  0  0  0  0  0  0  0  0  0  0
   -5.9118   24.4941  -22.0140 C   0  0  0  0  0  0  0  0  0  0  0  0
   -6.5645   23.3239  -22.2872 C   0  0  0  0  0  0  0  0  0  0  0  0
   -7.2689   22.6303  -21.3039 C   0  0  0  0  0  0  0  0  0  0  0  0
   -7.9510   21.3757  -21.6602 C   0  0  0  0  0  0  0  0  0  0  0  0
   -7.3132   23.1262  -20.0381 C   0  0  0  0  0  0  0  0  0  0  0  0
   -6.6608   24.3034  -19.7564 C   0  0  0  0  0  0  0  0  0  0  0  0
   -5.9583   25.0094  -20.7047 C   0  0  0  0  0  0  0  0  0  0  0  0
   -6.7289   24.7833  -18.4354 O   0  0  0  0  0  0  0  0  0  0  0  0
   -6.2925   24.0171  -17.3426 C   0  0  0  0  0  0  0  0  0  0  0  0
 15 16  1  0  0  0
 16  5  1  0  0  0
  5  6  2  0  0  0
  6  7  1  0  0  0
  7  8  1  0  0  0
  7  9  2  0  0  0
  9 10  1  0  0  0
 10 11  1  0  0  0
 11 12  2  0  0  0
 12 13  1  0  0  0
 13 14  1  0  0  0
 12  1  1  0  0  0
  1  2  1  0  0  0
  2 21  1  0  0  0
 21 22  1  0  0  0
 22 23  1  0  0  0
 23 24  1  0  0  0
 24 25  1  0  0  0
 25 26  1  0  0  0
 26 27  1  0  0  0
 25 28  1  0  0  0
 28 29  2  0  0  0
 28 30  1  0  0  0
 30 31  2  0  0  0
 31 32  1  0  0  0
 32 33  1  0  0  0
 32 34  2  0  0  0
 34 35  1  0  0  0
 35 37  1  0  0  0
 37 38  1  0  0  0
 35 36  2  0  0  0
  2  3  2  0  0  0
  3 17  1  0  0  0
 17 18  1  0  0  0
  3  4  1  0  0  0
  4 19  1  0  0  0
 19 20  1  0  0  0
 14  5  1  0  0  0
  4  1  2  0  0  0
 14 10  2  0  0  0
 27 22  1  0  0  0
 36 30  1  0  0  0
M  END
> <minimizedAffinity>
-8.97510

> <CNNscore>
0.1104029790

> <CNNaffinity>
7.0307006836

> <CNN_VS>
0.7762103081

> <CNNaffinity_variance>
0.0967220291

$$$$
