[H]c1nc(N([H])[H])c(-c2nn(-c3c(Cl)c(OC([H])([H])[H])c([H])c(OC([H])([H])[H])c3Cl)c(=O)c([H])c2[H])nc1-c1c([H])nn(C2([H])C([H])([H])C([H])([H])N([H])C([H])([H])C2([H])[H])c1[H]


 40 44  0  0  0  0  0  0  0  0999 V2000
   -2.3241   22.8082  -26.3294 C   0  0  0  0  0  0  0  0  0  0  0  0
   -1.7422   22.4284  -25.1560 N   0  0  0  0  0  0  0  0  0  0  0  0
   -0.4517   22.1170  -25.0795 C   0  0  0  0  0  0  0  0  0  0  0  0
    0.3071   22.1818  -26.2152 C   0  0  0  0  0  0  0  0  0  0  0  0
   -0.2108   22.5517  -27.4124 N   0  0  0  0  0  0  0  0  0  0  0  0
   -1.5236   22.8582  -27.4403 C   0  0  0  0  0  0  0  0  0  0  0  0
   -2.0820   23.2432  -28.6706 N   0  0  0  0  0  0  0  0  0  0  0  0
   -2.4112   22.4877  -29.3113 H   0  0  0  0  0  0  0  0  0  0  0  0
   -2.1524   24.2433  -28.9076 H   0  0  0  0  0  0  0  0  0  0  0  0
   -5.7528   23.6132  -25.3550 N   0  0  0  0  0  0  0  0  0  0  0  0
   -4.4565   23.3007  -25.2939 N   0  0  0  0  0  0  0  0  0  0  0  0
   -3.7288   23.1482  -26.4135 C   0  0  0  0  0  0  0  0  0  0  0  0
   -4.3486   23.3215  -27.6274 C   0  0  0  0  0  0  0  0  0  0  0  0
   -5.6929   23.6463  -27.7101 C   0  0  0  0  0  0  0  0  0  0  0  0
   -6.3836   23.7883  -26.5243 C   0  0  0  0  0  0  0  0  0  0  0  0
   -7.6028   24.0817  -26.5450 O   0  0  0  0  0  0  0  0  0  0  0  0
   -7.5026   22.7374  -22.1945 C   0  0  0  0  0  0  0  0  0  0  0  0
   -7.7873   23.9911  -21.7134 C   0  0  0  0  0  0  0  0  0  0  0  0
   -7.4125   25.1362  -22.4092 C   0  0  0  0  0  0  0  0  0  0  0  0
   -6.7475   24.9884  -23.5952 C   0  0  0  0  0  0  0  0  0  0  0  0
   -6.2731   26.4251  -24.4749 Cl  0  0  0  0  0  0  0  0  0  0  0  0
   -6.4437   23.7501  -24.1112 C   0  0  0  0  0  0  0  0  0  0  0  0
   -6.8334   22.6262  -23.3888 C   0  0  0  0  0  0  0  0  0  0  0  0
   -6.4594   21.0465  -24.0260 Cl  0  0  0  0  0  0  0  0  0  0  0  0
   -8.6134   21.5529  -20.3136 C   0  0  0  0  0  0  0  0  0  0  0  0
   -7.8826   21.6282  -21.4887 O   0  0  0  0  0  0  0  0  0  0  0  0
   -7.7077   26.3909  -21.9092 O   0  0  0  0  0  0  0  0  0  0  0  0
   -8.4173   26.4851  -20.6951 C   0  0  0  0  0  0  0  0  0  0  0  0
    0.1391   21.7200  -23.8171 C   0  0  0  0  0  0  0  0  0  0  0  0
   -0.5369   21.6253  -22.6027 C   0  0  0  0  0  0  0  0  0  0  0  0
    0.3541   21.2271  -21.6767 N   0  0  0  0  0  0  0  0  0  0  0  0
    1.5535   21.0665  -22.2430 N   0  0  0  0  0  0  0  0  0  0  0  0
    1.4428   21.3606  -23.5400 C   0  0  0  0  0  0  0  0  0  0  0  0
    2.7820   20.6454  -21.5866 C   0  0  0  0  0  0  0  0  0  0  0  0
    3.6027   19.8825  -22.5732 C   0  0  0  0  0  0  0  0  0  0  0  0
    4.0559   18.5318  -22.0690 C   0  0  0  0  0  0  0  0  0  0  0  0
    2.9954   17.7491  -21.5179 N   0  0  0  0  0  0  0  0  0  0  0  0
    2.0245   18.4819  -20.7707 C   0  0  0  0  0  0  0  0  0  0  0  0
    2.4892   19.8451  -20.3365 C   0  0  0  0  0  0  0  0  0  0  0  0
    2.5289   17.1013  -22.1783 H   0  0  0  0  0  0  0  0  0  0  0  0
 25 26  1  0  0  0
 26 17  1  0  0  0
 17 18  2  0  0  0
 18 19  1  0  0  0
 19 27  1  0  0  0
 27 28  1  0  0  0
 19 20  2  0  0  0
 20 21  1  0  0  0
 20 22  1  0  0  0
 22 23  2  0  0  0
 23 24  1  0  0  0
 22 10  1  0  0  0
 10 11  1  0  0  0
 11 12  2  0  0  0
 12 13  1  0  0  0
 13 14  2  0  0  0
 14 15  1  0  0  0
 15 16  2  0  0  0
 12  1  1  0  0  0
  1  2  2  0  0  0
  2  3  1  0  0  0
  3  4  2  0  0  0
  4  5  1  0  0  0
  5  6  2  0  0  0
  6  7  1  0  0  0
  3 29  1  0  0  0
 29 30  1  0  0  0
 30 31  2  0  0  0
 31 32  1  0  0  0
 32 33  1  0  0  0
 32 34  1  0  0  0
 34 35  1  0  0  0
 35 36  1  0  0  0
 36 37  1  0  0  0
 37 38  1  0  0  0
 38 39  1  0  0  0
 23 17  1  0  0  0
 15 10  1  0  0  0
  6  1  1  0  0  0
 33 29  2  0  0  0
 39 34  1  0  0  0
  7  8  1  0  0  0
  7  9  1  0  0  0
 37 40  1  0  0  0
M  END
> <minimizedAffinity>
-9.75548

> <CNNscore>
0.7629292607

> <CNNaffinity>
8.0790271759

> <CNN_VS>
6.1637263298

> <CNNaffinity_variance>
0.1927157193

$$$$
[H]c1nc(N([H])[H])c(-c2nn(-c3c(Cl)c(OC([H])([H])[H])c([H])c(OC([H])([H])[H])c3Cl)c(=O)c([H])c2[H])nc1-c1c([H])nn(C2([H])C([H])([H])C([H])([H])N([H])C([H])([H])C2([H])[H])c1[H]


 40 44  0  0  0  0  0  0  0  0999 V2000
   -2.3520   22.8330  -26.2785 C   0  0  0  0  0  0  0  0  0  0  0  0
   -1.7735   22.4475  -25.1053 N   0  0  0  0  0  0  0  0  0  0  0  0
   -0.4850   22.1280  -25.0281 C   0  0  0  0  0  0  0  0  0  0  0  0
    0.2752   22.1901  -26.1631 C   0  0  0  0  0  0  0  0  0  0  0  0
   -0.2393   22.5654  -27.3601 N   0  0  0  0  0  0  0  0  0  0  0  0
   -1.5502   22.8800  -27.3886 C   0  0  0  0  0  0  0  0  0  0  0  0
   -2.1051   23.2706  -28.6187 N   0  0  0  0  0  0  0  0  0  0  0  0
   -2.4385   22.5184  -29.2610 H   0  0  0  0  0  0  0  0  0  0  0  0
   -2.1691   24.2715  -28.8540 H   0  0  0  0  0  0  0  0  0  0  0  0
   -5.7826   23.6326  -25.3065 N   0  0  0  0  0  0  0  0  0  0  0  0
   -4.4883   23.3123  -25.2448 N   0  0  0  0  0  0  0  0  0  0  0  0
   -3.7545   23.1819  -26.3632 C   0  0  0  0  0  0  0  0  0  0  0  0
   -4.3660   23.3859  -27.5766 C   0  0  0  0  0  0  0  0  0  0  0  0
   -5.7082   23.7191  -27.6598 C   0  0  0  0  0  0  0  0  0  0  0  0
   -6.4054   23.8375  -26.4753 C   0  0  0  0  0  0  0  0  0  0  0  0
   -7.6231   24.1374  -26.4966 O   0  0  0  0  0  0  0  0  0  0  0  0
   -7.4556   25.1218  -22.3399 C   0  0  0  0  0  0  0  0  0  0  0  0
   -7.8178   23.9842  -21.6627 C   0  0  0  0  0  0  0  0  0  0  0  0
   -7.5245   22.7193  -22.1627 C   0  0  0  0  0  0  0  0  0  0  0  0
   -6.8608   22.6290  -23.3551 C   0  0  0  0  0  0  0  0  0  0  0  0
   -6.4893   21.0406  -23.9894 Cl  0  0  0  0  0  0  0  0  0  0  0  0
   -6.4805   23.7446  -24.0641 C   0  0  0  0  0  0  0  0  0  0  0  0
   -6.7902   24.9938  -23.5347 C   0  0  0  0  0  0  0  0  0  0  0  0
   -6.3157   26.4214  -24.4169 Cl  0  0  0  0  0  0  0  0  0  0  0  0
   -8.5682   26.6703  -20.7464 C   0  0  0  0  0  0  0  0  0  0  0  0
   -7.7578   26.3533  -21.8250 O   0  0  0  0  0  0  0  0  0  0  0  0
   -7.8973   21.5844  -21.4667 O   0  0  0  0  0  0  0  0  0  0  0  0
   -8.7322   21.7259  -20.3400 C   0  0  0  0  0  0  0  0  0  0  0  0
    0.1022   21.7251  -23.7660 C   0  0  0  0  0  0  0  0  0  0  0  0
   -0.5741   21.6382  -22.5511 C   0  0  0  0  0  0  0  0  0  0  0  0
    0.3132   21.2308  -21.6255 N   0  0  0  0  0  0  0  0  0  0  0  0
    1.5104   21.0569  -22.1924 N   0  0  0  0  0  0  0  0  0  0  0  0
    1.4021   21.3517  -23.4895 C   0  0  0  0  0  0  0  0  0  0  0  0
    2.7347   20.6228  -21.5366 C   0  0  0  0  0  0  0  0  0  0  0  0
    3.5959   19.9471  -22.5518 C   0  0  0  0  0  0  0  0  0  0  0  0
    4.0723   18.5772  -22.1272 C   0  0  0  0  0  0  0  0  0  0  0  0
    3.0204   17.7343  -21.6539 N   0  0  0  0  0  0  0  0  0  0  0  0
    2.0150   18.3923  -20.8830 C   0  0  0  0  0  0  0  0  0  0  0  0
    2.4352   19.7344  -20.3492 C   0  0  0  0  0  0  0  0  0  0  0  0
    2.5850   17.1208  -22.3663 H   0  0  0  0  0  0  0  0  0  0  0  0
 25 26  1  0  0  0
 26 17  1  0  0  0
 17 18  2  0  0  0
 18 19  1  0  0  0
 19 27  1  0  0  0
 27 28  1  0  0  0
 19 20  2  0  0  0
 20 21  1  0  0  0
 20 22  1  0  0  0
 22 23  2  0  0  0
 23 24  1  0  0  0
 22 10  1  0  0  0
 10 11  1  0  0  0
 11 12  2  0  0  0
 12 13  1  0  0  0
 13 14  2  0  0  0
 14 15  1  0  0  0
 15 16  2  0  0  0
 12  1  1  0  0  0
  1  2  2  0  0  0
  2  3  1  0  0  0
  3  4  2  0  0  0
  4  5  1  0  0  0
  5  6  2  0  0  0
  6  7  1  0  0  0
  3 29  1  0  0  0
 29 30  1  0  0  0
 30 31  2  0  0  0
 31 32  1  0  0  0
 32 33  1  0  0  0
 32 34  1  0  0  0
 34 35  1  0  0  0
 35 36  1  0  0  0
 36 37  1  0  0  0
 37 38  1  0  0  0
 38 39  1  0  0  0
 23 17  1  0  0  0
 15 10  1  0  0  0
  6  1  1  0  0  0
 33 29  2  0  0  0
 39 34  1  0  0  0
  7  8  1  0  0  0
  7  9  1  0  0  0
 37 40  1  0  0  0
M  END
> <minimizedAffinity>
-9.68504

> <CNNscore>
0.7338899970

> <CNNaffinity>
8.0454730988

> <CNN_VS>
5.9044923782

> <CNNaffinity_variance>
0.2014638186

$$$$
[H]c1nc(N([H])[H])c(-c2nn(-c3c(Cl)c(OC([H])([H])[H])c([H])c(OC([H])([H])[H])c3Cl)c(=O)c([H])c2[H])nc1-c1c([H])nn(C2([H])C([H])([H])C([H])([H])N([H])C([H])([H])C2([H])[H])c1[H]


 40 44  0  0  0  0  0  0  0  0999 V2000
   -2.2748   22.7595  -26.2381 C   0  0  0  0  0  0  0  0  0  0  0  0
   -1.7066   22.3961  -25.0528 N   0  0  0  0  0  0  0  0  0  0  0  0
   -0.4172   22.0852  -24.9571 C   0  0  0  0  0  0  0  0  0  0  0  0
    0.3545   22.1335  -26.0849 C   0  0  0  0  0  0  0  0  0  0  0  0
   -0.1494   22.4867  -27.2930 N   0  0  0  0  0  0  0  0  0  0  0  0
   -1.4616   22.7934  -27.3403 C   0  0  0  0  0  0  0  0  0  0  0  0
   -2.0056   23.1610  -28.5823 N   0  0  0  0  0  0  0  0  0  0  0  0
   -2.3280   22.3967  -29.2159 H   0  0  0  0  0  0  0  0  0  0  0  0
   -2.0727   24.1577  -28.8342 H   0  0  0  0  0  0  0  0  0  0  0  0
   -5.7208   23.5510  -25.3151 N   0  0  0  0  0  0  0  0  0  0  0  0
   -4.4254   23.2393  -25.2348 N   0  0  0  0  0  0  0  0  0  0  0  0
   -3.6782   23.0989  -26.3431 C   0  0  0  0  0  0  0  0  0  0  0  0
   -4.2771   23.2838  -27.5657 C   0  0  0  0  0  0  0  0  0  0  0  0
   -5.6202   23.6081  -27.6684 C   0  0  0  0  0  0  0  0  0  0  0  0
   -6.3315   23.7374  -26.4934 C   0  0  0  0  0  0  0  0  0  0  0  0
   -7.5505   24.0297  -26.5322 O   0  0  0  0  0  0  0  0  0  0  0  0
   -7.4094   25.0680  -22.3716 C   0  0  0  0  0  0  0  0  0  0  0  0
   -7.7988   23.9366  -21.6990 C   0  0  0  0  0  0  0  0  0  0  0  0
   -7.5190   22.6670  -22.1948 C   0  0  0  0  0  0  0  0  0  0  0  0
   -6.8409   22.5656  -23.3781 C   0  0  0  0  0  0  0  0  0  0  0  0
   -6.4863   20.9712  -24.0070 Cl  0  0  0  0  0  0  0  0  0  0  0  0
   -6.4333   23.6747  -24.0822 C   0  0  0  0  0  0  0  0  0  0  0  0
   -6.7302   24.9289  -23.5572 C   0  0  0  0  0  0  0  0  0  0  0  0
   -6.2212   26.3484  -24.4333 Cl  0  0  0  0  0  0  0  0  0  0  0  0
   -8.4191   26.6286  -20.7222 C   0  0  0  0  0  0  0  0  0  0  0  0
   -7.6987   26.3044  -21.8610 O   0  0  0  0  0  0  0  0  0  0  0  0
   -7.9191   21.5384  -21.5036 O   0  0  0  0  0  0  0  0  0  0  0  0
   -8.7465   21.6957  -20.3734 C   0  0  0  0  0  0  0  0  0  0  0  0
    0.1589   21.7060  -23.6825 C   0  0  0  0  0  0  0  0  0  0  0  0
    1.4968   21.3850  -23.4637 C   0  0  0  0  0  0  0  0  0  0  0  0
    1.6313   21.0919  -22.1576 N   0  0  0  0  0  0  0  0  0  0  0  0
    0.4507   21.2110  -21.5435 N   0  0  0  0  0  0  0  0  0  0  0  0
   -0.4538   21.5825  -22.4516 C   0  0  0  0  0  0  0  0  0  0  0  0
    0.1704   20.9832  -20.1339 C   0  0  0  0  0  0  0  0  0  0  0  0
   -1.3023   20.7987  -19.9728 C   0  0  0  0  0  0  0  0  0  0  0  0
   -1.9130   21.6909  -18.9168 C   0  0  0  0  0  0  0  0  0  0  0  0
   -1.5455   23.0644  -19.0556 N   0  0  0  0  0  0  0  0  0  0  0  0
   -0.1982   23.2942  -19.4677 C   0  0  0  0  0  0  0  0  0  0  0  0
    0.7090   22.1092  -19.2789 C   0  0  0  0  0  0  0  0  0  0  0  0
   -2.1972   23.6471  -19.6116 H   0  0  0  0  0  0  0  0  0  0  0  0
 25 26  1  0  0  0
 26 17  1  0  0  0
 17 18  2  0  0  0
 18 19  1  0  0  0
 19 27  1  0  0  0
 27 28  1  0  0  0
 19 20  2  0  0  0
 20 21  1  0  0  0
 20 22  1  0  0  0
 22 23  2  0  0  0
 23 24  1  0  0  0
 22 10  1  0  0  0
 10 11  1  0  0  0
 11 12  2  0  0  0
 12 13  1  0  0  0
 13 14  2  0  0  0
 14 15  1  0  0  0
 15 16  2  0  0  0
 12  1  1  0  0  0
  1  2  2  0  0  0
  2  3  1  0  0  0
  3  4  2  0  0  0
  4  5  1  0  0  0
  5  6  2  0  0  0
  6  7  1  0  0  0
  3 29  1  0  0  0
 29 30  1  0  0  0
 30 31  2  0  0  0
 31 32  1  0  0  0
 32 33  1  0  0  0
 32 34  1  0  0  0
 34 35  1  0  0  0
 35 36  1  0  0  0
 36 37  1  0  0  0
 37 38  1  0  0  0
 38 39  1  0  0  0
 23 17  1  0  0  0
 15 10  1  0  0  0
  6  1  1  0  0  0
 33 29  2  0  0  0
 39 34  1  0  0  0
  7  8  1  0  0  0
  7  9  1  0  0  0
 37 40  1  0  0  0
M  END
> <minimizedAffinity>
-9.58089

> <CNNscore>
0.5659273267

> <CNNaffinity>
7.7932825089

> <CNN_VS>
4.4104313850

> <CNNaffinity_variance>
0.2340836525

$$$$
[H]c1nc(N([H])[H])c(-c2nn(-c3c(Cl)c(OC([H])([H])[H])c([H])c(OC([H])([H])[H])c3Cl)c(=O)c([H])c2[H])nc1-c1c([H])nn(C2([H])C([H])([H])C([H])([H])N([H])C([H])([H])C2([H])[H])c1[H]


 40 44  0  0  0  0  0  0  0  0999 V2000
   -2.2656   22.7357  -26.2072 C   0  0  0  0  0  0  0  0  0  0  0  0
   -1.7043   22.3717  -25.0189 N   0  0  0  0  0  0  0  0  0  0  0  0
   -0.4163   22.0568  -24.9166 C   0  0  0  0  0  0  0  0  0  0  0  0
    0.3609   22.1015  -26.0407 C   0  0  0  0  0  0  0  0  0  0  0  0
   -0.1360   22.4550  -27.2516 N   0  0  0  0  0  0  0  0  0  0  0  0
   -1.4470   22.7658  -27.3056 C   0  0  0  0  0  0  0  0  0  0  0  0
   -1.9840   23.1339  -28.5505 N   0  0  0  0  0  0  0  0  0  0  0  0
   -2.3057   22.3699  -29.1848 H   0  0  0  0  0  0  0  0  0  0  0  0
   -2.0467   24.1305  -28.8038 H   0  0  0  0  0  0  0  0  0  0  0  0
   -5.7066   23.5673  -25.3009 N   0  0  0  0  0  0  0  0  0  0  0  0
   -4.4127   23.2511  -25.2141 N   0  0  0  0  0  0  0  0  0  0  0  0
   -3.6675   23.0794  -26.3193 C   0  0  0  0  0  0  0  0  0  0  0  0
   -4.2667   23.2368  -27.5456 C   0  0  0  0  0  0  0  0  0  0  0  0
   -5.6083   23.5651  -27.6550 C   0  0  0  0  0  0  0  0  0  0  0  0
   -6.3177   23.7272  -26.4829 C   0  0  0  0  0  0  0  0  0  0  0  0
   -7.5352   24.0246  -26.5279 O   0  0  0  0  0  0  0  0  0  0  0  0
   -7.5259   22.7449  -22.1654 C   0  0  0  0  0  0  0  0  0  0  0  0
   -7.7990   24.0067  -21.6993 C   0  0  0  0  0  0  0  0  0  0  0  0
   -7.3937   25.1401  -22.3972 C   0  0  0  0  0  0  0  0  0  0  0  0
   -6.7103   24.9722  -23.5699 C   0  0  0  0  0  0  0  0  0  0  0  0
   -6.1975   26.3941  -24.4522 Cl  0  0  0  0  0  0  0  0  0  0  0  0
   -6.4172   23.7252  -24.0708 C   0  0  0  0  0  0  0  0  0  0  0  0
   -6.8375   22.6135  -23.3467 C   0  0  0  0  0  0  0  0  0  0  0  0
   -6.4775   21.0229  -23.9648 Cl  0  0  0  0  0  0  0  0  0  0  0  0
   -8.7394   21.5900  -20.3301 C   0  0  0  0  0  0  0  0  0  0  0  0
   -7.9359   21.6476  -21.4579 O   0  0  0  0  0  0  0  0  0  0  0  0
   -7.6776   26.4033  -21.9124 O   0  0  0  0  0  0  0  0  0  0  0  0
   -8.4942   26.5211  -20.7696 C   0  0  0  0  0  0  0  0  0  0  0  0
    0.1524   21.6771  -23.6389 C   0  0  0  0  0  0  0  0  0  0  0  0
    1.4916   21.3690  -23.4098 C   0  0  0  0  0  0  0  0  0  0  0  0
    1.6177   21.0706  -22.1041 N   0  0  0  0  0  0  0  0  0  0  0  0
    0.4306   21.1743  -21.4999 N   0  0  0  0  0  0  0  0  0  0  0  0
   -0.4698   21.5409  -22.4142 C   0  0  0  0  0  0  0  0  0  0  0  0
    0.1402   20.9363  -20.0940 C   0  0  0  0  0  0  0  0  0  0  0  0
   -1.3422   20.9138  -19.9189 C   0  0  0  0  0  0  0  0  0  0  0  0
   -1.8380   21.8361  -18.8292 C   0  0  0  0  0  0  0  0  0  0  0  0
   -1.3193   23.1633  -18.9325 N   0  0  0  0  0  0  0  0  0  0  0  0
    0.0412   23.2526  -19.3554 C   0  0  0  0  0  0  0  0  0  0  0  0
    0.8107   21.9679  -19.2135 C   0  0  0  0  0  0  0  0  0  0  0  0
   -1.9066   23.8323  -19.4625 H   0  0  0  0  0  0  0  0  0  0  0  0
 25 26  1  0  0  0
 26 17  1  0  0  0
 17 18  2  0  0  0
 18 19  1  0  0  0
 19 27  1  0  0  0
 27 28  1  0  0  0
 19 20  2  0  0  0
 20 21  1  0  0  0
 20 22  1  0  0  0
 22 23  2  0  0  0
 23 24  1  0  0  0
 22 10  1  0  0  0
 10 11  1  0  0  0
 11 12  2  0  0  0
 12 13  1  0  0  0
 13 14  2  0  0  0
 14 15  1  0  0  0
 15 16  2  0  0  0
 12  1  1  0  0  0
  1  2  2  0  0  0
  2  3  1  0  0  0
  3  4  2  0  0  0
  4  5  1  0  0  0
  5  6  2  0  0  0
  6  7  1  0  0  0
  3 29  1  0  0  0
 29 30  1  0  0  0
 30 31  2  0  0  0
 31 32  1  0  0  0
 32 33  1  0  0  0
 32 34  1  0  0  0
 34 35  1  0  0  0
 35 36  1  0  0  0
 36 37  1  0  0  0
 37 38  1  0  0  0
 38 39  1  0  0  0
 23 17  1  0  0  0
 15 10  1  0  0  0
  6  1  1  0  0  0
 33 29  2  0  0  0
 39 34  1  0  0  0
  7  8  1  0  0  0
  7  9  1  0  0  0
 37 40  1  0  0  0
M  END
> <minimizedAffinity>
-9.61407

> <CNNscore>
0.5391401052

> <CNNaffinity>
7.7770600319

> <CNN_VS>
4.1929249763

> <CNNaffinity_variance>
0.2415590733

$$$$
[H]c1nc(N([H])[H])c(-c2nn(-c3c(Cl)c(OC([H])([H])[H])c([H])c(OC([H])([H])[H])c3Cl)c(=O)c([H])c2[H])nc1-c1c([H])nn(C2([H])C([H])([H])C([H])([H])N([H])C([H])([H])C2([H])[H])c1[H]


 40 44  0  0  0  0  0  0  0  0999 V2000
   -0.4380   22.0377  -23.9447 C   0  0  0  0  0  0  0  0  0  0  0  0
   -1.6007   22.4793  -24.5041 N   0  0  0  0  0  0  0  0  0  0  0  0
   -1.7096   22.7117  -25.8089 C   0  0  0  0  0  0  0  0  0  0  0  0
   -0.6191   22.4995  -26.6060 C   0  0  0  0  0  0  0  0  0  0  0  0
    0.5652   22.0615  -26.1122 N   0  0  0  0  0  0  0  0  0  0  0  0
    0.6271   21.8396  -24.7836 C   0  0  0  0  0  0  0  0  0  0  0  0
    1.8450   21.3865  -24.2496 N   0  0  0  0  0  0  0  0  0  0  0  0
    2.5611   22.1033  -23.9988 H   0  0  0  0  0  0  0  0  0  0  0  0
    2.0002   20.3763  -24.1203 H   0  0  0  0  0  0  0  0  0  0  0  0
    0.7157   20.6638  -20.7612 N   0  0  0  0  0  0  0  0  0  0  0  0
    0.5941   20.9094  -22.0676 N   0  0  0  0  0  0  0  0  0  0  0  0
   -0.3187   21.7836  -22.5245 C   0  0  0  0  0  0  0  0  0  0  0  0
   -1.1277   22.4222  -21.6159 C   0  0  0  0  0  0  0  0  0  0  0  0
   -1.0156   22.1800  -20.2564 C   0  0  0  0  0  0  0  0  0  0  0  0
   -0.0591   21.2716  -19.8523 C   0  0  0  0  0  0  0  0  0  0  0  0
    0.0822   21.0173  -18.6324 O   0  0  0  0  0  0  0  0  0  0  0  0
    2.3444   17.4373  -19.8927 C   0  0  0  0  0  0  0  0  0  0  0  0
    3.6167   17.8695  -19.6126 C   0  0  0  0  0  0  0  0  0  0  0  0
    3.9613   19.2144  -19.7044 C   0  0  0  0  0  0  0  0  0  0  0  0
    2.9981   20.1084  -20.0831 C   0  0  0  0  0  0  0  0  0  0  0  0
    3.4256   21.8015  -20.2007 Cl  0  0  0  0  0  0  0  0  0  0  0  0
    1.7120   19.7156  -20.3720 C   0  0  0  0  0  0  0  0  0  0  0  0
    1.4022   18.3626  -20.2701 C   0  0  0  0  0  0  0  0  0  0  0  0
   -0.2233   17.8434  -20.6306 Cl  0  0  0  0  0  0  0  0  0  0  0  0
    1.6195   15.3909  -18.6836 C   0  0  0  0  0  0  0  0  0  0  0  0
    2.0333   16.1081  -19.7950 O   0  0  0  0  0  0  0  0  0  0  0  0
    5.2481   19.6315  -19.4185 O   0  0  0  0  0  0  0  0  0  0  0  0
    6.2310   19.5289  -20.4234 C   0  0  0  0  0  0  0  0  0  0  0  0
   -2.9599   23.1774  -26.3746 C   0  0  0  0  0  0  0  0  0  0  0  0
   -3.5782   22.6551  -27.5085 C   0  0  0  0  0  0  0  0  0  0  0  0
   -4.7112   23.3530  -27.7060 N   0  0  0  0  0  0  0  0  0  0  0  0
   -4.8388   24.2857  -26.7579 N   0  0  0  0  0  0  0  0  0  0  0  0
   -3.7868   24.1946  -25.9419 C   0  0  0  0  0  0  0  0  0  0  0  0
   -5.9231   25.2454  -26.6144 C   0  0  0  0  0  0  0  0  0  0  0  0
   -5.4561   26.3510  -25.7266 C   0  0  0  0  0  0  0  0  0  0  0  0
   -6.3913   26.6398  -24.5751 C   0  0  0  0  0  0  0  0  0  0  0  0
   -6.7649   25.4711  -23.8433 N   0  0  0  0  0  0  0  0  0  0  0  0
   -6.9732   24.3004  -24.6333 C   0  0  0  0  0  0  0  0  0  0  0  0
   -7.1794   24.5798  -26.0969 C   0  0  0  0  0  0  0  0  0  0  0  0
   -6.1740   25.2511  -23.0211 H   0  0  0  0  0  0  0  0  0  0  0  0
 25 26  1  0  0  0
 26 17  1  0  0  0
 17 18  2  0  0  0
 18 19  1  0  0  0
 19 27  1  0  0  0
 27 28  1  0  0  0
 19 20  2  0  0  0
 20 21  1  0  0  0
 20 22  1  0  0  0
 22 23  2  0  0  0
 23 24  1  0  0  0
 22 10  1  0  0  0
 10 11  1  0  0  0
 11 12  2  0  0  0
 12 13  1  0  0  0
 13 14  2  0  0  0
 14 15  1  0  0  0
 15 16  2  0  0  0
 12  1  1  0  0  0
  1  2  2  0  0  0
  2  3  1  0  0  0
  3  4  2  0  0  0
  4  5  1  0  0  0
  5  6  2  0  0  0
  6  7  1  0  0  0
  3 29  1  0  0  0
 29 30  1  0  0  0
 30 31  2  0  0  0
 31 32  1  0  0  0
 32 33  1  0  0  0
 32 34  1  0  0  0
 34 35  1  0  0  0
 35 36  1  0  0  0
 36 37  1  0  0  0
 37 38  1  0  0  0
 38 39  1  0  0  0
 23 17  1  0  0  0
 15 10  1  0  0  0
  6  1  1  0  0  0
 33 29  2  0  0  0
 39 34  1  0  0  0
  7  8  1  0  0  0
  7  9  1  0  0  0
 37 40  1  0  0  0
M  END
> <minimizedAffinity>
-7.76549

> <CNNscore>
0.3798800111

> <CNNaffinity>
7.3620362282

> <CNN_VS>
2.7966904640

> <CNNaffinity_variance>
0.1672598571

$$$$
[H]c1nc(N([H])[H])c(-c2nn(-c3c(Cl)c(OC([H])([H])[H])c([H])c(OC([H])([H])[H])c3Cl)c(=O)c([H])c2[H])nc1-c1c([H])nn(C2([H])C([H])([H])C([H])([H])N([H])C([H])([H])C2([H])[H])c1[H]


 40 44  0  0  0  0  0  0  0  0999 V2000
    0.3246   18.4962  -20.4435 C   0  0  0  0  0  0  0  0  0  0  0  0
   -0.5662   17.5274  -20.0861 N   0  0  0  0  0  0  0  0  0  0  0  0
   -0.1837   16.2795  -19.8316 C   0  0  0  0  0  0  0  0  0  0  0  0
    1.1436   15.9667  -19.9339 C   0  0  0  0  0  0  0  0  0  0  0  0
    2.0790   16.8833  -20.2847 N   0  0  0  0  0  0  0  0  0  0  0  0
    1.6433   18.1350  -20.5328 C   0  0  0  0  0  0  0  0  0  0  0  0
    2.5951   19.1011  -20.8992 N   0  0  0  0  0  0  0  0  0  0  0  0
    2.8560   19.1667  -21.9078 H   0  0  0  0  0  0  0  0  0  0  0  0
    3.0058   19.7111  -20.1778 H   0  0  0  0  0  0  0  0  0  0  0  0
   -0.8470   21.4591  -22.2329 N   0  0  0  0  0  0  0  0  0  0  0  0
   -0.4623   20.2100  -21.9619 N   0  0  0  0  0  0  0  0  0  0  0  0
   -0.0909   19.8552  -20.7200 C   0  0  0  0  0  0  0  0  0  0  0  0
   -0.1156   20.8080  -19.7305 C   0  0  0  0  0  0  0  0  0  0  0  0
   -0.5123   22.1092  -19.9931 C   0  0  0  0  0  0  0  0  0  0  0  0
   -0.8811   22.4091  -21.2882 C   0  0  0  0  0  0  0  0  0  0  0  0
   -1.2481   23.5729  -21.5777 O   0  0  0  0  0  0  0  0  0  0  0  0
   -2.9383   22.0574  -25.2471 C   0  0  0  0  0  0  0  0  0  0  0  0
   -1.9619   22.2758  -26.1867 C   0  0  0  0  0  0  0  0  0  0  0  0
   -0.6121   22.2333  -25.8519 C   0  0  0  0  0  0  0  0  0  0  0  0
   -0.2718   21.9665  -24.5543 C   0  0  0  0  0  0  0  0  0  0  0  0
    1.4245   21.9120  -24.1269 Cl  0  0  0  0  0  0  0  0  0  0  0  0
   -1.2198   21.7418  -23.5835 C   0  0  0  0  0  0  0  0  0  0  0  0
   -2.5605   21.7923  -23.9535 C   0  0  0  0  0  0  0  0  0  0  0  0
   -3.7788   21.5089  -22.7382 Cl  0  0  0  0  0  0  0  0  0  0  0  0
   -4.9596   23.1396  -26.2055 C   0  0  0  0  0  0  0  0  0  0  0  0
   -4.2586   22.1061  -25.6044 O   0  0  0  0  0  0  0  0  0  0  0  0
    0.3578   22.4559  -26.8117 O   0  0  0  0  0  0  0  0  0  0  0  0
   -0.0379   22.9514  -28.0704 C   0  0  0  0  0  0  0  0  0  0  0  0
   -1.1535   15.2724  -19.4505 C   0  0  0  0  0  0  0  0  0  0  0  0
   -0.8834   14.1372  -18.6894 C   0  0  0  0  0  0  0  0  0  0  0  0
   -2.0380   13.4602  -18.5539 N   0  0  0  0  0  0  0  0  0  0  0  0
   -3.0192   14.1080  -19.1884 N   0  0  0  0  0  0  0  0  0  0  0  0
   -2.5023   15.2088  -19.7379 C   0  0  0  0  0  0  0  0  0  0  0  0
   -4.4154   13.7083  -19.2806 C   0  0  0  0  0  0  0  0  0  0  0  0
   -5.1547   14.7596  -20.0401 C   0  0  0  0  0  0  0  0  0  0  0  0
   -6.3894   15.2649  -19.3302 C   0  0  0  0  0  0  0  0  0  0  0  0
   -6.1480   15.6385  -17.9726 N   0  0  0  0  0  0  0  0  0  0  0  0
   -5.2312   14.8026  -17.2663 C   0  0  0  0  0  0  0  0  0  0  0  0
   -5.0067   13.4617  -17.9099 C   0  0  0  0  0  0  0  0  0  0  0  0
   -5.9185   16.6369  -17.8183 H   0  0  0  0  0  0  0  0  0  0  0  0
 25 26  1  0  0  0
 26 17  1  0  0  0
 17 18  2  0  0  0
 18 19  1  0  0  0
 19 27  1  0  0  0
 27 28  1  0  0  0
 19 20  2  0  0  0
 20 21  1  0  0  0
 20 22  1  0  0  0
 22 23  2  0  0  0
 23 24  1  0  0  0
 22 10  1  0  0  0
 10 11  1  0  0  0
 11 12  2  0  0  0
 12 13  1  0  0  0
 13 14  2  0  0  0
 14 15  1  0  0  0
 15 16  2  0  0  0
 12  1  1  0  0  0
  1  2  2  0  0  0
  2  3  1  0  0  0
  3  4  2  0  0  0
  4  5  1  0  0  0
  5  6  2  0  0  0
  6  7  1  0  0  0
  3 29  1  0  0  0
 29 30  1  0  0  0
 30 31  2  0  0  0
 31 32  1  0  0  0
 32 33  1  0  0  0
 32 34  1  0  0  0
 34 35  1  0  0  0
 35 36  1  0  0  0
 36 37  1  0  0  0
 37 38  1  0  0  0
 38 39  1  0  0  0
 23 17  1  0  0  0
 15 10  1  0  0  0
  6  1  1  0  0  0
 33 29  2  0  0  0
 39 34  1  0  0  0
  7  8  1  0  0  0
  7  9  1  0  0  0
 37 40  1  0  0  0
M  END
> <minimizedAffinity>
-7.13977

> <CNNscore>
0.1521333456

> <CNNaffinity>
6.6789884567

> <CNN_VS>
1.0160968304

> <CNNaffinity_variance>
0.0488125123

$$$$
[H]c1nc(N([H])[H])c(-c2nn(-c3c(Cl)c(OC([H])([H])[H])c([H])c(OC([H])([H])[H])c3Cl)c(=O)c([H])c2[H])nc1-c1c([H])nn(C2([H])C([H])([H])C([H])([H])N([H])C([H])([H])C2([H])[H])c1[H]


 40 44  0  0  0  0  0  0  0  0999 V2000
   -0.3762   21.8515  -23.6768 C   0  0  0  0  0  0  0  0  0  0  0  0
   -1.5932   22.3288  -24.0651 N   0  0  0  0  0  0  0  0  0  0  0  0
   -1.8305   22.7162  -25.3149 C   0  0  0  0  0  0  0  0  0  0  0  0
   -0.8192   22.6307  -26.2312 C   0  0  0  0  0  0  0  0  0  0  0  0
    0.4129   22.1655  -25.9091 N   0  0  0  0  0  0  0  0  0  0  0  0
    0.6056   21.7844  -24.6301 C   0  0  0  0  0  0  0  0  0  0  0  0
    1.8752   21.3002  -24.2734 N   0  0  0  0  0  0  0  0  0  0  0  0
    2.6025   21.9987  -24.0039 H   0  0  0  0  0  0  0  0  0  0  0  0
    2.0557   20.2860  -24.2857 H   0  0  0  0  0  0  0  0  0  0  0  0
    1.3861   21.0844  -20.5688 N   0  0  0  0  0  0  0  0  0  0  0  0
    1.1311   21.4716  -21.8206 N   0  0  0  0  0  0  0  0  0  0  0  0
   -0.1173   21.4286  -22.3166 C   0  0  0  0  0  0  0  0  0  0  0  0
   -1.1301   20.9764  -21.5059 C   0  0  0  0  0  0  0  0  0  0  0  0
   -0.8843   20.5708  -20.2042 C   0  0  0  0  0  0  0  0  0  0  0  0
    0.4185   20.6391  -19.7555 C   0  0  0  0  0  0  0  0  0  0  0  0
    0.6935   20.2834  -18.5846 O   0  0  0  0  0  0  0  0  0  0  0  0
    4.9798   20.2541  -20.1077 C   0  0  0  0  0  0  0  0  0  0  0  0
    5.3704   21.2879  -19.2936 C   0  0  0  0  0  0  0  0  0  0  0  0
    4.4713   22.2683  -18.8862 C   0  0  0  0  0  0  0  0  0  0  0  0
    3.1759   22.1824  -19.3164 C   0  0  0  0  0  0  0  0  0  0  0  0
    2.0402   23.4130  -18.8076 Cl  0  0  0  0  0  0  0  0  0  0  0  0
    2.7449   21.1624  -20.1324 C   0  0  0  0  0  0  0  0  0  0  0  0
    3.6711   20.1990  -20.5208 C   0  0  0  0  0  0  0  0  0  0  0  0
    3.1452   18.8962  -21.5542 Cl  0  0  0  0  0  0  0  0  0  0  0  0
    6.2269   18.1189  -19.8607 C   0  0  0  0  0  0  0  0  0  0  0  0
    5.8858   19.3037  -20.4937 O   0  0  0  0  0  0  0  0  0  0  0  0
    4.8826   23.3025  -18.0660 O   0  0  0  0  0  0  0  0  0  0  0  0
    4.9646   23.0728  -16.6778 C   0  0  0  0  0  0  0  0  0  0  0  0
   -3.1356   23.2160  -25.6985 C   0  0  0  0  0  0  0  0  0  0  0  0
   -4.0228   23.8868  -24.8595 C   0  0  0  0  0  0  0  0  0  0  0  0
   -5.1154   24.1848  -25.5857 N   0  0  0  0  0  0  0  0  0  0  0  0
   -4.9632   23.7378  -26.8356 N   0  0  0  0  0  0  0  0  0  0  0  0
   -3.7694   23.1479  -26.9230 C   0  0  0  0  0  0  0  0  0  0  0  0
   -5.9141   23.8590  -27.9303 C   0  0  0  0  0  0  0  0  0  0  0  0
   -5.4074   23.0562  -29.0824 C   0  0  0  0  0  0  0  0  0  0  0  0
   -5.3469   23.8289  -30.3798 C   0  0  0  0  0  0  0  0  0  0  0  0
   -4.6843   25.0886  -30.2572 N   0  0  0  0  0  0  0  0  0  0  0  0
   -4.9339   25.7903  -29.0393 C   0  0  0  0  0  0  0  0  0  0  0  0
   -6.1489   25.3086  -28.2946 C   0  0  0  0  0  0  0  0  0  0  0  0
   -3.6701   25.0822  -30.4686 H   0  0  0  0  0  0  0  0  0  0  0  0
 25 26  1  0  0  0
 26 17  1  0  0  0
 17 18  2  0  0  0
 18 19  1  0  0  0
 19 27  1  0  0  0
 27 28  1  0  0  0
 19 20  2  0  0  0
 20 21  1  0  0  0
 20 22  1  0  0  0
 22 23  2  0  0  0
 23 24  1  0  0  0
 22 10  1  0  0  0
 10 11  1  0  0  0
 11 12  2  0  0  0
 12 13  1  0  0  0
 13 14  2  0  0  0
 14 15  1  0  0  0
 15 16  2  0  0  0
 12  1  1  0  0  0
  1  2  2  0  0  0
  2  3  1  0  0  0
  3  4  2  0  0  0
  4  5  1  0  0  0
  5  6  2  0  0  0
  6  7  1  0  0  0
  3 29  1  0  0  0
 29 30  1  0  0  0
 30 31  2  0  0  0
 31 32  1  0  0  0
 32 33  1  0  0  0
 32 34  1  0  0  0
 34 35  1  0  0  0
 35 36  1  0  0  0
 36 37  1  0  0  0
 37 38  1  0  0  0
 38 39  1  0  0  0
 23 17  1  0  0  0
 15 10  1  0  0  0
  6  1  1  0  0  0
 33 29  2  0  0  0
 39 34  1  0  0  0
  7  8  1  0  0  0
  7  9  1  0  0  0
 37 40  1  0  0  0
M  END
> <minimizedAffinity>
-8.17253

> <CNNscore>
0.1382333338

> <CNNaffinity>
7.1772551537

> <CNN_VS>
0.9921358824

> <CNNaffinity_variance>
0.2219684571

$$$$
[H]c1nc(N([H])[H])c(-c2nn(-c3c(Cl)c(OC([H])([H])[H])c([H])c(OC([H])([H])[H])c3Cl)c(=O)c([H])c2[H])nc1-c1c([H])nn(C2([H])C([H])([H])C([H])([H])N([H])C([H])([H])C2([H])[H])c1[H]


 40 44  0  0  0  0  0  0  0  0999 V2000
    0.3609   18.6361  -20.5740 C   0  0  0  0  0  0  0  0  0  0  0  0
   -0.4669   17.6588  -20.1057 N   0  0  0  0  0  0  0  0  0  0  0  0
   -0.0417   16.4157  -19.8999 C   0  0  0  0  0  0  0  0  0  0  0  0
    1.2653   16.1168  -20.1688 C   0  0  0  0  0  0  0  0  0  0  0  0
    2.1389   17.0424  -20.6362 N   0  0  0  0  0  0  0  0  0  0  0  0
    1.6617   18.2887  -20.8288 C   0  0  0  0  0  0  0  0  0  0  0  0
    2.5489   19.2639  -21.3139 N   0  0  0  0  0  0  0  0  0  0  0  0
    2.6795   19.3296  -22.3475 H   0  0  0  0  0  0  0  0  0  0  0  0
    3.0409   19.8801  -20.6510 H   0  0  0  0  0  0  0  0  0  0  0  0
   -0.9763   21.6056  -22.2314 N   0  0  0  0  0  0  0  0  0  0  0  0
   -0.5480   20.3610  -22.0093 N   0  0  0  0  0  0  0  0  0  0  0  0
   -0.1009   19.9898  -20.7975 C   0  0  0  0  0  0  0  0  0  0  0  0
   -0.0938   20.9210  -19.7873 C   0  0  0  0  0  0  0  0  0  0  0  0
   -0.5348   22.2172  -19.9993 C   0  0  0  0  0  0  0  0  0  0  0  0
   -0.9810   22.5347  -21.2656 C   0  0  0  0  0  0  0  0  0  0  0  0
   -1.3906   23.6948  -21.5089 O   0  0  0  0  0  0  0  0  0  0  0  0
   -0.9409   22.5643  -25.8226 C   0  0  0  0  0  0  0  0  0  0  0  0
   -2.2820   22.5028  -26.1086 C   0  0  0  0  0  0  0  0  0  0  0  0
   -3.2139   22.1472  -25.1385 C   0  0  0  0  0  0  0  0  0  0  0  0
   -2.7642   21.8568  -23.8800 C   0  0  0  0  0  0  0  0  0  0  0  0
   -3.9316   21.4085  -22.6554 Cl  0  0  0  0  0  0  0  0  0  0  0  0
   -1.4291   21.9070  -23.5532 C   0  0  0  0  0  0  0  0  0  0  0  0
   -0.5246   22.2662  -24.5481 C   0  0  0  0  0  0  0  0  0  0  0  0
    1.1729   22.3374  -24.1546 Cl  0  0  0  0  0  0  0  0  0  0  0  0
    0.1581   22.3389  -28.0399 C   0  0  0  0  0  0  0  0  0  0  0  0
   -0.0463   22.9163  -26.7966 O   0  0  0  0  0  0  0  0  0  0  0  0
   -4.5609   22.0904  -25.4448 O   0  0  0  0  0  0  0  0  0  0  0  0
   -5.3084   23.2853  -25.4309 C   0  0  0  0  0  0  0  0  0  0  0  0
   -0.9446   15.3994  -19.3980 C   0  0  0  0  0  0  0  0  0  0  0  0
   -0.5937   14.3582  -18.5414 C   0  0  0  0  0  0  0  0  0  0  0  0
   -1.7052   13.6366  -18.3096 N   0  0  0  0  0  0  0  0  0  0  0  0
   -2.7356   14.1674  -18.9740 N   0  0  0  0  0  0  0  0  0  0  0  0
   -2.2940   15.2366  -19.6393 C   0  0  0  0  0  0  0  0  0  0  0  0
   -4.1090   13.6868  -18.9880 C   0  0  0  0  0  0  0  0  0  0  0  0
   -4.8946   14.5401  -19.9279 C   0  0  0  0  0  0  0  0  0  0  0  0
   -6.1588   15.1044  -19.3218 C   0  0  0  0  0  0  0  0  0  0  0  0
   -5.9471   15.7348  -18.0575 N   0  0  0  0  0  0  0  0  0  0  0  0
   -4.9947   15.0921  -17.2101 C   0  0  0  0  0  0  0  0  0  0  0  0
   -4.6977   13.6684  -17.5944 C   0  0  0  0  0  0  0  0  0  0  0  0
   -5.7695   16.7549  -18.0913 H   0  0  0  0  0  0  0  0  0  0  0  0
 25 26  1  0  0  0
 26 17  1  0  0  0
 17 18  2  0  0  0
 18 19  1  0  0  0
 19 27  1  0  0  0
 27 28  1  0  0  0
 19 20  2  0  0  0
 20 21  1  0  0  0
 20 22  1  0  0  0
 22 23  2  0  0  0
 23 24  1  0  0  0
 22 10  1  0  0  0
 10 11  1  0  0  0
 11 12  2  0  0  0
 12 13  1  0  0  0
 13 14  2  0  0  0
 14 15  1  0  0  0
 15 16  2  0  0  0
 12  1  1  0  0  0
  1  2  2  0  0  0
  2  3  1  0  0  0
  3  4  2  0  0  0
  4  5  1  0  0  0
  5  6  2  0  0  0
  6  7  1  0  0  0
  3 29  1  0  0  0
 29 30  1  0  0  0
 30 31  2  0  0  0
 31 32  1  0  0  0
 32 33  1  0  0  0
 32 34  1  0  0  0
 34 35  1  0  0  0
 35 36  1  0  0  0
 36 37  1  0  0  0
 37 38  1  0  0  0
 38 39  1  0  0  0
 23 17  1  0  0  0
 15 10  1  0  0  0
  6  1  1  0  0  0
 33 29  2  0  0  0
 39 34  1  0  0  0
  7  8  1  0  0  0
  7  9  1  0  0  0
 37 40  1  0  0  0
M  END
> <minimizedAffinity>
-6.82566

> <CNNscore>
0.1370847374

> <CNNaffinity>
6.5213713646

> <CNN_VS>
0.8939805031

> <CNNaffinity_variance>
0.0689868480

$$$$
[H]c1nc(N([H])[H])c(-c2nn(-c3c(Cl)c(OC([H])([H])[H])c([H])c(OC([H])([H])[H])c3Cl)c(=O)c([H])c2[H])nc1-c1c([H])nn(C2([H])C([H])([H])C([H])([H])N([H])C([H])([H])C2([H])[H])c1[H]


 40 44  0  0  0  0  0  0  0  0999 V2000
   -0.4798   22.1086  -23.7900 C   0  0  0  0  0  0  0  0  0  0  0  0
   -1.6711   22.6053  -24.2303 N   0  0  0  0  0  0  0  0  0  0  0  0
   -1.8953   22.8589  -25.5163 C   0  0  0  0  0  0  0  0  0  0  0  0
   -0.8967   22.6118  -26.4171 C   0  0  0  0  0  0  0  0  0  0  0  0
    0.3099   22.1186  -26.0441 N   0  0  0  0  0  0  0  0  0  0  0  0
    0.4901   21.8772  -24.7298 C   0  0  0  0  0  0  0  0  0  0  0  0
    1.7333   21.3670  -24.3202 N   0  0  0  0  0  0  0  0  0  0  0  0
    2.5002   22.0501  -24.1336 H   0  0  0  0  0  0  0  0  0  0  0  0
    1.8571   20.3497  -24.2154 H   0  0  0  0  0  0  0  0  0  0  0  0
    0.8773   20.6101  -20.7460 N   0  0  0  0  0  0  0  0  0  0  0  0
    0.6416   20.8780  -22.0323 N   0  0  0  0  0  0  0  0  0  0  0  0
   -0.2352   21.8315  -22.3903 C   0  0  0  0  0  0  0  0  0  0  0  0
   -0.8867   22.5283  -21.4015 C   0  0  0  0  0  0  0  0  0  0  0  0
   -0.6545   22.2642  -20.0614 C   0  0  0  0  0  0  0  0  0  0  0  0
    0.2570   21.2733  -19.7605 C   0  0  0  0  0  0  0  0  0  0  0  0
    0.5025   20.9960  -18.5622 O   0  0  0  0  0  0  0  0  0  0  0  0
    2.2929   17.2652  -19.9554 C   0  0  0  0  0  0  0  0  0  0  0  0
    3.6310   17.5675  -19.9079 C   0  0  0  0  0  0  0  0  0  0  0  0
    4.0897   18.8614  -20.1341 C   0  0  0  0  0  0  0  0  0  0  0  0
    3.1724   19.8383  -20.4077 C   0  0  0  0  0  0  0  0  0  0  0  0
    3.7433   21.4679  -20.6934 Cl  0  0  0  0  0  0  0  0  0  0  0  0
    1.8233   19.5764  -20.4640 C   0  0  0  0  0  0  0  0  0  0  0  0
    1.3996   18.2710  -20.2330 C   0  0  0  0  0  0  0  0  0  0  0  0
   -0.3069   17.9175  -20.2982 Cl  0  0  0  0  0  0  0  0  0  0  0  0
    1.5502   15.3718  -18.5278 C   0  0  0  0  0  0  0  0  0  0  0  0
    1.8698   15.9835  -19.7297 O   0  0  0  0  0  0  0  0  0  0  0  0
    5.4414   19.1474  -20.0823 O   0  0  0  0  0  0  0  0  0  0  0  0
    6.2333   18.8783  -21.2168 C   0  0  0  0  0  0  0  0  0  0  0  0
   -3.1732   23.3834  -25.9543 C   0  0  0  0  0  0  0  0  0  0  0  0
   -4.0004   24.2221  -25.2105 C   0  0  0  0  0  0  0  0  0  0  0  0
   -5.0855   24.4851  -25.9611 N   0  0  0  0  0  0  0  0  0  0  0  0
   -4.9853   23.8574  -27.1362 N   0  0  0  0  0  0  0  0  0  0  0  0
   -3.8329   23.1846  -27.1505 C   0  0  0  0  0  0  0  0  0  0  0  0
   -5.9472   23.8846  -28.2278 C   0  0  0  0  0  0  0  0  0  0  0  0
   -5.3919   23.0878  -29.3617 C   0  0  0  0  0  0  0  0  0  0  0  0
   -5.3900   23.8282  -30.6791 C   0  0  0  0  0  0  0  0  0  0  0  0
   -4.8143   25.1329  -30.5936 N   0  0  0  0  0  0  0  0  0  0  0  0
   -5.1058   25.8480  -29.3929 C   0  0  0  0  0  0  0  0  0  0  0  0
   -6.2818   25.3046  -28.6284 C   0  0  0  0  0  0  0  0  0  0  0  0
   -3.8030   25.1899  -30.8111 H   0  0  0  0  0  0  0  0  0  0  0  0
 25 26  1  0  0  0
 26 17  1  0  0  0
 17 18  2  0  0  0
 18 19  1  0  0  0
 19 27  1  0  0  0
 27 28  1  0  0  0
 19 20  2  0  0  0
 20 21  1  0  0  0
 20 22  1  0  0  0
 22 23  2  0  0  0
 23 24  1  0  0  0
 22 10  1  0  0  0
 10 11  1  0  0  0
 11 12  2  0  0  0
 12 13  1  0  0  0
 13 14  2  0  0  0
 14 15  1  0  0  0
 15 16  2  0  0  0
 12  1  1  0  0  0
  1  2  2  0  0  0
  2  3  1  0  0  0
  3  4  2  0  0  0
  4  5  1  0  0  0
  5  6  2  0  0  0
  6  7  1  0  0  0
  3 29  1  0  0  0
 29 30  1  0  0  0
 30 31  2  0  0  0
 31 32  1  0  0  0
 32 33  1  0  0  0
 32 34  1  0  0  0
 34 35  1  0  0  0
 35 36  1  0  0  0
 36 37  1  0  0  0
 37 38  1  0  0  0
 38 39  1  0  0  0
 23 17  1  0  0  0
 15 10  1  0  0  0
  6  1  1  0  0  0
 33 29  2  0  0  0
 39 34  1  0  0  0
  7  8  1  0  0  0
  7  9  1  0  0  0
 37 40  1  0  0  0
M  END
> <minimizedAffinity>
-7.84801

> <CNNscore>
0.1346493810

> <CNNaffinity>
7.2376403809

> <CNN_VS>
0.9745438099

> <CNNaffinity_variance>
0.3571820557

$$$$
[H]c1nc(N([H])[H])c(-c2nn(-c3c([H])c(OC([H])([H])[H])c([H])c(OC([H])([H])[H])c3[H])c(=O)c([H])c2[H])nc1-c1c([H])nn(C2([H])C([H])([H])C([H])([H])N([H])C([H])([H])C2([H])[H])c1[H]


 38 42  0  0  0  0  0  0  0  0999 V2000
   -2.2105   22.7648  -26.3884 C   0  0  0  0  0  0  0  0  0  0  0  0
   -1.5876   22.3804  -25.2466 N   0  0  0  0  0  0  0  0  0  0  0  0
   -0.2762   22.0893  -25.2423 C   0  0  0  0  0  0  0  0  0  0  0  0
    0.3960   22.1988  -26.4379 C   0  0  0  0  0  0  0  0  0  0  0  0
   -0.2163   22.5801  -27.5764 N   0  0  0  0  0  0  0  0  0  0  0  0
   -1.5316   22.8710  -27.5756 C   0  0  0  0  0  0  0  0  0  0  0  0
   -2.2102   23.2801  -28.7744 N   0  0  0  0  0  0  0  0  0  0  0  0
   -2.6794   22.5827  -29.3855 H   0  0  0  0  0  0  0  0  0  0  0  0
   -2.2549   24.2809  -29.0697 H   0  0  0  0  0  0  0  0  0  0  0  0
   -5.6377   23.4453  -25.2477 N   0  0  0  0  0  0  0  0  0  0  0  0
   -4.3343   23.1587  -25.2489 N   0  0  0  0  0  0  0  0  0  0  0  0
   -3.6355   23.0774  -26.3763 C   0  0  0  0  0  0  0  0  0  0  0  0
   -4.2864   23.2967  -27.5621 C   0  0  0  0  0  0  0  0  0  0  0  0
   -5.6293   23.5958  -27.6204 C   0  0  0  0  0  0  0  0  0  0  0  0
   -6.2955   23.6640  -26.4020 C   0  0  0  0  0  0  0  0  0  0  0  0
   -7.5242   23.9337  -26.3942 O   0  0  0  0  0  0  0  0  0  0  0  0
   -7.6019   24.9191  -22.4703 C   0  0  0  0  0  0  0  0  0  0  0  0
   -7.8886   23.7829  -21.7328 C   0  0  0  0  0  0  0  0  0  0  0  0
   -7.4552   22.5311  -22.1179 C   0  0  0  0  0  0  0  0  0  0  0  0
   -6.7201   22.4346  -23.2692 C   0  0  0  0  0  0  0  0  0  0  0  0
   -6.4002   23.5361  -24.0510 C   0  0  0  0  0  0  0  0  0  0  0  0
   -6.8566   24.7655  -23.6238 C   0  0  0  0  0  0  0  0  0  0  0  0
   -8.4139   26.5450  -20.8151 C   0  0  0  0  0  0  0  0  0  0  0  0
   -8.0250   26.1883  -22.1060 O   0  0  0  0  0  0  0  0  0  0  0  0
   -7.7595   21.4119  -21.3564 O   0  0  0  0  0  0  0  0  0  0  0  0
   -8.5249   21.4391  -20.1921 C   0  0  0  0  0  0  0  0  0  0  0  0
    0.3838   21.6773  -24.0112 C   0  0  0  0  0  0  0  0  0  0  0  0
   -0.1751   21.4030  -22.7818 C   0  0  0  0  0  0  0  0  0  0  0  0
    0.8135   21.0680  -21.9653 N   0  0  0  0  0  0  0  0  0  0  0  0
    1.9818   21.0999  -22.5609 N   0  0  0  0  0  0  0  0  0  0  0  0
    1.7427   21.4766  -23.8362 C   0  0  0  0  0  0  0  0  0  0  0  0
    3.2859   20.7967  -21.9900 C   0  0  0  0  0  0  0  0  0  0  0  0
    3.5479   19.3320  -22.1900 C   0  0  0  0  0  0  0  0  0  0  0  0
    4.8652   18.9146  -21.5816 C   0  0  0  0  0  0  0  0  0  0  0  0
    5.1679   19.6769  -20.3785 N   0  0  0  0  0  0  0  0  0  0  0  0
    3.9478   20.1044  -19.7152 C   0  0  0  0  0  0  0  0  0  0  0  0
    3.3075   21.2023  -20.5373 C   0  0  0  0  0  0  0  0  0  0  0  0
    5.6892   20.5660  -20.6140 H   0  0  0  0  0  0  0  0  0  0  0  0
 23 24  1  0  0  0
 24 17  1  0  0  0
 17 18  2  0  0  0
 18 19  1  0  0  0
 19 25  1  0  0  0
 25 26  1  0  0  0
 19 20  2  0  0  0
 20 21  1  0  0  0
 21 22  2  0  0  0
 21 10  1  0  0  0
 10 11  1  0  0  0
 11 12  2  0  0  0
 12 13  1  0  0  0
 13 14  2  0  0  0
 14 15  1  0  0  0
 15 16  2  0  0  0
 12  1  1  0  0  0
  1  2  2  0  0  0
  2  3  1  0  0  0
  3  4  2  0  0  0
  4  5  1  0  0  0
  5  6  2  0  0  0
  6  7  1  0  0  0
  3 27  1  0  0  0
 27 28  1  0  0  0
 28 29  2  0  0  0
 29 30  1  0  0  0
 30 31  1  0  0  0
 30 32  1  0  0  0
 32 33  1  0  0  0
 33 34  1  0  0  0
 34 35  1  0  0  0
 35 36  1  0  0  0
 36 37  1  0  0  0
 22 17  1  0  0  0
 15 10  1  0  0  0
  6  1  1  0  0  0
 31 27  2  0  0  0
 37 32  1  0  0  0
  7  8  1  0  0  0
  7  9  1  0  0  0
 35 38  1  0  0  0
M  END
> <minimizedAffinity>
-9.25363

> <CNNscore>
0.7046689987

> <CNNaffinity>
7.4982094765

> <CNN_VS>
5.2837557793

> <CNNaffinity_variance>
0.1619458497

$$$$
[H]c1nc(N([H])[H])c(-c2nn(-c3c([H])c(OC([H])([H])[H])c([H])c(OC([H])([H])[H])c3[H])c(=O)c([H])c2[H])nc1-c1c([H])nn(C2([H])C([H])([H])C([H])([H])N([H])C([H])([H])C2([H])[H])c1[H]


 38 42  0  0  0  0  0  0  0  0999 V2000
   -1.9626   22.5643  -25.7502 C   0  0  0  0  0  0  0  0  0  0  0  0
   -1.4839   22.1854  -24.5391 N   0  0  0  0  0  0  0  0  0  0  0  0
   -0.1913   21.8548  -24.3825 C   0  0  0  0  0  0  0  0  0  0  0  0
    0.6134   21.9187  -25.4967 C   0  0  0  0  0  0  0  0  0  0  0  0
    0.1447   22.2941  -26.7033 N   0  0  0  0  0  0  0  0  0  0  0  0
   -1.1523   22.6247  -26.8553 C   0  0  0  0  0  0  0  0  0  0  0  0
   -1.6792   23.0287  -28.1298 N   0  0  0  0  0  0  0  0  0  0  0  0
   -2.0996   22.3330  -28.7773 H   0  0  0  0  0  0  0  0  0  0  0  0
   -1.6581   24.0239  -28.4459 H   0  0  0  0  0  0  0  0  0  0  0  0
   -5.4629   23.4084  -25.0116 N   0  0  0  0  0  0  0  0  0  0  0  0
   -4.1774   23.0828  -24.8614 N   0  0  0  0  0  0  0  0  0  0  0  0
   -3.3692   22.9201  -25.9037 C   0  0  0  0  0  0  0  0  0  0  0  0
   -3.8857   23.0951  -27.1608 C   0  0  0  0  0  0  0  0  0  0  0  0
   -5.2038   23.4312  -27.3748 C   0  0  0  0  0  0  0  0  0  0  0  0
   -5.9895   23.5848  -26.2382 C   0  0  0  0  0  0  0  0  0  0  0  0
   -7.2020   23.8916  -26.3731 O   0  0  0  0  0  0  0  0  0  0  0  0
   -7.6175   22.5960  -22.1061 C   0  0  0  0  0  0  0  0  0  0  0  0
   -8.0496   23.8623  -21.7500 C   0  0  0  0  0  0  0  0  0  0  0  0
   -7.6548   24.9912  -22.4377 C   0  0  0  0  0  0  0  0  0  0  0  0
   -6.8088   24.8288  -23.5023 C   0  0  0  0  0  0  0  0  0  0  0  0
   -6.3413   23.5863  -23.9079 C   0  0  0  0  0  0  0  0  0  0  0  0
   -6.7647   22.4886  -23.1881 C   0  0  0  0  0  0  0  0  0  0  0  0
   -8.3523   21.4071  -20.0840 C   0  0  0  0  0  0  0  0  0  0  0  0
   -7.9987   21.4456  -21.4325 O   0  0  0  0  0  0  0  0  0  0  0  0
   -8.1059   26.2464  -22.0555 O   0  0  0  0  0  0  0  0  0  0  0  0
   -8.6551   26.5366  -20.8079 C   0  0  0  0  0  0  0  0  0  0  0  0
    0.3133   21.4492  -23.0779 C   0  0  0  0  0  0  0  0  0  0  0  0
   -0.3401   21.4373  -21.8647 C   0  0  0  0  0  0  0  0  0  0  0  0
    0.5181   20.9906  -20.9592 N   0  0  0  0  0  0  0  0  0  0  0  0
    1.6877   20.7068  -21.4810 N   0  0  0  0  0  0  0  0  0  0  0  0
    1.5874   20.9834  -22.7996 C   0  0  0  0  0  0  0  0  0  0  0  0
    2.8702   20.1966  -20.8027 C   0  0  0  0  0  0  0  0  0  0  0  0
    3.8290   21.3382  -20.6254 C   0  0  0  0  0  0  0  0  0  0  0  0
    5.1131   20.8892  -19.9704 C   0  0  0  0  0  0  0  0  0  0  0  0
    5.4687   19.5314  -20.3577 N   0  0  0  0  0  0  0  0  0  0  0  0
    4.9594   19.2203  -21.6825 C   0  0  0  0  0  0  0  0  0  0  0  0
    3.4567   19.0577  -21.5990 C   0  0  0  0  0  0  0  0  0  0  0  0
    5.0249   18.8236  -19.7097 H   0  0  0  0  0  0  0  0  0  0  0  0
 23 24  1  0  0  0
 24 17  1  0  0  0
 17 18  2  0  0  0
 18 19  1  0  0  0
 19 25  1  0  0  0
 25 26  1  0  0  0
 19 20  2  0  0  0
 20 21  1  0  0  0
 21 22  2  0  0  0
 21 10  1  0  0  0
 10 11  1  0  0  0
 11 12  2  0  0  0
 12 13  1  0  0  0
 13 14  2  0  0  0
 14 15  1  0  0  0
 15 16  2  0  0  0
 12  1  1  0  0  0
  1  2  2  0  0  0
  2  3  1  0  0  0
  3  4  2  0  0  0
  4  5  1  0  0  0
  5  6  2  0  0  0
  6  7  1  0  0  0
  3 27  1  0  0  0
 27 28  1  0  0  0
 28 29  2  0  0  0
 29 30  1  0  0  0
 30 31  1  0  0  0
 30 32  1  0  0  0
 32 33  1  0  0  0
 33 34  1  0  0  0
 34 35  1  0  0  0
 35 36  1  0  0  0
 36 37  1  0  0  0
 22 17  1  0  0  0
 15 10  1  0  0  0
  6  1  1  0  0  0
 31 27  2  0  0  0
 37 32  1  0  0  0
  7  8  1  0  0  0
  7  9  1  0  0  0
 35 38  1  0  0  0
M  END
> <minimizedAffinity>
-8.69661

> <CNNscore>
0.5760167837

> <CNNaffinity>
7.2759618759

> <CNN_VS>
4.1910762787

> <CNNaffinity_variance>
0.2193944007

$$$$
[H]c1nc(N([H])[H])c(-c2nn(-c3c([H])c(OC([H])([H])[H])c([H])c(OC([H])([H])[H])c3[H])c(=O)c([H])c2[H])nc1-c1c([H])nn(C2([H])C([H])([H])C([H])([H])N([H])C([H])([H])C2([H])[H])c1[H]


 38 42  0  0  0  0  0  0  0  0999 V2000
   -2.3300   22.8594  -26.4786 C   0  0  0  0  0  0  0  0  0  0  0  0
   -1.6812   22.4557  -25.3580 N   0  0  0  0  0  0  0  0  0  0  0  0
   -0.3725   22.1544  -25.3910 C   0  0  0  0  0  0  0  0  0  0  0  0
    0.2697   22.2738  -26.6019 C   0  0  0  0  0  0  0  0  0  0  0  0
   -0.3683   22.6742  -27.7195 N   0  0  0  0  0  0  0  0  0  0  0  0
   -1.6808   22.9752  -27.6814 C   0  0  0  0  0  0  0  0  0  0  0  0
   -2.3865   23.4047  -28.8572 N   0  0  0  0  0  0  0  0  0  0  0  0
   -2.8767   22.7187  -29.4647 H   0  0  0  0  0  0  0  0  0  0  0  0
   -2.4307   24.4094  -29.1389 H   0  0  0  0  0  0  0  0  0  0  0  0
   -5.7076   23.6116  -25.2394 N   0  0  0  0  0  0  0  0  0  0  0  0
   -4.4069   23.3155  -25.2776 N   0  0  0  0  0  0  0  0  0  0  0  0
   -3.7517   23.1829  -26.4261 C   0  0  0  0  0  0  0  0  0  0  0  0
   -4.4455   23.3582  -27.5947 C   0  0  0  0  0  0  0  0  0  0  0  0
   -5.7878   23.6646  -27.6150 C   0  0  0  0  0  0  0  0  0  0  0  0
   -6.4071   23.7877  -26.3764 C   0  0  0  0  0  0  0  0  0  0  0  0
   -7.6331   24.0667  -26.3337 O   0  0  0  0  0  0  0  0  0  0  0  0
   -7.4551   22.7135  -22.0955 C   0  0  0  0  0  0  0  0  0  0  0  0
   -7.8164   23.9699  -21.6394 C   0  0  0  0  0  0  0  0  0  0  0  0
   -7.5036   25.1194  -22.3350 C   0  0  0  0  0  0  0  0  0  0  0  0
   -6.8138   24.9883  -23.5107 C   0  0  0  0  0  0  0  0  0  0  0  0
   -6.4239   23.7572  -24.0199 C   0  0  0  0  0  0  0  0  0  0  0  0
   -6.7602   22.6378  -23.2876 C   0  0  0  0  0  0  0  0  0  0  0  0
   -7.2750   21.2263  -20.1466 C   0  0  0  0  0  0  0  0  0  0  0  0
   -7.7567   21.5428  -21.4165 O   0  0  0  0  0  0  0  0  0  0  0  0
   -7.8802   26.3639  -21.8507 O   0  0  0  0  0  0  0  0  0  0  0  0
   -8.6945   26.5590  -20.7367 C   0  0  0  0  0  0  0  0  0  0  0  0
    0.3153   21.7219  -24.1824 C   0  0  0  0  0  0  0  0  0  0  0  0
    1.6534   21.4464  -24.0018 C   0  0  0  0  0  0  0  0  0  0  0  0
    1.8149   21.0887  -22.7361 N   0  0  0  0  0  0  0  0  0  0  0  0
    0.6867   21.1067  -22.0672 N   0  0  0  0  0  0  0  0  0  0  0  0
   -0.2636   21.4977  -22.9445 C   0  0  0  0  0  0  0  0  0  0  0  0
    0.4719   20.7779  -20.6656 C   0  0  0  0  0  0  0  0  0  0  0  0
    0.1331   19.3177  -20.5809 C   0  0  0  0  0  0  0  0  0  0  0  0
   -0.1561   18.8954  -19.1605 C   0  0  0  0  0  0  0  0  0  0  0  0
   -0.7925   19.9623  -18.4009 N   0  0  0  0  0  0  0  0  0  0  0  0
   -1.5656   20.8296  -19.2734 C   0  0  0  0  0  0  0  0  0  0  0  0
   -0.6098   21.6637  -20.0995 C   0  0  0  0  0  0  0  0  0  0  0  0
   -0.0706   20.5872  -17.9468 H   0  0  0  0  0  0  0  0  0  0  0  0
 23 24  1  0  0  0
 24 17  1  0  0  0
 17 18  2  0  0  0
 18 19  1  0  0  0
 19 25  1  0  0  0
 25 26  1  0  0  0
 19 20  2  0  0  0
 20 21  1  0  0  0
 21 22  2  0  0  0
 21 10  1  0  0  0
 10 11  1  0  0  0
 11 12  2  0  0  0
 12 13  1  0  0  0
 13 14  2  0  0  0
 14 15  1  0  0  0
 15 16  2  0  0  0
 12  1  1  0  0  0
  1  2  2  0  0  0
  2  3  1  0  0  0
  3  4  2  0  0  0
  4  5  1  0  0  0
  5  6  2  0  0  0
  6  7  1  0  0  0
  3 27  1  0  0  0
 27 28  1  0  0  0
 28 29  2  0  0  0
 29 30  1  0  0  0
 30 31  1  0  0  0
 30 32  1  0  0  0
 32 33  1  0  0  0
 33 34  1  0  0  0
 34 35  1  0  0  0
 35 36  1  0  0  0
 36 37  1  0  0  0
 22 17  1  0  0  0
 15 10  1  0  0  0
  6  1  1  0  0  0
 31 27  2  0  0  0
 37 32  1  0  0  0
  7  8  1  0  0  0
  7  9  1  0  0  0
 35 38  1  0  0  0
M  END
> <minimizedAffinity>
-8.95775

> <CNNscore>
0.5530665517

> <CNNaffinity>
7.3606987000

> <CNN_VS>
4.0709562302

> <CNNaffinity_variance>
0.1605795324

$$$$
[H]c1nc(N([H])[H])c(-c2nn(-c3c([H])c(OC([H])([H])[H])c([H])c(OC([H])([H])[H])c3[H])c(=O)c([H])c2[H])nc1-c1c([H])nn(C2([H])C([H])([H])C([H])([H])N([H])C([H])([H])C2([H])[H])c1[H]


 38 42  0  0  0  0  0  0  0  0999 V2000
   -2.3766   22.8119  -26.2967 C   0  0  0  0  0  0  0  0  0  0  0  0
   -1.7842   22.4668  -25.1264 N   0  0  0  0  0  0  0  0  0  0  0  0
   -0.4758   22.1663  -25.0795 C   0  0  0  0  0  0  0  0  0  0  0  0
    0.2255   22.2250  -26.2618 C   0  0  0  0  0  0  0  0  0  0  0  0
   -0.3564   22.5669  -27.4284 N   0  0  0  0  0  0  0  0  0  0  0  0
   -1.6689   22.8675  -27.4703 C   0  0  0  0  0  0  0  0  0  0  0  0
   -2.3154   23.2354  -28.6998 N   0  0  0  0  0  0  0  0  0  0  0  0
   -2.7757   22.5186  -29.2950 H   0  0  0  0  0  0  0  0  0  0  0  0
   -2.3447   24.2245  -29.0341 H   0  0  0  0  0  0  0  0  0  0  0  0
   -5.8249   23.5573  -25.2655 N   0  0  0  0  0  0  0  0  0  0  0  0
   -4.5244   23.2612  -25.2245 N   0  0  0  0  0  0  0  0  0  0  0  0
   -3.7989   23.1354  -26.3307 C   0  0  0  0  0  0  0  0  0  0  0  0
   -4.4187   23.3180  -27.5392 C   0  0  0  0  0  0  0  0  0  0  0  0
   -5.7572   23.6249  -27.6411 C   0  0  0  0  0  0  0  0  0  0  0  0
   -6.4524   23.7405  -26.4427 C   0  0  0  0  0  0  0  0  0  0  0  0
   -7.6786   24.0195  -26.4747 O   0  0  0  0  0  0  0  0  0  0  0  0
   -8.1203   25.0494  -22.7656 C   0  0  0  0  0  0  0  0  0  0  0  0
   -8.1739   24.0291  -21.8311 C   0  0  0  0  0  0  0  0  0  0  0  0
   -7.4746   22.8509  -21.9922 C   0  0  0  0  0  0  0  0  0  0  0  0
   -6.7103   22.7095  -23.1197 C   0  0  0  0  0  0  0  0  0  0  0  0
   -6.6158   23.6956  -24.0920 C   0  0  0  0  0  0  0  0  0  0  0  0
   -7.3338   24.8549  -23.8850 C   0  0  0  0  0  0  0  0  0  0  0  0
  -10.1654   26.3314  -22.3005 C   0  0  0  0  0  0  0  0  0  0  0  0
   -8.8127   26.2427  -22.6283 O   0  0  0  0  0  0  0  0  0  0  0  0
   -7.5496   21.8474  -21.0370 O   0  0  0  0  0  0  0  0  0  0  0  0
   -6.4661   21.3972  -20.2850 C   0  0  0  0  0  0  0  0  0  0  0  0
    0.1513   21.7969  -23.8180 C   0  0  0  0  0  0  0  0  0  0  0  0
    1.4107   21.2830  -23.5975 C   0  0  0  0  0  0  0  0  0  0  0  0
    1.5400   21.1035  -22.2909 N   0  0  0  0  0  0  0  0  0  0  0  0
    0.4631   21.4592  -21.6319 N   0  0  0  0  0  0  0  0  0  0  0  0
   -0.4176   21.8949  -22.5593 C   0  0  0  0  0  0  0  0  0  0  0  0
    0.2348   21.4067  -20.1953 C   0  0  0  0  0  0  0  0  0  0  0  0
   -0.5611   20.1685  -19.8995 C   0  0  0  0  0  0  0  0  0  0  0  0
   -0.8891   20.0562  -18.4300 C   0  0  0  0  0  0  0  0  0  0  0  0
   -1.0921   21.3638  -17.8225 N   0  0  0  0  0  0  0  0  0  0  0  0
   -1.5858   22.3185  -18.8002 C   0  0  0  0  0  0  0  0  0  0  0  0
   -0.4589   22.6692  -19.7481 C   0  0  0  0  0  0  0  0  0  0  0  0
   -0.1791   21.7644  -17.4707 H   0  0  0  0  0  0  0  0  0  0  0  0
 23 24  1  0  0  0
 24 17  1  0  0  0
 17 18  2  0  0  0
 18 19  1  0  0  0
 19 25  1  0  0  0
 25 26  1  0  0  0
 19 20  2  0  0  0
 20 21  1  0  0  0
 21 22  2  0  0  0
 21 10  1  0  0  0
 10 11  1  0  0  0
 11 12  2  0  0  0
 12 13  1  0  0  0
 13 14  2  0  0  0
 14 15  1  0  0  0
 15 16  2  0  0  0
 12  1  1  0  0  0
  1  2  2  0  0  0
  2  3  1  0  0  0
  3  4  2  0  0  0
  4  5  1  0  0  0
  5  6  2  0  0  0
  6  7  1  0  0  0
  3 27  1  0  0  0
 27 28  1  0  0  0
 28 29  2  0  0  0
 29 30  1  0  0  0
 30 31  1  0  0  0
 30 32  1  0  0  0
 32 33  1  0  0  0
 33 34  1  0  0  0
 34 35  1  0  0  0
 35 36  1  0  0  0
 36 37  1  0  0  0
 22 17  1  0  0  0
 15 10  1  0  0  0
  6  1  1  0  0  0
 31 27  2  0  0  0
 37 32  1  0  0  0
  7  8  1  0  0  0
  7  9  1  0  0  0
 35 38  1  0  0  0
M  END
> <minimizedAffinity>
-8.82669

> <CNNscore>
0.5084812641

> <CNNaffinity>
7.2455368042

> <CNN_VS>
3.6842195988

> <CNNaffinity_variance>
0.1833736300

$$$$
[H]c1nc(N([H])[H])c(-c2nn(-c3c([H])c(OC([H])([H])[H])c([H])c(OC([H])([H])[H])c3[H])c(=O)c([H])c2[H])nc1-c1c([H])nn(C2([H])C([H])([H])C([H])([H])N([H])C([H])([H])C2([H])[H])c1[H]


 38 42  0  0  0  0  0  0  0  0999 V2000
   -0.0287   21.7053  -23.7178 C   0  0  0  0  0  0  0  0  0  0  0  0
   -1.2238   22.1397  -24.1896 N   0  0  0  0  0  0  0  0  0  0  0  0
   -1.3798   22.4510  -25.4870 C   0  0  0  0  0  0  0  0  0  0  0  0
   -0.2817   22.3094  -26.3039 C   0  0  0  0  0  0  0  0  0  0  0  0
    0.9089   21.8784  -25.8423 N   0  0  0  0  0  0  0  0  0  0  0  0
    1.0604   21.5674  -24.5403 C   0  0  0  0  0  0  0  0  0  0  0  0
    2.3180   21.1055  -24.0207 N   0  0  0  0  0  0  0  0  0  0  0  0
    3.0081   21.7734  -23.6237 H   0  0  0  0  0  0  0  0  0  0  0  0
    2.5791   20.0942  -24.0240 H   0  0  0  0  0  0  0  0  0  0  0  0
    1.4236   21.1487  -20.3876 N   0  0  0  0  0  0  0  0  0  0  0  0
    1.2933   21.4564  -21.6796 N   0  0  0  0  0  0  0  0  0  0  0  0
    0.1243   21.3713  -22.3059 C   0  0  0  0  0  0  0  0  0  0  0  0
   -0.9677   20.9542  -21.5909 C   0  0  0  0  0  0  0  0  0  0  0  0
   -0.8915   20.6240  -20.2562 C   0  0  0  0  0  0  0  0  0  0  0  0
    0.3629   20.7370  -19.6676 C   0  0  0  0  0  0  0  0  0  0  0  0
    0.4923   20.4484  -18.4500 O   0  0  0  0  0  0  0  0  0  0  0  0
    4.8619   20.3051  -19.2871 C   0  0  0  0  0  0  0  0  0  0  0  0
    5.1053   21.3414  -18.4017 C   0  0  0  0  0  0  0  0  0  0  0  0
    4.1694   22.3225  -18.1475 C   0  0  0  0  0  0  0  0  0  0  0  0
    2.9696   22.2478  -18.8035 C   0  0  0  0  0  0  0  0  0  0  0  0
    2.6664   21.2342  -19.7021 C   0  0  0  0  0  0  0  0  0  0  0  0
    3.6349   20.2772  -19.9222 C   0  0  0  0  0  0  0  0  0  0  0  0
    5.5059   17.9419  -19.4945 C   0  0  0  0  0  0  0  0  0  0  0  0
    5.7845   19.3068  -19.5605 O   0  0  0  0  0  0  0  0  0  0  0  0
    4.4442   23.3480  -17.2542 O   0  0  0  0  0  0  0  0  0  0  0  0
    3.8449   24.6056  -17.2945 C   0  0  0  0  0  0  0  0  0  0  0  0
   -2.6671   22.9167  -25.9841 C   0  0  0  0  0  0  0  0  0  0  0  0
   -3.2605   22.6750  -27.2041 C   0  0  0  0  0  0  0  0  0  0  0  0
   -4.4271   23.3036  -27.2064 N   0  0  0  0  0  0  0  0  0  0  0  0
   -4.6495   23.9416  -26.0820 N   0  0  0  0  0  0  0  0  0  0  0  0
   -3.5687   23.7172  -25.3030 C   0  0  0  0  0  0  0  0  0  0  0  0
   -5.8135   24.7368  -25.7195 C   0  0  0  0  0  0  0  0  0  0  0  0
   -5.3334   25.9341  -24.9513 C   0  0  0  0  0  0  0  0  0  0  0  0
   -6.4836   26.7959  -24.4889 C   0  0  0  0  0  0  0  0  0  0  0  0
   -7.6608   25.9988  -24.1743 N   0  0  0  0  0  0  0  0  0  0  0  0
   -7.2823   24.6658  -23.7371 C   0  0  0  0  0  0  0  0  0  0  0  0
   -6.7807   23.8866  -24.9341 C   0  0  0  0  0  0  0  0  0  0  0  0
   -8.2624   25.8560  -25.0318 H   0  0  0  0  0  0  0  0  0  0  0  0
 23 24  1  0  0  0
 24 17  1  0  0  0
 17 18  2  0  0  0
 18 19  1  0  0  0
 19 25  1  0  0  0
 25 26  1  0  0  0
 19 20  2  0  0  0
 20 21  1  0  0  0
 21 22  2  0  0  0
 21 10  1  0  0  0
 10 11  1  0  0  0
 11 12  2  0  0  0
 12 13  1  0  0  0
 13 14  2  0  0  0
 14 15  1  0  0  0
 15 16  2  0  0  0
 12  1  1  0  0  0
  1  2  2  0  0  0
  2  3  1  0  0  0
  3  4  2  0  0  0
  4  5  1  0  0  0
  5  6  2  0  0  0
  6  7  1  0  0  0
  3 27  1  0  0  0
 27 28  1  0  0  0
 28 29  2  0  0  0
 29 30  1  0  0  0
 30 31  1  0  0  0
 30 32  1  0  0  0
 32 33  1  0  0  0
 33 34  1  0  0  0
 34 35  1  0  0  0
 35 36  1  0  0  0
 36 37  1  0  0  0
 22 17  1  0  0  0
 15 10  1  0  0  0
  6  1  1  0  0  0
 31 27  2  0  0  0
 37 32  1  0  0  0
  7  8  1  0  0  0
  7  9  1  0  0  0
 35 38  1  0  0  0
M  END
> <minimizedAffinity>
-7.45285

> <CNNscore>
0.4340172708

> <CNNaffinity>
7.0406522751

> <CNN_VS>
3.0557646751

> <CNNaffinity_variance>
0.2529873848

$$$$
[H]c1nc(N([H])[H])c(-c2nn(-c3c([H])c(OC([H])([H])[H])c([H])c(OC([H])([H])[H])c3[H])c(=O)c([H])c2[H])nc1-c1c([H])nn(C2([H])C([H])([H])C([H])([H])N([H])C([H])([H])C2([H])[H])c1[H]


 38 42  0  0  0  0  0  0  0  0999 V2000
   -0.6109   21.9269  -24.2926 C   0  0  0  0  0  0  0  0  0  0  0  0
   -1.8269   22.3090  -24.7561 N   0  0  0  0  0  0  0  0  0  0  0  0
   -2.0105   22.5907  -26.0567 C   0  0  0  0  0  0  0  0  0  0  0  0
   -0.9184   22.4741  -26.8854 C   0  0  0  0  0  0  0  0  0  0  0  0
    0.2929   22.0950  -26.4321 N   0  0  0  0  0  0  0  0  0  0  0  0
    0.4720   21.8136  -25.1269 C   0  0  0  0  0  0  0  0  0  0  0  0
    1.7521   21.4071  -24.6159 N   0  0  0  0  0  0  0  0  0  0  0  0
    2.4223   22.1067  -24.2400 H   0  0  0  0  0  0  0  0  0  0  0  0
    2.0499   20.4061  -24.6046 H   0  0  0  0  0  0  0  0  0  0  0  0
    0.9238   21.0872  -21.0601 N   0  0  0  0  0  0  0  0  0  0  0  0
    0.7662   21.3627  -22.3563 N   0  0  0  0  0  0  0  0  0  0  0  0
   -0.4280   21.6245  -22.8771 C   0  0  0  0  0  0  0  0  0  0  0  0
   -1.5178   21.6069  -22.0465 C   0  0  0  0  0  0  0  0  0  0  0  0
   -1.4140   21.3290  -20.7018 C   0  0  0  0  0  0  0  0  0  0  0  0
   -0.1342   21.0649  -20.2275 C   0  0  0  0  0  0  0  0  0  0  0  0
    0.0210   20.8044  -19.0066 O   0  0  0  0  0  0  0  0  0  0  0  0
    3.8719   19.1649  -19.8946 C   0  0  0  0  0  0  0  0  0  0  0  0
    4.6546   20.1870  -19.3848 C   0  0  0  0  0  0  0  0  0  0  0  0
    4.2457   21.5043  -19.4091 C   0  0  0  0  0  0  0  0  0  0  0  0
    3.0237   21.7850  -19.9597 C   0  0  0  0  0  0  0  0  0  0  0  0
    2.1939   20.8049  -20.4865 C   0  0  0  0  0  0  0  0  0  0  0  0
    2.6475   19.5033  -20.4387 C   0  0  0  0  0  0  0  0  0  0  0  0
    3.5064   16.7934  -20.4280 C   0  0  0  0  0  0  0  0  0  0  0  0
    4.2586   17.8335  -19.8827 O   0  0  0  0  0  0  0  0  0  0  0  0
    5.0538   22.5056  -18.8898 O   0  0  0  0  0  0  0  0  0  0  0  0
    6.4414   22.5384  -19.0156 C   0  0  0  0  0  0  0  0  0  0  0  0
   -3.3201   23.0002  -26.5449 C   0  0  0  0  0  0  0  0  0  0  0  0
   -4.5330   22.9719  -25.8914 C   0  0  0  0  0  0  0  0  0  0  0  0
   -5.4443   23.4412  -26.7312 N   0  0  0  0  0  0  0  0  0  0  0  0
   -4.9266   23.7771  -27.8887 N   0  0  0  0  0  0  0  0  0  0  0  0
   -3.6046   23.5124  -27.7995 C   0  0  0  0  0  0  0  0  0  0  0  0
   -5.6116   24.3252  -29.0502 C   0  0  0  0  0  0  0  0  0  0  0  0
   -5.4104   23.3755  -30.1954 C   0  0  0  0  0  0  0  0  0  0  0  0
   -6.0488   23.8899  -31.4632 C   0  0  0  0  0  0  0  0  0  0  0  0
   -5.9933   25.3428  -31.5425 N   0  0  0  0  0  0  0  0  0  0  0  0
   -4.8394   25.8572  -30.8248 C   0  0  0  0  0  0  0  0  0  0  0  0
   -5.0868   25.7097  -29.3386 C   0  0  0  0  0  0  0  0  0  0  0  0
   -6.8354   25.7805  -31.0767 H   0  0  0  0  0  0  0  0  0  0  0  0
 23 24  1  0  0  0
 24 17  1  0  0  0
 17 18  2  0  0  0
 18 19  1  0  0  0
 19 25  1  0  0  0
 25 26  1  0  0  0
 19 20  2  0  0  0
 20 21  1  0  0  0
 21 22  2  0  0  0
 21 10  1  0  0  0
 10 11  1  0  0  0
 11 12  2  0  0  0
 12 13  1  0  0  0
 13 14  2  0  0  0
 14 15  1  0  0  0
 15 16  2  0  0  0
 12  1  1  0  0  0
  1  2  2  0  0  0
  2  3  1  0  0  0
  3  4  2  0  0  0
  4  5  1  0  0  0
  5  6  2  0  0  0
  6  7  1  0  0  0
  3 27  1  0  0  0
 27 28  1  0  0  0
 28 29  2  0  0  0
 29 30  1  0  0  0
 30 31  1  0  0  0
 30 32  1  0  0  0
 32 33  1  0  0  0
 33 34  1  0  0  0
 34 35  1  0  0  0
 35 36  1  0  0  0
 36 37  1  0  0  0
 22 17  1  0  0  0
 15 10  1  0  0  0
  6  1  1  0  0  0
 31 27  2  0  0  0
 37 32  1  0  0  0
  7  8  1  0  0  0
  7  9  1  0  0  0
 35 38  1  0  0  0
M  END
> <minimizedAffinity>
-8.69733

> <CNNscore>
0.4337018728

> <CNNaffinity>
7.2202782631

> <CNN_VS>
3.1314482689

> <CNNaffinity_variance>
0.3369783461

$$$$
[H]c1nc(N([H])[H])c(-c2nn(-c3c([H])c(OC([H])([H])[H])c([H])c(OC([H])([H])[H])c3[H])c(=O)c([H])c2[H])nc1-c1c([H])nn(C2([H])C([H])([H])C([H])([H])N([H])C([H])([H])C2([H])[H])c1[H]


 38 42  0  0  0  0  0  0  0  0999 V2000
   -0.6242   21.9342  -24.2492 C   0  0  0  0  0  0  0  0  0  0  0  0
   -1.8353   22.2952  -24.7418 N   0  0  0  0  0  0  0  0  0  0  0  0
   -1.9865   22.6021  -26.0408 C   0  0  0  0  0  0  0  0  0  0  0  0
   -0.8668   22.5333  -26.8375 C   0  0  0  0  0  0  0  0  0  0  0  0
    0.3398   22.1756  -26.3552 N   0  0  0  0  0  0  0  0  0  0  0  0
    0.4864   21.8686  -25.0517 C   0  0  0  0  0  0  0  0  0  0  0  0
    1.7606   21.4839  -24.5102 N   0  0  0  0  0  0  0  0  0  0  0  0
    2.4000   22.1919  -24.0980 H   0  0  0  0  0  0  0  0  0  0  0  0
    2.0846   20.4911  -24.5122 H   0  0  0  0  0  0  0  0  0  0  0  0
    0.8164   20.9520  -21.0136 N   0  0  0  0  0  0  0  0  0  0  0  0
    0.6911   21.2525  -22.3078 N   0  0  0  0  0  0  0  0  0  0  0  0
   -0.4767   21.6039  -22.8359 C   0  0  0  0  0  0  0  0  0  0  0  0
   -1.5728   21.6542  -22.0151 C   0  0  0  0  0  0  0  0  0  0  0  0
   -1.5018   21.3547  -20.6729 C   0  0  0  0  0  0  0  0  0  0  0  0
   -0.2484   20.9954  -20.1906 C   0  0  0  0  0  0  0  0  0  0  0  0
   -0.1237   20.7110  -18.9715 O   0  0  0  0  0  0  0  0  0  0  0  0
    4.1295   21.2426  -19.3754 C   0  0  0  0  0  0  0  0  0  0  0  0
    4.4871   19.9077  -19.2899 C   0  0  0  0  0  0  0  0  0  0  0  0
    3.6696   18.8992  -19.7566 C   0  0  0  0  0  0  0  0  0  0  0  0
    2.4721   19.2543  -20.3180 C   0  0  0  0  0  0  0  0  0  0  0  0
    2.0578   20.5742  -20.4323 C   0  0  0  0  0  0  0  0  0  0  0  0
    2.9103   21.5457  -19.9509 C   0  0  0  0  0  0  0  0  0  0  0  0
    6.2882   22.4069  -19.2110 C   0  0  0  0  0  0  0  0  0  0  0  0
    4.9318   22.2752  -18.9145 O   0  0  0  0  0  0  0  0  0  0  0  0
    4.0572   17.5708  -19.6559 O   0  0  0  0  0  0  0  0  0  0  0  0
    3.3517   16.5034  -20.2085 C   0  0  0  0  0  0  0  0  0  0  0  0
   -3.2910   22.9886  -26.5603 C   0  0  0  0  0  0  0  0  0  0  0  0
   -4.5293   22.8569  -25.9700 C   0  0  0  0  0  0  0  0  0  0  0  0
   -5.4235   23.3472  -26.8161 N   0  0  0  0  0  0  0  0  0  0  0  0
   -4.8711   23.7924  -27.9195 N   0  0  0  0  0  0  0  0  0  0  0  0
   -3.5433   23.5810  -27.7862 C   0  0  0  0  0  0  0  0  0  0  0  0
   -5.5289   24.3957  -29.0692 C   0  0  0  0  0  0  0  0  0  0  0  0
   -5.4552   23.4198  -30.2077 C   0  0  0  0  0  0  0  0  0  0  0  0
   -6.0729   23.9839  -31.4646 C   0  0  0  0  0  0  0  0  0  0  0  0
   -5.8740   25.4230  -31.5629 N   0  0  0  0  0  0  0  0  0  0  0  0
   -4.6553   25.8254  -30.8817 C   0  0  0  0  0  0  0  0  0  0  0  0
   -4.8759   25.7175  -29.3880 C   0  0  0  0  0  0  0  0  0  0  0  0
   -6.6550   25.9476  -31.0807 H   0  0  0  0  0  0  0  0  0  0  0  0
 23 24  1  0  0  0
 24 17  1  0  0  0
 17 18  2  0  0  0
 18 19  1  0  0  0
 19 25  1  0  0  0
 25 26  1  0  0  0
 19 20  2  0  0  0
 20 21  1  0  0  0
 21 22  2  0  0  0
 21 10  1  0  0  0
 10 11  1  0  0  0
 11 12  2  0  0  0
 12 13  1  0  0  0
 13 14  2  0  0  0
 14 15  1  0  0  0
 15 16  2  0  0  0
 12  1  1  0  0  0
  1  2  2  0  0  0
  2  3  1  0  0  0
  3  4  2  0  0  0
  4  5  1  0  0  0
  5  6  2  0  0  0
  6  7  1  0  0  0
  3 27  1  0  0  0
 27 28  1  0  0  0
 28 29  2  0  0  0
 29 30  1  0  0  0
 30 31  1  0  0  0
 30 32  1  0  0  0
 32 33  1  0  0  0
 33 34  1  0  0  0
 34 35  1  0  0  0
 35 36  1  0  0  0
 36 37  1  0  0  0
 22 17  1  0  0  0
 15 10  1  0  0  0
  6  1  1  0  0  0
 31 27  2  0  0  0
 37 32  1  0  0  0
  7  8  1  0  0  0
  7  9  1  0  0  0
 35 38  1  0  0  0
M  END
> <minimizedAffinity>
-8.70901

> <CNNscore>
0.4130999744

> <CNNaffinity>
7.2017502785

> <CNN_VS>
2.9750428200

> <CNNaffinity_variance>
0.3329039216

$$$$
[H]c1nc(N([H])[H])c(-c2nn(-c3c([H])c(OC([H])([H])[H])c([H])c(OC([H])([H])[H])c3[H])c(=O)c([H])c2[H])nc1-c1c([H])nn(C2([H])C([H])([H])C([H])([H])N([H])C([H])([H])C2([H])[H])c1[H]


 38 42  0  0  0  0  0  0  0  0999 V2000
   -0.2101   21.7204  -23.7500 C   0  0  0  0  0  0  0  0  0  0  0  0
   -1.4631   22.1982  -23.9530 N   0  0  0  0  0  0  0  0  0  0  0  0
   -1.8478   22.6281  -25.1661 C   0  0  0  0  0  0  0  0  0  0  0  0
   -0.9203   22.5609  -26.1802 C   0  0  0  0  0  0  0  0  0  0  0  0
    0.3265   22.0874  -25.9860 N   0  0  0  0  0  0  0  0  0  0  0  0
    0.7076   21.6574  -24.7675 C   0  0  0  0  0  0  0  0  0  0  0  0
    2.0303   21.1477  -24.5317 N   0  0  0  0  0  0  0  0  0  0  0  0
    2.7935   21.7751  -24.2094 H   0  0  0  0  0  0  0  0  0  0  0  0
    2.2679   20.1407  -24.6744 H   0  0  0  0  0  0  0  0  0  0  0  0
    1.8122   20.8806  -20.7979 N   0  0  0  0  0  0  0  0  0  0  0  0
    1.4536   21.3066  -22.0107 N   0  0  0  0  0  0  0  0  0  0  0  0
    0.1923   21.2573  -22.4263 C   0  0  0  0  0  0  0  0  0  0  0  0
   -0.7541   20.7522  -21.5737 C   0  0  0  0  0  0  0  0  0  0  0  0
   -0.4411   20.2986  -20.3117 C   0  0  0  0  0  0  0  0  0  0  0  0
    0.8975   20.3809  -19.9454 C   0  0  0  0  0  0  0  0  0  0  0  0
    1.2420   19.9810  -18.8035 O   0  0  0  0  0  0  0  0  0  0  0  0
    4.8924   22.1263  -19.1531 C   0  0  0  0  0  0  0  0  0  0  0  0
    5.7590   21.0781  -19.4126 C   0  0  0  0  0  0  0  0  0  0  0  0
    5.3653   19.9598  -20.1179 C   0  0  0  0  0  0  0  0  0  0  0  0
    4.0721   19.9079  -20.5653 C   0  0  0  0  0  0  0  0  0  0  0  0
    3.1566   20.9261  -20.3373 C   0  0  0  0  0  0  0  0  0  0  0  0
    3.5986   22.0229  -19.6273 C   0  0  0  0  0  0  0  0  0  0  0  0
    4.9849   23.4693  -17.0963 C   0  0  0  0  0  0  0  0  0  0  0  0
    5.2621   23.2610  -18.4472 O   0  0  0  0  0  0  0  0  0  0  0  0
    6.2583   18.9262  -20.3612 O   0  0  0  0  0  0  0  0  0  0  0  0
    5.8843   17.6029  -20.5875 C   0  0  0  0  0  0  0  0  0  0  0  0
   -3.1955   23.1395  -25.3741 C   0  0  0  0  0  0  0  0  0  0  0  0
   -4.0840   22.8462  -26.3858 C   0  0  0  0  0  0  0  0  0  0  0  0
   -5.1844   23.5491  -26.1601 N   0  0  0  0  0  0  0  0  0  0  0  0
   -5.0910   24.2838  -25.0774 N   0  0  0  0  0  0  0  0  0  0  0  0
   -3.8619   24.0475  -24.5684 C   0  0  0  0  0  0  0  0  0  0  0  0
   -6.0906   25.1798  -24.5149 C   0  0  0  0  0  0  0  0  0  0  0  0
   -6.0984   24.9863  -23.0261 C   0  0  0  0  0  0  0  0  0  0  0  0
   -7.1459   25.8450  -22.3592 C   0  0  0  0  0  0  0  0  0  0  0  0
   -8.3216   26.0116  -23.2019 N   0  0  0  0  0  0  0  0  0  0  0  0
   -8.4991   24.8647  -24.0763 C   0  0  0  0  0  0  0  0  0  0  0  0
   -7.4310   24.9018  -25.1484 C   0  0  0  0  0  0  0  0  0  0  0  0
   -8.2128   26.8440  -23.8445 H   0  0  0  0  0  0  0  0  0  0  0  0
 23 24  1  0  0  0
 24 17  1  0  0  0
 17 18  2  0  0  0
 18 19  1  0  0  0
 19 25  1  0  0  0
 25 26  1  0  0  0
 19 20  2  0  0  0
 20 21  1  0  0  0
 21 22  2  0  0  0
 21 10  1  0  0  0
 10 11  1  0  0  0
 11 12  2  0  0  0
 12 13  1  0  0  0
 13 14  2  0  0  0
 14 15  1  0  0  0
 15 16  2  0  0  0
 12  1  1  0  0  0
  1  2  2  0  0  0
  2  3  1  0  0  0
  3  4  2  0  0  0
  4  5  1  0  0  0
  5  6  2  0  0  0
  6  7  1  0  0  0
  3 27  1  0  0  0
 27 28  1  0  0  0
 28 29  2  0  0  0
 29 30  1  0  0  0
 30 31  1  0  0  0
 30 32  1  0  0  0
 32 33  1  0  0  0
 33 34  1  0  0  0
 34 35  1  0  0  0
 35 36  1  0  0  0
 36 37  1  0  0  0
 22 17  1  0  0  0
 15 10  1  0  0  0
  6  1  1  0  0  0
 31 27  2  0  0  0
 37 32  1  0  0  0
  7  8  1  0  0  0
  7  9  1  0  0  0
 35 38  1  0  0  0
M  END
> <minimizedAffinity>
-7.45709

> <CNNscore>
0.4055590332

> <CNNaffinity>
6.9120607376

> <CNN_VS>
2.8032486439

> <CNNaffinity_variance>
0.4137437344

$$$$
[H]c1nc(N([H])[H])c(-c2nn(-c3c([H])c(OC([H])([H])[H])c([H])c(OC([H])([H])[H])c3[H])c(=O)c([H])c2[H])nc1-c1c([H])nn(C2([H])C([H])([H])C([H])([H])N([H])C([H])([H])C2([H])[H])c1[H]


 38 42  0  0  0  0  0  0  0  0999 V2000
   -0.1199   21.6619  -23.6694 C   0  0  0  0  0  0  0  0  0  0  0  0
   -1.3892   21.9630  -24.0404 N   0  0  0  0  0  0  0  0  0  0  0  0
   -1.6790   22.2722  -25.3151 C   0  0  0  0  0  0  0  0  0  0  0  0
   -0.6381   22.2685  -26.2150 C   0  0  0  0  0  0  0  0  0  0  0  0
    0.6256   21.9704  -25.8538 N   0  0  0  0  0  0  0  0  0  0  0  0
    0.9112   21.6610  -24.5741 C   0  0  0  0  0  0  0  0  0  0  0  0
    2.2492   21.3391  -24.1608 N   0  0  0  0  0  0  0  0  0  0  0  0
    2.8878   22.0761  -23.8017 H   0  0  0  0  0  0  0  0  0  0  0  0
    2.6221   20.3645  -24.2063 H   0  0  0  0  0  0  0  0  0  0  0  0
    1.6133   21.3002  -20.4484 N   0  0  0  0  0  0  0  0  0  0  0  0
    1.3496   21.6093  -21.7196 N   0  0  0  0  0  0  0  0  0  0  0  0
    0.1783   21.3282  -22.2808 C   0  0  0  0  0  0  0  0  0  0  0  0
   -0.7744   20.7034  -21.5194 C   0  0  0  0  0  0  0  0  0  0  0  0
   -0.5571   20.3614  -20.2033 C   0  0  0  0  0  0  0  0  0  0  0  0
    0.6908   20.6862  -19.6836 C   0  0  0  0  0  0  0  0  0  0  0  0
    0.9455   20.3975  -18.4860 O   0  0  0  0  0  0  0  0  0  0  0  0
    4.1296   22.9607  -18.2906 C   0  0  0  0  0  0  0  0  0  0  0  0
    5.2563   22.2168  -18.5979 C   0  0  0  0  0  0  0  0  0  0  0  0
    5.2218   21.1742  -19.5006 C   0  0  0  0  0  0  0  0  0  0  0  0
    4.0242   20.8849  -20.0986 C   0  0  0  0  0  0  0  0  0  0  0  0
    2.8608   21.5936  -19.8324 C   0  0  0  0  0  0  0  0  0  0  0  0
    2.9470   22.6267  -18.9226 C   0  0  0  0  0  0  0  0  0  0  0  0
    3.4954   23.9883  -16.1496 C   0  0  0  0  0  0  0  0  0  0  0  0
    4.1367   24.0129  -17.3878 O   0  0  0  0  0  0  0  0  0  0  0  0
    6.3688   20.4480  -19.7868 O   0  0  0  0  0  0  0  0  0  0  0  0
    6.9752   19.5578  -18.9024 C   0  0  0  0  0  0  0  0  0  0  0  0
   -3.0451   22.5941  -25.7037 C   0  0  0  0  0  0  0  0  0  0  0  0
   -4.2008   22.4947  -24.9597 C   0  0  0  0  0  0  0  0  0  0  0  0
   -5.2011   22.8984  -25.7295 N   0  0  0  0  0  0  0  0  0  0  0  0
   -4.7948   23.2567  -26.9242 N   0  0  0  0  0  0  0  0  0  0  0  0
   -3.4558   23.0769  -26.9349 C   0  0  0  0  0  0  0  0  0  0  0  0
   -5.5992   23.7509  -28.0321 C   0  0  0  0  0  0  0  0  0  0  0  0
   -5.0578   23.1528  -29.2983 C   0  0  0  0  0  0  0  0  0  0  0  0
   -5.8045   23.6510  -30.5122 C   0  0  0  0  0  0  0  0  0  0  0  0
   -6.2491   25.0272  -30.3432 N   0  0  0  0  0  0  0  0  0  0  0  0
   -5.3588   25.7540  -29.4541 C   0  0  0  0  0  0  0  0  0  0  0  0
   -5.5750   25.2591  -28.0400 C   0  0  0  0  0  0  0  0  0  0  0  0
   -7.2009   25.0647  -29.8844 H   0  0  0  0  0  0  0  0  0  0  0  0
 23 24  1  0  0  0
 24 17  1  0  0  0
 17 18  2  0  0  0
 18 19  1  0  0  0
 19 25  1  0  0  0
 25 26  1  0  0  0
 19 20  2  0  0  0
 20 21  1  0  0  0
 21 22  2  0  0  0
 21 10  1  0  0  0
 10 11  1  0  0  0
 11 12  2  0  0  0
 12 13  1  0  0  0
 13 14  2  0  0  0
 14 15  1  0  0  0
 15 16  2  0  0  0
 12  1  1  0  0  0
  1  2  2  0  0  0
  2  3  1  0  0  0
  3  4  2  0  0  0
  4  5  1  0  0  0
  5  6  2  0  0  0
  6  7  1  0  0  0
  3 27  1  0  0  0
 27 28  1  0  0  0
 28 29  2  0  0  0
 29 30  1  0  0  0
 30 31  1  0  0  0
 30 32  1  0  0  0
 32 33  1  0  0  0
 33 34  1  0  0  0
 34 35  1  0  0  0
 35 36  1  0  0  0
 36 37  1  0  0  0
 22 17  1  0  0  0
 15 10  1  0  0  0
  6  1  1  0  0  0
 31 27  2  0  0  0
 37 32  1  0  0  0
  7  8  1  0  0  0
  7  9  1  0  0  0
 35 38  1  0  0  0
M  END
> <minimizedAffinity>
-8.50303

> <CNNscore>
0.3569555283

> <CNNaffinity>
6.9817719460

> <CNN_VS>
2.4921820164

> <CNNaffinity_variance>
0.3626861274

$$$$
[H]C([H])=C([H])C(=O)N1C([H])([H])C([H])([H])N(C([H])([H])C([H])([H])C([H])([H])n2c(=O)c(-c3c([H])c(OC([H])([H])[H])c([H])c(OC([H])([H])[H])c3Cl)c([H])c3c([H])nc(N([H])C([H])([H])[H])nc32)C([H])([H])C1([H])[H]


 38 41  0  0  0  0  0  0  0  0999 V2000
   -1.5080   22.7275  -27.0020 C   0  0  0  0  0  0  0  0  0  0  0  0
   -0.2112   22.4658  -26.8696 N   0  0  0  0  0  0  0  0  0  0  0  0
    0.3375   22.0400  -25.7275 C   0  0  0  0  0  0  0  0  0  0  0  0
   -0.4769   21.8645  -24.6376 C   0  0  0  0  0  0  0  0  0  0  0  0
    0.0296   21.4245  -23.4159 C   0  0  0  0  0  0  0  0  0  0  0  0
   -0.8218   21.2638  -22.3503 C   0  0  0  0  0  0  0  0  0  0  0  0
   -2.1556   21.5466  -22.5331 C   0  0  0  0  0  0  0  0  0  0  0  0
   -2.9317   21.4006  -21.5609 O   0  0  0  0  0  0  0  0  0  0  0  0
   -2.6369   21.9705  -23.7152 N   0  0  0  0  0  0  0  0  0  0  0  0
   -1.8229   22.1281  -24.7486 C   0  0  0  0  0  0  0  0  0  0  0  0
   -2.3074   22.5544  -25.9308 N   0  0  0  0  0  0  0  0  0  0  0  0
   -0.3676   20.7892  -21.0477 C   0  0  0  0  0  0  0  0  0  0  0  0
    0.0090   19.4617  -20.9010 C   0  0  0  0  0  0  0  0  0  0  0  0
    0.4639   18.9784  -19.6705 C   0  0  0  0  0  0  0  0  0  0  0  0
    0.5112   19.8843  -18.6457 C   0  0  0  0  0  0  0  0  0  0  0  0
    0.1494   21.2101  -18.7382 C   0  0  0  0  0  0  0  0  0  0  0  0
   -0.3014   21.6568  -19.9863 C   0  0  0  0  0  0  0  0  0  0  0  0
   -0.7827   23.3545  -20.1257 Cl  0  0  0  0  0  0  0  0  0  0  0  0
    0.8154   17.6585  -19.6058 O   0  0  0  0  0  0  0  0  0  0  0  0
    0.5738   16.7508  -20.6382 C   0  0  0  0  0  0  0  0  0  0  0  0
    0.2063   22.1034  -17.6850 O   0  0  0  0  0  0  0  0  0  0  0  0
    0.1406   21.6723  -16.3532 C   0  0  0  0  0  0  0  0  0  0  0  0
   -1.2360   23.7397  -29.2884 C   0  0  0  0  0  0  0  0  0  0  0  0
   -2.0723   23.1885  -28.2454 N   0  0  0  0  0  0  0  0  0  0  0  0
   -3.0958   23.1332  -28.4191 H   0  0  0  0  0  0  0  0  0  0  0  0
   -4.0432   22.2669  -23.8658 C   0  0  0  0  0  0  0  0  0  0  0  0
   -4.2633   23.7287  -23.5294 C   0  0  0  0  0  0  0  0  0  0  0  0
   -5.6810   24.0599  -23.2356 C   0  0  0  0  0  0  0  0  0  0  0  0
   -6.1189   25.1691  -24.0593 N   0  0  0  0  0  0  0  0  0  0  0  0
   -7.2811   24.8228  -24.8477 C   0  0  0  0  0  0  0  0  0  0  0  0
   -6.8971   24.0437  -26.1063 C   0  0  0  0  0  0  0  0  0  0  0  0
   -5.9459   24.7486  -26.8878 N   0  0  0  0  0  0  0  0  0  0  0  0
   -5.4988   26.0280  -26.2647 C   0  0  0  0  0  0  0  0  0  0  0  0
   -5.0222   25.6369  -24.8814 C   0  0  0  0  0  0  0  0  0  0  0  0
   -5.4207   24.3861  -28.1129 C   0  0  0  0  0  0  0  0  0  0  0  0
   -4.5287   25.2319  -28.6301 O   0  0  0  0  0  0  0  0  0  0  0  0
   -5.6527   23.2641  -28.9425 C   0  0  0  0  0  0  0  0  0  0  0  0
   -5.2790   23.0670  -30.1657 C   0  0  0  0  0  0  0  0  0  0  0  0
 23 24  1  0  0  0
 24  1  1  0  0  0
  1  2  2  0  0  0
  2  3  1  0  0  0
  3  4  2  0  0  0
  4  5  1  0  0  0
  5  6  2  0  0  0
  6 12  1  0  0  0
 12 13  2  0  0  0
 13 14  1  0  0  0
 14 19  1  0  0  0
 19 20  1  0  0  0
 14 15  2  0  0  0
 15 16  1  0  0  0
 16 21  1  0  0  0
 21 22  1  0  0  0
 16 17  2  0  0  0
 17 18  1  0  0  0
  6  7  1  0  0  0
  7  8  2  0  0  0
  7  9  1  0  0  0
  9 26  1  0  0  0
 26 27  1  0  0  0
 27 28  1  0  0  0
 28 29  1  0  0  0
 29 30  1  0  0  0
 30 31  1  0  0  0
 31 32  1  0  0  0
 32 33  1  0  0  0
 33 34  1  0  0  0
 32 35  1  0  0  0
 35 36  2  0  0  0
 35 37  1  0  0  0
 37 38  2  0  0  0
  9 10  1  0  0  0
 10 11  2  0  0  0
 11  1  1  0  0  0
 10  4  1  0  0  0
 17 12  1  0  0  0
 34 29  1  0  0  0
 24 25  1  0  0  0
M  END
> <minimizedAffinity>
-7.55758

> <CNNscore>
0.4934078455

> <CNNaffinity>
7.7211747169

> <CNN_VS>
3.8096880913

> <CNNaffinity_variance>
0.1874584258

$$$$
[H]C([H])=C([H])C(=O)N1C([H])([H])C([H])([H])N(C([H])([H])C([H])([H])C([H])([H])n2c(=O)c(-c3c([H])c(OC([H])([H])[H])c([H])c(OC([H])([H])[H])c3Cl)c([H])c3c([H])nc(N([H])C([H])([H])[H])nc32)C([H])([H])C1([H])[H]


 38 41  0  0  0  0  0  0  0  0999 V2000
   -1.1270   23.0179  -27.7593 C   0  0  0  0  0  0  0  0  0  0  0  0
    0.1639   22.9934  -27.4419 N   0  0  0  0  0  0  0  0  0  0  0  0
    0.6167   22.6100  -26.2441 C   0  0  0  0  0  0  0  0  0  0  0  0
   -0.2948   22.2230  -25.2949 C   0  0  0  0  0  0  0  0  0  0  0  0
    0.1085   21.8132  -24.0251 C   0  0  0  0  0  0  0  0  0  0  0  0
   -0.8385   21.4352  -23.1049 C   0  0  0  0  0  0  0  0  0  0  0  0
   -2.1622   21.4765  -23.4771 C   0  0  0  0  0  0  0  0  0  0  0  0
   -3.0255   21.1324  -22.6375 O   0  0  0  0  0  0  0  0  0  0  0  0
   -2.5435   21.8728  -24.7044 N   0  0  0  0  0  0  0  0  0  0  0  0
   -1.6369   22.2390  -25.5984 C   0  0  0  0  0  0  0  0  0  0  0  0
   -2.0218   22.6370  -26.8262 N   0  0  0  0  0  0  0  0  0  0  0  0
   -0.4907   20.9770  -21.7643 C   0  0  0  0  0  0  0  0  0  0  0  0
    0.0034   19.6918  -21.5916 C   0  0  0  0  0  0  0  0  0  0  0  0
    0.3611   19.2269  -20.3224 C   0  0  0  0  0  0  0  0  0  0  0  0
    0.1944   20.1068  -19.2875 C   0  0  0  0  0  0  0  0  0  0  0  0
   -0.2913   21.3904  -19.4047 C   0  0  0  0  0  0  0  0  0  0  0  0
   -0.6390   21.8198  -20.6912 C   0  0  0  0  0  0  0  0  0  0  0  0
   -1.2762   23.4622  -20.8642 Cl  0  0  0  0  0  0  0  0  0  0  0  0
    0.8391   17.9488  -20.2340 O   0  0  0  0  0  0  0  0  0  0  0  0
    0.0449   16.8191  -20.4366 C   0  0  0  0  0  0  0  0  0  0  0  0
   -0.4505   22.2580  -18.3405 O   0  0  0  0  0  0  0  0  0  0  0  0
    0.2965   22.1194  -17.1630 C   0  0  0  0  0  0  0  0  0  0  0  0
   -2.9125   23.9882  -29.2415 C   0  0  0  0  0  0  0  0  0  0  0  0
   -1.5874   23.4388  -29.0585 N   0  0  0  0  0  0  0  0  0  0  0  0
   -0.9739   23.3566  -29.8937 H   0  0  0  0  0  0  0  0  0  0  0  0
   -3.9448   21.9121  -25.0551 C   0  0  0  0  0  0  0  0  0  0  0  0
   -4.4869   23.2849  -24.7088 C   0  0  0  0  0  0  0  0  0  0  0  0
   -5.9686   23.3282  -24.6152 C   0  0  0  0  0  0  0  0  0  0  0  0
   -6.4031   24.6181  -24.1175 N   0  0  0  0  0  0  0  0  0  0  0  0
   -5.9422   24.8524  -22.7665 C   0  0  0  0  0  0  0  0  0  0  0  0
   -6.8352   24.1579  -21.7376 C   0  0  0  0  0  0  0  0  0  0  0  0
   -8.1941   24.5385  -21.8829 N   0  0  0  0  0  0  0  0  0  0  0  0
   -8.4326   25.4536  -23.0363 C   0  0  0  0  0  0  0  0  0  0  0  0
   -7.8425   24.7314  -24.2296 C   0  0  0  0  0  0  0  0  0  0  0  0
   -9.2666   24.1659  -21.0963 C   0  0  0  0  0  0  0  0  0  0  0  0
  -10.4489   24.6633  -21.4615 O   0  0  0  0  0  0  0  0  0  0  0  0
   -9.3533   23.3389  -19.9519 C   0  0  0  0  0  0  0  0  0  0  0  0
   -9.3341   22.0469  -19.8797 C   0  0  0  0  0  0  0  0  0  0  0  0
 23 24  1  0  0  0
 24  1  1  0  0  0
  1  2  2  0  0  0
  2  3  1  0  0  0
  3  4  2  0  0  0
  4  5  1  0  0  0
  5  6  2  0  0  0
  6 12  1  0  0  0
 12 13  2  0  0  0
 13 14  1  0  0  0
 14 19  1  0  0  0
 19 20  1  0  0  0
 14 15  2  0  0  0
 15 16  1  0  0  0
 16 21  1  0  0  0
 21 22  1  0  0  0
 16 17  2  0  0  0
 17 18  1  0  0  0
  6  7  1  0  0  0
  7  8  2  0  0  0
  7  9  1  0  0  0
  9 26  1  0  0  0
 26 27  1  0  0  0
 27 28  1  0  0  0
 28 29  1  0  0  0
 29 30  1  0  0  0
 30 31  1  0  0  0
 31 32  1  0  0  0
 32 33  1  0  0  0
 33 34  1  0  0  0
 32 35  1  0  0  0
 35 36  2  0  0  0
 35 37  1  0  0  0
 37 38  2  0  0  0
  9 10  1  0  0  0
 10 11  2  0  0  0
 11  1  1  0  0  0
 10  4  1  0  0  0
 17 12  1  0  0  0
 34 29  1  0  0  0
 24 25  1  0  0  0
M  END
> <minimizedAffinity>
-7.11979

> <CNNscore>
0.4336448014

> <CNNaffinity>
7.2492094040

> <CNN_VS>
3.1435818672

> <CNNaffinity_variance>
0.0562383160

$$$$
[H]C([H])=C([H])C(=O)N1C([H])([H])C([H])([H])N(C([H])([H])C([H])([H])C([H])([H])n2c(=O)c(-c3c([H])c(OC([H])([H])[H])c([H])c(OC([H])([H])[H])c3Cl)c([H])c3c([H])nc(N([H])C([H])([H])[H])nc32)C([H])([H])C1([H])[H]


 38 41  0  0  0  0  0  0  0  0999 V2000
   -5.3426   24.2949  -29.5555 C   0  0  0  0  0  0  0  0  0  0  0  0
   -4.6395   23.2036  -29.8424 N   0  0  0  0  0  0  0  0  0  0  0  0
   -3.8364   22.5971  -28.9626 C   0  0  0  0  0  0  0  0  0  0  0  0
   -3.7317   23.1263  -27.7014 C   0  0  0  0  0  0  0  0  0  0  0  0
   -2.9116   22.5453  -26.7357 C   0  0  0  0  0  0  0  0  0  0  0  0
   -2.8358   23.1095  -25.4858 C   0  0  0  0  0  0  0  0  0  0  0  0
   -3.5807   24.2382  -25.2338 C   0  0  0  0  0  0  0  0  0  0  0  0
   -3.5108   24.7528  -24.0940 O   0  0  0  0  0  0  0  0  0  0  0  0
   -4.3701   24.7929  -26.1707 N   0  0  0  0  0  0  0  0  0  0  0  0
   -4.4494   24.2553  -27.3790 C   0  0  0  0  0  0  0  0  0  0  0  0
   -5.2395   24.8140  -28.3159 N   0  0  0  0  0  0  0  0  0  0  0  0
   -2.0145   22.5466  -24.4195 C   0  0  0  0  0  0  0  0  0  0  0  0
   -2.6073   22.2071  -23.2116 C   0  0  0  0  0  0  0  0  0  0  0  0
   -1.8519   21.6510  -22.1748 C   0  0  0  0  0  0  0  0  0  0  0  0
   -0.5193   21.4690  -22.4286 C   0  0  0  0  0  0  0  0  0  0  0  0
    0.1172   21.7886  -23.6074 C   0  0  0  0  0  0  0  0  0  0  0  0
   -0.6723   22.3436  -24.6219 C   0  0  0  0  0  0  0  0  0  0  0  0
    0.1268   22.7729  -26.1419 Cl  0  0  0  0  0  0  0  0  0  0  0  0
   -2.5081   21.3441  -21.0150 O   0  0  0  0  0  0  0  0  0  0  0  0
   -3.1823   22.2920  -20.2436 C   0  0  0  0  0  0  0  0  0  0  0  0
    1.4665   21.5947  -23.8359 O   0  0  0  0  0  0  0  0  0  0  0  0
    2.2747   20.9093  -22.9189 C   0  0  0  0  0  0  0  0  0  0  0  0
   -5.6835   25.9196  -31.4451 C   0  0  0  0  0  0  0  0  0  0  0  0
   -6.1989   24.9301  -30.5252 N   0  0  0  0  0  0  0  0  0  0  0  0
   -7.2084   24.6884  -30.5840 H   0  0  0  0  0  0  0  0  0  0  0  0
   -5.1302   25.9847  -25.8711 C   0  0  0  0  0  0  0  0  0  0  0  0
   -6.5323   25.5703  -25.4698 C   0  0  0  0  0  0  0  0  0  0  0  0
   -6.8925   25.9695  -24.0853 C   0  0  0  0  0  0  0  0  0  0  0  0
   -7.8789   25.0583  -23.5403 N   0  0  0  0  0  0  0  0  0  0  0  0
   -8.6232   25.6623  -22.4569 C   0  0  0  0  0  0  0  0  0  0  0  0
   -7.8479   25.6059  -21.1399 C   0  0  0  0  0  0  0  0  0  0  0  0
   -7.4655   24.2792  -20.8146 N   0  0  0  0  0  0  0  0  0  0  0  0
   -7.8408   23.2819  -21.8583 C   0  0  0  0  0  0  0  0  0  0  0  0
   -7.2408   23.8213  -23.1401 C   0  0  0  0  0  0  0  0  0  0  0  0
   -6.8143   23.8400  -19.6784 C   0  0  0  0  0  0  0  0  0  0  0  0
   -6.5640   22.5311  -19.6275 O   0  0  0  0  0  0  0  0  0  0  0  0
   -6.3511   24.5283  -18.5325 C   0  0  0  0  0  0  0  0  0  0  0  0
   -5.9797   24.0466  -17.3903 C   0  0  0  0  0  0  0  0  0  0  0  0
 23 24  1  0  0  0
 24  1  1  0  0  0
  1  2  2  0  0  0
  2  3  1  0  0  0
  3  4  2  0  0  0
  4  5  1  0  0  0
  5  6  2  0  0  0
  6 12  1  0  0  0
 12 13  2  0  0  0
 13 14  1  0  0  0
 14 19  1  0  0  0
 19 20  1  0  0  0
 14 15  2  0  0  0
 15 16  1  0  0  0
 16 21  1  0  0  0
 21 22  1  0  0  0
 16 17  2  0  0  0
 17 18  1  0  0  0
  6  7  1  0  0  0
  7  8  2  0  0  0
  7  9  1  0  0  0
  9 26  1  0  0  0
 26 27  1  0  0  0
 27 28  1  0  0  0
 28 29  1  0  0  0
 29 30  1  0  0  0
 30 31  1  0  0  0
 31 32  1  0  0  0
 32 33  1  0  0  0
 33 34  1  0  0  0
 32 35  1  0  0  0
 35 36  2  0  0  0
 35 37  1  0  0  0
 37 38  2  0  0  0
  9 10  1  0  0  0
 10 11  2  0  0  0
 11  1  1  0  0  0
 10  4  1  0  0  0
 17 12  1  0  0  0
 34 29  1  0  0  0
 24 25  1  0  0  0
M  END
> <minimizedAffinity>
-8.26632

> <CNNscore>
0.1625580639

> <CNNaffinity>
7.0202102661

> <CNN_VS>
1.1411918402

> <CNNaffinity_variance>
0.2206376046

$$$$
[H]C([H])=C([H])C(=O)N1C([H])([H])C([H])([H])N(C([H])([H])C([H])([H])C([H])([H])n2c(=O)c(-c3c([H])c(OC([H])([H])[H])c([H])c(OC([H])([H])[H])c3Cl)c([H])c3c([H])nc(N([H])C([H])([H])[H])nc32)C([H])([H])C1([H])[H]


 38 41  0  0  0  0  0  0  0  0999 V2000
   -1.1216   22.4350  -26.3406 C   0  0  0  0  0  0  0  0  0  0  0  0
    0.1596   22.0819  -26.2992 N   0  0  0  0  0  0  0  0  0  0  0  0
    0.7897   21.7417  -25.1705 C   0  0  0  0  0  0  0  0  0  0  0  0
    0.0804   21.7578  -23.9965 C   0  0  0  0  0  0  0  0  0  0  0  0
    0.6758   21.4160  -22.7834 C   0  0  0  0  0  0  0  0  0  0  0  0
   -0.0717   21.4471  -21.6317 C   0  0  0  0  0  0  0  0  0  0  0  0
   -1.3932   21.8185  -21.7220 C   0  0  0  0  0  0  0  0  0  0  0  0
   -2.0744   21.8474  -20.6714 O   0  0  0  0  0  0  0  0  0  0  0  0
   -1.9608   22.1466  -22.8963 N   0  0  0  0  0  0  0  0  0  0  0  0
   -1.2472   22.1192  -24.0123 C   0  0  0  0  0  0  0  0  0  0  0  0
   -1.8178   22.4500  -25.1866 N   0  0  0  0  0  0  0  0  0  0  0  0
    0.4776   21.0843  -20.3298 C   0  0  0  0  0  0  0  0  0  0  0  0
    0.8539   22.0866  -19.4470 C   0  0  0  0  0  0  0  0  0  0  0  0
    1.3691   21.7733  -18.1856 C   0  0  0  0  0  0  0  0  0  0  0  0
    1.4732   20.4412  -17.8893 C   0  0  0  0  0  0  0  0  0  0  0  0
    1.1150   19.4091  -18.7280 C   0  0  0  0  0  0  0  0  0  0  0  0
    0.6036   19.7624  -19.9827 C   0  0  0  0  0  0  0  0  0  0  0  0
    0.1472   18.4520  -21.0817 Cl  0  0  0  0  0  0  0  0  0  0  0  0
    1.7178   22.8167  -17.3734 O   0  0  0  0  0  0  0  0  0  0  0  0
    2.9326   23.4959  -17.4793 C   0  0  0  0  0  0  0  0  0  0  0  0
    1.2325   18.0709  -18.4026 O   0  0  0  0  0  0  0  0  0  0  0  0
    2.4604   17.4008  -18.4855 C   0  0  0  0  0  0  0  0  0  0  0  0
   -3.1814   23.1352  -27.6028 C   0  0  0  0  0  0  0  0  0  0  0  0
   -1.7750   22.8000  -27.5721 N   0  0  0  0  0  0  0  0  0  0  0  0
   -1.2467   22.8308  -28.4669 H   0  0  0  0  0  0  0  0  0  0  0  0
   -3.3498   22.5412  -22.9496 C   0  0  0  0  0  0  0  0  0  0  0  0
   -3.4453   24.0089  -22.5819 C   0  0  0  0  0  0  0  0  0  0  0  0
   -4.8362   24.4654  -22.3312 C   0  0  0  0  0  0  0  0  0  0  0  0
   -5.7186   23.3263  -22.1758 N   0  0  0  0  0  0  0  0  0  0  0  0
   -6.9074   23.4564  -22.9896 C   0  0  0  0  0  0  0  0  0  0  0  0
   -7.9519   24.3526  -22.3229 C   0  0  0  0  0  0  0  0  0  0  0  0
   -8.2770   23.8964  -21.0196 N   0  0  0  0  0  0  0  0  0  0  0  0
   -7.4778   22.7126  -20.5900 C   0  0  0  0  0  0  0  0  0  0  0  0
   -6.0349   23.1339  -20.7757 C   0  0  0  0  0  0  0  0  0  0  0  0
   -9.2191   24.4135  -20.1518 C   0  0  0  0  0  0  0  0  0  0  0  0
   -9.3177   23.7958  -18.9740 O   0  0  0  0  0  0  0  0  0  0  0  0
  -10.1196   25.4974  -20.2757 C   0  0  0  0  0  0  0  0  0  0  0  0
   -9.8845   26.7084  -20.6668 C   0  0  0  0  0  0  0  0  0  0  0  0
 23 24  1  0  0  0
 24  1  1  0  0  0
  1  2  2  0  0  0
  2  3  1  0  0  0
  3  4  2  0  0  0
  4  5  1  0  0  0
  5  6  2  0  0  0
  6 12  1  0  0  0
 12 13  2  0  0  0
 13 14  1  0  0  0
 14 19  1  0  0  0
 19 20  1  0  0  0
 14 15  2  0  0  0
 15 16  1  0  0  0
 16 21  1  0  0  0
 21 22  1  0  0  0
 16 17  2  0  0  0
 17 18  1  0  0  0
  6  7  1  0  0  0
  7  8  2  0  0  0
  7  9  1  0  0  0
  9 26  1  0  0  0
 26 27  1  0  0  0
 27 28  1  0  0  0
 28 29  1  0  0  0
 29 30  1  0  0  0
 30 31  1  0  0  0
 31 32  1  0  0  0
 32 33  1  0  0  0
 33 34  1  0  0  0
 32 35  1  0  0  0
 35 36  2  0  0  0
 35 37  1  0  0  0
 37 38  2  0  0  0
  9 10  1  0  0  0
 10 11  2  0  0  0
 11  1  1  0  0  0
 10  4  1  0  0  0
 17 12  1  0  0  0
 34 29  1  0  0  0
 24 25  1  0  0  0
M  END
> <minimizedAffinity>
-6.68616

> <CNNscore>
0.1621581018

> <CNNaffinity>
6.7020597458

> <CNN_VS>
1.0867933035

> <CNNaffinity_variance>
0.1117504984

$$$$
[H]C([H])=C([H])C(=O)N1C([H])([H])C([H])([H])N(C([H])([H])C([H])([H])C([H])([H])n2c(=O)c(-c3c([H])c(OC([H])([H])[H])c([H])c(OC([H])([H])[H])c3Cl)c([H])c3c([H])nc(N([H])C([H])([H])[H])nc32)C([H])([H])C1([H])[H]


 38 41  0  0  0  0  0  0  0  0999 V2000
   -1.5649   22.4531  -25.2092 C   0  0  0  0  0  0  0  0  0  0  0  0
   -0.4167   21.7841  -25.1672 N   0  0  0  0  0  0  0  0  0  0  0  0
    0.2378   21.5226  -24.0314 C   0  0  0  0  0  0  0  0  0  0  0  0
   -0.3011   21.9662  -22.8505 C   0  0  0  0  0  0  0  0  0  0  0  0
    0.3296   21.7295  -21.6302 C   0  0  0  0  0  0  0  0  0  0  0  0
   -0.2449   22.1931  -20.4720 C   0  0  0  0  0  0  0  0  0  0  0  0
   -1.4332   22.8802  -20.5633 C   0  0  0  0  0  0  0  0  0  0  0  0
   -1.9564   23.3033  -19.5069 O   0  0  0  0  0  0  0  0  0  0  0  0
   -2.0358   23.1044  -21.7445 N   0  0  0  0  0  0  0  0  0  0  0  0
   -1.4889   22.6607  -22.8667 C   0  0  0  0  0  0  0  0  0  0  0  0
   -2.0938   22.8882  -24.0484 N   0  0  0  0  0  0  0  0  0  0  0  0
    0.3467   21.9670  -19.1578 C   0  0  0  0  0  0  0  0  0  0  0  0
    1.2920   22.8606  -18.6745 C   0  0  0  0  0  0  0  0  0  0  0  0
    1.8667   22.6818  -17.4126 C   0  0  0  0  0  0  0  0  0  0  0  0
    1.4418   21.5906  -16.7042 C   0  0  0  0  0  0  0  0  0  0  0  0
    0.5086   20.6748  -17.1373 C   0  0  0  0  0  0  0  0  0  0  0  0
   -0.0442   20.8872  -18.4061 C   0  0  0  0  0  0  0  0  0  0  0  0
   -1.2374   19.7164  -18.9881 Cl  0  0  0  0  0  0  0  0  0  0  0  0
    2.7912   23.6045  -17.0077 O   0  0  0  0  0  0  0  0  0  0  0  0
    3.3684   23.6026  -15.7368 C   0  0  0  0  0  0  0  0  0  0  0  0
    0.0986   19.5798  -16.4002 O   0  0  0  0  0  0  0  0  0  0  0  0
    0.9894   18.5564  -16.0495 C   0  0  0  0  0  0  0  0  0  0  0  0
   -1.5255   22.8052  -27.6994 C   0  0  0  0  0  0  0  0  0  0  0  0
   -2.2477   22.7235  -26.4493 N   0  0  0  0  0  0  0  0  0  0  0  0
   -3.2774   22.8650  -26.4708 H   0  0  0  0  0  0  0  0  0  0  0  0
   -3.2788   23.8390  -21.8009 C   0  0  0  0  0  0  0  0  0  0  0  0
   -4.3786   22.9638  -21.2326 C   0  0  0  0  0  0  0  0  0  0  0  0
   -4.7626   21.8424  -22.1277 C   0  0  0  0  0  0  0  0  0  0  0  0
   -6.0838   22.0689  -22.6784 N   0  0  0  0  0  0  0  0  0  0  0  0
   -6.0636   22.0893  -24.1247 C   0  0  0  0  0  0  0  0  0  0  0  0
   -5.6097   23.4467  -24.6632 C   0  0  0  0  0  0  0  0  0  0  0  0
   -6.4050   24.5044  -24.1524 N   0  0  0  0  0  0  0  0  0  0  0  0
   -7.4302   24.0523  -23.1678 C   0  0  0  0  0  0  0  0  0  0  0  0
   -6.6487   23.2818  -22.1241 C   0  0  0  0  0  0  0  0  0  0  0  0
   -6.3297   25.8478  -24.4650 C   0  0  0  0  0  0  0  0  0  0  0  0
   -7.1965   26.6367  -23.8287 O   0  0  0  0  0  0  0  0  0  0  0  0
   -5.4901   26.5633  -25.3506 C   0  0  0  0  0  0  0  0  0  0  0  0
   -4.2965   27.0203  -25.1477 C   0  0  0  0  0  0  0  0  0  0  0  0
 23 24  1  0  0  0
 24  1  1  0  0  0
  1  2  2  0  0  0
  2  3  1  0  0  0
  3  4  2  0  0  0
  4  5  1  0  0  0
  5  6  2  0  0  0
  6 12  1  0  0  0
 12 13  2  0  0  0
 13 14  1  0  0  0
 14 19  1  0  0  0
 19 20  1  0  0  0
 14 15  2  0  0  0
 15 16  1  0  0  0
 16 21  1  0  0  0
 21 22  1  0  0  0
 16 17  2  0  0  0
 17 18  1  0  0  0
  6  7  1  0  0  0
  7  8  2  0  0  0
  7  9  1  0  0  0
  9 26  1  0  0  0
 26 27  1  0  0  0
 27 28  1  0  0  0
 28 29  1  0  0  0
 29 30  1  0  0  0
 30 31  1  0  0  0
 31 32  1  0  0  0
 32 33  1  0  0  0
 33 34  1  0  0  0
 32 35  1  0  0  0
 35 36  2  0  0  0
 35 37  1  0  0  0
 37 38  2  0  0  0
  9 10  1  0  0  0
 10 11  2  0  0  0
 11  1  1  0  0  0
 10  4  1  0  0  0
 17 12  1  0  0  0
 34 29  1  0  0  0
 24 25  1  0  0  0
M  END
> <minimizedAffinity>
-7.08825

> <CNNscore>
0.1156406477

> <CNNaffinity>
6.7642836571

> <CNN_VS>
0.7822261453

> <CNNaffinity_variance>
0.0846178681

$$$$
[H]C([H])=C([H])C(=O)N1C([H])([H])C([H])([H])N(C([H])([H])C([H])([H])C([H])([H])n2c(=O)c(-c3c([H])c(OC([H])([H])[H])c([H])c(OC([H])([H])[H])c3Cl)c([H])c3c([H])nc(N([H])C([H])([H])[H])nc32)C([H])([H])C1([H])[H]


 38 41  0  0  0  0  0  0  0  0999 V2000
    0.4216   20.9913  -22.4389 C   0  0  0  0  0  0  0  0  0  0  0  0
    1.0885   21.4729  -23.4835 N   0  0  0  0  0  0  0  0  0  0  0  0
    0.5068   22.1637  -24.4690 C   0  0  0  0  0  0  0  0  0  0  0  0
   -0.8449   22.3868  -24.4002 C   0  0  0  0  0  0  0  0  0  0  0  0
   -1.5152   23.0980  -25.3941 C   0  0  0  0  0  0  0  0  0  0  0  0
   -2.8698   23.2969  -25.2854 C   0  0  0  0  0  0  0  0  0  0  0  0
   -3.5185   22.7806  -24.1877 C   0  0  0  0  0  0  0  0  0  0  0  0
   -4.7540   22.9616  -24.0893 O   0  0  0  0  0  0  0  0  0  0  0  0
   -2.8648   22.0957  -23.2326 N   0  0  0  0  0  0  0  0  0  0  0  0
   -1.5581   21.8992  -23.3291 C   0  0  0  0  0  0  0  0  0  0  0  0
   -0.9063   21.2115  -22.3719 N   0  0  0  0  0  0  0  0  0  0  0  0
   -3.6345   24.0469  -26.2758 C   0  0  0  0  0  0  0  0  0  0  0  0
   -4.2182   25.2527  -25.9138 C   0  0  0  0  0  0  0  0  0  0  0  0
   -4.9443   26.0040  -26.8429 C   0  0  0  0  0  0  0  0  0  0  0  0
   -5.0364   25.4800  -28.1039 C   0  0  0  0  0  0  0  0  0  0  0  0
   -4.4773   24.2899  -28.5139 C   0  0  0  0  0  0  0  0  0  0  0  0
   -3.7581   23.5658  -27.5553 C   0  0  0  0  0  0  0  0  0  0  0  0
   -3.0403   22.0275  -28.0568 Cl  0  0  0  0  0  0  0  0  0  0  0  0
   -5.4898   27.1806  -26.4094 O   0  0  0  0  0  0  0  0  0  0  0  0
   -5.9035   27.3933  -25.0935 C   0  0  0  0  0  0  0  0  0  0  0  0
   -4.5876   23.7837  -29.7953 O   0  0  0  0  0  0  0  0  0  0  0  0
   -5.6236   24.1773  -30.6529 C   0  0  0  0  0  0  0  0  0  0  0  0
    0.4340   19.1089  -20.7708 C   0  0  0  0  0  0  0  0  0  0  0  0
    1.0745   20.2471  -21.3916 N   0  0  0  0  0  0  0  0  0  0  0  0
    2.0232   20.5135  -21.0603 H   0  0  0  0  0  0  0  0  0  0  0  0
   -3.5828   21.5601  -22.0987 C   0  0  0  0  0  0  0  0  0  0  0  0
   -3.7157   22.6528  -21.0563 C   0  0  0  0  0  0  0  0  0  0  0  0
   -5.0589   22.7060  -20.4246 C   0  0  0  0  0  0  0  0  0  0  0  0
   -5.3712   24.0627  -20.0215 N   0  0  0  0  0  0  0  0  0  0  0  0
   -6.2420   24.0899  -18.8668 C   0  0  0  0  0  0  0  0  0  0  0  0
   -7.7043   23.8728  -19.2579 C   0  0  0  0  0  0  0  0  0  0  0  0
   -8.1288   24.8093  -20.2353 N   0  0  0  0  0  0  0  0  0  0  0  0
   -7.0405   25.7197  -20.6951 C   0  0  0  0  0  0  0  0  0  0  0  0
   -5.9269   24.7949  -21.1406 C   0  0  0  0  0  0  0  0  0  0  0  0
   -9.3918   24.9567  -20.7746 C   0  0  0  0  0  0  0  0  0  0  0  0
   -9.5183   25.9175  -21.6908 O   0  0  0  0  0  0  0  0  0  0  0  0
  -10.6043   24.2681  -20.5362 C   0  0  0  0  0  0  0  0  0  0  0  0
  -11.4086   24.3647  -19.5269 C   0  0  0  0  0  0  0  0  0  0  0  0
 23 24  1  0  0  0
 24  1  1  0  0  0
  1  2  2  0  0  0
  2  3  1  0  0  0
  3  4  2  0  0  0
  4  5  1  0  0  0
  5  6  2  0  0  0
  6 12  1  0  0  0
 12 13  2  0  0  0
 13 14  1  0  0  0
 14 19  1  0  0  0
 19 20  1  0  0  0
 14 15  2  0  0  0
 15 16  1  0  0  0
 16 21  1  0  0  0
 21 22  1  0  0  0
 16 17  2  0  0  0
 17 18  1  0  0  0
  6  7  1  0  0  0
  7  8  2  0  0  0
  7  9  1  0  0  0
  9 26  1  0  0  0
 26 27  1  0  0  0
 27 28  1  0  0  0
 28 29  1  0  0  0
 29 30  1  0  0  0
 30 31  1  0  0  0
 31 32  1  0  0  0
 32 33  1  0  0  0
 33 34  1  0  0  0
 32 35  1  0  0  0
 35 36  2  0  0  0
 35 37  1  0  0  0
 37 38  2  0  0  0
  9 10  1  0  0  0
 10 11  2  0  0  0
 11  1  1  0  0  0
 10  4  1  0  0  0
 17 12  1  0  0  0
 34 29  1  0  0  0
 24 25  1  0  0  0
M  END
> <minimizedAffinity>
-7.40279

> <CNNscore>
0.1082415581

> <CNNaffinity>
6.7459182739

> <CNN_VS>
0.7301887274

> <CNNaffinity_variance>
0.1397066414

$$$$
[H]C([H])=C([H])C(=O)N1C([H])([H])C([H])([H])N(C([H])([H])C([H])([H])C([H])([H])n2c(=O)c(-c3c([H])c(OC([H])([H])[H])c([H])c(OC([H])([H])[H])c3Cl)c([H])c3c([H])nc(N([H])C([H])([H])[H])nc32)C([H])([H])C1([H])[H]


 38 41  0  0  0  0  0  0  0  0999 V2000
   -1.5217   22.5816  -25.9146 C   0  0  0  0  0  0  0  0  0  0  0  0
   -0.2551   22.1891  -25.8172 N   0  0  0  0  0  0  0  0  0  0  0  0
    0.2909   21.7517  -24.6782 C   0  0  0  0  0  0  0  0  0  0  0  0
   -0.4935   21.7057  -23.5537 C   0  0  0  0  0  0  0  0  0  0  0  0
    0.0123   21.2618  -22.3331 C   0  0  0  0  0  0  0  0  0  0  0  0
   -0.8083   21.2335  -21.2321 C   0  0  0  0  0  0  0  0  0  0  0  0
   -2.1114   21.6489  -21.3795 C   0  0  0  0  0  0  0  0  0  0  0  0
   -2.8593   21.6236  -20.3751 O   0  0  0  0  0  0  0  0  0  0  0  0
   -2.5923   22.0757  -22.5607 N   0  0  0  0  0  0  0  0  0  0  0  0
   -1.8078   22.1062  -23.6280 C   0  0  0  0  0  0  0  0  0  0  0  0
   -2.2917   22.5356  -24.8094 N   0  0  0  0  0  0  0  0  0  0  0  0
   -0.3549   20.7638  -19.9275 C   0  0  0  0  0  0  0  0  0  0  0  0
   -0.2846   19.3998  -19.6824 C   0  0  0  0  0  0  0  0  0  0  0  0
    0.1607   18.9161  -18.4485 C   0  0  0  0  0  0  0  0  0  0  0  0
    0.5143   19.8592  -17.5219 C   0  0  0  0  0  0  0  0  0  0  0  0
    0.4630   21.2221  -17.7141 C   0  0  0  0  0  0  0  0  0  0  0  0
    0.0116   21.6681  -18.9622 C   0  0  0  0  0  0  0  0  0  0  0  0
   -0.0735   23.4161  -19.2278 Cl  0  0  0  0  0  0  0  0  0  0  0  0
    0.2007   17.5592  -18.2837 O   0  0  0  0  0  0  0  0  0  0  0  0
    1.3632   16.8630  -17.9491 C   0  0  0  0  0  0  0  0  0  0  0  0
    0.8256   22.1528  -16.7586 O   0  0  0  0  0  0  0  0  0  0  0  0
    0.8982   21.8189  -15.3997 C   0  0  0  0  0  0  0  0  0  0  0  0
   -3.4636   23.4753  -27.2399 C   0  0  0  0  0  0  0  0  0  0  0  0
   -2.0836   23.0516  -27.1557 N   0  0  0  0  0  0  0  0  0  0  0  0
   -1.5060   23.0968  -28.0189 H   0  0  0  0  0  0  0  0  0  0  0  0
   -3.9647   22.5135  -22.6739 C   0  0  0  0  0  0  0  0  0  0  0  0
   -3.9965   24.0247  -22.5566 C   0  0  0  0  0  0  0  0  0  0  0  0
   -5.1700   24.5337  -21.8017 C   0  0  0  0  0  0  0  0  0  0  0  0
   -6.3294   23.7017  -22.0545 N   0  0  0  0  0  0  0  0  0  0  0  0
   -7.1139   24.2007  -23.1626 C   0  0  0  0  0  0  0  0  0  0  0  0
   -8.0327   25.3452  -22.7329 C   0  0  0  0  0  0  0  0  0  0  0  0
   -8.8676   24.9670  -21.6502 N   0  0  0  0  0  0  0  0  0  0  0  0
   -8.5995   23.5880  -21.1491 C   0  0  0  0  0  0  0  0  0  0  0  0
   -7.1159   23.5700  -20.8455 C   0  0  0  0  0  0  0  0  0  0  0  0
   -9.8603   25.7133  -21.0454 C   0  0  0  0  0  0  0  0  0  0  0  0
  -10.4932   25.1178  -20.0338 O   0  0  0  0  0  0  0  0  0  0  0  0
  -10.3450   27.0179  -21.2991 C   0  0  0  0  0  0  0  0  0  0  0  0
  -10.3350   28.0535  -20.5231 C   0  0  0  0  0  0  0  0  0  0  0  0
 23 24  1  0  0  0
 24  1  1  0  0  0
  1  2  2  0  0  0
  2  3  1  0  0  0
  3  4  2  0  0  0
  4  5  1  0  0  0
  5  6  2  0  0  0
  6 12  1  0  0  0
 12 13  2  0  0  0
 13 14  1  0  0  0
 14 19  1  0  0  0
 19 20  1  0  0  0
 14 15  2  0  0  0
 15 16  1  0  0  0
 16 21  1  0  0  0
 21 22  1  0  0  0
 16 17  2  0  0  0
 17 18  1  0  0  0
  6  7  1  0  0  0
  7  8  2  0  0  0
  7  9  1  0  0  0
  9 26  1  0  0  0
 26 27  1  0  0  0
 27 28  1  0  0  0
 28 29  1  0  0  0
 29 30  1  0  0  0
 30 31  1  0  0  0
 31 32  1  0  0  0
 32 33  1  0  0  0
 33 34  1  0  0  0
 32 35  1  0  0  0
 35 36  2  0  0  0
 35 37  1  0  0  0
 37 38  2  0  0  0
  9 10  1  0  0  0
 10 11  2  0  0  0
 11  1  1  0  0  0
 10  4  1  0  0  0
 17 12  1  0  0  0
 34 29  1  0  0  0
 24 25  1  0  0  0
M  END
> <minimizedAffinity>
-6.40464

> <CNNscore>
0.0761430711

> <CNNaffinity>
6.4828310013

> <CNN_VS>
0.4936226606

> <CNNaffinity_variance>
0.2133974284

$$$$
[H]C([H])=C([H])C(=O)N1C([H])([H])C([H])([H])N(C([H])([H])C([H])([H])C([H])([H])n2c(=O)c(-c3c([H])c(OC([H])([H])[H])c([H])c(OC([H])([H])[H])c3Cl)c([H])c3c([H])nc(N([H])C([H])([H])[H])nc32)C([H])([H])C1([H])[H]


 38 41  0  0  0  0  0  0  0  0999 V2000
   -7.0985   21.7535  -20.5716 C   0  0  0  0  0  0  0  0  0  0  0  0
   -7.7926   21.2820  -21.6029 N   0  0  0  0  0  0  0  0  0  0  0  0
   -7.3805   21.3817  -22.8706 C   0  0  0  0  0  0  0  0  0  0  0  0
   -6.1825   22.0014  -23.1207 C   0  0  0  0  0  0  0  0  0  0  0  0
   -5.6940   22.1409  -24.4186 C   0  0  0  0  0  0  0  0  0  0  0  0
   -4.4902   22.7695  -24.6233 C   0  0  0  0  0  0  0  0  0  0  0  0
   -3.8066   23.2417  -23.5268 C   0  0  0  0  0  0  0  0  0  0  0  0
   -2.7091   23.8155  -23.7139 O   0  0  0  0  0  0  0  0  0  0  0  0
   -4.2842   23.1030  -22.2774 N   0  0  0  0  0  0  0  0  0  0  0  0
   -5.4446   22.4978  -22.0706 C   0  0  0  0  0  0  0  0  0  0  0  0
   -5.9213   22.3618  -20.8183 N   0  0  0  0  0  0  0  0  0  0  0  0
   -3.9072   22.9352  -25.9503 C   0  0  0  0  0  0  0  0  0  0  0  0
   -2.6253   22.4630  -26.1939 C   0  0  0  0  0  0  0  0  0  0  0  0
   -2.0433   22.5916  -27.4586 C   0  0  0  0  0  0  0  0  0  0  0  0
   -2.8080   23.2005  -28.4165 C   0  0  0  0  0  0  0  0  0  0  0  0
   -4.0829   23.6862  -28.2270 C   0  0  0  0  0  0  0  0  0  0  0  0
   -4.6317   23.5394  -26.9473 C   0  0  0  0  0  0  0  0  0  0  0  0
   -6.2648   24.1665  -26.6776 Cl  0  0  0  0  0  0  0  0  0  0  0  0
   -0.7766   22.1022  -27.6191 O   0  0  0  0  0  0  0  0  0  0  0  0
    0.2529   22.3288  -26.7043 C   0  0  0  0  0  0  0  0  0  0  0  0
   -4.8326   24.2986  -29.2137 O   0  0  0  0  0  0  0  0  0  0  0  0
   -5.5045   23.5545  -30.1927 C   0  0  0  0  0  0  0  0  0  0  0  0
   -8.9819   21.5697  -18.9147 C   0  0  0  0  0  0  0  0  0  0  0  0
   -7.5687   21.6345  -19.2145 N   0  0  0  0  0  0  0  0  0  0  0  0
   -6.8992   21.5918  -18.4203 H   0  0  0  0  0  0  0  0  0  0  0  0
   -3.5416   23.6210  -21.1512 C   0  0  0  0  0  0  0  0  0  0  0  0
   -2.7057   22.4972  -20.5709 C   0  0  0  0  0  0  0  0  0  0  0  0
   -1.2540   22.6348  -20.8531 C   0  0  0  0  0  0  0  0  0  0  0  0
   -0.5973   21.3472  -20.7468 N   0  0  0  0  0  0  0  0  0  0  0  0
   -0.2584   21.0317  -19.3765 C   0  0  0  0  0  0  0  0  0  0  0  0
    1.0343   21.7234  -18.9417 C   0  0  0  0  0  0  0  0  0  0  0  0
    2.1104   21.4167  -19.8136 N   0  0  0  0  0  0  0  0  0  0  0  0
    1.7103   20.5657  -20.9714 C   0  0  0  0  0  0  0  0  0  0  0  0
    0.5598   21.3096  -21.6170 C   0  0  0  0  0  0  0  0  0  0  0  0
    3.4305   21.8066  -19.6993 C   0  0  0  0  0  0  0  0  0  0  0  0
    4.2419   21.3843  -20.6699 O   0  0  0  0  0  0  0  0  0  0  0  0
    4.1020   22.5860  -18.7283 C   0  0  0  0  0  0  0  0  0  0  0  0
    4.4007   22.2812  -17.5066 C   0  0  0  0  0  0  0  0  0  0  0  0
 23 24  1  0  0  0
 24  1  1  0  0  0
  1  2  2  0  0  0
  2  3  1  0  0  0
  3  4  2  0  0  0
  4  5  1  0  0  0
  5  6  2  0  0  0
  6 12  1  0  0  0
 12 13  2  0  0  0
 13 14  1  0  0  0
 14 19  1  0  0  0
 19 20  1  0  0  0
 14 15  2  0  0  0
 15 16  1  0  0  0
 16 21  1  0  0  0
 21 22  1  0  0  0
 16 17  2  0  0  0
 17 18  1  0  0  0
  6  7  1  0  0  0
  7  8  2  0  0  0
  7  9  1  0  0  0
  9 26  1  0  0  0
 26 27  1  0  0  0
 27 28  1  0  0  0
 28 29  1  0  0  0
 29 30  1  0  0  0
 30 31  1  0  0  0
 31 32  1  0  0  0
 32 33  1  0  0  0
 33 34  1  0  0  0
 32 35  1  0  0  0
 35 36  2  0  0  0
 35 37  1  0  0  0
 37 38  2  0  0  0
  9 10  1  0  0  0
 10 11  2  0  0  0
 11  1  1  0  0  0
 10  4  1  0  0  0
 17 12  1  0  0  0
 34 29  1  0  0  0
 24 25  1  0  0  0
M  END
> <minimizedAffinity>
-7.30141

> <CNNscore>
0.0535941310

> <CNNaffinity>
6.4632935524

> <CNN_VS>
0.3463945985

> <CNNaffinity_variance>
0.0785424337

$$$$
[H]C([H])=C([H])C(=O)N1C([H])([H])C([H])([H])N(C([H])([H])C([H])([H])C([H])([H])n2c(=O)c(-c3c([H])c(OC([H])([H])[H])c([H])c(OC([H])([H])[H])c3Cl)c([H])c3c([H])nc(N([H])C([H])([H])[H])nc32)C([H])([H])C1([H])[H]


 38 41  0  0  0  0  0  0  0  0999 V2000
   -2.0066   22.8950  -27.0722 C   0  0  0  0  0  0  0  0  0  0  0  0
   -3.1831   22.9086  -27.6916 N   0  0  0  0  0  0  0  0  0  0  0  0
   -4.3511   22.9711  -27.0445 C   0  0  0  0  0  0  0  0  0  0  0  0
   -4.3360   23.0235  -25.6738 C   0  0  0  0  0  0  0  0  0  0  0  0
   -5.5171   23.0883  -24.9365 C   0  0  0  0  0  0  0  0  0  0  0  0
   -5.4555   23.1379  -23.5653 C   0  0  0  0  0  0  0  0  0  0  0  0
   -4.2166   23.1215  -22.9675 C   0  0  0  0  0  0  0  0  0  0  0  0
   -4.1609   23.1661  -21.7170 O   0  0  0  0  0  0  0  0  0  0  0  0
   -3.0814   23.0591  -23.6857 N   0  0  0  0  0  0  0  0  0  0  0  0
   -3.1314   23.0111  -25.0089 C   0  0  0  0  0  0  0  0  0  0  0  0
   -1.9928   22.9469  -25.7255 N   0  0  0  0  0  0  0  0  0  0  0  0
   -6.6476   23.2263  -22.7291 C   0  0  0  0  0  0  0  0  0  0  0  0
   -7.0815   22.1013  -22.0422 C   0  0  0  0  0  0  0  0  0  0  0  0
   -8.2110   22.1560  -21.2200 C   0  0  0  0  0  0  0  0  0  0  0  0
   -8.8431   23.3673  -21.1415 C   0  0  0  0  0  0  0  0  0  0  0  0
   -8.4545   24.5120  -21.8016 C   0  0  0  0  0  0  0  0  0  0  0  0
   -7.3192   24.4178  -22.6157 C   0  0  0  0  0  0  0  0  0  0  0  0
   -6.8079   25.8738  -23.4829 Cl  0  0  0  0  0  0  0  0  0  0  0  0
   -8.5756   21.0053  -20.5774 O   0  0  0  0  0  0  0  0  0  0  0  0
   -8.2039   20.7113  -19.2646 C   0  0  0  0  0  0  0  0  0  0  0  0
   -9.1135   25.7231  -21.7046 O   0  0  0  0  0  0  0  0  0  0  0  0
  -10.4559   25.8601  -22.0825 C   0  0  0  0  0  0  0  0  0  0  0  0
    0.4273   22.2711  -27.1869 C   0  0  0  0  0  0  0  0  0  0  0  0
   -0.7622   22.8241  -27.7956 N   0  0  0  0  0  0  0  0  0  0  0  0
   -0.6939   23.1695  -28.7738 H   0  0  0  0  0  0  0  0  0  0  0  0
   -1.7986   23.0339  -23.0210 C   0  0  0  0  0  0  0  0  0  0  0  0
   -1.4430   21.5910  -22.7208 C   0  0  0  0  0  0  0  0  0  0  0  0
    0.0192   21.3300  -22.7259 C   0  0  0  0  0  0  0  0  0  0  0  0
    0.4722   20.9831  -21.3937 N   0  0  0  0  0  0  0  0  0  0  0  0
    1.9137   21.0408  -21.2875 C   0  0  0  0  0  0  0  0  0  0  0  0
    2.5708   19.7742  -21.8375 C   0  0  0  0  0  0  0  0  0  0  0  0
    2.0626   18.6073  -21.2112 N   0  0  0  0  0  0  0  0  0  0  0  0
    0.9709   18.8872  -20.2342 C   0  0  0  0  0  0  0  0  0  0  0  0
   -0.0506   19.6863  -21.0163 C   0  0  0  0  0  0  0  0  0  0  0  0
    2.4630   17.2995  -21.4049 C   0  0  0  0  0  0  0  0  0  0  0  0
    1.8076   16.3846  -20.6894 O   0  0  0  0  0  0  0  0  0  0  0  0
    3.4573   16.7319  -22.2356 C   0  0  0  0  0  0  0  0  0  0  0  0
    4.2175   15.7090  -22.0104 C   0  0  0  0  0  0  0  0  0  0  0  0
 23 24  1  0  0  0
 24  1  1  0  0  0
  1  2  2  0  0  0
  2  3  1  0  0  0
  3  4  2  0  0  0
  4  5  1  0  0  0
  5  6  2  0  0  0
  6 12  1  0  0  0
 12 13  2  0  0  0
 13 14  1  0  0  0
 14 19  1  0  0  0
 19 20  1  0  0  0
 14 15  2  0  0  0
 15 16  1  0  0  0
 16 21  1  0  0  0
 21 22  1  0  0  0
 16 17  2  0  0  0
 17 18  1  0  0  0
  6  7  1  0  0  0
  7  8  2  0  0  0
  7  9  1  0  0  0
  9 26  1  0  0  0
 26 27  1  0  0  0
 27 28  1  0  0  0
 28 29  1  0  0  0
 29 30  1  0  0  0
 30 31  1  0  0  0
 31 32  1  0  0  0
 32 33  1  0  0  0
 33 34  1  0  0  0
 32 35  1  0  0  0
 35 36  2  0  0  0
 35 37  1  0  0  0
 37 38  2  0  0  0
  9 10  1  0  0  0
 10 11  2  0  0  0
 11  1  1  0  0  0
 10  4  1  0  0  0
 17 12  1  0  0  0
 34 29  1  0  0  0
 24 25  1  0  0  0
M  END
> <minimizedAffinity>
-7.58362

> <CNNscore>
0.0467365533

> <CNNaffinity>
6.0510487556

> <CNN_VS>
0.2828051746

> <CNNaffinity_variance>
0.6166592836

$$$$
[H]c1nc(N([H])[H])c(-c2nn(-c3c(Cl)c(OC([H])([H])[H])c([H])c(OC([H])([H])[H])c3Cl)c(=O)c([H])c2[H])nc1-c1c([H])nn(C([H])([H])[H])c1[H]


 34 37  0  0  0  0  0  0  0  0999 V2000
   -5.6622   23.5692  -25.3339 N   0  0  0  0  0  0  0  0  0  0  0  0
   -4.3613   23.2717  -25.3708 N   0  0  0  0  0  0  0  0  0  0  0  0
   -3.6512   23.1594  -26.4841 C   0  0  0  0  0  0  0  0  0  0  0  0
   -4.3041   23.3647  -27.6875 C   0  0  0  0  0  0  0  0  0  0  0  0
   -5.6599   23.6780  -27.7218 C   0  0  0  0  0  0  0  0  0  0  0  0
   -6.3008   23.7697  -26.5043 C   0  0  0  0  0  0  0  0  0  0  0  0
   -7.5262   24.0495  -26.4623 O   0  0  0  0  0  0  0  0  0  0  0  0
   -2.2313   22.8325  -26.4735 C   0  0  0  0  0  0  0  0  0  0  0  0
   -1.5963   22.4353  -25.3616 N   0  0  0  0  0  0  0  0  0  0  0  0
   -0.2760   22.1367  -25.3752 C   0  0  0  0  0  0  0  0  0  0  0  0
    0.4650   22.2299  -26.5338 C   0  0  0  0  0  0  0  0  0  0  0  0
   -0.1705   22.6279  -27.6489 N   0  0  0  0  0  0  0  0  0  0  0  0
   -1.4993   22.9292  -27.6380 C   0  0  0  0  0  0  0  0  0  0  0  0
   -2.1780   23.3487  -28.8050 N   0  0  0  0  0  0  0  0  0  0  0  0
   -2.2465   24.3602  -29.0062 H   0  0  0  0  0  0  0  0  0  0  0  0
   -2.5915   22.6648  -29.4355 H   0  0  0  0  0  0  0  0  0  0  0  0
    0.3658   21.7097  -24.1383 C   0  0  0  0  0  0  0  0  0  0  0  0
   -0.2392   21.4835  -22.9195 C   0  0  0  0  0  0  0  0  0  0  0  0
    0.7254   21.1024  -22.0489 N   0  0  0  0  0  0  0  0  0  0  0  0
    1.9056   21.0750  -22.6492 N   0  0  0  0  0  0  0  0  0  0  0  0
    3.2004   20.7180  -22.0669 C   0  0  0  0  0  0  0  0  0  0  0  0
    1.7028   21.4455  -23.9336 C   0  0  0  0  0  0  0  0  0  0  0  0
   -7.4785   22.6955  -22.1869 C   0  0  0  0  0  0  0  0  0  0  0  0
   -7.7769   23.9609  -21.6647 C   0  0  0  0  0  0  0  0  0  0  0  0
   -7.3559   25.0730  -22.3912 C   0  0  0  0  0  0  0  0  0  0  0  0
   -6.6725   24.9249  -23.5769 C   0  0  0  0  0  0  0  0  0  0  0  0
   -6.1354   26.3274  -24.5035 Cl  0  0  0  0  0  0  0  0  0  0  0  0
   -6.3712   23.6759  -24.1039 C   0  0  0  0  0  0  0  0  0  0  0  0
   -6.7930   22.5856  -23.3762 C   0  0  0  0  0  0  0  0  0  0  0  0
   -6.4407   20.9902  -23.9931 Cl  0  0  0  0  0  0  0  0  0  0  0  0
   -8.5541   21.5273  -20.3109 C   0  0  0  0  0  0  0  0  0  0  0  0
   -7.8640   21.5475  -21.5224 O   0  0  0  0  0  0  0  0  0  0  0  0
   -7.6250   26.3705  -21.9198 O   0  0  0  0  0  0  0  0  0  0  0  0
   -8.4382   26.5875  -20.7863 C   0  0  0  0  0  0  0  0  0  0  0  0
 31 32  1  0  0  0
 32 23  1  0  0  0
 23 24  2  0  0  0
 24 25  1  0  0  0
 25 33  1  0  0  0
 33 34  1  0  0  0
 25 26  2  0  0  0
 26 27  1  0  0  0
 26 28  1  0  0  0
 28 29  2  0  0  0
 29 30  1  0  0  0
 28  1  1  0  0  0
  1  2  1  0  0  0
  2  3  2  0  0  0
  3  4  1  0  0  0
  4  5  2  0  0  0
  5  6  1  0  0  0
  6  7  2  0  0  0
  3  8  1  0  0  0
  8  9  2  0  0  0
  9 10  1  0  0  0
 10 11  2  0  0  0
 11 12  1  0  0  0
 12 13  2  0  0  0
 13 14  1  0  0  0
 10 17  1  0  0  0
 17 18  1  0  0  0
 18 19  2  0  0  0
 19 20  1  0  0  0
 20 21  1  0  0  0
 20 22  1  0  0  0
 29 23  1  0  0  0
  6  1  1  0  0  0
 13  8  1  0  0  0
 22 17  2  0  0  0
 14 15  1  0  0  0
 14 16  1  0  0  0
M  END
> <minimizedAffinity>
-9.36002

> <CNNscore>
0.8253295422

> <CNNaffinity>
7.8041839600

> <CNN_VS>
6.4410233498

> <CNNaffinity_variance>
0.1747713387

$$$$
[H]c1nc(N([H])[H])c(-c2nn(-c3c(Cl)c(OC([H])([H])[H])c([H])c(OC([H])([H])[H])c3Cl)c(=O)c([H])c2[H])nc1-c1c([H])nn(C([H])([H])[H])c1[H]


 34 37  0  0  0  0  0  0  0  0999 V2000
   -5.6990   23.6415  -25.3285 N   0  0  0  0  0  0  0  0  0  0  0  0
   -4.3997   23.3375  -25.3703 N   0  0  0  0  0  0  0  0  0  0  0  0
   -3.7012   23.1932  -26.4872 C   0  0  0  0  0  0  0  0  0  0  0  0
   -4.3650   23.3701  -27.6891 C   0  0  0  0  0  0  0  0  0  0  0  0
   -5.7198   23.6883  -27.7182 C   0  0  0  0  0  0  0  0  0  0  0  0
   -6.3483   23.8143  -26.4973 C   0  0  0  0  0  0  0  0  0  0  0  0
   -7.5720   24.1005  -26.4507 O   0  0  0  0  0  0  0  0  0  0  0  0
   -2.2826   22.8605  -26.4820 C   0  0  0  0  0  0  0  0  0  0  0  0
   -1.6453   22.4594  -25.3728 N   0  0  0  0  0  0  0  0  0  0  0  0
   -0.3263   22.1554  -25.3914 C   0  0  0  0  0  0  0  0  0  0  0  0
    0.4111   22.2470  -26.5525 C   0  0  0  0  0  0  0  0  0  0  0  0
   -0.2267   22.6489  -27.6649 N   0  0  0  0  0  0  0  0  0  0  0  0
   -1.5543   22.9556  -27.6489 C   0  0  0  0  0  0  0  0  0  0  0  0
   -2.2353   23.3793  -28.8130 N   0  0  0  0  0  0  0  0  0  0  0  0
   -2.3004   24.3913  -29.0128 H   0  0  0  0  0  0  0  0  0  0  0  0
   -2.6539   22.6978  -29.4428 H   0  0  0  0  0  0  0  0  0  0  0  0
    0.3182   21.7243  -24.1572 C   0  0  0  0  0  0  0  0  0  0  0  0
   -0.2852   21.4876  -22.9397 C   0  0  0  0  0  0  0  0  0  0  0  0
    0.6815   21.1062  -22.0717 N   0  0  0  0  0  0  0  0  0  0  0  0
    1.8617   21.0887  -22.6724 N   0  0  0  0  0  0  0  0  0  0  0  0
    3.1585   20.7351  -22.0926 C   0  0  0  0  0  0  0  0  0  0  0  0
    1.6566   21.4660  -23.9545 C   0  0  0  0  0  0  0  0  0  0  0  0
   -7.4062   25.1328  -22.3574 C   0  0  0  0  0  0  0  0  0  0  0  0
   -7.7811   23.9916  -21.6365 C   0  0  0  0  0  0  0  0  0  0  0  0
   -7.4460   22.7508  -22.1751 C   0  0  0  0  0  0  0  0  0  0  0  0
   -6.7718   22.6589  -23.3717 C   0  0  0  0  0  0  0  0  0  0  0  0
   -6.3435   21.0920  -24.0613 Cl  0  0  0  0  0  0  0  0  0  0  0  0
   -6.3953   23.7831  -24.0947 C   0  0  0  0  0  0  0  0  0  0  0  0
   -6.7324   25.0027  -23.5514 C   0  0  0  0  0  0  0  0  0  0  0  0
   -6.2830   26.4500  -24.4192 Cl  0  0  0  0  0  0  0  0  0  0  0  0
   -8.5098   26.6593  -20.7784 C   0  0  0  0  0  0  0  0  0  0  0  0
   -7.7042   26.3966  -21.8857 O   0  0  0  0  0  0  0  0  0  0  0  0
   -7.7945   21.5677  -21.4992 O   0  0  0  0  0  0  0  0  0  0  0  0
   -8.6647   21.5844  -20.3876 C   0  0  0  0  0  0  0  0  0  0  0  0
 31 32  1  0  0  0
 32 23  1  0  0  0
 23 24  2  0  0  0
 24 25  1  0  0  0
 25 33  1  0  0  0
 33 34  1  0  0  0
 25 26  2  0  0  0
 26 27  1  0  0  0
 26 28  1  0  0  0
 28 29  2  0  0  0
 29 30  1  0  0  0
 28  1  1  0  0  0
  1  2  1  0  0  0
  2  3  2  0  0  0
  3  4  1  0  0  0
  4  5  2  0  0  0
  5  6  1  0  0  0
  6  7  2  0  0  0
  3  8  1  0  0  0
  8  9  2  0  0  0
  9 10  1  0  0  0
 10 11  2  0  0  0
 11 12  1  0  0  0
 12 13  2  0  0  0
 13 14  1  0  0  0
 10 17  1  0  0  0
 17 18  1  0  0  0
 18 19  2  0  0  0
 19 20  1  0  0  0
 20 21  1  0  0  0
 20 22  1  0  0  0
 29 23  1  0  0  0
  6  1  1  0  0  0
 13  8  1  0  0  0
 22 17  2  0  0  0
 14 15  1  0  0  0
 14 16  1  0  0  0
M  END
> <minimizedAffinity>
-9.48185

> <CNNscore>
0.8042446971

> <CNNaffinity>
7.7759275436

> <CNN_VS>
6.2537484169

> <CNNaffinity_variance>
0.1764299572

$$$$
[H]c1nc(N([H])[H])c(-c2nn(-c3c(Cl)c(OC([H])([H])[H])c([H])c(OC([H])([H])[H])c3Cl)c(=O)c([H])c2[H])nc1-c1c([H])nn(C([H])([H])[H])c1[H]


 34 37  0  0  0  0  0  0  0  0999 V2000
    0.8613   20.4142  -20.8909 N   0  0  0  0  0  0  0  0  0  0  0  0
    0.6418   20.7091  -22.1743 N   0  0  0  0  0  0  0  0  0  0  0  0
   -0.2458   21.5984  -22.5959 C   0  0  0  0  0  0  0  0  0  0  0  0
   -0.9936   22.2645  -21.6400 C   0  0  0  0  0  0  0  0  0  0  0  0
   -0.8159   22.0054  -20.2840 C   0  0  0  0  0  0  0  0  0  0  0  0
    0.1345   21.0611  -19.9577 C   0  0  0  0  0  0  0  0  0  0  0  0
    0.3463   20.7784  -18.7507 O   0  0  0  0  0  0  0  0  0  0  0  0
   -0.4495   21.8866  -24.0095 C   0  0  0  0  0  0  0  0  0  0  0  0
   -1.6554   22.1874  -24.5124 N   0  0  0  0  0  0  0  0  0  0  0  0
   -1.8212   22.4517  -25.8297 C   0  0  0  0  0  0  0  0  0  0  0  0
   -0.7555   22.4214  -26.7035 C   0  0  0  0  0  0  0  0  0  0  0  0
    0.4536   22.1201  -26.2005 N   0  0  0  0  0  0  0  0  0  0  0  0
    0.6233   21.8536  -24.8751 C   0  0  0  0  0  0  0  0  0  0  0  0
    1.8906   21.5356  -24.3351 N   0  0  0  0  0  0  0  0  0  0  0  0
    2.1722   20.5430  -24.2738 H   0  0  0  0  0  0  0  0  0  0  0  0
    2.5139   22.2730  -24.0127 H   0  0  0  0  0  0  0  0  0  0  0  0
   -3.1538   22.7731  -26.3248 C   0  0  0  0  0  0  0  0  0  0  0  0
   -4.2940   22.9807  -25.5768 C   0  0  0  0  0  0  0  0  0  0  0  0
   -5.3036   23.2522  -26.4373 N   0  0  0  0  0  0  0  0  0  0  0  0
   -4.8653   23.2278  -27.6868 N   0  0  0  0  0  0  0  0  0  0  0  0
   -5.6313   23.4665  -28.9112 C   0  0  0  0  0  0  0  0  0  0  0  0
   -3.5463   22.9349  -27.6359 C   0  0  0  0  0  0  0  0  0  0  0  0
    2.4740   17.1903  -19.9049 C   0  0  0  0  0  0  0  0  0  0  0  0
    3.8082   17.5779  -19.7247 C   0  0  0  0  0  0  0  0  0  0  0  0
    4.1245   18.9176  -19.9414 C   0  0  0  0  0  0  0  0  0  0  0  0
    3.1559   19.8201  -20.3185 C   0  0  0  0  0  0  0  0  0  0  0  0
    3.5473   21.5184  -20.5952 Cl  0  0  0  0  0  0  0  0  0  0  0  0
    1.8306   19.4472  -20.5002 C   0  0  0  0  0  0  0  0  0  0  0  0
    1.5316   18.1207  -20.2828 C   0  0  0  0  0  0  0  0  0  0  0  0
   -0.1206   17.5971  -20.4970 Cl  0  0  0  0  0  0  0  0  0  0  0  0
    1.7598   15.3268  -18.4702 C   0  0  0  0  0  0  0  0  0  0  0  0
    2.0858   15.8793  -19.7082 O   0  0  0  0  0  0  0  0  0  0  0  0
    5.4463   19.3691  -19.7767 O   0  0  0  0  0  0  0  0  0  0  0  0
    5.9861   19.6131  -18.4952 C   0  0  0  0  0  0  0  0  0  0  0  0
 31 32  1  0  0  0
 32 23  1  0  0  0
 23 24  2  0  0  0
 24 25  1  0  0  0
 25 33  1  0  0  0
 33 34  1  0  0  0
 25 26  2  0  0  0
 26 27  1  0  0  0
 26 28  1  0  0  0
 28 29  2  0  0  0
 29 30  1  0  0  0
 28  1  1  0  0  0
  1  2  1  0  0  0
  2  3  2  0  0  0
  3  4  1  0  0  0
  4  5  2  0  0  0
  5  6  1  0  0  0
  6  7  2  0  0  0
  3  8  1  0  0  0
  8  9  2  0  0  0
  9 10  1  0  0  0
 10 11  2  0  0  0
 11 12  1  0  0  0
 12 13  2  0  0  0
 13 14  1  0  0  0
 10 17  1  0  0  0
 17 18  1  0  0  0
 18 19  2  0  0  0
 19 20  1  0  0  0
 20 21  1  0  0  0
 20 22  1  0  0  0
 29 23  1  0  0  0
  6  1  1  0  0  0
 13  8  1  0  0  0
 22 17  2  0  0  0
 14 15  1  0  0  0
 14 16  1  0  0  0
M  END
> <minimizedAffinity>
-6.87119

> <CNNscore>
0.3667990267

> <CNNaffinity>
6.8355522156

> <CNN_VS>
2.5072739124

> <CNNaffinity_variance>
0.2237941325

$$$$
[H]c1nc(N([H])[H])c(-c2nn(-c3c(Cl)c(OC([H])([H])[H])c([H])c(OC([H])([H])[H])c3Cl)c(=O)c([H])c2[H])nc1-c1c([H])nn(C([H])([H])[H])c1[H]


 34 37  0  0  0  0  0  0  0  0999 V2000
    0.9236   20.5650  -20.7645 N   0  0  0  0  0  0  0  0  0  0  0  0
    0.7027   20.8223  -22.0557 N   0  0  0  0  0  0  0  0  0  0  0  0
   -0.2215   21.6599  -22.5037 C   0  0  0  0  0  0  0  0  0  0  0  0
   -1.0088   22.3099  -21.5687 C   0  0  0  0  0  0  0  0  0  0  0  0
   -0.8320   22.0880  -20.2060 C   0  0  0  0  0  0  0  0  0  0  0  0
    0.1584   21.1965  -19.8515 C   0  0  0  0  0  0  0  0  0  0  0  0
    0.3718   20.9494  -18.6370 O   0  0  0  0  0  0  0  0  0  0  0  0
   -0.4251   21.9084  -23.9249 C   0  0  0  0  0  0  0  0  0  0  0  0
   -1.6309   22.1953  -24.4361 N   0  0  0  0  0  0  0  0  0  0  0  0
   -1.7966   22.4226  -25.7602 C   0  0  0  0  0  0  0  0  0  0  0  0
   -0.7308   22.3677  -26.6328 C   0  0  0  0  0  0  0  0  0  0  0  0
    0.4782   22.0803  -26.1215 N   0  0  0  0  0  0  0  0  0  0  0  0
    0.6478   21.8509  -24.7891 C   0  0  0  0  0  0  0  0  0  0  0  0
    1.9149   21.5478  -24.2404 N   0  0  0  0  0  0  0  0  0  0  0  0
    2.1963   20.5573  -24.1513 H   0  0  0  0  0  0  0  0  0  0  0  0
    2.5383   22.2939  -23.9387 H   0  0  0  0  0  0  0  0  0  0  0  0
   -3.1291   22.7304  -26.2642 C   0  0  0  0  0  0  0  0  0  0  0  0
   -4.2911   22.8504  -25.5309 C   0  0  0  0  0  0  0  0  0  0  0  0
   -5.2915   23.1430  -26.3952 N   0  0  0  0  0  0  0  0  0  0  0  0
   -4.8268   23.2146  -27.6333 N   0  0  0  0  0  0  0  0  0  0  0  0
   -5.5751   23.5063  -28.8572 C   0  0  0  0  0  0  0  0  0  0  0  0
   -3.4996   22.9636  -27.5710 C   0  0  0  0  0  0  0  0  0  0  0  0
    4.1939   19.1487  -19.6398 C   0  0  0  0  0  0  0  0  0  0  0  0
    3.8916   17.7863  -19.5162 C   0  0  0  0  0  0  0  0  0  0  0  0
    2.5913   17.3854  -19.8166 C   0  0  0  0  0  0  0  0  0  0  0  0
    1.6450   18.3006  -20.2190 C   0  0  0  0  0  0  0  0  0  0  0  0
   -0.0040   17.8020  -20.6013 Cl  0  0  0  0  0  0  0  0  0  0  0  0
    1.9334   19.6532  -20.3449 C   0  0  0  0  0  0  0  0  0  0  0  0
    3.2217   20.0358  -20.0451 C   0  0  0  0  0  0  0  0  0  0  0  0
    3.6392   21.7257  -20.1867 Cl  0  0  0  0  0  0  0  0  0  0  0  0
    5.9740   19.7994  -18.0748 C   0  0  0  0  0  0  0  0  0  0  0  0
    5.4618   19.6199  -19.3592 O   0  0  0  0  0  0  0  0  0  0  0  0
    2.2254   16.0314  -19.7120 O   0  0  0  0  0  0  0  0  0  0  0  0
    1.8763   15.4574  -18.4702 C   0  0  0  0  0  0  0  0  0  0  0  0
 31 32  1  0  0  0
 32 23  1  0  0  0
 23 24  2  0  0  0
 24 25  1  0  0  0
 25 33  1  0  0  0
 33 34  1  0  0  0
 25 26  2  0  0  0
 26 27  1  0  0  0
 26 28  1  0  0  0
 28 29  2  0  0  0
 29 30  1  0  0  0
 28  1  1  0  0  0
  1  2  1  0  0  0
  2  3  2  0  0  0
  3  4  1  0  0  0
  4  5  2  0  0  0
  5  6  1  0  0  0
  6  7  2  0  0  0
  3  8  1  0  0  0
  8  9  2  0  0  0
  9 10  1  0  0  0
 10 11  2  0  0  0
 11 12  1  0  0  0
 12 13  2  0  0  0
 13 14  1  0  0  0
 10 17  1  0  0  0
 17 18  1  0  0  0
 18 19  2  0  0  0
 19 20  1  0  0  0
 20 21  1  0  0  0
 20 22  1  0  0  0
 29 23  1  0  0  0
  6  1  1  0  0  0
 13  8  1  0  0  0
 22 17  2  0  0  0
 14 15  1  0  0  0
 14 16  1  0  0  0
M  END
> <minimizedAffinity>
-6.88272

> <CNNscore>
0.3114022911

> <CNNaffinity>
6.7706780434

> <CNN_VS>
2.1084046364

> <CNNaffinity_variance>
0.1727978885

$$$$
[H]c1nc(N([H])[H])c(-c2nn(-c3c(Cl)c(OC([H])([H])[H])c([H])c(OC([H])([H])[H])c3Cl)c(=O)c([H])c2[H])nc1-c1c([H])nn(C([H])([H])[H])c1[H]


 34 37  0  0  0  0  0  0  0  0999 V2000
   -1.1069   21.5236  -20.8263 N   0  0  0  0  0  0  0  0  0  0  0  0
   -1.0040   21.7733  -22.1337 N   0  0  0  0  0  0  0  0  0  0  0  0
   -2.0371   21.9474  -22.9453 C   0  0  0  0  0  0  0  0  0  0  0  0
   -3.3063   21.8645  -22.3986 C   0  0  0  0  0  0  0  0  0  0  0  0
   -3.4860   21.6067  -21.0426 C   0  0  0  0  0  0  0  0  0  0  0  0
   -2.3417   21.4422  -20.2910 C   0  0  0  0  0  0  0  0  0  0  0  0
   -2.4314   21.2067  -19.0589 O   0  0  0  0  0  0  0  0  0  0  0  0
   -1.8741   22.2184  -24.3676 C   0  0  0  0  0  0  0  0  0  0  0  0
   -2.9065   22.5482  -25.1566 N   0  0  0  0  0  0  0  0  0  0  0  0
   -2.7315   22.7957  -26.4760 C   0  0  0  0  0  0  0  0  0  0  0  0
   -1.4841   22.7177  -27.0576 C   0  0  0  0  0  0  0  0  0  0  0  0
   -0.4485   22.3871  -26.2676 N   0  0  0  0  0  0  0  0  0  0  0  0
   -0.6219   22.1375  -24.9393 C   0  0  0  0  0  0  0  0  0  0  0  0
    0.4602   21.7891  -24.0991 N   0  0  0  0  0  0  0  0  0  0  0  0
    0.6837   20.7893  -23.9615 H   0  0  0  0  0  0  0  0  0  0  0  0
    1.0091   22.5119  -23.6381 H   0  0  0  0  0  0  0  0  0  0  0  0
   -3.8879   23.1503  -27.2891 C   0  0  0  0  0  0  0  0  0  0  0  0
   -5.1583   23.4531  -26.8454 C   0  0  0  0  0  0  0  0  0  0  0  0
   -5.9180   23.7220  -27.9336 N   0  0  0  0  0  0  0  0  0  0  0  0
   -5.1989   23.6062  -29.0397 N   0  0  0  0  0  0  0  0  0  0  0  0
   -5.6382   23.8104  -30.4211 C   0  0  0  0  0  0  0  0  0  0  0  0
   -3.9490   23.2554  -28.6619 C   0  0  0  0  0  0  0  0  0  0  0  0
    1.6443   22.1427  -18.3741 C   0  0  0  0  0  0  0  0  0  0  0  0
    2.3342   20.9235  -18.3999 C   0  0  0  0  0  0  0  0  0  0  0  0
    1.8498   19.9274  -19.2454 C   0  0  0  0  0  0  0  0  0  0  0  0
    0.7342   20.1414  -20.0229 C   0  0  0  0  0  0  0  0  0  0  0  0
    0.1137   18.8858  -21.0964 Cl  0  0  0  0  0  0  0  0  0  0  0  0
    0.0426   21.3455  -20.0053 C   0  0  0  0  0  0  0  0  0  0  0  0
    0.5317   22.3212  -19.1657 C   0  0  0  0  0  0  0  0  0  0  0  0
   -0.2999   23.8557  -19.1043 Cl  0  0  0  0  0  0  0  0  0  0  0  0
    3.2392   23.9056  -17.7497 C   0  0  0  0  0  0  0  0  0  0  0  0
    2.0658   23.1764  -17.5605 O   0  0  0  0  0  0  0  0  0  0  0  0
    2.4983   18.6814  -19.3165 O   0  0  0  0  0  0  0  0  0  0  0  0
    3.9066   18.5829  -19.3008 C   0  0  0  0  0  0  0  0  0  0  0  0
 31 32  1  0  0  0
 32 23  1  0  0  0
 23 24  2  0  0  0
 24 25  1  0  0  0
 25 33  1  0  0  0
 33 34  1  0  0  0
 25 26  2  0  0  0
 26 27  1  0  0  0
 26 28  1  0  0  0
 28 29  2  0  0  0
 29 30  1  0  0  0
 28  1  1  0  0  0
  1  2  1  0  0  0
  2  3  2  0  0  0
  3  4  1  0  0  0
  4  5  2  0  0  0
  5  6  1  0  0  0
  6  7  2  0  0  0
  3  8  1  0  0  0
  8  9  2  0  0  0
  9 10  1  0  0  0
 10 11  2  0  0  0
 11 12  1  0  0  0
 12 13  2  0  0  0
 13 14  1  0  0  0
 10 17  1  0  0  0
 17 18  1  0  0  0
 18 19  2  0  0  0
 19 20  1  0  0  0
 20 21  1  0  0  0
 20 22  1  0  0  0
 29 23  1  0  0  0
  6  1  1  0  0  0
 13  8  1  0  0  0
 22 17  2  0  0  0
 14 15  1  0  0  0
 14 16  1  0  0  0
M  END
> <minimizedAffinity>
-7.20500

> <CNNscore>
0.2339956760

> <CNNaffinity>
7.0489568710

> <CNN_VS>
1.6494253874

> <CNNaffinity_variance>
0.4041718841

$$$$
[H]c1nc(N([H])[H])c(-c2nn(-c3c(Cl)c(OC([H])([H])[H])c([H])c(OC([H])([H])[H])c3Cl)c(=O)c([H])c2[H])nc1-c1c([H])nn(C([H])([H])[H])c1[H]


 34 37  0  0  0  0  0  0  0  0999 V2000
   -1.0641   21.4676  -20.7688 N   0  0  0  0  0  0  0  0  0  0  0  0
   -0.9737   21.7279  -22.0751 N   0  0  0  0  0  0  0  0  0  0  0  0
   -2.0135   21.9388  -22.8692 C   0  0  0  0  0  0  0  0  0  0  0  0
   -3.2763   21.8852  -22.3042 C   0  0  0  0  0  0  0  0  0  0  0  0
   -3.4429   21.6185  -20.9483 C   0  0  0  0  0  0  0  0  0  0  0  0
   -2.2925   21.4147  -20.2158 C   0  0  0  0  0  0  0  0  0  0  0  0
   -2.3705   21.1690  -18.9848 O   0  0  0  0  0  0  0  0  0  0  0  0
   -1.8642   22.2199  -24.2911 C   0  0  0  0  0  0  0  0  0  0  0  0
   -2.9036   22.5592  -25.0669 N   0  0  0  0  0  0  0  0  0  0  0  0
   -2.7412   22.8159  -26.3861 C   0  0  0  0  0  0  0  0  0  0  0  0
   -1.5002   22.7380  -26.9811 C   0  0  0  0  0  0  0  0  0  0  0  0
   -0.4577   22.3980  -26.2044 N   0  0  0  0  0  0  0  0  0  0  0  0
   -0.6183   22.1390  -24.8763 C   0  0  0  0  0  0  0  0  0  0  0  0
    0.4712   21.7806  -24.0498 N   0  0  0  0  0  0  0  0  0  0  0  0
    0.6926   20.7791  -23.9220 H   0  0  0  0  0  0  0  0  0  0  0  0
    1.0273   22.4981  -23.5892 H   0  0  0  0  0  0  0  0  0  0  0  0
   -3.9047   23.1805  -27.1846 C   0  0  0  0  0  0  0  0  0  0  0  0
   -5.1849   23.4220  -26.7315 C   0  0  0  0  0  0  0  0  0  0  0  0
   -5.9484   23.7275  -27.8073 N   0  0  0  0  0  0  0  0  0  0  0  0
   -5.2225   23.6926  -28.9144 N   0  0  0  0  0  0  0  0  0  0  0  0
   -5.6629   23.9587  -30.2849 C   0  0  0  0  0  0  0  0  0  0  0  0
   -3.9642   23.3581  -28.5500 C   0  0  0  0  0  0  0  0  0  0  0  0
    1.8875   19.8467  -19.1481 C   0  0  0  0  0  0  0  0  0  0  0  0
    2.3853   20.8850  -18.3500 C   0  0  0  0  0  0  0  0  0  0  0  0
    1.7091   22.1030  -18.3824 C   0  0  0  0  0  0  0  0  0  0  0  0
    0.5943   22.2713  -19.1722 C   0  0  0  0  0  0  0  0  0  0  0  0
   -0.2682   23.8101  -19.2195 Cl  0  0  0  0  0  0  0  0  0  0  0  0
    0.0921   21.2495  -19.9672 C   0  0  0  0  0  0  0  0  0  0  0  0
    0.7696   20.0513  -19.9258 C   0  0  0  0  0  0  0  0  0  0  0  0
    0.1809   18.7315  -20.9064 Cl  0  0  0  0  0  0  0  0  0  0  0  0
    3.8581   18.4062  -19.4363 C   0  0  0  0  0  0  0  0  0  0  0  0
    2.5054   18.6113  -19.1675 O   0  0  0  0  0  0  0  0  0  0  0  0
    2.1594   23.1841  -17.6036 O   0  0  0  0  0  0  0  0  0  0  0  0
    2.6857   22.9889  -16.3082 C   0  0  0  0  0  0  0  0  0  0  0  0
 31 32  1  0  0  0
 32 23  1  0  0  0
 23 24  2  0  0  0
 24 25  1  0  0  0
 25 33  1  0  0  0
 33 34  1  0  0  0
 25 26  2  0  0  0
 26 27  1  0  0  0
 26 28  1  0  0  0
 28 29  2  0  0  0
 29 30  1  0  0  0
 28  1  1  0  0  0
  1  2  1  0  0  0
  2  3  2  0  0  0
  3  4  1  0  0  0
  4  5  2  0  0  0
  5  6  1  0  0  0
  6  7  2  0  0  0
  3  8  1  0  0  0
  8  9  2  0  0  0
  9 10  1  0  0  0
 10 11  2  0  0  0
 11 12  1  0  0  0
 12 13  2  0  0  0
 13 14  1  0  0  0
 10 17  1  0  0  0
 17 18  1  0  0  0
 18 19  2  0  0  0
 19 20  1  0  0  0
 20 21  1  0  0  0
 20 22  1  0  0  0
 29 23  1  0  0  0
  6  1  1  0  0  0
 13  8  1  0  0  0
 22 17  2  0  0  0
 14 15  1  0  0  0
 14 16  1  0  0  0
M  END
> <minimizedAffinity>
-7.08757

> <CNNscore>
0.2067302465

> <CNNaffinity>
6.9895873070

> <CNN_VS>
1.4449591637

> <CNNaffinity_variance>
0.4674413800

$$$$
[H]c1nc(N([H])[H])c(-c2nn(-c3c(Cl)c(OC([H])([H])[H])c([H])c(OC([H])([H])[H])c3Cl)c(=O)c([H])c2[H])nc1-c1c([H])nn(C([H])([H])[H])c1[H]


 34 37  0  0  0  0  0  0  0  0999 V2000
    0.6029   20.7320  -21.5212 N   0  0  0  0  0  0  0  0  0  0  0  0
    0.0479   21.0435  -22.6947 N   0  0  0  0  0  0  0  0  0  0  0  0
   -0.7868   22.0558  -22.8818 C   0  0  0  0  0  0  0  0  0  0  0  0
   -1.1026   22.8407  -21.7860 C   0  0  0  0  0  0  0  0  0  0  0  0
   -0.5596   22.5719  -20.5329 C   0  0  0  0  0  0  0  0  0  0  0  0
    0.2972   21.4945  -20.4522 C   0  0  0  0  0  0  0  0  0  0  0  0
    0.8235   21.1954  -19.3498 O   0  0  0  0  0  0  0  0  0  0  0  0
   -1.3677   22.3568  -24.1837 C   0  0  0  0  0  0  0  0  0  0  0  0
   -2.6441   22.7411  -24.3267 N   0  0  0  0  0  0  0  0  0  0  0  0
   -3.1627   23.0156  -25.5467 C   0  0  0  0  0  0  0  0  0  0  0  0
   -2.3970   22.9102  -26.6880 C   0  0  0  0  0  0  0  0  0  0  0  0
   -1.1174   22.5251  -26.5458 N   0  0  0  0  0  0  0  0  0  0  0  0
   -0.5929   22.2481  -25.3191 C   0  0  0  0  0  0  0  0  0  0  0  0
    0.7516   21.8423  -25.1578 N   0  0  0  0  0  0  0  0  0  0  0  0
    0.9719   20.8324  -25.1592 H   0  0  0  0  0  0  0  0  0  0  0  0
    1.4892   22.5343  -25.0425 H   0  0  0  0  0  0  0  0  0  0  0  0
   -4.5567   23.4294  -25.6463 C   0  0  0  0  0  0  0  0  0  0  0  0
   -5.3618   23.3857  -26.7654 C   0  0  0  0  0  0  0  0  0  0  0  0
   -6.5784   23.8640  -26.4126 N   0  0  0  0  0  0  0  0  0  0  0  0
   -6.5872   24.2073  -25.1335 N   0  0  0  0  0  0  0  0  0  0  0  0
   -7.6993   24.7643  -24.3615 C   0  0  0  0  0  0  0  0  0  0  0  0
   -5.3527   23.9468  -24.6474 C   0  0  0  0  0  0  0  0  0  0  0  0
    2.0123   17.3847  -20.6408 C   0  0  0  0  0  0  0  0  0  0  0  0
    3.3163   17.4787  -21.1444 C   0  0  0  0  0  0  0  0  0  0  0  0
    3.6818   18.6706  -21.7668 C   0  0  0  0  0  0  0  0  0  0  0  0
    2.7886   19.7120  -21.8788 C   0  0  0  0  0  0  0  0  0  0  0  0
    3.2427   21.2249  -22.6655 Cl  0  0  0  0  0  0  0  0  0  0  0  0
    1.4939   19.6300  -21.3835 C   0  0  0  0  0  0  0  0  0  0  0  0
    1.1457   18.4470  -20.7708 C   0  0  0  0  0  0  0  0  0  0  0  0
   -0.4711   18.2896  -20.1296 Cl  0  0  0  0  0  0  0  0  0  0  0  0
    1.8694   15.8965  -18.6898 C   0  0  0  0  0  0  0  0  0  0  0  0
    1.5788   16.2341  -20.0111 O   0  0  0  0  0  0  0  0  0  0  0  0
    4.9768   18.8270  -22.2929 O   0  0  0  0  0  0  0  0  0  0  0  0
    5.9762   17.8506  -22.0901 C   0  0  0  0  0  0  0  0  0  0  0  0
 31 32  1  0  0  0
 32 23  1  0  0  0
 23 24  2  0  0  0
 24 25  1  0  0  0
 25 33  1  0  0  0
 33 34  1  0  0  0
 25 26  2  0  0  0
 26 27  1  0  0  0
 26 28  1  0  0  0
 28 29  2  0  0  0
 29 30  1  0  0  0
 28  1  1  0  0  0
  1  2  1  0  0  0
  2  3  2  0  0  0
  3  4  1  0  0  0
  4  5  2  0  0  0
  5  6  1  0  0  0
  6  7  2  0  0  0
  3  8  1  0  0  0
  8  9  2  0  0  0
  9 10  1  0  0  0
 10 11  2  0  0  0
 11 12  1  0  0  0
 12 13  2  0  0  0
 13 14  1  0  0  0
 10 17  1  0  0  0
 17 18  1  0  0  0
 18 19  2  0  0  0
 19 20  1  0  0  0
 20 21  1  0  0  0
 20 22  1  0  0  0
 29 23  1  0  0  0
  6  1  1  0  0  0
 13  8  1  0  0  0
 22 17  2  0  0  0
 14 15  1  0  0  0
 14 16  1  0  0  0
M  END
> <minimizedAffinity>
-6.85105

> <CNNscore>
0.1421712190

> <CNNaffinity>
6.5439453125

> <CNN_VS>
0.9303606749

> <CNNaffinity_variance>
0.1897421479

$$$$
[H]c1nc(N([H])[H])c(-c2nn(-c3c(Cl)c(OC([H])([H])[H])c([H])c(OC([H])([H])[H])c3Cl)c(=O)c([H])c2[H])nc1-c1c([H])nn(C([H])([H])[H])c1[H]


 34 37  0  0  0  0  0  0  0  0999 V2000
   -0.9075   21.4626  -22.2663 N   0  0  0  0  0  0  0  0  0  0  0  0
   -0.4753   20.2524  -21.9046 N   0  0  0  0  0  0  0  0  0  0  0  0
   -0.0585   19.9407  -20.6858 C   0  0  0  0  0  0  0  0  0  0  0  0
   -0.0732   20.9379  -19.7258 C   0  0  0  0  0  0  0  0  0  0  0  0
   -0.5115   22.2224  -20.0348 C   0  0  0  0  0  0  0  0  0  0  0  0
   -0.9229   22.4360  -21.3335 C   0  0  0  0  0  0  0  0  0  0  0  0
   -1.3311   23.5737  -21.6809 O   0  0  0  0  0  0  0  0  0  0  0  0
    0.4046   18.6035  -20.3386 C   0  0  0  0  0  0  0  0  0  0  0  0
   -0.3614   17.7327  -19.6660 N   0  0  0  0  0  0  0  0  0  0  0  0
    0.0899   16.4951  -19.3541 C   0  0  0  0  0  0  0  0  0  0  0  0
    1.3547   16.0840  -19.7167 C   0  0  0  0  0  0  0  0  0  0  0  0
    2.1233   16.9561  -20.3909 N   0  0  0  0  0  0  0  0  0  0  0  0
    1.6716   18.2024  -20.7062 C   0  0  0  0  0  0  0  0  0  0  0  0
    2.4714   19.1278  -21.4150 N   0  0  0  0  0  0  0  0  0  0  0  0
    3.0584   19.7911  -20.8824 H   0  0  0  0  0  0  0  0  0  0  0  0
    2.4680   19.1392  -22.4329 H   0  0  0  0  0  0  0  0  0  0  0  0
   -0.7835   15.5871  -18.6213 C   0  0  0  0  0  0  0  0  0  0  0  0
   -1.2266   15.7227  -17.3222 C   0  0  0  0  0  0  0  0  0  0  0  0
   -2.0145   14.6567  -17.0457 N   0  0  0  0  0  0  0  0  0  0  0  0
   -2.0941   13.8554  -18.0971 N   0  0  0  0  0  0  0  0  0  0  0  0
   -2.8402   12.6015  -18.2153 C   0  0  0  0  0  0  0  0  0  0  0  0
   -1.3436   14.4121  -19.0743 C   0  0  0  0  0  0  0  0  0  0  0  0
   -3.0846   22.0512  -25.2462 C   0  0  0  0  0  0  0  0  0  0  0  0
   -2.1391   22.2858  -26.2530 C   0  0  0  0  0  0  0  0  0  0  0  0
   -0.7929   22.2381  -25.8960 C   0  0  0  0  0  0  0  0  0  0  0  0
   -0.4149   21.9701  -24.5998 C   0  0  0  0  0  0  0  0  0  0  0  0
    1.2873   21.9079  -24.1386 Cl  0  0  0  0  0  0  0  0  0  0  0  0
   -1.3432   21.7362  -23.5939 C   0  0  0  0  0  0  0  0  0  0  0  0
   -2.6697   21.7861  -23.9601 C   0  0  0  0  0  0  0  0  0  0  0  0
   -3.8799   21.4992  -22.7341 Cl  0  0  0  0  0  0  0  0  0  0  0  0
   -5.1133   23.1840  -26.0477 C   0  0  0  0  0  0  0  0  0  0  0  0
   -4.4371   22.0821  -25.5253 O   0  0  0  0  0  0  0  0  0  0  0  0
    0.2045   22.4649  -26.8613 O   0  0  0  0  0  0  0  0  0  0  0  0
   -0.1080   22.9971  -28.1311 C   0  0  0  0  0  0  0  0  0  0  0  0
 31 32  1  0  0  0
 32 23  1  0  0  0
 23 24  2  0  0  0
 24 25  1  0  0  0
 25 33  1  0  0  0
 33 34  1  0  0  0
 25 26  2  0  0  0
 26 27  1  0  0  0
 26 28  1  0  0  0
 28 29  2  0  0  0
 29 30  1  0  0  0
 28  1  1  0  0  0
  1  2  1  0  0  0
  2  3  2  0  0  0
  3  4  1  0  0  0
  4  5  2  0  0  0
  5  6  1  0  0  0
  6  7  2  0  0  0
  3  8  1  0  0  0
  8  9  2  0  0  0
  9 10  1  0  0  0
 10 11  2  0  0  0
 11 12  1  0  0  0
 12 13  2  0  0  0
 13 14  1  0  0  0
 10 17  1  0  0  0
 17 18  1  0  0  0
 18 19  2  0  0  0
 19 20  1  0  0  0
 20 21  1  0  0  0
 20 22  1  0  0  0
 29 23  1  0  0  0
  6  1  1  0  0  0
 13  8  1  0  0  0
 22 17  2  0  0  0
 14 15  1  0  0  0
 14 16  1  0  0  0
M  END
> <minimizedAffinity>
-6.57327

> <CNNscore>
0.1312890351

> <CNNaffinity>
6.3637318611

> <CNN_VS>
0.8354882002

> <CNNaffinity_variance>
0.0355839990

$$$$
[H]c1nc(N([H])[H])c(-c2nn(-c3c(Cl)c(OC([H])([H])[H])c([H])c(OC([H])([H])[H])c3Cl)c(=O)c([H])c2[H])nc1-c1c([H])nn(C([H])([H])[H])c1[H]


 34 37  0  0  0  0  0  0  0  0999 V2000
   -1.2741   21.6328  -22.0070 N   0  0  0  0  0  0  0  0  0  0  0  0
   -0.7122   20.4384  -21.8077 N   0  0  0  0  0  0  0  0  0  0  0  0
    0.1079   20.1557  -20.8058 C   0  0  0  0  0  0  0  0  0  0  0  0
    0.3996   21.1679  -19.9075 C   0  0  0  0  0  0  0  0  0  0  0  0
   -0.1518   22.4372  -20.0558 C   0  0  0  0  0  0  0  0  0  0  0  0
   -0.9919   22.6206  -21.1339 C   0  0  0  0  0  0  0  0  0  0  0  0
   -1.5246   23.7433  -21.3275 O   0  0  0  0  0  0  0  0  0  0  0  0
    0.6973   18.8348  -20.6297 C   0  0  0  0  0  0  0  0  0  0  0  0
    1.8390   18.4740  -21.2329 N   0  0  0  0  0  0  0  0  0  0  0  0
    2.3683   17.2408  -21.0547 C   0  0  0  0  0  0  0  0  0  0  0  0
    1.7526   16.3097  -20.2459 C   0  0  0  0  0  0  0  0  0  0  0  0
    0.6083   16.6704  -19.6409 N   0  0  0  0  0  0  0  0  0  0  0  0
    0.0732   17.9109  -19.8185 C   0  0  0  0  0  0  0  0  0  0  0  0
   -1.1299   18.3010  -19.1870 N   0  0  0  0  0  0  0  0  0  0  0  0
   -2.0240   18.1611  -19.6864 H   0  0  0  0  0  0  0  0  0  0  0  0
   -1.1142   18.7124  -18.2560 H   0  0  0  0  0  0  0  0  0  0  0  0
    3.6118   16.8995  -21.7340 C   0  0  0  0  0  0  0  0  0  0  0  0
    4.5899   17.7689  -22.1700 C   0  0  0  0  0  0  0  0  0  0  0  0
    5.5676   17.0291  -22.7448 N   0  0  0  0  0  0  0  0  0  0  0  0
    5.2621   15.7413  -22.6964 N   0  0  0  0  0  0  0  0  0  0  0  0
    6.0457   14.6135  -23.2034 C   0  0  0  0  0  0  0  0  0  0  0  0
    4.0634   15.6438  -22.0785 C   0  0  0  0  0  0  0  0  0  0  0  0
   -4.3616   22.0875  -24.0629 C   0  0  0  0  0  0  0  0  0  0  0  0
   -3.8279   22.3663  -25.3280 C   0  0  0  0  0  0  0  0  0  0  0  0
   -2.4400   22.3924  -25.4498 C   0  0  0  0  0  0  0  0  0  0  0  0
   -1.6307   22.1523  -24.3626 C   0  0  0  0  0  0  0  0  0  0  0  0
    0.1278   22.1834  -24.5075 Cl  0  0  0  0  0  0  0  0  0  0  0  0
   -2.1485   21.8751  -23.1042 C   0  0  0  0  0  0  0  0  0  0  0  0
   -3.5212   21.8523  -22.9976 C   0  0  0  0  0  0  0  0  0  0  0  0
   -4.2263   21.5085  -21.4373 Cl  0  0  0  0  0  0  0  0  0  0  0  0
   -6.5582   23.1644  -23.8256 C   0  0  0  0  0  0  0  0  0  0  0  0
   -5.7282   22.0448  -23.8659 O   0  0  0  0  0  0  0  0  0  0  0  0
   -1.8431   22.6663  -26.6935 O   0  0  0  0  0  0  0  0  0  0  0  0
   -2.6216   22.9447  -27.8379 C   0  0  0  0  0  0  0  0  0  0  0  0
 31 32  1  0  0  0
 32 23  1  0  0  0
 23 24  2  0  0  0
 24 25  1  0  0  0
 25 33  1  0  0  0
 33 34  1  0  0  0
 25 26  2  0  0  0
 26 27  1  0  0  0
 26 28  1  0  0  0
 28 29  2  0  0  0
 29 30  1  0  0  0
 28  1  1  0  0  0
  1  2  1  0  0  0
  2  3  2  0  0  0
  3  4  1  0  0  0
  4  5  2  0  0  0
  5  6  1  0  0  0
  6  7  2  0  0  0
  3  8  1  0  0  0
  8  9  2  0  0  0
  9 10  1  0  0  0
 10 11  2  0  0  0
 11 12  1  0  0  0
 12 13  2  0  0  0
 13 14  1  0  0  0
 10 17  1  0  0  0
 17 18  1  0  0  0
 18 19  2  0  0  0
 19 20  1  0  0  0
 20 21  1  0  0  0
 20 22  1  0  0  0
 29 23  1  0  0  0
  6  1  1  0  0  0
 13  8  1  0  0  0
 22 17  2  0  0  0
 14 15  1  0  0  0
 14 16  1  0  0  0
M  END
> <minimizedAffinity>
-6.83148

> <CNNscore>
0.1183125079

> <CNNaffinity>
6.0632524490

> <CNN_VS>
0.7173585892

> <CNNaffinity_variance>
0.1709597409

$$$$
[H]c1nc(N([H])C(=O)c2c([H])c([H])c(C3([H])C([H])([H])C([H])([H])N(C([H])(C([H])([H])[H])C([H])([H])[H])C([H])([H])C3([H])[H])c([H])c2[H])c([H])c(Oc2c(OC([H])([H])[H])c([H])c3c(c2[H])c([H])c([H])n3C(=O)N([H])C([H])([H])[H])c1[H]


 42 46  0  0  0  0  0  0  0  0999 V2000
    0.7927   21.4612  -23.9156 C   0  0  0  0  0  0  0  0  0  0  0  0
    2.0413   21.1328  -23.4316 C   0  0  0  0  0  0  0  0  0  0  0  0
    2.2297   20.8017  -22.0915 C   0  0  0  0  0  0  0  0  0  0  0  0
    1.1681   20.8065  -21.2687 N   0  0  0  0  0  0  0  0  0  0  0  0
   -0.0681   21.1234  -21.7127 C   0  0  0  0  0  0  0  0  0  0  0  0
   -0.2875   21.4553  -23.0300 C   0  0  0  0  0  0  0  0  0  0  0  0
   -1.1848   21.1331  -20.8386 N   0  0  0  0  0  0  0  0  0  0  0  0
   -1.5098   22.3513  -20.1731 C   0  0  0  0  0  0  0  0  0  0  0  0
   -0.8450   23.3919  -20.3497 O   0  0  0  0  0  0  0  0  0  0  0  0
   -1.7396   20.2607  -20.6938 H   0  0  0  0  0  0  0  0  0  0  0  0
   -2.6583   22.4203  -19.2442 C   0  0  0  0  0  0  0  0  0  0  0  0
   -3.9549   22.2247  -19.6677 C   0  0  0  0  0  0  0  0  0  0  0  0
   -4.9889   22.3127  -18.7517 C   0  0  0  0  0  0  0  0  0  0  0  0
   -4.7978   22.5883  -17.4188 C   0  0  0  0  0  0  0  0  0  0  0  0
   -3.4827   22.7796  -17.0241 C   0  0  0  0  0  0  0  0  0  0  0  0
   -2.4318   22.7002  -17.9048 C   0  0  0  0  0  0  0  0  0  0  0  0
   -5.9611   22.6549  -16.5229 C   0  0  0  0  0  0  0  0  0  0  0  0
   -5.6280   23.3276  -15.2039 C   0  0  0  0  0  0  0  0  0  0  0  0
   -5.5521   22.3449  -14.0608 C   0  0  0  0  0  0  0  0  0  0  0  0
   -6.8431   21.7825  -13.8166 N   0  0  0  0  0  0  0  0  0  0  0  0
   -7.5311   21.4729  -15.0691 C   0  0  0  0  0  0  0  0  0  0  0  0
   -6.5544   21.3168  -16.2165 C   0  0  0  0  0  0  0  0  0  0  0  0
   -7.7214   22.6659  -13.0812 C   0  0  0  0  0  0  0  0  0  0  0  0
   -9.0214   21.9568  -12.7820 C   0  0  0  0  0  0  0  0  0  0  0  0
   -7.1268   23.2361  -11.8400 C   0  0  0  0  0  0  0  0  0  0  0  0
    0.5632   21.7950  -25.2376 O   0  0  0  0  0  0  0  0  0  0  0  0
   -5.8485   24.5913  -29.9380 C   0  0  0  0  0  0  0  0  0  0  0  0
   -4.8386   24.0569  -28.9708 N   0  0  0  0  0  0  0  0  0  0  0  0
   -5.3018   23.5772  -27.7650 C   0  0  0  0  0  0  0  0  0  0  0  0
   -6.6009   23.6552  -27.6218 O   0  0  0  0  0  0  0  0  0  0  0  0
   -4.6065   23.0245  -26.6787 N   0  0  0  0  0  0  0  0  0  0  0  0
   -5.2277   22.5832  -25.5233 C   0  0  0  0  0  0  0  0  0  0  0  0
   -4.2852   22.0986  -24.6672 C   0  0  0  0  0  0  0  0  0  0  0  0
   -3.0592   22.2303  -25.2767 C   0  0  0  0  0  0  0  0  0  0  0  0
   -1.7879   21.9039  -24.8674 C   0  0  0  0  0  0  0  0  0  0  0  0
   -0.6932   22.1348  -25.6721 C   0  0  0  0  0  0  0  0  0  0  0  0
   -0.9230   22.7053  -26.9018 C   0  0  0  0  0  0  0  0  0  0  0  0
   -2.1894   23.0385  -27.3274 C   0  0  0  0  0  0  0  0  0  0  0  0
   -3.2930   22.8134  -26.5345 C   0  0  0  0  0  0  0  0  0  0  0  0
   -3.8830   24.1079  -29.3232 H   0  0  0  0  0  0  0  0  0  0  0  0
    0.1615   22.9444  -27.7258 O   0  0  0  0  0  0  0  0  0  0  0  0
    0.0136   23.4722  -29.0340 C   0  0  0  0  0  0  0  0  0  0  0  0
 27 28  1  0  0  0
 28 29  1  0  0  0
 29 30  2  0  0  0
 29 31  1  0  0  0
 31 32  1  0  0  0
 32 33  2  0  0  0
 33 34  1  0  0  0
 34 35  2  0  0  0
 35 36  1  0  0  0
 36 26  1  0  0  0
 26  1  1  0  0  0
  1  2  2  0  0  0
  2  3  1  0  0  0
  3  4  2  0  0  0
  4  5  1  0  0  0
  5  7  1  0  0  0
  7  8  1  0  0  0
  8  9  2  0  0  0
  8 11  1  0  0  0
 11 12  2  0  0  0
 12 13  1  0  0  0
 13 14  2  0  0  0
 14 15  1  0  0  0
 15 16  2  0  0  0
 14 17  1  0  0  0
 17 18  1  0  0  0
 18 19  1  0  0  0
 19 20  1  0  0  0
 20 21  1  0  0  0
 21 22  1  0  0  0
 20 23  1  0  0  0
 23 24  1  0  0  0
 23 25  1  0  0  0
  5  6  2  0  0  0
 36 37  2  0  0  0
 37 41  1  0  0  0
 41 42  1  0  0  0
 37 38  1  0  0  0
 38 39  2  0  0  0
 39 31  1  0  0  0
 39 34  1  0  0  0
  6  1  1  0  0  0
 16 11  1  0  0  0
 22 17  1  0  0  0
 28 40  1  0  0  0
  7 10  1  0  0  0
M  END
> <minimizedAffinity>
-8.38542

> <CNNscore>
0.4799315035

> <CNNaffinity>
7.0956168175

> <CNN_VS>
3.4054100513

> <CNNaffinity_variance>
0.1316148639

$$$$
[H]c1nc(N([H])C(=O)c2c([H])c([H])c(C3([H])C([H])([H])C([H])([H])N(C([H])(C([H])([H])[H])C([H])([H])[H])C([H])([H])C3([H])[H])c([H])c2[H])c([H])c(Oc2c(OC([H])([H])[H])c([H])c3c(c2[H])c([H])c([H])n3C(=O)N([H])C([H])([H])[H])c1[H]


 42 46  0  0  0  0  0  0  0  0999 V2000
   -3.9284   22.9535  -26.7589 C   0  0  0  0  0  0  0  0  0  0  0  0
   -3.2484   23.1406  -27.9437 C   0  0  0  0  0  0  0  0  0  0  0  0
   -1.8601   23.0388  -28.0007 C   0  0  0  0  0  0  0  0  0  0  0  0
   -1.1858   22.7528  -26.8748 N   0  0  0  0  0  0  0  0  0  0  0  0
   -1.8233   22.5636  -25.6986 C   0  0  0  0  0  0  0  0  0  0  0  0
   -3.1932   22.6576  -25.6086 C   0  0  0  0  0  0  0  0  0  0  0  0
   -1.1062   22.2682  -24.5113 N   0  0  0  0  0  0  0  0  0  0  0  0
    0.2080   21.7292  -24.6334 C   0  0  0  0  0  0  0  0  0  0  0  0
    0.7311   21.5242  -25.7470 O   0  0  0  0  0  0  0  0  0  0  0  0
   -1.5467   22.4419  -23.5809 H   0  0  0  0  0  0  0  0  0  0  0  0
    1.0008   21.3945  -23.4308 C   0  0  0  0  0  0  0  0  0  0  0  0
    0.4307   21.3070  -22.1794 C   0  0  0  0  0  0  0  0  0  0  0  0
    1.2278   21.0002  -21.0902 C   0  0  0  0  0  0  0  0  0  0  0  0
    2.5802   20.7725  -21.1822 C   0  0  0  0  0  0  0  0  0  0  0  0
    3.1235   20.8676  -22.4541 C   0  0  0  0  0  0  0  0  0  0  0  0
    2.3636   21.1701  -23.5574 C   0  0  0  0  0  0  0  0  0  0  0  0
    3.3403   20.4471  -19.9670 C   0  0  0  0  0  0  0  0  0  0  0  0
    3.4802   21.6435  -19.0437 C   0  0  0  0  0  0  0  0  0  0  0  0
    4.8779   22.2132  -19.0493 C   0  0  0  0  0  0  0  0  0  0  0  0
    5.7907   21.2672  -18.4884 N   0  0  0  0  0  0  0  0  0  0  0  0
    5.4975   19.9110  -18.9498 C   0  0  0  0  0  0  0  0  0  0  0  0
    4.7125   19.9217  -20.2454 C   0  0  0  0  0  0  0  0  0  0  0  0
    5.7483   21.2199  -17.0432 C   0  0  0  0  0  0  0  0  0  0  0  0
    5.5155   22.6086  -16.4959 C   0  0  0  0  0  0  0  0  0  0  0  0
    4.7612   20.2540  -16.4849 C   0  0  0  0  0  0  0  0  0  0  0  0
   -5.3044   23.0452  -26.6597 O   0  0  0  0  0  0  0  0  0  0  0  0
   -9.1437   27.1591  -20.3860 C   0  0  0  0  0  0  0  0  0  0  0  0
   -8.4674   26.2767  -21.3885 N   0  0  0  0  0  0  0  0  0  0  0  0
   -8.2851   24.9527  -21.0526 C   0  0  0  0  0  0  0  0  0  0  0  0
   -8.7406   24.6341  -19.8673 O   0  0  0  0  0  0  0  0  0  0  0  0
   -7.6940   23.9046  -21.7744 N   0  0  0  0  0  0  0  0  0  0  0  0
   -7.5880   22.6126  -21.2898 C   0  0  0  0  0  0  0  0  0  0  0  0
   -6.9750   21.8342  -22.2249 C   0  0  0  0  0  0  0  0  0  0  0  0
   -6.6888   22.6303  -23.3094 C   0  0  0  0  0  0  0  0  0  0  0  0
   -6.0847   22.3615  -24.5148 C   0  0  0  0  0  0  0  0  0  0  0  0
   -5.9077   23.3446  -25.4642 C   0  0  0  0  0  0  0  0  0  0  0  0
   -6.3596   24.6065  -25.1577 C   0  0  0  0  0  0  0  0  0  0  0  0
   -6.9665   24.8932  -23.9555 C   0  0  0  0  0  0  0  0  0  0  0  0
   -7.1507   23.9210  -22.9972 C   0  0  0  0  0  0  0  0  0  0  0  0
   -8.2063   26.7699  -22.2419 H   0  0  0  0  0  0  0  0  0  0  0  0
   -6.1932   25.6078  -26.0968 O   0  0  0  0  0  0  0  0  0  0  0  0
   -5.5121   26.8159  -25.7995 C   0  0  0  0  0  0  0  0  0  0  0  0
 27 28  1  0  0  0
 28 29  1  0  0  0
 29 30  2  0  0  0
 29 31  1  0  0  0
 31 32  1  0  0  0
 32 33  2  0  0  0
 33 34  1  0  0  0
 34 35  2  0  0  0
 35 36  1  0  0  0
 36 26  1  0  0  0
 26  1  1  0  0  0
  1  2  2  0  0  0
  2  3  1  0  0  0
  3  4  2  0  0  0
  4  5  1  0  0  0
  5  7  1  0  0  0
  7  8  1  0  0  0
  8  9  2  0  0  0
  8 11  1  0  0  0
 11 12  2  0  0  0
 12 13  1  0  0  0
 13 14  2  0  0  0
 14 15  1  0  0  0
 15 16  2  0  0  0
 14 17  1  0  0  0
 17 18  1  0  0  0
 18 19  1  0  0  0
 19 20  1  0  0  0
 20 21  1  0  0  0
 21 22  1  0  0  0
 20 23  1  0  0  0
 23 24  1  0  0  0
 23 25  1  0  0  0
  5  6  2  0  0  0
 36 37  2  0  0  0
 37 41  1  0  0  0
 41 42  1  0  0  0
 37 38  1  0  0  0
 38 39  2  0  0  0
 39 31  1  0  0  0
 39 34  1  0  0  0
  6  1  1  0  0  0
 16 11  1  0  0  0
 22 17  1  0  0  0
 28 40  1  0  0  0
  7 10  1  0  0  0
M  END
> <minimizedAffinity>
-8.89799

> <CNNscore>
0.4046986997

> <CNNaffinity>
6.8632316589

> <CNN_VS>
2.7775409222

> <CNNaffinity_variance>
0.0845483691

$$$$
[H]c1nc(N([H])C(=O)c2c([H])c([H])c(C3([H])C([H])([H])C([H])([H])N(C([H])(C([H])([H])[H])C([H])([H])[H])C([H])([H])C3([H])[H])c([H])c2[H])c([H])c(Oc2c(OC([H])([H])[H])c([H])c3c(c2[H])c([H])c([H])n3C(=O)N([H])C([H])([H])[H])c1[H]


 42 46  0  0  0  0  0  0  0  0999 V2000
   -4.1208   22.8013  -26.7892 C   0  0  0  0  0  0  0  0  0  0  0  0
   -3.4513   23.2187  -27.9200 C   0  0  0  0  0  0  0  0  0  0  0  0
   -2.0684   23.0878  -28.0273 C   0  0  0  0  0  0  0  0  0  0  0  0
   -1.3889   22.5439  -27.0043 N   0  0  0  0  0  0  0  0  0  0  0  0
   -2.0161   22.1250  -25.8832 C   0  0  0  0  0  0  0  0  0  0  0  0
   -3.3804   22.2406  -25.7458 C   0  0  0  0  0  0  0  0  0  0  0  0
   -1.2934   21.5573  -24.8032 N   0  0  0  0  0  0  0  0  0  0  0  0
    0.0171   22.0505  -24.5352 C   0  0  0  0  0  0  0  0  0  0  0  0
    0.5263   22.9619  -25.2177 O   0  0  0  0  0  0  0  0  0  0  0  0
   -1.7230   20.7953  -24.2334 H   0  0  0  0  0  0  0  0  0  0  0  0
    0.8213   21.4920  -23.4270 C   0  0  0  0  0  0  0  0  0  0  0  0
    2.1640   21.2146  -23.5646 C   0  0  0  0  0  0  0  0  0  0  0  0
    2.8606   20.6824  -22.4934 C   0  0  0  0  0  0  0  0  0  0  0  0
    2.2836   20.4085  -21.2763 C   0  0  0  0  0  0  0  0  0  0  0  0
    0.9323   20.6988  -21.1696 C   0  0  0  0  0  0  0  0  0  0  0  0
    0.2092   21.2270  -22.2109 C   0  0  0  0  0  0  0  0  0  0  0  0
    3.1097   19.8489  -20.1971 C   0  0  0  0  0  0  0  0  0  0  0  0
    4.3145   19.0967  -20.7320 C   0  0  0  0  0  0  0  0  0  0  0  0
    4.1680   17.6013  -20.5891 C   0  0  0  0  0  0  0  0  0  0  0  0
    4.1558   17.2441  -19.2052 N   0  0  0  0  0  0  0  0  0  0  0  0
    3.3571   18.1860  -18.4225 C   0  0  0  0  0  0  0  0  0  0  0  0
    2.3600   18.9255  -19.2907 C   0  0  0  0  0  0  0  0  0  0  0  0
    5.4723   17.2354  -18.6057 C   0  0  0  0  0  0  0  0  0  0  0  0
    5.4907   18.1540  -17.4065 C   0  0  0  0  0  0  0  0  0  0  0  0
    5.9800   15.8814  -18.2484 C   0  0  0  0  0  0  0  0  0  0  0  0
   -5.4912   22.9128  -26.6432 O   0  0  0  0  0  0  0  0  0  0  0  0
   -9.1795   27.1999  -20.3949 C   0  0  0  0  0  0  0  0  0  0  0  0
   -8.5188   26.2925  -21.3855 N   0  0  0  0  0  0  0  0  0  0  0  0
   -8.2699   24.9948  -20.9946 C   0  0  0  0  0  0  0  0  0  0  0  0
   -8.6552   24.7207  -19.7737 O   0  0  0  0  0  0  0  0  0  0  0  0
   -7.6743   23.9332  -21.6927 N   0  0  0  0  0  0  0  0  0  0  0  0
   -7.4955   22.6722  -21.1512 C   0  0  0  0  0  0  0  0  0  0  0  0
   -6.8987   21.8697  -22.0764 C   0  0  0  0  0  0  0  0  0  0  0  0
   -6.6958   22.6194  -23.2116 C   0  0  0  0  0  0  0  0  0  0  0  0
   -6.1406   22.3115  -24.4311 C   0  0  0  0  0  0  0  0  0  0  0  0
   -6.0474   23.2507  -25.4352 C   0  0  0  0  0  0  0  0  0  0  0  0
   -6.5321   24.5096  -25.1688 C   0  0  0  0  0  0  0  0  0  0  0  0
   -7.0911   24.8350  -23.9533 C   0  0  0  0  0  0  0  0  0  0  0  0
   -7.1915   23.9069  -22.9404 C   0  0  0  0  0  0  0  0  0  0  0  0
   -8.3182   26.7507  -22.2741 H   0  0  0  0  0  0  0  0  0  0  0  0
   -6.4497   25.4671  -26.1631 O   0  0  0  0  0  0  0  0  0  0  0  0
   -5.3785   26.3943  -26.2311 C   0  0  0  0  0  0  0  0  0  0  0  0
 27 28  1  0  0  0
 28 29  1  0  0  0
 29 30  2  0  0  0
 29 31  1  0  0  0
 31 32  1  0  0  0
 32 33  2  0  0  0
 33 34  1  0  0  0
 34 35  2  0  0  0
 35 36  1  0  0  0
 36 26  1  0  0  0
 26  1  1  0  0  0
  1  2  2  0  0  0
  2  3  1  0  0  0
  3  4  2  0  0  0
  4  5  1  0  0  0
  5  7  1  0  0  0
  7  8  1  0  0  0
  8  9  2  0  0  0
  8 11  1  0  0  0
 11 12  2  0  0  0
 12 13  1  0  0  0
 13 14  2  0  0  0
 14 15  1  0  0  0
 15 16  2  0  0  0
 14 17  1  0  0  0
 17 18  1  0  0  0
 18 19  1  0  0  0
 19 20  1  0  0  0
 20 21  1  0  0  0
 21 22  1  0  0  0
 20 23  1  0  0  0
 23 24  1  0  0  0
 23 25  1  0  0  0
  5  6  2  0  0  0
 36 37  2  0  0  0
 37 41  1  0  0  0
 41 42  1  0  0  0
 37 38  1  0  0  0
 38 39  2  0  0  0
 39 31  1  0  0  0
 39 34  1  0  0  0
  6  1  1  0  0  0
 16 11  1  0  0  0
 22 17  1  0  0  0
 28 40  1  0  0  0
  7 10  1  0  0  0
M  END
> <minimizedAffinity>
-8.48292

> <CNNscore>
0.3278762102

> <CNNaffinity>
6.8281507492

> <CNN_VS>
2.2387881279

> <CNNaffinity_variance>
0.1201785356

$$$$
[H]c1nc(N([H])C(=O)c2c([H])c([H])c(C3([H])C([H])([H])C([H])([H])N(C([H])(C([H])([H])[H])C([H])([H])[H])C([H])([H])C3([H])[H])c([H])c2[H])c([H])c(Oc2c(OC([H])([H])[H])c([H])c3c(c2[H])c([H])c([H])n3C(=O)N([H])C([H])([H])[H])c1[H]


 42 46  0  0  0  0  0  0  0  0999 V2000
   -4.1291   23.7117  -28.1554 C   0  0  0  0  0  0  0  0  0  0  0  0
   -4.3388   24.7140  -29.0787 C   0  0  0  0  0  0  0  0  0  0  0  0
   -5.4242   25.5803  -28.9668 C   0  0  0  0  0  0  0  0  0  0  0  0
   -6.2723   25.4248  -27.9369 N   0  0  0  0  0  0  0  0  0  0  0  0
   -6.0937   24.4526  -27.0156 C   0  0  0  0  0  0  0  0  0  0  0  0
   -5.0323   23.5807  -27.0980 C   0  0  0  0  0  0  0  0  0  0  0  0
   -6.9955   24.2886  -25.9336 N   0  0  0  0  0  0  0  0  0  0  0  0
   -6.5700   24.6912  -24.6338 C   0  0  0  0  0  0  0  0  0  0  0  0
   -5.4410   25.1836  -24.4375 O   0  0  0  0  0  0  0  0  0  0  0  0
   -7.9401   23.8770  -26.1016 H   0  0  0  0  0  0  0  0  0  0  0  0
   -7.4640   24.5373  -23.4660 C   0  0  0  0  0  0  0  0  0  0  0  0
   -8.5757   25.3313  -23.2857 C   0  0  0  0  0  0  0  0  0  0  0  0
   -9.3681   25.1458  -22.1661 C   0  0  0  0  0  0  0  0  0  0  0  0
   -9.1090   24.1991  -21.2039 C   0  0  0  0  0  0  0  0  0  0  0  0
   -7.9843   23.4165  -21.4140 C   0  0  0  0  0  0  0  0  0  0  0  0
   -7.1751   23.5722  -22.5128 C   0  0  0  0  0  0  0  0  0  0  0  0
  -10.0145   24.0754  -20.0528 C   0  0  0  0  0  0  0  0  0  0  0  0
   -9.5336   23.0355  -19.0574 C   0  0  0  0  0  0  0  0  0  0  0  0
  -10.3675   21.7779  -19.0924 C   0  0  0  0  0  0  0  0  0  0  0  0
  -11.6943   22.0616  -18.6434 N   0  0  0  0  0  0  0  0  0  0  0  0
  -12.1748   23.3332  -19.1820 C   0  0  0  0  0  0  0  0  0  0  0  0
  -11.4184   23.7286  -20.4336 C   0  0  0  0  0  0  0  0  0  0  0  0
  -11.8004   22.1668  -17.2046 C   0  0  0  0  0  0  0  0  0  0  0  0
  -12.2966   23.5439  -16.8307 C   0  0  0  0  0  0  0  0  0  0  0  0
  -12.6327   21.1086  -16.5670 C   0  0  0  0  0  0  0  0  0  0  0  0
   -3.0650   22.8320  -28.2299 O   0  0  0  0  0  0  0  0  0  0  0  0
    3.2774   21.0070  -22.9890 C   0  0  0  0  0  0  0  0  0  0  0  0
    2.0367   21.3041  -23.7723 N   0  0  0  0  0  0  0  0  0  0  0  0
    0.8351   21.2765  -23.0984 C   0  0  0  0  0  0  0  0  0  0  0  0
    0.9418   20.9856  -21.8264 O   0  0  0  0  0  0  0  0  0  0  0  0
   -0.4704   21.5088  -23.5575 N   0  0  0  0  0  0  0  0  0  0  0  0
   -1.5865   21.4422  -22.7418 C   0  0  0  0  0  0  0  0  0  0  0  0
   -2.6964   21.7224  -23.4805 C   0  0  0  0  0  0  0  0  0  0  0  0
   -2.2888   21.9685  -24.7709 C   0  0  0  0  0  0  0  0  0  0  0  0
   -2.9858   22.2975  -25.9094 C   0  0  0  0  0  0  0  0  0  0  0  0
   -2.3427   22.5012  -27.1112 C   0  0  0  0  0  0  0  0  0  0  0  0
   -0.9748   22.3622  -27.1264 C   0  0  0  0  0  0  0  0  0  0  0  0
   -0.2613   22.0332  -25.9957 C   0  0  0  0  0  0  0  0  0  0  0  0
   -0.8901   21.8269  -24.7876 C   0  0  0  0  0  0  0  0  0  0  0  0
    2.2234   21.5020  -24.7550 H   0  0  0  0  0  0  0  0  0  0  0  0
   -0.3093   22.5636  -28.3218 O   0  0  0  0  0  0  0  0  0  0  0  0
   -0.0635   23.8610  -28.8395 C   0  0  0  0  0  0  0  0  0  0  0  0
 27 28  1  0  0  0
 28 29  1  0  0  0
 29 30  2  0  0  0
 29 31  1  0  0  0
 31 32  1  0  0  0
 32 33  2  0  0  0
 33 34  1  0  0  0
 34 35  2  0  0  0
 35 36  1  0  0  0
 36 26  1  0  0  0
 26  1  1  0  0  0
  1  2  2  0  0  0
  2  3  1  0  0  0
  3  4  2  0  0  0
  4  5  1  0  0  0
  5  7  1  0  0  0
  7  8  1  0  0  0
  8  9  2  0  0  0
  8 11  1  0  0  0
 11 12  2  0  0  0
 12 13  1  0  0  0
 13 14  2  0  0  0
 14 15  1  0  0  0
 15 16  2  0  0  0
 14 17  1  0  0  0
 17 18  1  0  0  0
 18 19  1  0  0  0
 19 20  1  0  0  0
 20 21  1  0  0  0
 21 22  1  0  0  0
 20 23  1  0  0  0
 23 24  1  0  0  0
 23 25  1  0  0  0
  5  6  2  0  0  0
 36 37  2  0  0  0
 37 41  1  0  0  0
 41 42  1  0  0  0
 37 38  1  0  0  0
 38 39  2  0  0  0
 39 31  1  0  0  0
 39 34  1  0  0  0
  6  1  1  0  0  0
 16 11  1  0  0  0
 22 17  1  0  0  0
 28 40  1  0  0  0
  7 10  1  0  0  0
M  END
> <minimizedAffinity>
-9.76005

> <CNNscore>
0.3245133162

> <CNNaffinity>
6.9710044861

> <CNN_VS>
2.2621836662

> <CNNaffinity_variance>
0.0707522556

$$$$
[H]c1nc(N([H])C(=O)c2c([H])c([H])c(C3([H])C([H])([H])C([H])([H])N(C([H])(C([H])([H])[H])C([H])([H])[H])C([H])([H])C3([H])[H])c([H])c2[H])c([H])c(Oc2c(OC([H])([H])[H])c([H])c3c(c2[H])c([H])c([H])n3C(=O)N([H])C([H])([H])[H])c1[H]


 42 46  0  0  0  0  0  0  0  0999 V2000
   -1.5251   22.7717  -20.1082 C   0  0  0  0  0  0  0  0  0  0  0  0
   -0.3904   22.4586  -19.3902 C   0  0  0  0  0  0  0  0  0  0  0  0
   -0.3725   21.3824  -18.5056 C   0  0  0  0  0  0  0  0  0  0  0  0
   -1.4865   20.6461  -18.3601 N   0  0  0  0  0  0  0  0  0  0  0  0
   -2.6139   20.9274  -19.0497 C   0  0  0  0  0  0  0  0  0  0  0  0
   -2.6644   21.9834  -19.9305 C   0  0  0  0  0  0  0  0  0  0  0  0
   -3.7895   20.1510  -18.8878 N   0  0  0  0  0  0  0  0  0  0  0  0
   -4.7221   20.5407  -17.8824 C   0  0  0  0  0  0  0  0  0  0  0  0
   -4.5285   21.5397  -17.1610 O   0  0  0  0  0  0  0  0  0  0  0  0
   -3.9489   19.3160  -19.4939 H   0  0  0  0  0  0  0  0  0  0  0  0
   -5.9619   19.7653  -17.6622 C   0  0  0  0  0  0  0  0  0  0  0  0
   -7.1769   20.1670  -18.1734 C   0  0  0  0  0  0  0  0  0  0  0  0
   -8.3043   19.4038  -17.9238 C   0  0  0  0  0  0  0  0  0  0  0  0
   -8.2859   18.2464  -17.1825 C   0  0  0  0  0  0  0  0  0  0  0  0
   -7.0492   17.8691  -16.6825 C   0  0  0  0  0  0  0  0  0  0  0  0
   -5.9097   18.6014  -16.9097 C   0  0  0  0  0  0  0  0  0  0  0  0
   -9.5366   17.5020  -16.9780 C   0  0  0  0  0  0  0  0  0  0  0  0
  -10.2992   17.9909  -15.7603 C   0  0  0  0  0  0  0  0  0  0  0  0
  -10.2275   17.0179  -14.6087 C   0  0  0  0  0  0  0  0  0  0  0  0
  -10.9099   15.8094  -14.9501 N   0  0  0  0  0  0  0  0  0  0  0  0
  -10.6250   15.4119  -16.3281 C   0  0  0  0  0  0  0  0  0  0  0  0
   -9.3349   16.0277  -16.8293 C   0  0  0  0  0  0  0  0  0  0  0  0
  -12.3489   15.9180  -14.8505 C   0  0  0  0  0  0  0  0  0  0  0  0
  -12.9951   15.1790  -15.9988 C   0  0  0  0  0  0  0  0  0  0  0  0
  -12.9136   15.4743  -13.5454 C   0  0  0  0  0  0  0  0  0  0  0  0
   -1.5843   23.8302  -20.9959 O   0  0  0  0  0  0  0  0  0  0  0  0
   -5.7309   23.8861  -28.3326 C   0  0  0  0  0  0  0  0  0  0  0  0
   -4.8610   23.7775  -27.1191 N   0  0  0  0  0  0  0  0  0  0  0  0
   -3.6527   23.1295  -27.2564 C   0  0  0  0  0  0  0  0  0  0  0  0
   -3.4200   22.6821  -28.4646 O   0  0  0  0  0  0  0  0  0  0  0  0
   -2.6441   22.8769  -26.3140 N   0  0  0  0  0  0  0  0  0  0  0  0
   -1.4730   22.2038  -26.6155 C   0  0  0  0  0  0  0  0  0  0  0  0
   -0.7017   22.1264  -25.4951 C   0  0  0  0  0  0  0  0  0  0  0  0
   -1.3813   22.7514  -24.4755 C   0  0  0  0  0  0  0  0  0  0  0  0
   -1.0672   22.9626  -23.1538 C   0  0  0  0  0  0  0  0  0  0  0  0
   -1.9269   23.6316  -22.3096 C   0  0  0  0  0  0  0  0  0  0  0  0
   -3.1126   24.0799  -22.8423 C   0  0  0  0  0  0  0  0  0  0  0  0
   -3.4430   23.8770  -24.1634 C   0  0  0  0  0  0  0  0  0  0  0  0
   -2.5939   23.2106  -25.0192 C   0  0  0  0  0  0  0  0  0  0  0  0
   -5.2727   24.2113  -26.2932 H   0  0  0  0  0  0  0  0  0  0  0  0
   -3.9894   24.7550  -22.0129 O   0  0  0  0  0  0  0  0  0  0  0  0
   -5.3911   24.7465  -22.2293 C   0  0  0  0  0  0  0  0  0  0  0  0
 27 28  1  0  0  0
 28 29  1  0  0  0
 29 30  2  0  0  0
 29 31  1  0  0  0
 31 32  1  0  0  0
 32 33  2  0  0  0
 33 34  1  0  0  0
 34 35  2  0  0  0
 35 36  1  0  0  0
 36 26  1  0  0  0
 26  1  1  0  0  0
  1  2  2  0  0  0
  2  3  1  0  0  0
  3  4  2  0  0  0
  4  5  1  0  0  0
  5  7  1  0  0  0
  7  8  1  0  0  0
  8  9  2  0  0  0
  8 11  1  0  0  0
 11 12  2  0  0  0
 12 13  1  0  0  0
 13 14  2  0  0  0
 14 15  1  0  0  0
 15 16  2  0  0  0
 14 17  1  0  0  0
 17 18  1  0  0  0
 18 19  1  0  0  0
 19 20  1  0  0  0
 20 21  1  0  0  0
 21 22  1  0  0  0
 20 23  1  0  0  0
 23 24  1  0  0  0
 23 25  1  0  0  0
  5  6  2  0  0  0
 36 37  2  0  0  0
 37 41  1  0  0  0
 41 42  1  0  0  0
 37 38  1  0  0  0
 38 39  2  0  0  0
 39 31  1  0  0  0
 39 34  1  0  0  0
  6  1  1  0  0  0
 16 11  1  0  0  0
 22 17  1  0  0  0
 28 40  1  0  0  0
  7 10  1  0  0  0
M  END
> <minimizedAffinity>
-7.49125

> <CNNscore>
0.1452923566

> <CNNaffinity>
5.7714486122

> <CNN_VS>
0.8385473490

> <CNNaffinity_variance>
0.1209531203

$$$$
[H]c1nc(N([H])C(=O)c2c([H])c([H])c(C3([H])C([H])([H])C([H])([H])N(C([H])(C([H])([H])[H])C([H])([H])[H])C([H])([H])C3([H])[H])c([H])c2[H])c([H])c(Oc2c(OC([H])([H])[H])c([H])c3c(c2[H])c([H])c([H])n3C(=O)N([H])C([H])([H])[H])c1[H]


 42 46  0  0  0  0  0  0  0  0999 V2000
   -0.5928   21.6304  -23.8531 C   0  0  0  0  0  0  0  0  0  0  0  0
    0.5337   21.3731  -23.1009 C   0  0  0  0  0  0  0  0  0  0  0  0
    0.4426   21.1050  -21.7367 C   0  0  0  0  0  0  0  0  0  0  0  0
   -0.7695   21.1002  -21.1581 N   0  0  0  0  0  0  0  0  0  0  0  0
   -1.8920   21.3482  -21.8681 C   0  0  0  0  0  0  0  0  0  0  0  0
   -1.8360   21.6169  -23.2166 C   0  0  0  0  0  0  0  0  0  0  0  0
   -3.1689   21.3483  -21.2513 N   0  0  0  0  0  0  0  0  0  0  0  0
   -3.7936   22.6037  -20.9940 C   0  0  0  0  0  0  0  0  0  0  0  0
   -3.2490   23.6822  -21.3038 O   0  0  0  0  0  0  0  0  0  0  0  0
   -3.6224   20.4438  -20.9941 H   0  0  0  0  0  0  0  0  0  0  0  0
   -5.1215   22.6669  -20.3462 C   0  0  0  0  0  0  0  0  0  0  0  0
   -5.3096   23.2654  -19.1194 C   0  0  0  0  0  0  0  0  0  0  0  0
   -6.5755   23.2832  -18.5597 C   0  0  0  0  0  0  0  0  0  0  0  0
   -7.6785   22.7297  -19.1648 C   0  0  0  0  0  0  0  0  0  0  0  0
   -7.4566   22.1357  -20.3976 C   0  0  0  0  0  0  0  0  0  0  0  0
   -6.2148   22.0990  -20.9832 C   0  0  0  0  0  0  0  0  0  0  0  0
   -8.9830   22.8050  -18.4920 C   0  0  0  0  0  0  0  0  0  0  0  0
   -9.1348   21.7411  -17.4202 C   0  0  0  0  0  0  0  0  0  0  0  0
  -10.0790   20.6389  -17.8344 C   0  0  0  0  0  0  0  0  0  0  0  0
  -11.4050   21.1569  -17.9616 N   0  0  0  0  0  0  0  0  0  0  0  0
  -11.4013   22.4675  -18.6097 C   0  0  0  0  0  0  0  0  0  0  0  0
  -10.1436   22.6806  -19.4268 C   0  0  0  0  0  0  0  0  0  0  0  0
  -12.0725   21.3367  -16.6909 C   0  0  0  0  0  0  0  0  0  0  0  0
  -12.3992   22.7980  -16.4906 C   0  0  0  0  0  0  0  0  0  0  0  0
  -13.2828   20.4889  -16.5030 C   0  0  0  0  0  0  0  0  0  0  0  0
   -0.5458   21.9003  -25.2084 O   0  0  0  0  0  0  0  0  0  0  0  0
   -5.6672   25.0424  -31.1178 C   0  0  0  0  0  0  0  0  0  0  0  0
   -4.8769   24.5581  -29.9422 N   0  0  0  0  0  0  0  0  0  0  0  0
   -5.3760   24.8230  -28.6854 C   0  0  0  0  0  0  0  0  0  0  0  0
   -6.5072   25.4821  -28.6870 O   0  0  0  0  0  0  0  0  0  0  0  0
   -4.8667   24.5003  -27.4183 N   0  0  0  0  0  0  0  0  0  0  0  0
   -5.4980   24.8428  -26.2352 C   0  0  0  0  0  0  0  0  0  0  0  0
   -4.7592   24.3844  -25.1863 C   0  0  0  0  0  0  0  0  0  0  0  0
   -3.6537   23.7475  -25.7001 C   0  0  0  0  0  0  0  0  0  0  0  0
   -2.5956   23.1096  -25.0969 C   0  0  0  0  0  0  0  0  0  0  0  0
   -1.5873   22.5332  -25.8387 C   0  0  0  0  0  0  0  0  0  0  0  0
   -1.6814   22.6217  -27.2076 C   0  0  0  0  0  0  0  0  0  0  0  0
   -2.7338   23.2568  -27.8281 C   0  0  0  0  0  0  0  0  0  0  0  0
   -3.7490   23.8370  -27.0999 C   0  0  0  0  0  0  0  0  0  0  0  0
   -4.0245   24.0667  -30.2100 H   0  0  0  0  0  0  0  0  0  0  0  0
   -0.6809   22.0488  -27.9713 O   0  0  0  0  0  0  0  0  0  0  0  0
    0.6639   22.4955  -27.9112 C   0  0  0  0  0  0  0  0  0  0  0  0
 27 28  1  0  0  0
 28 29  1  0  0  0
 29 30  2  0  0  0
 29 31  1  0  0  0
 31 32  1  0  0  0
 32 33  2  0  0  0
 33 34  1  0  0  0
 34 35  2  0  0  0
 35 36  1  0  0  0
 36 26  1  0  0  0
 26  1  1  0  0  0
  1  2  2  0  0  0
  2  3  1  0  0  0
  3  4  2  0  0  0
  4  5  1  0  0  0
  5  7  1  0  0  0
  7  8  1  0  0  0
  8  9  2  0  0  0
  8 11  1  0  0  0
 11 12  2  0  0  0
 12 13  1  0  0  0
 13 14  2  0  0  0
 14 15  1  0  0  0
 15 16  2  0  0  0
 14 17  1  0  0  0
 17 18  1  0  0  0
 18 19  1  0  0  0
 19 20  1  0  0  0
 20 21  1  0  0  0
 21 22  1  0  0  0
 20 23  1  0  0  0
 23 24  1  0  0  0
 23 25  1  0  0  0
  5  6  2  0  0  0
 36 37  2  0  0  0
 37 41  1  0  0  0
 41 42  1  0  0  0
 37 38  1  0  0  0
 38 39  2  0  0  0
 39 31  1  0  0  0
 39 34  1  0  0  0
  6  1  1  0  0  0
 16 11  1  0  0  0
 22 17  1  0  0  0
 28 40  1  0  0  0
  7 10  1  0  0  0
M  END
> <minimizedAffinity>
-8.60722

> <CNNscore>
0.1392430663

> <CNNaffinity>
6.7954854965

> <CNN_VS>
0.9462242126

> <CNNaffinity_variance>
0.1438864768

$$$$
[H]c1nc(N([H])C(=O)c2c([H])c([H])c(C3([H])C([H])([H])C([H])([H])N(C([H])(C([H])([H])[H])C([H])([H])[H])C([H])([H])C3([H])[H])c([H])c2[H])c([H])c(Oc2c(OC([H])([H])[H])c([H])c3c(c2[H])c([H])c([H])n3C(=O)N([H])C([H])([H])[H])c1[H]


 42 46  0  0  0  0  0  0  0  0999 V2000
    1.6070   20.8088  -21.9967 C   0  0  0  0  0  0  0  0  0  0  0  0
    2.0978   21.0260  -23.2667 C   0  0  0  0  0  0  0  0  0  0  0  0
    1.2797   21.5221  -24.2794 C   0  0  0  0  0  0  0  0  0  0  0  0
   -0.0066   21.7890  -23.9994 N   0  0  0  0  0  0  0  0  0  0  0  0
   -0.5171   21.5871  -22.7648 C   0  0  0  0  0  0  0  0  0  0  0  0
    0.2642   21.0979  -21.7431 C   0  0  0  0  0  0  0  0  0  0  0  0
   -1.8775   21.8644  -22.4758 N   0  0  0  0  0  0  0  0  0  0  0  0
   -2.2285   23.1916  -22.0913 C   0  0  0  0  0  0  0  0  0  0  0  0
   -1.3755   24.0984  -22.0138 O   0  0  0  0  0  0  0  0  0  0  0  0
   -2.5890   21.1033  -22.5426 H   0  0  0  0  0  0  0  0  0  0  0  0
   -3.6298   23.5385  -21.7706 C   0  0  0  0  0  0  0  0  0  0  0  0
   -4.3386   22.8848  -20.7863 C   0  0  0  0  0  0  0  0  0  0  0  0
   -5.6513   23.2481  -20.5399 C   0  0  0  0  0  0  0  0  0  0  0  0
   -6.3042   24.2410  -21.2306 C   0  0  0  0  0  0  0  0  0  0  0  0
   -5.5644   24.8795  -22.2139 C   0  0  0  0  0  0  0  0  0  0  0  0
   -4.2602   24.5457  -22.4859 C   0  0  0  0  0  0  0  0  0  0  0  0
   -7.6986   24.5578  -20.8908 C   0  0  0  0  0  0  0  0  0  0  0  0
   -8.6549   24.2025  -22.0145 C   0  0  0  0  0  0  0  0  0  0  0  0
   -9.1766   25.4234  -22.7325 C   0  0  0  0  0  0  0  0  0  0  0  0
   -9.9931   26.1951  -21.8489 N   0  0  0  0  0  0  0  0  0  0  0  0
   -9.4056   26.2661  -20.5119 C   0  0  0  0  0  0  0  0  0  0  0  0
   -7.9153   25.9962  -20.5440 C   0  0  0  0  0  0  0  0  0  0  0  0
  -11.3223   25.6507  -21.6775 C   0  0  0  0  0  0  0  0  0  0  0  0
  -11.8739   26.0696  -20.3349 C   0  0  0  0  0  0  0  0  0  0  0  0
  -12.2739   25.9862  -22.7734 C   0  0  0  0  0  0  0  0  0  0  0  0
    2.3850   20.3185  -20.9641 O   0  0  0  0  0  0  0  0  0  0  0  0
    0.7795   21.9808  -12.8596 C   0  0  0  0  0  0  0  0  0  0  0  0
    1.1680   21.8432  -14.2988 N   0  0  0  0  0  0  0  0  0  0  0  0
    2.0147   22.7947  -14.8246 C   0  0  0  0  0  0  0  0  0  0  0  0
    2.3767   23.7189  -13.9709 O   0  0  0  0  0  0  0  0  0  0  0  0
    2.5435   22.9264  -16.1177 N   0  0  0  0  0  0  0  0  0  0  0  0
    3.3928   23.9534  -16.4910 C   0  0  0  0  0  0  0  0  0  0  0  0
    3.7324   23.7976  -17.8012 C   0  0  0  0  0  0  0  0  0  0  0  0
    3.0989   22.6688  -18.2661 C   0  0  0  0  0  0  0  0  0  0  0  0
    3.0940   22.0570  -19.4974 C   0  0  0  0  0  0  0  0  0  0  0  0
    2.3675   20.9083  -19.7254 C   0  0  0  0  0  0  0  0  0  0  0  0
    1.6469   20.3978  -18.6715 C   0  0  0  0  0  0  0  0  0  0  0  0
    1.6405   20.9976  -17.4321 C   0  0  0  0  0  0  0  0  0  0  0  0
    2.3619   22.1456  -17.1891 C   0  0  0  0  0  0  0  0  0  0  0  0
    0.7484   21.0302  -14.7491 H   0  0  0  0  0  0  0  0  0  0  0  0
    0.9119   19.2448  -18.8782 O   0  0  0  0  0  0  0  0  0  0  0  0
    0.3478   18.5070  -17.8062 C   0  0  0  0  0  0  0  0  0  0  0  0
 27 28  1  0  0  0
 28 29  1  0  0  0
 29 30  2  0  0  0
 29 31  1  0  0  0
 31 32  1  0  0  0
 32 33  2  0  0  0
 33 34  1  0  0  0
 34 35  2  0  0  0
 35 36  1  0  0  0
 36 26  1  0  0  0
 26  1  1  0  0  0
  1  2  2  0  0  0
  2  3  1  0  0  0
  3  4  2  0  0  0
  4  5  1  0  0  0
  5  7  1  0  0  0
  7  8  1  0  0  0
  8  9  2  0  0  0
  8 11  1  0  0  0
 11 12  2  0  0  0
 12 13  1  0  0  0
 13 14  2  0  0  0
 14 15  1  0  0  0
 15 16  2  0  0  0
 14 17  1  0  0  0
 17 18  1  0  0  0
 18 19  1  0  0  0
 19 20  1  0  0  0
 20 21  1  0  0  0
 21 22  1  0  0  0
 20 23  1  0  0  0
 23 24  1  0  0  0
 23 25  1  0  0  0
  5  6  2  0  0  0
 36 37  2  0  0  0
 37 41  1  0  0  0
 41 42  1  0  0  0
 37 38  1  0  0  0
 38 39  2  0  0  0
 39 31  1  0  0  0
 39 34  1  0  0  0
  6  1  1  0  0  0
 16 11  1  0  0  0
 22 17  1  0  0  0
 28 40  1  0  0  0
  7 10  1  0  0  0
M  END
> <minimizedAffinity>
-7.77671

> <CNNscore>
0.1306524873

> <CNNaffinity>
5.8032617569

> <CNN_VS>
0.7582105994

> <CNNaffinity_variance>
0.2935443819

$$$$
[H]c1nc(N([H])C(=O)c2c([H])c([H])c(C3([H])C([H])([H])C([H])([H])N(C([H])(C([H])([H])[H])C([H])([H])[H])C([H])([H])C3([H])[H])c([H])c2[H])c([H])c(Oc2c(OC([H])([H])[H])c([H])c3c(c2[H])c([H])c([H])n3C(=O)N([H])C([H])([H])[H])c1[H]


 42 46  0  0  0  0  0  0  0  0999 V2000
   -3.3838   21.6231  -23.6284 C   0  0  0  0  0  0  0  0  0  0  0  0
   -2.7408   22.1439  -24.7313 C   0  0  0  0  0  0  0  0  0  0  0  0
   -1.3881   22.4746  -24.6864 C   0  0  0  0  0  0  0  0  0  0  0  0
   -0.7117   22.2771  -23.5429 N   0  0  0  0  0  0  0  0  0  0  0  0
   -1.3134   21.7681  -22.4453 C   0  0  0  0  0  0  0  0  0  0  0  0
   -2.6477   21.4319  -22.4569 C   0  0  0  0  0  0  0  0  0  0  0  0
   -0.5963   21.5675  -21.2384 N   0  0  0  0  0  0  0  0  0  0  0  0
   -0.5759   22.6247  -20.2822 C   0  0  0  0  0  0  0  0  0  0  0  0
   -1.1739   23.7008  -20.4825 O   0  0  0  0  0  0  0  0  0  0  0  0
   -0.0977   20.6652  -21.0735 H   0  0  0  0  0  0  0  0  0  0  0  0
    0.1614   22.4762  -19.0089 C   0  0  0  0  0  0  0  0  0  0  0  0
    1.4799   22.8547  -18.8783 C   0  0  0  0  0  0  0  0  0  0  0  0
    2.1189   22.6806  -17.6629 C   0  0  0  0  0  0  0  0  0  0  0  0
    1.5067   22.1427  -16.5560 C   0  0  0  0  0  0  0  0  0  0  0  0
    0.1808   21.7723  -16.7195 C   0  0  0  0  0  0  0  0  0  0  0  0
   -0.4852   21.9301  -17.9102 C   0  0  0  0  0  0  0  0  0  0  0  0
    2.2691   22.0040  -15.3071 C   0  0  0  0  0  0  0  0  0  0  0  0
    1.4212   22.3034  -14.0845 C   0  0  0  0  0  0  0  0  0  0  0  0
    1.7707   23.6294  -13.4537 C   0  0  0  0  0  0  0  0  0  0  0  0
    3.0958   23.5799  -12.9204 N   0  0  0  0  0  0  0  0  0  0  0  0
    4.0057   22.8818  -13.8275 C   0  0  0  0  0  0  0  0  0  0  0  0
    3.4806   22.8787  -15.2485 C   0  0  0  0  0  0  0  0  0  0  0  0
    3.1764   22.8852  -11.6541 C   0  0  0  0  0  0  0  0  0  0  0  0
    4.3222   21.9011  -11.6863 C   0  0  0  0  0  0  0  0  0  0  0  0
    3.2723   23.7770  -10.4647 C   0  0  0  0  0  0  0  0  0  0  0  0
   -4.7237   21.2817  -23.6315 O   0  0  0  0  0  0  0  0  0  0  0  0
  -10.7630   26.8662  -21.7973 C   0  0  0  0  0  0  0  0  0  0  0  0
   -9.6892   25.8327  -21.9392 N   0  0  0  0  0  0  0  0  0  0  0  0
   -9.3076   25.1496  -20.8049 C   0  0  0  0  0  0  0  0  0  0  0  0
   -9.9534   25.5060  -19.7233 O   0  0  0  0  0  0  0  0  0  0  0  0
   -8.3456   24.1432  -20.6301 N   0  0  0  0  0  0  0  0  0  0  0  0
   -8.0787   23.5502  -19.4084 C   0  0  0  0  0  0  0  0  0  0  0  0
   -7.1039   22.6125  -19.5709 C   0  0  0  0  0  0  0  0  0  0  0  0
   -6.7470   22.6061  -20.8993 C   0  0  0  0  0  0  0  0  0  0  0  0
   -5.8272   21.8640  -21.6018 C   0  0  0  0  0  0  0  0  0  0  0  0
   -5.6471   22.0398  -22.9567 C   0  0  0  0  0  0  0  0  0  0  0  0
   -6.4244   22.9881  -23.5788 C   0  0  0  0  0  0  0  0  0  0  0  0
   -7.3501   23.7401  -22.8907 C   0  0  0  0  0  0  0  0  0  0  0  0
   -7.5416   23.5753  -21.5365 C   0  0  0  0  0  0  0  0  0  0  0  0
   -9.3453   25.7437  -22.8950 H   0  0  0  0  0  0  0  0  0  0  0  0
   -6.2607   23.1799  -24.9385 O   0  0  0  0  0  0  0  0  0  0  0  0
   -5.7215   24.3782  -25.4722 C   0  0  0  0  0  0  0  0  0  0  0  0
 27 28  1  0  0  0
 28 29  1  0  0  0
 29 30  2  0  0  0
 29 31  1  0  0  0
 31 32  1  0  0  0
 32 33  2  0  0  0
 33 34  1  0  0  0
 34 35  2  0  0  0
 35 36  1  0  0  0
 36 26  1  0  0  0
 26  1  1  0  0  0
  1  2  2  0  0  0
  2  3  1  0  0  0
  3  4  2  0  0  0
  4  5  1  0  0  0
  5  7  1  0  0  0
  7  8  1  0  0  0
  8  9  2  0  0  0
  8 11  1  0  0  0
 11 12  2  0  0  0
 12 13  1  0  0  0
 13 14  2  0  0  0
 14 15  1  0  0  0
 15 16  2  0  0  0
 14 17  1  0  0  0
 17 18  1  0  0  0
 18 19  1  0  0  0
 19 20  1  0  0  0
 20 21  1  0  0  0
 21 22  1  0  0  0
 20 23  1  0  0  0
 23 24  1  0  0  0
 23 25  1  0  0  0
  5  6  2  0  0  0
 36 37  2  0  0  0
 37 41  1  0  0  0
 41 42  1  0  0  0
 37 38  1  0  0  0
 38 39  2  0  0  0
 39 31  1  0  0  0
 39 34  1  0  0  0
  6  1  1  0  0  0
 16 11  1  0  0  0
 22 17  1  0  0  0
 28 40  1  0  0  0
  7 10  1  0  0  0
M  END
> <minimizedAffinity>
-7.85162

> <CNNscore>
0.1255955994

> <CNNaffinity>
5.7156333923

> <CNN_VS>
0.7178583741

> <CNNaffinity_variance>
0.3491145372

$$$$
[H]c1nc(N([H])C(=O)c2c([H])c([H])c(C3([H])C([H])([H])C([H])([H])N(C([H])(C([H])([H])[H])C([H])([H])[H])C([H])([H])C3([H])[H])c([H])c2[H])c([H])c(Oc2c(OC([H])([H])[H])c([H])c3c(c2[H])c([H])c([H])n3C(=O)N([H])C([H])([H])[H])c1[H]


 42 46  0  0  0  0  0  0  0  0999 V2000
   -6.9617   23.7963  -20.4284 C   0  0  0  0  0  0  0  0  0  0  0  0
   -7.8012   22.7045  -20.3634 C   0  0  0  0  0  0  0  0  0  0  0  0
   -7.3040   21.4284  -20.1072 C   0  0  0  0  0  0  0  0  0  0  0  0
   -5.9826   21.2742  -19.9223 N   0  0  0  0  0  0  0  0  0  0  0  0
   -5.1343   22.3244  -19.9795 C   0  0  0  0  0  0  0  0  0  0  0  0
   -5.5934   23.5970  -20.2309 C   0  0  0  0  0  0  0  0  0  0  0  0
   -3.7391   22.1554  -19.7899 N   0  0  0  0  0  0  0  0  0  0  0  0
   -3.1578   22.6470  -18.5845 C   0  0  0  0  0  0  0  0  0  0  0  0
   -3.8448   23.2062  -17.7064 O   0  0  0  0  0  0  0  0  0  0  0  0
   -3.1672   21.6861  -20.5264 H   0  0  0  0  0  0  0  0  0  0  0  0
   -1.7071   22.5063  -18.3345 C   0  0  0  0  0  0  0  0  0  0  0  0
   -1.2098   21.6600  -17.3675 C   0  0  0  0  0  0  0  0  0  0  0  0
    0.1585   21.5799  -17.1737 C   0  0  0  0  0  0  0  0  0  0  0  0
    1.0697   22.3073  -17.9015 C   0  0  0  0  0  0  0  0  0  0  0  0
    0.5383   23.1490  -18.8664 C   0  0  0  0  0  0  0  0  0  0  0  0
   -0.8133   23.2543  -19.0864 C   0  0  0  0  0  0  0  0  0  0  0  0
    2.5044   22.1481  -17.6247 C   0  0  0  0  0  0  0  0  0  0  0  0
    2.9242   22.8677  -16.3560 C   0  0  0  0  0  0  0  0  0  0  0  0
    3.7242   24.1154  -16.6411 C   0  0  0  0  0  0  0  0  0  0  0  0
    4.9741   23.7654  -17.2395 N   0  0  0  0  0  0  0  0  0  0  0  0
    4.8081   22.7006  -18.2277 C   0  0  0  0  0  0  0  0  0  0  0  0
    3.3825   22.6299  -18.7352 C   0  0  0  0  0  0  0  0  0  0  0  0
    5.9489   23.2828  -16.2858 C   0  0  0  0  0  0  0  0  0  0  0  0
    6.4316   21.9130  -16.7014 C   0  0  0  0  0  0  0  0  0  0  0  0
    7.0956   24.2048  -16.0536 C   0  0  0  0  0  0  0  0  0  0  0  0
   -7.4145   25.0784  -20.6796 O   0  0  0  0  0  0  0  0  0  0  0  0
  -13.0928   26.1203  -26.8192 C   0  0  0  0  0  0  0  0  0  0  0  0
  -12.2266   25.9637  -25.6084 N   0  0  0  0  0  0  0  0  0  0  0  0
  -12.8334   26.0520  -24.3743 C   0  0  0  0  0  0  0  0  0  0  0  0
  -14.1236   26.2676  -24.4269 O   0  0  0  0  0  0  0  0  0  0  0  0
  -12.2903   25.9483  -23.0846 N   0  0  0  0  0  0  0  0  0  0  0  0
  -13.0454   26.0614  -21.9302 C   0  0  0  0  0  0  0  0  0  0  0  0
  -12.2318   25.9089  -20.8481 C   0  0  0  0  0  0  0  0  0  0  0  0
  -10.9542   25.6979  -21.3119 C   0  0  0  0  0  0  0  0  0  0  0  0
   -9.7621   25.4846  -20.6610 C   0  0  0  0  0  0  0  0  0  0  0  0
   -8.5884   25.2925  -21.3571 C   0  0  0  0  0  0  0  0  0  0  0  0
   -8.6568   25.3229  -22.7300 C   0  0  0  0  0  0  0  0  0  0  0  0
   -9.8419   25.5353  -23.3980 C   0  0  0  0  0  0  0  0  0  0  0  0
  -11.0230   25.7285  -22.7158 C   0  0  0  0  0  0  0  0  0  0  0  0
  -11.2462   25.8024  -25.8376 H   0  0  0  0  0  0  0  0  0  0  0  0
   -7.4907   25.1310  -23.4483 O   0  0  0  0  0  0  0  0  0  0  0  0
   -7.4964   24.8853  -24.8451 C   0  0  0  0  0  0  0  0  0  0  0  0
 27 28  1  0  0  0
 28 29  1  0  0  0
 29 30  2  0  0  0
 29 31  1  0  0  0
 31 32  1  0  0  0
 32 33  2  0  0  0
 33 34  1  0  0  0
 34 35  2  0  0  0
 35 36  1  0  0  0
 36 26  1  0  0  0
 26  1  1  0  0  0
  1  2  2  0  0  0
  2  3  1  0  0  0
  3  4  2  0  0  0
  4  5  1  0  0  0
  5  7  1  0  0  0
  7  8  1  0  0  0
  8  9  2  0  0  0
  8 11  1  0  0  0
 11 12  2  0  0  0
 12 13  1  0  0  0
 13 14  2  0  0  0
 14 15  1  0  0  0
 15 16  2  0  0  0
 14 17  1  0  0  0
 17 18  1  0  0  0
 18 19  1  0  0  0
 19 20  1  0  0  0
 20 21  1  0  0  0
 21 22  1  0  0  0
 20 23  1  0  0  0
 23 24  1  0  0  0
 23 25  1  0  0  0
  5  6  2  0  0  0
 36 37  2  0  0  0
 37 41  1  0  0  0
 41 42  1  0  0  0
 37 38  1  0  0  0
 38 39  2  0  0  0
 39 31  1  0  0  0
 39 34  1  0  0  0
  6  1  1  0  0  0
 16 11  1  0  0  0
 22 17  1  0  0  0
 28 40  1  0  0  0
  7 10  1  0  0  0
M  END
> <minimizedAffinity>
-7.98024

> <CNNscore>
0.1191485748

> <CNNaffinity>
5.3510451317

> <CNN_VS>
0.6375694275

> <CNNaffinity_variance>
0.1759258509

$$$$
[H]Oc1c([H])c([H])c(F)c([H])c1-c1nc([H])c(N([H])[C@]([H])(c2c([H])c([H])c([H])c([H])c2[H])C([H])([H])O[H])c([H])c1-c1c([H])c([H])c2c(c(C([H])([H])[H])nn2[H])c1[H]


 38 42  0  0  0  0  0  0  0  0999 V2000
   -4.7761   23.2516  -26.3366 C   0  0  0  0  0  0  0  0  0  0  0  0
   -5.0107   22.7997  -25.0530 C   0  0  0  0  0  0  0  0  0  0  0  0
   -6.2869   22.9135  -24.4810 C   0  0  0  0  0  0  0  0  0  0  0  0
   -7.2941   23.4843  -25.2295 C   0  0  0  0  0  0  0  0  0  0  0  0
   -7.0606   23.9161  -26.4624 N   0  0  0  0  0  0  0  0  0  0  0  0
   -5.8183   23.8046  -27.0176 C   0  0  0  0  0  0  0  0  0  0  0  0
    0.3427   21.9515  -24.7365 C   0  0  0  0  0  0  0  0  0  0  0  0
    0.1259   22.2985  -26.1552 C   0  0  0  0  0  0  0  0  0  0  0  0
    0.9701   22.3670  -27.1937 N   0  0  0  0  0  0  0  0  0  0  0  0
    0.3453   22.7252  -28.3127 N   0  0  0  0  0  0  0  0  0  0  0  0
   -0.9674   22.9122  -28.0519 C   0  0  0  0  0  0  0  0  0  0  0  0
   -2.0483   23.2852  -28.8420 C   0  0  0  0  0  0  0  0  0  0  0  0
   -3.3066   23.4013  -28.2954 C   0  0  0  0  0  0  0  0  0  0  0  0
   -3.4658   23.1399  -26.9555 C   0  0  0  0  0  0  0  0  0  0  0  0
   -2.3587   22.7636  -26.1728 C   0  0  0  0  0  0  0  0  0  0  0  0
   -1.1129   22.6483  -26.7096 C   0  0  0  0  0  0  0  0  0  0  0  0
    0.7534   22.8587  -29.2777 H   0  0  0  0  0  0  0  0  0  0  0  0
   -5.6793   24.2898  -28.3648 C   0  0  0  0  0  0  0  0  0  0  0  0
   -5.8000   23.4327  -29.4276 C   0  0  0  0  0  0  0  0  0  0  0  0
   -5.6751   23.9205  -30.7348 C   0  0  0  0  0  0  0  0  0  0  0  0
   -5.7931   23.0834  -31.7920 F   0  0  0  0  0  0  0  0  0  0  0  0
   -5.4331   25.2495  -30.9697 C   0  0  0  0  0  0  0  0  0  0  0  0
   -5.3141   26.0984  -29.8976 C   0  0  0  0  0  0  0  0  0  0  0  0
   -5.4374   25.6142  -28.6015 C   0  0  0  0  0  0  0  0  0  0  0  0
   -5.3075   26.5102  -27.5488 O   0  0  0  0  0  0  0  0  0  0  0  0
   -5.3645   26.2987  -26.5770 H   0  0  0  0  0  0  0  0  0  0  0  0
   -6.5307   22.4577  -23.1734 N   0  0  0  0  0  0  0  0  0  0  0  0
   -7.1547   21.5984  -23.0918 H   0  0  0  0  0  0  0  0  0  0  0  0
   -6.0264   23.0272  -21.9581 C   0  0  0  0  0  0  0  0  0  0  0  0
   -4.5304   22.9889  -21.9619 C   0  0  0  0  0  0  0  0  0  0  0  0
   -3.8548   21.8149  -21.7088 C   0  0  0  0  0  0  0  0  0  0  0  0
   -2.4842   21.7839  -21.7146 C   0  0  0  0  0  0  0  0  0  0  0  0
   -1.7515   22.9227  -21.9728 C   0  0  0  0  0  0  0  0  0  0  0  0
   -2.4312   24.1199  -22.2309 C   0  0  0  0  0  0  0  0  0  0  0  0
   -3.7982   24.1240  -22.2192 C   0  0  0  0  0  0  0  0  0  0  0  0
   -6.4856   22.3203  -20.7049 C   0  0  0  0  0  0  0  0  0  0  0  0
   -7.3558   21.2723  -21.0740 O   0  0  0  0  0  0  0  0  0  0  0  0
   -7.1079   20.4359  -20.5617 H   0  0  0  0  0  0  0  0  0  0  0  0
  7  8  1  0  0  0
  8  9  2  0  0  0
  9 10  1  0  0  0
 10 11  1  0  0  0
 11 12  2  0  0  0
 12 13  1  0  0  0
 13 14  2  0  0  0
 14 15  1  0  0  0
 15 16  2  0  0  0
 14  1  1  0  0  0
  1  2  2  0  0  0
  2  3  1  0  0  0
  3 27  1  0  0  0
 27 29  1  0  0  0
 29 36  1  0  0  0
 36 37  1  0  0  0
 29 30  1  0  0  0
 30 31  2  0  0  0
 31 32  1  0  0  0
 32 33  2  0  0  0
 33 34  1  0  0  0
 34 35  2  0  0  0
  3  4  2  0  0  0
  4  5  1  0  0  0
  5  6  2  0  0  0
  6 18  1  0  0  0
 18 19  2  0  0  0
 19 20  1  0  0  0
 20 21  1  0  0  0
 20 22  2  0  0  0
 22 23  1  0  0  0
 23 24  2  0  0  0
 24 25  1  0  0  0
 16  8  1  0  0  0
  6  1  1  0  0  0
 24 18  1  0  0  0
 16 11  1  0  0  0
 35 30  1  0  0  0
 10 17  1  0  0  0
 27 28  1  0  0  0
 37 38  1  0  0  0
 25 26  1  0  0  0
M  END
> <minimizedAffinity>
-10.70936

> <CNNscore>
0.9778973460

> <CNNaffinity>
8.2118759155

> <CNN_VS>
8.0303716660

> <CNNaffinity_variance>
0.0639314577

$$$$
[H]Oc1c([H])c([H])c(F)c([H])c1-c1nc([H])c(N([H])[C@]([H])(c2c([H])c([H])c([H])c([H])c2[H])C([H])([H])O[H])c([H])c1-c1c([H])c([H])c2c(c(C([H])([H])[H])nn2[H])c1[H]


 38 42  0  0  0  0  0  0  0  0999 V2000
   -4.9800   23.4661  -26.0092 C   0  0  0  0  0  0  0  0  0  0  0  0
   -5.3336   23.1484  -24.7127 C   0  0  0  0  0  0  0  0  0  0  0  0
   -6.6224   23.4337  -24.2367 C   0  0  0  0  0  0  0  0  0  0  0  0
   -7.5206   24.0353  -25.0921 C   0  0  0  0  0  0  0  0  0  0  0  0
   -7.1731   24.3374  -26.3367 N   0  0  0  0  0  0  0  0  0  0  0  0
   -5.9187   24.0591  -26.7983 C   0  0  0  0  0  0  0  0  0  0  0  0
   -0.0846   21.9528  -23.9601 C   0  0  0  0  0  0  0  0  0  0  0  0
   -0.1967   22.1457  -25.4196 C   0  0  0  0  0  0  0  0  0  0  0  0
    0.7028   22.0217  -26.4053 N   0  0  0  0  0  0  0  0  0  0  0  0
    0.1703   22.2943  -27.5941 N   0  0  0  0  0  0  0  0  0  0  0  0
   -1.1325   22.6170  -27.4374 C   0  0  0  0  0  0  0  0  0  0  0  0
   -2.1343   22.9804  -28.3298 C   0  0  0  0  0  0  0  0  0  0  0  0
   -3.4039   23.2625  -27.8783 C   0  0  0  0  0  0  0  0  0  0  0  0
   -3.6544   23.1756  -26.5296 C   0  0  0  0  0  0  0  0  0  0  0  0
   -2.6265   22.8060  -25.6427 C   0  0  0  0  0  0  0  0  0  0  0  0
   -1.3696   22.5269  -26.0853 C   0  0  0  0  0  0  0  0  0  0  0  0
    0.6378   22.2788  -28.5411 H   0  0  0  0  0  0  0  0  0  0  0  0
   -5.6529   24.4138  -28.1670 C   0  0  0  0  0  0  0  0  0  0  0  0
   -5.7930   23.4847  -29.1650 C   0  0  0  0  0  0  0  0  0  0  0  0
   -5.5433   23.8466  -30.4950 C   0  0  0  0  0  0  0  0  0  0  0  0
   -5.6791   22.9377  -31.4888 F   0  0  0  0  0  0  0  0  0  0  0  0
   -5.1592   25.1230  -30.8166 C   0  0  0  0  0  0  0  0  0  0  0  0
   -5.0221   26.0449  -29.8089 C   0  0  0  0  0  0  0  0  0  0  0  0
   -5.2692   25.6854  -28.4900 C   0  0  0  0  0  0  0  0  0  0  0  0
   -5.1156   26.6513  -27.5045 O   0  0  0  0  0  0  0  0  0  0  0  0
   -5.2508   26.5289  -26.5251 H   0  0  0  0  0  0  0  0  0  0  0  0
   -6.9870   23.1151  -22.9167 N   0  0  0  0  0  0  0  0  0  0  0  0
   -7.1376   22.0800  -22.7153 H   0  0  0  0  0  0  0  0  0  0  0  0
   -7.1703   24.0340  -21.8314 C   0  0  0  0  0  0  0  0  0  0  0  0
   -8.6313   24.2542  -21.5938 C   0  0  0  0  0  0  0  0  0  0  0  0
   -9.3115   25.2500  -22.2606 C   0  0  0  0  0  0  0  0  0  0  0  0
  -10.6502   25.4475  -22.0410 C   0  0  0  0  0  0  0  0  0  0  0  0
  -11.3457   24.6575  -21.1507 C   0  0  0  0  0  0  0  0  0  0  0  0
  -10.6610   23.6433  -20.4691 C   0  0  0  0  0  0  0  0  0  0  0  0
   -9.3262   23.4670  -20.7060 C   0  0  0  0  0  0  0  0  0  0  0  0
   -6.5472   25.3913  -22.0564 C   0  0  0  0  0  0  0  0  0  0  0  0
   -5.2983   25.4262  -21.4000 O   0  0  0  0  0  0  0  0  0  0  0  0
   -4.6072   25.8313  -22.0179 H   0  0  0  0  0  0  0  0  0  0  0  0
  7  8  1  0  0  0
  8  9  2  0  0  0
  9 10  1  0  0  0
 10 11  1  0  0  0
 11 12  2  0  0  0
 12 13  1  0  0  0
 13 14  2  0  0  0
 14 15  1  0  0  0
 15 16  2  0  0  0
 14  1  1  0  0  0
  1  2  2  0  0  0
  2  3  1  0  0  0
  3 27  1  0  0  0
 27 29  1  0  0  0
 29 36  1  0  0  0
 36 37  1  0  0  0
 29 30  1  0  0  0
 30 31  2  0  0  0
 31 32  1  0  0  0
 32 33  2  0  0  0
 33 34  1  0  0  0
 34 35  2  0  0  0
  3  4  2  0  0  0
  4  5  1  0  0  0
  5  6  2  0  0  0
  6 18  1  0  0  0
 18 19  2  0  0  0
 19 20  1  0  0  0
 20 21  1  0  0  0
 20 22  2  0  0  0
 22 23  1  0  0  0
 23 24  2  0  0  0
 24 25  1  0  0  0
 16  8  1  0  0  0
  6  1  1  0  0  0
 24 18  1  0  0  0
 16 11  1  0  0  0
 35 30  1  0  0  0
 10 17  1  0  0  0
 27 28  1  0  0  0
 37 38  1  0  0  0
 25 26  1  0  0  0
M  END
> <minimizedAffinity>
-11.24009

> <CNNscore>
0.7521914840

> <CNNaffinity>
7.6898851395

> <CNN_VS>
5.7842659950

> <CNNaffinity_variance>
0.0937832221

$$$$
[H]Oc1c([H])c([H])c(F)c([H])c1-c1nc([H])c(N([H])[C@]([H])(c2c([H])c([H])c([H])c([H])c2[H])C([H])([H])O[H])c([H])c1-c1c([H])c([H])c2c(c(C([H])([H])[H])nn2[H])c1[H]


 38 42  0  0  0  0  0  0  0  0999 V2000
   -5.0292   23.6410  -25.8860 C   0  0  0  0  0  0  0  0  0  0  0  0
   -5.3972   23.4286  -24.5721 C   0  0  0  0  0  0  0  0  0  0  0  0
   -6.6799   23.7826  -24.1266 C   0  0  0  0  0  0  0  0  0  0  0  0
   -7.5574   24.3441  -25.0294 C   0  0  0  0  0  0  0  0  0  0  0  0
   -7.1961   24.5450  -26.2904 N   0  0  0  0  0  0  0  0  0  0  0  0
   -5.9477   24.1999  -26.7224 C   0  0  0  0  0  0  0  0  0  0  0  0
   -0.2759   21.8567  -23.7238 C   0  0  0  0  0  0  0  0  0  0  0  0
   -0.3421   22.0564  -25.1852 C   0  0  0  0  0  0  0  0  0  0  0  0
    0.5724   21.8832  -26.1494 N   0  0  0  0  0  0  0  0  0  0  0  0
    0.0845   22.1858  -27.3501 N   0  0  0  0  0  0  0  0  0  0  0  0
   -1.2017   22.5804  -27.2238 C   0  0  0  0  0  0  0  0  0  0  0  0
   -2.1602   22.9994  -28.1391 C   0  0  0  0  0  0  0  0  0  0  0  0
   -3.4227   23.3513  -27.7174 C   0  0  0  0  0  0  0  0  0  0  0  0
   -3.7097   23.2777  -26.3753 C   0  0  0  0  0  0  0  0  0  0  0  0
   -2.7254   22.8509  -25.4648 C   0  0  0  0  0  0  0  0  0  0  0  0
   -1.4758   22.5027  -25.8779 C   0  0  0  0  0  0  0  0  0  0  0  0
    0.5729   22.1449  -28.2857 H   0  0  0  0  0  0  0  0  0  0  0  0
   -5.6662   24.4464  -28.1116 C   0  0  0  0  0  0  0  0  0  0  0  0
   -5.7856   23.4392  -29.0337 C   0  0  0  0  0  0  0  0  0  0  0  0
   -5.5208   23.6959  -30.3851 C   0  0  0  0  0  0  0  0  0  0  0  0
   -5.6361   22.7092  -31.3045 F   0  0  0  0  0  0  0  0  0  0  0  0
   -5.1421   24.9457  -30.8028 C   0  0  0  0  0  0  0  0  0  0  0  0
   -5.0258   25.9464  -29.8704 C   0  0  0  0  0  0  0  0  0  0  0  0
   -5.2880   25.6914  -28.5303 C   0  0  0  0  0  0  0  0  0  0  0  0
   -5.1551   26.7343  -27.6234 O   0  0  0  0  0  0  0  0  0  0  0  0
   -5.3026   26.6894  -26.6392 H   0  0  0  0  0  0  0  0  0  0  0  0
   -7.0589   23.5713  -22.7892 N   0  0  0  0  0  0  0  0  0  0  0  0
   -7.5039   22.6268  -22.5782 H   0  0  0  0  0  0  0  0  0  0  0  0
   -6.9045   24.4886  -21.6982 C   0  0  0  0  0  0  0  0  0  0  0  0
   -6.8095   23.7337  -20.4096 C   0  0  0  0  0  0  0  0  0  0  0  0
   -6.8886   22.3582  -20.3912 C   0  0  0  0  0  0  0  0  0  0  0  0
   -6.7997   21.6703  -19.2086 C   0  0  0  0  0  0  0  0  0  0  0  0
   -6.6297   22.3361  -18.0135 C   0  0  0  0  0  0  0  0  0  0  0  0
   -6.5485   23.7344  -18.0242 C   0  0  0  0  0  0  0  0  0  0  0  0
   -6.6401   24.3965  -19.2168 C   0  0  0  0  0  0  0  0  0  0  0  0
   -8.0389   25.4751  -21.5525 C   0  0  0  0  0  0  0  0  0  0  0  0
   -7.5476   26.7684  -21.8315 O   0  0  0  0  0  0  0  0  0  0  0  0
   -8.1961   27.2477  -22.4424 H   0  0  0  0  0  0  0  0  0  0  0  0
  7  8  1  0  0  0
  8  9  2  0  0  0
  9 10  1  0  0  0
 10 11  1  0  0  0
 11 12  2  0  0  0
 12 13  1  0  0  0
 13 14  2  0  0  0
 14 15  1  0  0  0
 15 16  2  0  0  0
 14  1  1  0  0  0
  1  2  2  0  0  0
  2  3  1  0  0  0
  3 27  1  0  0  0
 27 29  1  0  0  0
 29 36  1  0  0  0
 36 37  1  0  0  0
 29 30  1  0  0  0
 30 31  2  0  0  0
 31 32  1  0  0  0
 32 33  2  0  0  0
 33 34  1  0  0  0
 34 35  2  0  0  0
  3  4  2  0  0  0
  4  5  1  0  0  0
  5  6  2  0  0  0
  6 18  1  0  0  0
 18 19  2  0  0  0
 19 20  1  0  0  0
 20 21  1  0  0  0
 20 22  2  0  0  0
 22 23  1  0  0  0
 23 24  2  0  0  0
 24 25  1  0  0  0
 16  8  1  0  0  0
  6  1  1  0  0  0
 24 18  1  0  0  0
 16 11  1  0  0  0
 35 30  1  0  0  0
 10 17  1  0  0  0
 27 28  1  0  0  0
 37 38  1  0  0  0
 25 26  1  0  0  0
M  END
> <minimizedAffinity>
-10.59367

> <CNNscore>
0.7277430296

> <CNNaffinity>
7.6777343750

> <CNN_VS>
5.5874176025

> <CNNaffinity_variance>
0.1624212861

$$$$
[H]Oc1c([H])c([H])c(F)c([H])c1-c1nc([H])c(N([H])[C@]([H])(c2c([H])c([H])c([H])c([H])c2[H])C([H])([H])O[H])c([H])c1-c1c([H])c([H])c2c(c(C([H])([H])[H])nn2[H])c1[H]


 38 42  0  0  0  0  0  0  0  0999 V2000
   -5.0567   23.6018  -25.3632 C   0  0  0  0  0  0  0  0  0  0  0  0
   -5.4519   23.6102  -24.0401 C   0  0  0  0  0  0  0  0  0  0  0  0
   -6.7276   24.0716  -23.6816 C   0  0  0  0  0  0  0  0  0  0  0  0
   -7.5708   24.5132  -24.6788 C   0  0  0  0  0  0  0  0  0  0  0  0
   -7.1837   24.5019  -25.9480 N   0  0  0  0  0  0  0  0  0  0  0  0
   -5.9420   24.0525  -26.2952 C   0  0  0  0  0  0  0  0  0  0  0  0
   -1.5715   24.4176  -29.5634 C   0  0  0  0  0  0  0  0  0  0  0  0
   -1.1672   23.4786  -28.4982 C   0  0  0  0  0  0  0  0  0  0  0  0
   -0.0609   22.7398  -28.3358 N   0  0  0  0  0  0  0  0  0  0  0  0
   -0.1089   22.0218  -27.2163 N   0  0  0  0  0  0  0  0  0  0  0  0
   -1.2762   22.2632  -26.5798 C   0  0  0  0  0  0  0  0  0  0  0  0
   -1.8278   21.7874  -25.3959 C   0  0  0  0  0  0  0  0  0  0  0  0
   -3.0683   22.2165  -24.9808 C   0  0  0  0  0  0  0  0  0  0  0  0
   -3.7438   23.1230  -25.7626 C   0  0  0  0  0  0  0  0  0  0  0  0
   -3.1681   23.5924  -26.9576 C   0  0  0  0  0  0  0  0  0  0  0  0
   -1.9419   23.1700  -27.3717 C   0  0  0  0  0  0  0  0  0  0  0  0
    0.6149   21.3544  -26.8338 H   0  0  0  0  0  0  0  0  0  0  0  0
   -5.6310   24.0687  -27.6998 C   0  0  0  0  0  0  0  0  0  0  0  0
   -5.5380   22.8965  -28.4041 C   0  0  0  0  0  0  0  0  0  0  0  0
   -5.2471   22.9270  -29.7740 C   0  0  0  0  0  0  0  0  0  0  0  0
   -5.1535   21.7758  -30.4797 F   0  0  0  0  0  0  0  0  0  0  0  0
   -5.0530   24.1177  -30.4257 C   0  0  0  0  0  0  0  0  0  0  0  0
   -5.1485   25.2852  -29.7101 C   0  0  0  0  0  0  0  0  0  0  0  0
   -5.4365   25.2544  -28.3515 C   0  0  0  0  0  0  0  0  0  0  0  0
   -5.5211   26.4606  -27.6690 O   0  0  0  0  0  0  0  0  0  0  0  0
   -5.7112   26.5832  -26.6988 H   0  0  0  0  0  0  0  0  0  0  0  0
   -7.1341   24.0852  -22.3357 N   0  0  0  0  0  0  0  0  0  0  0  0
   -6.3781   24.3305  -21.6266 H   0  0  0  0  0  0  0  0  0  0  0  0
   -8.4479   23.8078  -21.8332 C   0  0  0  0  0  0  0  0  0  0  0  0
   -9.1713   25.0907  -21.5674 C   0  0  0  0  0  0  0  0  0  0  0  0
  -10.3680   25.3674  -22.1919 C   0  0  0  0  0  0  0  0  0  0  0  0
  -11.0280   26.5432  -21.9447 C   0  0  0  0  0  0  0  0  0  0  0  0
  -10.5120   27.4739  -21.0684 C   0  0  0  0  0  0  0  0  0  0  0  0
   -9.2959   27.1997  -20.4298 C   0  0  0  0  0  0  0  0  0  0  0  0
   -8.6576   26.0199  -20.6937 C   0  0  0  0  0  0  0  0  0  0  0  0
   -8.4654   23.0136  -20.5486 C   0  0  0  0  0  0  0  0  0  0  0  0
   -9.0196   21.7431  -20.8139 O   0  0  0  0  0  0  0  0  0  0  0  0
   -8.4501   21.0317  -20.3745 H   0  0  0  0  0  0  0  0  0  0  0  0
  7  8  1  0  0  0
  8  9  2  0  0  0
  9 10  1  0  0  0
 10 11  1  0  0  0
 11 12  2  0  0  0
 12 13  1  0  0  0
 13 14  2  0  0  0
 14 15  1  0  0  0
 15 16  2  0  0  0
 14  1  1  0  0  0
  1  2  2  0  0  0
  2  3  1  0  0  0
  3 27  1  0  0  0
 27 29  1  0  0  0
 29 36  1  0  0  0
 36 37  1  0  0  0
 29 30  1  0  0  0
 30 31  2  0  0  0
 31 32  1  0  0  0
 32 33  2  0  0  0
 33 34  1  0  0  0
 34 35  2  0  0  0
  3  4  2  0  0  0
  4  5  1  0  0  0
  5  6  2  0  0  0
  6 18  1  0  0  0
 18 19  2  0  0  0
 19 20  1  0  0  0
 20 21  1  0  0  0
 20 22  2  0  0  0
 22 23  1  0  0  0
 23 24  2  0  0  0
 24 25  1  0  0  0
 16  8  1  0  0  0
  6  1  1  0  0  0
 24 18  1  0  0  0
 16 11  1  0  0  0
 35 30  1  0  0  0
 10 17  1  0  0  0
 27 28  1  0  0  0
 37 38  1  0  0  0
 25 26  1  0  0  0
M  END
> <minimizedAffinity>
-9.35933

> <CNNscore>
0.6280215979

> <CNNaffinity>
7.4184646606

> <CNN_VS>
4.6589560509

> <CNNaffinity_variance>
0.0643618554

$$$$
[H]Oc1c([H])c([H])c(F)c([H])c1-c1nc([H])c(N([H])[C@]([H])(c2c([H])c([H])c([H])c([H])c2[H])C([H])([H])O[H])c([H])c1-c1c([H])c([H])c2c(c(C([H])([H])[H])nn2[H])c1[H]


 38 42  0  0  0  0  0  0  0  0999 V2000
   -4.7144   23.7587  -25.0578 C   0  0  0  0  0  0  0  0  0  0  0  0
   -4.9728   23.8084  -23.7022 C   0  0  0  0  0  0  0  0  0  0  0  0
   -6.2011   24.2951  -23.2295 C   0  0  0  0  0  0  0  0  0  0  0  0
   -7.1373   24.7192  -24.1483 C   0  0  0  0  0  0  0  0  0  0  0  0
   -6.8814   24.6682  -25.4494 N   0  0  0  0  0  0  0  0  0  0  0  0
   -5.6858   24.1943  -25.9077 C   0  0  0  0  0  0  0  0  0  0  0  0
   -1.6657   24.4184  -29.6101 C   0  0  0  0  0  0  0  0  0  0  0  0
   -1.1645   23.5033  -28.5655 C   0  0  0  0  0  0  0  0  0  0  0  0
   -0.0546   22.7555  -28.4953 N   0  0  0  0  0  0  0  0  0  0  0  0
    0.0043   22.0684  -27.3571 N   0  0  0  0  0  0  0  0  0  0  0  0
   -1.0900   22.3412  -26.6127 C   0  0  0  0  0  0  0  0  0  0  0  0
   -1.5231   21.9042  -25.3663 C   0  0  0  0  0  0  0  0  0  0  0  0
   -2.7109   22.3597  -24.8400 C   0  0  0  0  0  0  0  0  0  0  0  0
   -3.4535   23.2531  -25.5744 C   0  0  0  0  0  0  0  0  0  0  0  0
   -2.9975   23.6832  -26.8342 C   0  0  0  0  0  0  0  0  0  0  0  0
   -1.8238   23.2346  -27.3583 C   0  0  0  0  0  0  0  0  0  0  0  0
    0.7568   21.4026  -27.0313 H   0  0  0  0  0  0  0  0  0  0  0  0
   -5.5191   24.1680  -27.3365 C   0  0  0  0  0  0  0  0  0  0  0  0
   -5.4918   22.9749  -28.0106 C   0  0  0  0  0  0  0  0  0  0  0  0
   -5.3418   22.9639  -29.4033 C   0  0  0  0  0  0  0  0  0  0  0  0
   -5.3141   21.7917  -30.0796 F   0  0  0  0  0  0  0  0  0  0  0  0
   -5.2213   24.1344  -30.1072 C   0  0  0  0  0  0  0  0  0  0  0  0
   -5.2499   25.3232  -29.4214 C   0  0  0  0  0  0  0  0  0  0  0  0
   -5.3983   25.3335  -28.0403 C   0  0  0  0  0  0  0  0  0  0  0  0
   -5.4197   26.5600  -27.3897 O   0  0  0  0  0  0  0  0  0  0  0  0
   -5.5108   26.7119  -26.4094 H   0  0  0  0  0  0  0  0  0  0  0  0
   -6.4683   24.3507  -21.8503 N   0  0  0  0  0  0  0  0  0  0  0  0
   -6.3045   25.2948  -21.3850 H   0  0  0  0  0  0  0  0  0  0  0  0
   -6.9355   23.2772  -21.0226 C   0  0  0  0  0  0  0  0  0  0  0  0
   -6.2427   23.3198  -19.6968 C   0  0  0  0  0  0  0  0  0  0  0  0
   -6.7263   24.1062  -18.6739 C   0  0  0  0  0  0  0  0  0  0  0  0
   -6.0894   24.1413  -17.4603 C   0  0  0  0  0  0  0  0  0  0  0  0
   -4.9536   23.3932  -17.2352 C   0  0  0  0  0  0  0  0  0  0  0  0
   -4.4559   22.5915  -18.2702 C   0  0  0  0  0  0  0  0  0  0  0  0
   -5.1096   22.5742  -19.4708 C   0  0  0  0  0  0  0  0  0  0  0  0
   -6.7028   21.9017  -21.6014 C   0  0  0  0  0  0  0  0  0  0  0  0
   -7.9538   21.2755  -21.7874 O   0  0  0  0  0  0  0  0  0  0  0  0
   -7.9781   20.8421  -22.7013 H   0  0  0  0  0  0  0  0  0  0  0  0
  7  8  1  0  0  0
  8  9  2  0  0  0
  9 10  1  0  0  0
 10 11  1  0  0  0
 11 12  2  0  0  0
 12 13  1  0  0  0
 13 14  2  0  0  0
 14 15  1  0  0  0
 15 16  2  0  0  0
 14  1  1  0  0  0
  1  2  2  0  0  0
  2  3  1  0  0  0
  3 27  1  0  0  0
 27 29  1  0  0  0
 29 36  1  0  0  0
 36 37  1  0  0  0
 29 30  1  0  0  0
 30 31  2  0  0  0
 31 32  1  0  0  0
 32 33  2  0  0  0
 33 34  1  0  0  0
 34 35  2  0  0  0
  3  4  2  0  0  0
  4  5  1  0  0  0
  5  6  2  0  0  0
  6 18  1  0  0  0
 18 19  2  0  0  0
 19 20  1  0  0  0
 20 21  1  0  0  0
 20 22  2  0  0  0
 22 23  1  0  0  0
 23 24  2  0  0  0
 24 25  1  0  0  0
 16  8  1  0  0  0
  6  1  1  0  0  0
 24 18  1  0  0  0
 16 11  1  0  0  0
 35 30  1  0  0  0
 10 17  1  0  0  0
 27 28  1  0  0  0
 37 38  1  0  0  0
 25 26  1  0  0  0
M  END
> <minimizedAffinity>
-8.88888

> <CNNscore>
0.5948147774

> <CNNaffinity>
7.3488755226

> <CNN_VS>
4.3712196350

> <CNNaffinity_variance>
0.1255113780

$$$$
[H]Oc1c([H])c([H])c(F)c([H])c1-c1nc([H])c(N([H])[C@]([H])(c2c([H])c([H])c([H])c([H])c2[H])C([H])([H])O[H])c([H])c1-c1c([H])c([H])c2c(c(C([H])([H])[H])nn2[H])c1[H]


 38 42  0  0  0  0  0  0  0  0999 V2000
   -3.3313   22.4368  -23.0541 C   0  0  0  0  0  0  0  0  0  0  0  0
   -3.2800   21.6659  -21.9095 C   0  0  0  0  0  0  0  0  0  0  0  0
   -4.3787   21.6116  -21.0385 C   0  0  0  0  0  0  0  0  0  0  0  0
   -5.5038   22.3433  -21.3536 C   0  0  0  0  0  0  0  0  0  0  0  0
   -5.5454   23.0817  -22.4554 N   0  0  0  0  0  0  0  0  0  0  0  0
   -4.4754   23.1333  -23.3020 C   0  0  0  0  0  0  0  0  0  0  0  0
   -2.6166   22.7506  -28.5170 C   0  0  0  0  0  0  0  0  0  0  0  0
   -1.4145   22.7207  -27.6602 C   0  0  0  0  0  0  0  0  0  0  0  0
   -0.1083   22.7549  -27.9579 N   0  0  0  0  0  0  0  0  0  0  0  0
    0.6471   22.7053  -26.8634 N   0  0  0  0  0  0  0  0  0  0  0  0
   -0.1487   22.6344  -25.7735 C   0  0  0  0  0  0  0  0  0  0  0  0
    0.1131   22.5619  -24.4103 C   0  0  0  0  0  0  0  0  0  0  0  0
   -0.9201   22.4967  -23.5027 C   0  0  0  0  0  0  0  0  0  0  0  0
   -2.2103   22.5055  -23.9766 C   0  0  0  0  0  0  0  0  0  0  0  0
   -2.4541   22.5795  -25.3604 C   0  0  0  0  0  0  0  0  0  0  0  0
   -1.4351   22.6436  -26.2610 C   0  0  0  0  0  0  0  0  0  0  0  0
    1.7009   22.7159  -26.7929 H   0  0  0  0  0  0  0  0  0  0  0  0
   -4.6329   23.9516  -24.4748 C   0  0  0  0  0  0  0  0  0  0  0  0
   -5.1618   23.4238  -25.6239 C   0  0  0  0  0  0  0  0  0  0  0  0
   -5.3216   24.2348  -26.7549 C   0  0  0  0  0  0  0  0  0  0  0  0
   -5.8433   23.7246  -27.8949 F   0  0  0  0  0  0  0  0  0  0  0  0
   -4.9556   25.5560  -26.7306 C   0  0  0  0  0  0  0  0  0  0  0  0
   -4.4271   26.0735  -25.5742 C   0  0  0  0  0  0  0  0  0  0  0  0
   -4.2683   25.2688  -24.4532 C   0  0  0  0  0  0  0  0  0  0  0  0
   -3.7276   25.8359  -23.3069 O   0  0  0  0  0  0  0  0  0  0  0  0
   -3.5521   25.3754  -22.4411 H   0  0  0  0  0  0  0  0  0  0  0  0
   -4.3308   20.8307  -19.8702 N   0  0  0  0  0  0  0  0  0  0  0  0
   -3.4291   20.2854  -19.7150 H   0  0  0  0  0  0  0  0  0  0  0  0
   -5.3611   20.7014  -18.8815 C   0  0  0  0  0  0  0  0  0  0  0  0
   -4.9991   21.4935  -17.6645 C   0  0  0  0  0  0  0  0  0  0  0  0
   -5.0756   20.9308  -16.4090 C   0  0  0  0  0  0  0  0  0  0  0  0
   -4.7418   21.6595  -15.2968 C   0  0  0  0  0  0  0  0  0  0  0  0
   -4.3232   22.9683  -15.4073 C   0  0  0  0  0  0  0  0  0  0  0  0
   -4.2431   23.5472  -16.6803 C   0  0  0  0  0  0  0  0  0  0  0  0
   -4.5816   22.7991  -17.7733 C   0  0  0  0  0  0  0  0  0  0  0  0
   -5.6120   19.2823  -18.4296 C   0  0  0  0  0  0  0  0  0  0  0  0
   -4.5264   18.4810  -18.8431 O   0  0  0  0  0  0  0  0  0  0  0  0
   -4.2397   17.8854  -18.0772 H   0  0  0  0  0  0  0  0  0  0  0  0
  7  8  1  0  0  0
  8  9  2  0  0  0
  9 10  1  0  0  0
 10 11  1  0  0  0
 11 12  2  0  0  0
 12 13  1  0  0  0
 13 14  2  0  0  0
 14 15  1  0  0  0
 15 16  2  0  0  0
 14  1  1  0  0  0
  1  2  2  0  0  0
  2  3  1  0  0  0
  3 27  1  0  0  0
 27 29  1  0  0  0
 29 36  1  0  0  0
 36 37  1  0  0  0
 29 30  1  0  0  0
 30 31  2  0  0  0
 31 32  1  0  0  0
 32 33  2  0  0  0
 33 34  1  0  0  0
 34 35  2  0  0  0
  3  4  2  0  0  0
  4  5  1  0  0  0
  5  6  2  0  0  0
  6 18  1  0  0  0
 18 19  2  0  0  0
 19 20  1  0  0  0
 20 21  1  0  0  0
 20 22  2  0  0  0
 22 23  1  0  0  0
 23 24  2  0  0  0
 24 25  1  0  0  0
 16  8  1  0  0  0
  6  1  1  0  0  0
 24 18  1  0  0  0
 16 11  1  0  0  0
 35 30  1  0  0  0
 10 17  1  0  0  0
 27 28  1  0  0  0
 37 38  1  0  0  0
 25 26  1  0  0  0
M  END
> <minimizedAffinity>
-8.82605

> <CNNscore>
0.5414732695

> <CNNaffinity>
6.9664673805

> <CNN_VS>
3.7721557617

> <CNNaffinity_variance>
0.1110734567

$$$$
[H]Oc1c([H])c([H])c(F)c([H])c1-c1nc([H])c(N([H])[C@]([H])(c2c([H])c([H])c([H])c([H])c2[H])C([H])([H])O[H])c([H])c1-c1c([H])c([H])c2c(c(C([H])([H])[H])nn2[H])c1[H]


 38 42  0  0  0  0  0  0  0  0999 V2000
   -4.5748   22.8559  -23.2103 C   0  0  0  0  0  0  0  0  0  0  0  0
   -4.8250   21.9773  -22.1748 C   0  0  0  0  0  0  0  0  0  0  0  0
   -6.0106   22.0740  -21.4306 C   0  0  0  0  0  0  0  0  0  0  0  0
   -6.9135   23.0628  -21.7586 C   0  0  0  0  0  0  0  0  0  0  0  0
   -6.6657   23.9033  -22.7551 N   0  0  0  0  0  0  0  0  0  0  0  0
   -5.5116   23.8078  -23.4784 C   0  0  0  0  0  0  0  0  0  0  0  0
   -3.2401   22.8111  -28.5647 C   0  0  0  0  0  0  0  0  0  0  0  0
   -2.1473   22.7188  -27.5761 C   0  0  0  0  0  0  0  0  0  0  0  0
   -0.8192   22.6191  -27.7243 N   0  0  0  0  0  0  0  0  0  0  0  0
   -0.1962   22.5602  -26.5498 N   0  0  0  0  0  0  0  0  0  0  0  0
   -1.1095   22.6198  -25.5556 C   0  0  0  0  0  0  0  0  0  0  0  0
   -1.0066   22.5970  -24.1696 C   0  0  0  0  0  0  0  0  0  0  0  0
   -2.1344   22.6740  -23.3836 C   0  0  0  0  0  0  0  0  0  0  0  0
   -3.3582   22.7738  -24.0013 C   0  0  0  0  0  0  0  0  0  0  0  0
   -3.4409   22.7953  -25.4057 C   0  0  0  0  0  0  0  0  0  0  0  0
   -2.3281   22.7188  -26.1863 C   0  0  0  0  0  0  0  0  0  0  0  0
    0.8397   22.4794  -26.3602 H   0  0  0  0  0  0  0  0  0  0  0  0
   -5.3512   24.7586  -24.5461 C   0  0  0  0  0  0  0  0  0  0  0  0
   -4.5497   25.8584  -24.3821 C   0  0  0  0  0  0  0  0  0  0  0  0
   -4.3920   26.7697  -25.4343 C   0  0  0  0  0  0  0  0  0  0  0  0
   -3.6026   27.8589  -25.2839 F   0  0  0  0  0  0  0  0  0  0  0  0
   -5.0300   26.5779  -26.6327 C   0  0  0  0  0  0  0  0  0  0  0  0
   -5.8301   25.4730  -26.7854 C   0  0  0  0  0  0  0  0  0  0  0  0
   -5.9866   24.5698  -25.7416 C   0  0  0  0  0  0  0  0  0  0  0  0
   -6.8075   23.4680  -25.9418 O   0  0  0  0  0  0  0  0  0  0  0  0
   -7.0136   22.7517  -25.2809 H   0  0  0  0  0  0  0  0  0  0  0  0
   -6.2692   21.1839  -20.3734 N   0  0  0  0  0  0  0  0  0  0  0  0
   -7.0304   20.4608  -20.5531 H   0  0  0  0  0  0  0  0  0  0  0  0
   -5.6159   21.1540  -19.0975 C   0  0  0  0  0  0  0  0  0  0  0  0
   -6.3718   20.2647  -18.1607 C   0  0  0  0  0  0  0  0  0  0  0  0
   -7.5127   19.6123  -18.5748 C   0  0  0  0  0  0  0  0  0  0  0  0
   -8.2014   18.7974  -17.7138 C   0  0  0  0  0  0  0  0  0  0  0  0
   -7.7705   18.6119  -16.4176 C   0  0  0  0  0  0  0  0  0  0  0  0
   -6.6116   19.2718  -15.9894 C   0  0  0  0  0  0  0  0  0  0  0  0
   -5.9432   20.0788  -16.8675 C   0  0  0  0  0  0  0  0  0  0  0  0
   -5.4972   22.5036  -18.4300 C   0  0  0  0  0  0  0  0  0  0  0  0
   -4.1791   22.9766  -18.6052 O   0  0  0  0  0  0  0  0  0  0  0  0
   -4.2072   23.9479  -18.8870 H   0  0  0  0  0  0  0  0  0  0  0  0
  7  8  1  0  0  0
  8  9  2  0  0  0
  9 10  1  0  0  0
 10 11  1  0  0  0
 11 12  2  0  0  0
 12 13  1  0  0  0
 13 14  2  0  0  0
 14 15  1  0  0  0
 15 16  2  0  0  0
 14  1  1  0  0  0
  1  2  2  0  0  0
  2  3  1  0  0  0
  3 27  1  0  0  0
 27 29  1  0  0  0
 29 36  1  0  0  0
 36 37  1  0  0  0
 29 30  1  0  0  0
 30 31  2  0  0  0
 31 32  1  0  0  0
 32 33  2  0  0  0
 33 34  1  0  0  0
 34 35  2  0  0  0
  3  4  2  0  0  0
  4  5  1  0  0  0
  5  6  2  0  0  0
  6 18  1  0  0  0
 18 19  2  0  0  0
 19 20  1  0  0  0
 20 21  1  0  0  0
 20 22  2  0  0  0
 22 23  1  0  0  0
 23 24  2  0  0  0
 24 25  1  0  0  0
 16  8  1  0  0  0
  6  1  1  0  0  0
 24 18  1  0  0  0
 16 11  1  0  0  0
 35 30  1  0  0  0
 10 17  1  0  0  0
 27 28  1  0  0  0
 37 38  1  0  0  0
 25 26  1  0  0  0
M  END
> <minimizedAffinity>
-8.16139

> <CNNscore>
0.4725211859

> <CNNaffinity>
6.9558115005

> <CNN_VS>
3.2867681980

> <CNNaffinity_variance>
0.2637958229

$$$$
[H]Oc1c([H])c([H])c(F)c([H])c1-c1nc([H])c(N([H])[C@]([H])(c2c([H])c([H])c([H])c([H])c2[H])C([H])([H])O[H])c([H])c1-c1c([H])c([H])c2c(c(C([H])([H])[H])nn2[H])c1[H]


 38 42  0  0  0  0  0  0  0  0999 V2000
   -4.2730   22.7007  -23.0621 C   0  0  0  0  0  0  0  0  0  0  0  0
   -4.2398   21.6934  -22.1180 C   0  0  0  0  0  0  0  0  0  0  0  0
   -4.9835   21.8041  -20.9333 C   0  0  0  0  0  0  0  0  0  0  0  0
   -5.7436   22.9375  -20.7380 C   0  0  0  0  0  0  0  0  0  0  0  0
   -5.7702   23.9011  -21.6500 N   0  0  0  0  0  0  0  0  0  0  0  0
   -5.0461   23.7918  -22.8023 C   0  0  0  0  0  0  0  0  0  0  0  0
    1.0070   22.0475  -24.5276 C   0  0  0  0  0  0  0  0  0  0  0  0
   -0.0003   22.1753  -25.5995 C   0  0  0  0  0  0  0  0  0  0  0  0
    0.1148   22.1656  -26.9347 N   0  0  0  0  0  0  0  0  0  0  0  0
   -1.0656   22.3137  -27.5312 N   0  0  0  0  0  0  0  0  0  0  0  0
   -2.0300   22.4301  -26.5918 C   0  0  0  0  0  0  0  0  0  0  0  0
   -3.4074   22.6022  -26.6621 C   0  0  0  0  0  0  0  0  0  0  0  0
   -4.1600   22.6928  -25.5127 C   0  0  0  0  0  0  0  0  0  0  0  0
   -3.5179   22.6086  -24.3004 C   0  0  0  0  0  0  0  0  0  0  0  0
   -2.1225   22.4342  -24.2509 C   0  0  0  0  0  0  0  0  0  0  0  0
   -1.3749   22.3449  -25.3851 C   0  0  0  0  0  0  0  0  0  0  0  0
   -1.2785   22.3436  -28.5653 H   0  0  0  0  0  0  0  0  0  0  0  0
   -5.1595   24.8861  -23.7293 C   0  0  0  0  0  0  0  0  0  0  0  0
   -4.1777   25.8399  -23.8014 C   0  0  0  0  0  0  0  0  0  0  0  0
   -4.2944   26.8933  -24.7174 C   0  0  0  0  0  0  0  0  0  0  0  0
   -3.3308   27.8404  -24.7978 F   0  0  0  0  0  0  0  0  0  0  0  0
   -5.3812   26.9859  -25.5483 C   0  0  0  0  0  0  0  0  0  0  0  0
   -6.3581   26.0251  -25.4672 C   0  0  0  0  0  0  0  0  0  0  0  0
   -6.2423   24.9810  -24.5583 C   0  0  0  0  0  0  0  0  0  0  0  0
   -7.2563   24.0337  -24.5110 O   0  0  0  0  0  0  0  0  0  0  0  0
   -7.3049   23.2438  -23.9059 H   0  0  0  0  0  0  0  0  0  0  0  0
   -4.9511   20.7829  -19.9674 N   0  0  0  0  0  0  0  0  0  0  0  0
   -4.6617   19.8207  -20.3209 H   0  0  0  0  0  0  0  0  0  0  0  0
   -5.2625   20.9097  -18.5736 C   0  0  0  0  0  0  0  0  0  0  0  0
   -4.2840   20.1213  -17.7609 C   0  0  0  0  0  0  0  0  0  0  0  0
   -4.0676   18.7854  -18.0197 C   0  0  0  0  0  0  0  0  0  0  0  0
   -3.1692   18.0671  -17.2737 C   0  0  0  0  0  0  0  0  0  0  0  0
   -2.4633   18.6622  -16.2500 C   0  0  0  0  0  0  0  0  0  0  0  0
   -2.6780   20.0199  -15.9808 C   0  0  0  0  0  0  0  0  0  0  0  0
   -3.5793   20.7136  -16.7394 C   0  0  0  0  0  0  0  0  0  0  0  0
   -6.6431   20.4243  -18.2001 C   0  0  0  0  0  0  0  0  0  0  0  0
   -7.1398   19.6291  -19.2549 O   0  0  0  0  0  0  0  0  0  0  0  0
   -7.5516   18.7873  -18.8737 H   0  0  0  0  0  0  0  0  0  0  0  0
  7  8  1  0  0  0
  8  9  2  0  0  0
  9 10  1  0  0  0
 10 11  1  0  0  0
 11 12  2  0  0  0
 12 13  1  0  0  0
 13 14  2  0  0  0
 14 15  1  0  0  0
 15 16  2  0  0  0
 14  1  1  0  0  0
  1  2  2  0  0  0
  2  3  1  0  0  0
  3 27  1  0  0  0
 27 29  1  0  0  0
 29 36  1  0  0  0
 36 37  1  0  0  0
 29 30  1  0  0  0
 30 31  2  0  0  0
 31 32  1  0  0  0
 32 33  2  0  0  0
 33 34  1  0  0  0
 34 35  2  0  0  0
  3  4  2  0  0  0
  4  5  1  0  0  0
  5  6  2  0  0  0
  6 18  1  0  0  0
 18 19  2  0  0  0
 19 20  1  0  0  0
 20 21  1  0  0  0
 20 22  2  0  0  0
 22 23  1  0  0  0
 23 24  2  0  0  0
 24 25  1  0  0  0
 16  8  1  0  0  0
  6  1  1  0  0  0
 24 18  1  0  0  0
 16 11  1  0  0  0
 35 30  1  0  0  0
 10 17  1  0  0  0
 27 28  1  0  0  0
 37 38  1  0  0  0
 25 26  1  0  0  0
M  END
> <minimizedAffinity>
-7.96157

> <CNNscore>
0.4337580800

> <CNNaffinity>
6.8406686783

> <CNN_VS>
2.9671952724

> <CNNaffinity_variance>
0.1366133988

$$$$
[H]Oc1c([H])c([H])c(F)c([H])c1-c1nc([H])c(N([H])[C@]([H])(c2c([H])c([H])c([H])c([H])c2[H])C([H])([H])O[H])c([H])c1-c1c([H])c([H])c2c(c(C([H])([H])[H])nn2[H])c1[H]


 38 42  0  0  0  0  0  0  0  0999 V2000
   -4.1547   22.7190  -23.0079 C   0  0  0  0  0  0  0  0  0  0  0  0
   -4.0505   21.7089  -22.0719 C   0  0  0  0  0  0  0  0  0  0  0  0
   -4.7188   21.8071  -20.8420 C   0  0  0  0  0  0  0  0  0  0  0  0
   -5.4775   22.9312  -20.5944 C   0  0  0  0  0  0  0  0  0  0  0  0
   -5.5726   23.8974  -21.4989 N   0  0  0  0  0  0  0  0  0  0  0  0
   -4.9218   23.8003  -22.6952 C   0  0  0  0  0  0  0  0  0  0  0  0
    1.0363   22.2033  -24.8081 C   0  0  0  0  0  0  0  0  0  0  0  0
   -0.0411   22.2957  -25.8133 C   0  0  0  0  0  0  0  0  0  0  0  0
   -0.0121   22.2802  -27.1531 N   0  0  0  0  0  0  0  0  0  0  0  0
   -1.2321   22.3914  -27.6728 N   0  0  0  0  0  0  0  0  0  0  0  0
   -2.1369   22.4872  -26.6738 C   0  0  0  0  0  0  0  0  0  0  0  0
   -3.5204   22.6204  -26.6557 C   0  0  0  0  0  0  0  0  0  0  0  0
   -4.1996   22.6977  -25.4607 C   0  0  0  0  0  0  0  0  0  0  0  0
   -3.4786   22.6396  -24.2920 C   0  0  0  0  0  0  0  0  0  0  0  0
   -2.0785   22.5045  -24.3318 C   0  0  0  0  0  0  0  0  0  0  0  0
   -1.4033   22.4284  -25.5115 C   0  0  0  0  0  0  0  0  0  0  0  0
   -1.5120   22.4084  -28.6912 H   0  0  0  0  0  0  0  0  0  0  0  0
   -5.1060   24.8964  -23.6088 C   0  0  0  0  0  0  0  0  0  0  0  0
   -4.1171   25.8295  -23.7823 C   0  0  0  0  0  0  0  0  0  0  0  0
   -4.3042   26.8847  -24.6844 C   0  0  0  0  0  0  0  0  0  0  0  0
   -3.3343   27.8116  -24.8644 F   0  0  0  0  0  0  0  0  0  0  0  0
   -5.4674   26.9996  -25.4012 C   0  0  0  0  0  0  0  0  0  0  0  0
   -6.4507   26.0593  -25.2192 C   0  0  0  0  0  0  0  0  0  0  0  0
   -6.2649   25.0134  -24.3240 C   0  0  0  0  0  0  0  0  0  0  0  0
   -7.2884   24.0874  -24.1719 O   0  0  0  0  0  0  0  0  0  0  0  0
   -7.2917   23.2990  -23.5630 H   0  0  0  0  0  0  0  0  0  0  0  0
   -4.6139   20.7832  -19.8843 N   0  0  0  0  0  0  0  0  0  0  0  0
   -5.3211   19.9917  -19.9739 H   0  0  0  0  0  0  0  0  0  0  0  0
   -3.6602   20.7009  -18.8168 C   0  0  0  0  0  0  0  0  0  0  0  0
   -4.1816   21.4219  -17.6135 C   0  0  0  0  0  0  0  0  0  0  0  0
   -3.7796   22.7100  -17.3345 C   0  0  0  0  0  0  0  0  0  0  0  0
   -4.2607   23.3673  -16.2319 C   0  0  0  0  0  0  0  0  0  0  0  0
   -5.1551   22.7574  -15.3784 C   0  0  0  0  0  0  0  0  0  0  0  0
   -5.5684   21.4481  -15.6553 C   0  0  0  0  0  0  0  0  0  0  0  0
   -5.0737   20.8147  -16.7613 C   0  0  0  0  0  0  0  0  0  0  0  0
   -2.3118   21.2980  -19.1428 C   0  0  0  0  0  0  0  0  0  0  0  0
   -1.3173   20.5521  -18.4747 O   0  0  0  0  0  0  0  0  0  0  0  0
   -0.5569   20.3608  -19.1141 H   0  0  0  0  0  0  0  0  0  0  0  0
  7  8  1  0  0  0
  8  9  2  0  0  0
  9 10  1  0  0  0
 10 11  1  0  0  0
 11 12  2  0  0  0
 12 13  1  0  0  0
 13 14  2  0  0  0
 14 15  1  0  0  0
 15 16  2  0  0  0
 14  1  1  0  0  0
  1  2  2  0  0  0
  2  3  1  0  0  0
  3 27  1  0  0  0
 27 29  1  0  0  0
 29 36  1  0  0  0
 36 37  1  0  0  0
 29 30  1  0  0  0
 30 31  2  0  0  0
 31 32  1  0  0  0
 32 33  2  0  0  0
 33 34  1  0  0  0
 34 35  2  0  0  0
  3  4  2  0  0  0
  4  5  1  0  0  0
  5  6  2  0  0  0
  6 18  1  0  0  0
 18 19  2  0  0  0
 19 20  1  0  0  0
 20 21  1  0  0  0
 20 22  2  0  0  0
 22 23  1  0  0  0
 23 24  2  0  0  0
 24 25  1  0  0  0
 16  8  1  0  0  0
  6  1  1  0  0  0
 24 18  1  0  0  0
 16 11  1  0  0  0
 35 30  1  0  0  0
 10 17  1  0  0  0
 27 28  1  0  0  0
 37 38  1  0  0  0
 25 26  1  0  0  0
M  END
> <minimizedAffinity>
-8.22186

> <CNNscore>
0.3217642009

> <CNNaffinity>
6.7384757996

> <CNN_VS>
2.1682002544

> <CNNaffinity_variance>
0.1229894161

$$$$
[H]c1nc(N([H])[H])c2c(-c3sc4c(OC([H])([H])[H])c([H])c(C([H])([H])[H])c([H])c4c3[H])c(C([H])([H])OC([H])([H])C([H])([H])[H])c(C(=O)N3C([H])([H])C([H])([H])N(C([H])([H])[H])C([H])([H])C3([H])[H])n2n1


 37 41  0  0  0  0  0  0  0  0999 V2000
   -2.5145   21.5857  -22.3432 C   0  0  0  0  0  0  0  0  0  0  0  0
   -2.1881   21.8799  -23.6297 C   0  0  0  0  0  0  0  0  0  0  0  0
   -0.8167   21.7520  -23.7498 C   0  0  0  0  0  0  0  0  0  0  0  0
    0.0781   21.8880  -24.7807 C   0  0  0  0  0  0  0  0  0  0  0  0
   -0.2515   22.3145  -26.0818 N   0  0  0  0  0  0  0  0  0  0  0  0
    1.4164   21.6647  -24.6064 N   0  0  0  0  0  0  0  0  0  0  0  0
    1.8489   21.2990  -23.4002 C   0  0  0  0  0  0  0  0  0  0  0  0
    0.9549   21.1921  -22.4534 N   0  0  0  0  0  0  0  0  0  0  0  0
   -0.3517   21.3876  -22.5084 N   0  0  0  0  0  0  0  0  0  0  0  0
   -1.3831   21.2945  -21.6281 C   0  0  0  0  0  0  0  0  0  0  0  0
   -0.3695   21.5762  -26.8298 H   0  0  0  0  0  0  0  0  0  0  0  0
   -0.3610   23.3471  -26.2606 H   0  0  0  0  0  0  0  0  0  0  0  0
   -2.9580   22.5456  -24.6745 C   0  0  0  0  0  0  0  0  0  0  0  0
   -3.4751   22.1795  -25.8731 C   0  0  0  0  0  0  0  0  0  0  0  0
   -4.0602   23.1370  -26.6267 C   0  0  0  0  0  0  0  0  0  0  0  0
   -4.5558   22.9825  -27.9428 C   0  0  0  0  0  0  0  0  0  0  0  0
   -5.0392   24.0473  -28.6617 C   0  0  0  0  0  0  0  0  0  0  0  0
   -5.5325   23.8268  -30.0832 C   0  0  0  0  0  0  0  0  0  0  0  0
   -5.0631   25.3183  -28.1349 C   0  0  0  0  0  0  0  0  0  0  0  0
   -4.5897   25.4977  -26.8634 C   0  0  0  0  0  0  0  0  0  0  0  0
   -4.0945   24.3964  -26.1162 C   0  0  0  0  0  0  0  0  0  0  0  0
   -3.3316   24.2575  -24.6191 S   0  0  0  0  0  0  0  0  0  0  0  0
   -4.5359   26.6973  -26.2104 O   0  0  0  0  0  0  0  0  0  0  0  0
   -5.4242   27.1143  -25.2362 C   0  0  0  0  0  0  0  0  0  0  0  0
   -1.3072   21.0539  -20.2097 C   0  0  0  0  0  0  0  0  0  0  0  0
   -1.7578   21.9437  -19.4274 O   0  0  0  0  0  0  0  0  0  0  0  0
   -0.7603   19.9269  -19.5393 N   0  0  0  0  0  0  0  0  0  0  0  0
   -0.0823   18.7897  -20.0477 C   0  0  0  0  0  0  0  0  0  0  0  0
    0.9515   18.2620  -19.0345 C   0  0  0  0  0  0  0  0  0  0  0  0
    1.5120   19.2697  -18.2388 N   0  0  0  0  0  0  0  0  0  0  0  0
    2.8539   19.6573  -18.4767 C   0  0  0  0  0  0  0  0  0  0  0  0
    0.6338   20.2204  -17.6638 C   0  0  0  0  0  0  0  0  0  0  0  0
   -0.8206   19.9314  -18.0404 C   0  0  0  0  0  0  0  0  0  0  0  0
   -3.9966   21.6832  -21.9625 C   0  0  0  0  0  0  0  0  0  0  0  0
   -4.3890   22.7804  -21.4474 O   0  0  0  0  0  0  0  0  0  0  0  0
   -6.1941   24.1632  -22.1995 C   0  0  0  0  0  0  0  0  0  0  0  0
   -5.0264   23.8404  -21.2694 C   0  0  0  0  0  0  0  0  0  0  0  0
 36 37  1  0  0  0
 37 35  1  0  0  0
 35 34  1  0  0  0
 34  1  1  0  0  0
  1  2  1  0  0  0
  2 13  1  0  0  0
 13 14  2  0  0  0
 14 15  1  0  0  0
 15 16  2  0  0  0
 16 17  1  0  0  0
 17 18  1  0  0  0
 17 19  2  0  0  0
 19 20  1  0  0  0
 20 23  1  0  0  0
 23 24  1  0  0  0
 20 21  2  0  0  0
 21 22  1  0  0  0
  2  3  2  0  0  0
  3  4  1  0  0  0
  4  5  1  0  0  0
  4  6  2  0  0  0
  6  7  1  0  0  0
  7  8  2  0  0  0
  8  9  1  0  0  0
  9 10  1  0  0  0
 10 25  1  0  0  0
 25 26  2  0  0  0
 25 27  1  0  0  0
 27 28  1  0  0  0
 28 29  1  0  0  0
 29 30  1  0  0  0
 30 31  1  0  0  0
 30 32  1  0  0  0
 32 33  1  0  0  0
 10  1  2  0  0  0
 33 27  1  0  0  0
 22 13  1  0  0  0
  9  3  1  0  0  0
 21 15  1  0  0  0
  5 11  1  0  0  0
  5 12  1  0  0  0
M  END
> <minimizedAffinity>
-7.73897

> <CNNscore>
0.5329597592

> <CNNaffinity>
7.2029037476

> <CNN_VS>
3.8388578892

> <CNNaffinity_variance>
0.4869261682

$$$$
[H]c1nc(N([H])[H])c2c(-c3sc4c(OC([H])([H])[H])c([H])c(C([H])([H])[H])c([H])c4c3[H])c(C([H])([H])OC([H])([H])C([H])([H])[H])c(C(=O)N3C([H])([H])C([H])([H])N(C([H])([H])[H])C([H])([H])C3([H])[H])n2n1


 37 41  0  0  0  0  0  0  0  0999 V2000
   -2.3626   21.4712  -22.3742 C   0  0  0  0  0  0  0  0  0  0  0  0
   -2.0244   21.8217  -23.6434 C   0  0  0  0  0  0  0  0  0  0  0  0
   -0.6527   21.6927  -23.7584 C   0  0  0  0  0  0  0  0  0  0  0  0
    0.2510   21.8710  -24.7750 C   0  0  0  0  0  0  0  0  0  0  0  0
   -0.0662   22.3575  -26.0579 N   0  0  0  0  0  0  0  0  0  0  0  0
    1.5869   21.6336  -24.6004 N   0  0  0  0  0  0  0  0  0  0  0  0
    2.0080   21.2116  -23.4086 C   0  0  0  0  0  0  0  0  0  0  0  0
    1.1059   21.0663  -22.4747 N   0  0  0  0  0  0  0  0  0  0  0  0
   -0.1994   21.2703  -22.5312 N   0  0  0  0  0  0  0  0  0  0  0  0
   -1.2383   21.1424  -21.6641 C   0  0  0  0  0  0  0  0  0  0  0  0
   -0.1813   21.6544  -26.8395 H   0  0  0  0  0  0  0  0  0  0  0  0
   -0.1696   23.3977  -26.1907 H   0  0  0  0  0  0  0  0  0  0  0  0
   -2.7829   22.5377  -24.6630 C   0  0  0  0  0  0  0  0  0  0  0  0
   -3.2547   22.2421  -25.8992 C   0  0  0  0  0  0  0  0  0  0  0  0
   -3.8452   23.2338  -26.6028 C   0  0  0  0  0  0  0  0  0  0  0  0
   -4.2983   23.1580  -27.9409 C   0  0  0  0  0  0  0  0  0  0  0  0
   -4.7912   24.2570  -28.5993 C   0  0  0  0  0  0  0  0  0  0  0  0
   -5.2372   24.1228  -30.0470 C   0  0  0  0  0  0  0  0  0  0  0  0
   -4.8667   25.4872  -27.9874 C   0  0  0  0  0  0  0  0  0  0  0  0
   -4.4352   25.5903  -26.6928 C   0  0  0  0  0  0  0  0  0  0  0  0
   -3.9303   24.4533  -26.0083 C   0  0  0  0  0  0  0  0  0  0  0  0
   -3.2069   24.2310  -24.5016 S   0  0  0  0  0  0  0  0  0  0  0  0
   -4.4346   26.7426  -25.9576 O   0  0  0  0  0  0  0  0  0  0  0  0
   -5.4598   27.1586  -25.1280 C   0  0  0  0  0  0  0  0  0  0  0  0
   -1.1749   20.8376  -20.2575 C   0  0  0  0  0  0  0  0  0  0  0  0
   -0.5850   19.7733  -19.9023 O   0  0  0  0  0  0  0  0  0  0  0  0
   -1.7177   21.5794  -19.1741 N   0  0  0  0  0  0  0  0  0  0  0  0
   -2.5194   22.7492  -19.1661 C   0  0  0  0  0  0  0  0  0  0  0  0
   -3.4690   22.7619  -17.9528 C   0  0  0  0  0  0  0  0  0  0  0  0
   -3.8729   21.4818  -17.5516 N   0  0  0  0  0  0  0  0  0  0  0  0
   -5.2047   21.0752  -17.8135 C   0  0  0  0  0  0  0  0  0  0  0  0
   -2.8774   20.4802  -17.4437 C   0  0  0  0  0  0  0  0  0  0  0  0
   -1.4945   21.0321  -17.7952 C   0  0  0  0  0  0  0  0  0  0  0  0
   -3.8473   21.5584  -22.0012 C   0  0  0  0  0  0  0  0  0  0  0  0
   -4.6885   21.2429  -22.9044 O   0  0  0  0  0  0  0  0  0  0  0  0
   -6.4413   22.5274  -23.9114 C   0  0  0  0  0  0  0  0  0  0  0  0
   -5.7376   21.2123  -23.5827 C   0  0  0  0  0  0  0  0  0  0  0  0
 36 37  1  0  0  0
 37 35  1  0  0  0
 35 34  1  0  0  0
 34  1  1  0  0  0
  1  2  1  0  0  0
  2 13  1  0  0  0
 13 14  2  0  0  0
 14 15  1  0  0  0
 15 16  2  0  0  0
 16 17  1  0  0  0
 17 18  1  0  0  0
 17 19  2  0  0  0
 19 20  1  0  0  0
 20 23  1  0  0  0
 23 24  1  0  0  0
 20 21  2  0  0  0
 21 22  1  0  0  0
  2  3  2  0  0  0
  3  4  1  0  0  0
  4  5  1  0  0  0
  4  6  2  0  0  0
  6  7  1  0  0  0
  7  8  2  0  0  0
  8  9  1  0  0  0
  9 10  1  0  0  0
 10 25  1  0  0  0
 25 26  2  0  0  0
 25 27  1  0  0  0
 27 28  1  0  0  0
 28 29  1  0  0  0
 29 30  1  0  0  0
 30 31  1  0  0  0
 30 32  1  0  0  0
 32 33  1  0  0  0
 10  1  2  0  0  0
 33 27  1  0  0  0
 22 13  1  0  0  0
  9  3  1  0  0  0
 21 15  1  0  0  0
  5 11  1  0  0  0
  5 12  1  0  0  0
M  END
> <minimizedAffinity>
-7.69546

> <CNNscore>
0.4490312040

> <CNNaffinity>
7.2460603714

> <CNN_VS>
3.2537071705

> <CNNaffinity_variance>
0.2752311230

$$$$
[H]c1nc(N([H])[H])c2c(-c3sc4c(OC([H])([H])[H])c([H])c(C([H])([H])[H])c([H])c4c3[H])c(C([H])([H])OC([H])([H])C([H])([H])[H])c(C(=O)N3C([H])([H])C([H])([H])N(C([H])([H])[H])C([H])([H])C3([H])[H])n2n1


 37 41  0  0  0  0  0  0  0  0999 V2000
   -2.0463   22.7862  -22.1763 C   0  0  0  0  0  0  0  0  0  0  0  0
   -0.9276   22.2864  -22.7652 C   0  0  0  0  0  0  0  0  0  0  0  0
   -1.0912   22.4024  -24.1331 C   0  0  0  0  0  0  0  0  0  0  0  0
   -0.3171   22.1046  -25.2258 C   0  0  0  0  0  0  0  0  0  0  0  0
    0.9376   21.4672  -25.1738 N   0  0  0  0  0  0  0  0  0  0  0  0
   -0.7413   22.3629  -26.5005 N   0  0  0  0  0  0  0  0  0  0  0  0
   -1.9372   22.9254  -26.6716 C   0  0  0  0  0  0  0  0  0  0  0  0
   -2.6352   23.1806  -25.5971 N   0  0  0  0  0  0  0  0  0  0  0  0
   -2.3282   22.9696  -24.3283 N   0  0  0  0  0  0  0  0  0  0  0  0
   -2.9345   23.1993  -23.1337 C   0  0  0  0  0  0  0  0  0  0  0  0
    1.8030   22.0712  -25.2427 H   0  0  0  0  0  0  0  0  0  0  0  0
    0.9660   20.4184  -25.0756 H   0  0  0  0  0  0  0  0  0  0  0  0
    0.1381   21.4522  -22.2210 C   0  0  0  0  0  0  0  0  0  0  0  0
    1.4933   21.4823  -22.2438 C   0  0  0  0  0  0  0  0  0  0  0  0
    2.1568   20.4425  -21.6909 C   0  0  0  0  0  0  0  0  0  0  0  0
    3.5559   20.2337  -21.7118 C   0  0  0  0  0  0  0  0  0  0  0  0
    4.1223   19.0885  -21.2096 C   0  0  0  0  0  0  0  0  0  0  0  0
    5.6301   18.9056  -21.2852 C   0  0  0  0  0  0  0  0  0  0  0  0
    3.3536   18.0871  -20.6620 C   0  0  0  0  0  0  0  0  0  0  0  0
    1.9967   18.2619  -20.6284 C   0  0  0  0  0  0  0  0  0  0  0  0
    1.4095   19.4482  -21.1423 C   0  0  0  0  0  0  0  0  0  0  0  0
   -0.1834   19.9444  -21.3865 S   0  0  0  0  0  0  0  0  0  0  0  0
    1.1030   17.3555  -20.1302 O   0  0  0  0  0  0  0  0  0  0  0  0
    1.0782   16.0082  -20.4409 C   0  0  0  0  0  0  0  0  0  0  0  0
   -4.2769   23.6708  -22.9072 C   0  0  0  0  0  0  0  0  0  0  0  0
   -5.0752   22.9194  -22.2709 O   0  0  0  0  0  0  0  0  0  0  0  0
   -4.8589   24.8963  -23.3293 N   0  0  0  0  0  0  0  0  0  0  0  0
   -4.3338   25.9382  -24.1355 C   0  0  0  0  0  0  0  0  0  0  0  0
   -5.4495   26.6320  -24.9403 C   0  0  0  0  0  0  0  0  0  0  0  0
   -6.5013   25.7728  -25.2840 N   0  0  0  0  0  0  0  0  0  0  0  0
   -6.6292   25.3595  -26.6332 C   0  0  0  0  0  0  0  0  0  0  0  0
   -7.0164   24.9245  -24.2736 C   0  0  0  0  0  0  0  0  0  0  0  0
   -6.2886   25.1385  -22.9451 C   0  0  0  0  0  0  0  0  0  0  0  0
   -2.1042   22.7424  -20.6447 C   0  0  0  0  0  0  0  0  0  0  0  0
   -1.2270   23.4182  -20.0146 O   0  0  0  0  0  0  0  0  0  0  0  0
    0.6132   22.6087  -18.7129 C   0  0  0  0  0  0  0  0  0  0  0  0
   -0.3146   23.7138  -19.2135 C   0  0  0  0  0  0  0  0  0  0  0  0
 36 37  1  0  0  0
 37 35  1  0  0  0
 35 34  1  0  0  0
 34  1  1  0  0  0
  1  2  1  0  0  0
  2 13  1  0  0  0
 13 14  2  0  0  0
 14 15  1  0  0  0
 15 16  2  0  0  0
 16 17  1  0  0  0
 17 18  1  0  0  0
 17 19  2  0  0  0
 19 20  1  0  0  0
 20 23  1  0  0  0
 23 24  1  0  0  0
 20 21  2  0  0  0
 21 22  1  0  0  0
  2  3  2  0  0  0
  3  4  1  0  0  0
  4  5  1  0  0  0
  4  6  2  0  0  0
  6  7  1  0  0  0
  7  8  2  0  0  0
  8  9  1  0  0  0
  9 10  1  0  0  0
 10 25  1  0  0  0
 25 26  2  0  0  0
 25 27  1  0  0  0
 27 28  1  0  0  0
 28 29  1  0  0  0
 29 30  1  0  0  0
 30 31  1  0  0  0
 30 32  1  0  0  0
 32 33  1  0  0  0
 10  1  2  0  0  0
 33 27  1  0  0  0
 22 13  1  0  0  0
  9  3  1  0  0  0
 21 15  1  0  0  0
  5 11  1  0  0  0
  5 12  1  0  0  0
M  END
> <minimizedAffinity>
-7.32808

> <CNNscore>
0.4119506180

> <CNNaffinity>
6.7512054443

> <CNN_VS>
2.7811632156

> <CNNaffinity_variance>
0.2053053826

$$$$
[H]c1nc(N([H])[H])c2c(-c3sc4c(OC([H])([H])[H])c([H])c(C([H])([H])[H])c([H])c4c3[H])c(C([H])([H])OC([H])([H])C([H])([H])[H])c(C(=O)N3C([H])([H])C([H])([H])N(C([H])([H])[H])C([H])([H])C3([H])[H])n2n1


 37 41  0  0  0  0  0  0  0  0999 V2000
   -2.7909   22.4653  -23.1756 C   0  0  0  0  0  0  0  0  0  0  0  0
   -1.4730   22.1469  -23.0747 C   0  0  0  0  0  0  0  0  0  0  0  0
   -0.9244   22.2430  -24.3401 C   0  0  0  0  0  0  0  0  0  0  0  0
    0.3330   22.0736  -24.8616 C   0  0  0  0  0  0  0  0  0  0  0  0
    1.4553   21.6372  -24.1314 N   0  0  0  0  0  0  0  0  0  0  0  0
    0.5937   22.2695  -26.1902 N   0  0  0  0  0  0  0  0  0  0  0  0
   -0.4075   22.6414  -26.9871 C   0  0  0  0  0  0  0  0  0  0  0  0
   -1.5854   22.7806  -26.4393 N   0  0  0  0  0  0  0  0  0  0  0  0
   -1.9487   22.6134  -25.1789 N   0  0  0  0  0  0  0  0  0  0  0  0
   -3.1072   22.7409  -24.4795 C   0  0  0  0  0  0  0  0  0  0  0  0
    2.1424   22.3680  -23.7960 H   0  0  0  0  0  0  0  0  0  0  0  0
    1.5704   20.6050  -23.9538 H   0  0  0  0  0  0  0  0  0  0  0  0
   -0.7372   21.4846  -22.0034 C   0  0  0  0  0  0  0  0  0  0  0  0
   -0.3508   20.2115  -21.7428 C   0  0  0  0  0  0  0  0  0  0  0  0
    0.2491   19.9646  -20.5570 C   0  0  0  0  0  0  0  0  0  0  0  0
    0.6224   18.6961  -20.0538 C   0  0  0  0  0  0  0  0  0  0  0  0
    1.1330   18.5431  -18.7888 C   0  0  0  0  0  0  0  0  0  0  0  0
    1.4900   17.1514  -18.2904 C   0  0  0  0  0  0  0  0  0  0  0  0
    1.3049   19.6191  -17.9484 C   0  0  0  0  0  0  0  0  0  0  0  0
    0.9522   20.8587  -18.4086 C   0  0  0  0  0  0  0  0  0  0  0  0
    0.4291   21.0196  -19.7189 C   0  0  0  0  0  0  0  0  0  0  0  0
   -0.2194   22.3305  -20.5579 S   0  0  0  0  0  0  0  0  0  0  0  0
    1.0512   22.0175  -17.6903 O   0  0  0  0  0  0  0  0  0  0  0  0
    2.1827   22.8079  -17.6057 C   0  0  0  0  0  0  0  0  0  0  0  0
   -4.4244   22.9985  -25.0030 C   0  0  0  0  0  0  0  0  0  0  0  0
   -5.2132   22.0166  -25.1470 O   0  0  0  0  0  0  0  0  0  0  0  0
   -4.9773   24.2410  -25.4141 N   0  0  0  0  0  0  0  0  0  0  0  0
   -4.3898   25.5288  -25.5022 C   0  0  0  0  0  0  0  0  0  0  0  0
   -5.0235   26.3503  -26.6413 C   0  0  0  0  0  0  0  0  0  0  0  0
   -5.4545   25.5643  -27.7180 N   0  0  0  0  0  0  0  0  0  0  0  0
   -4.7168   25.6032  -28.9270 C   0  0  0  0  0  0  0  0  0  0  0  0
   -6.1950   24.3933  -27.4244 C   0  0  0  0  0  0  0  0  0  0  0  0
   -6.3907   24.2240  -25.9165 C   0  0  0  0  0  0  0  0  0  0  0  0
   -3.6209   22.4056  -21.8878 C   0  0  0  0  0  0  0  0  0  0  0  0
   -4.3452   23.4191  -21.6208 O   0  0  0  0  0  0  0  0  0  0  0  0
   -6.6584   23.7551  -22.1425 C   0  0  0  0  0  0  0  0  0  0  0  0
   -5.3518   24.1399  -21.4514 C   0  0  0  0  0  0  0  0  0  0  0  0
 36 37  1  0  0  0
 37 35  1  0  0  0
 35 34  1  0  0  0
 34  1  1  0  0  0
  1  2  1  0  0  0
  2 13  1  0  0  0
 13 14  2  0  0  0
 14 15  1  0  0  0
 15 16  2  0  0  0
 16 17  1  0  0  0
 17 18  1  0  0  0
 17 19  2  0  0  0
 19 20  1  0  0  0
 20 23  1  0  0  0
 23 24  1  0  0  0
 20 21  2  0  0  0
 21 22  1  0  0  0
  2  3  2  0  0  0
  3  4  1  0  0  0
  4  5  1  0  0  0
  4  6  2  0  0  0
  6  7  1  0  0  0
  7  8  2  0  0  0
  8  9  1  0  0  0
  9 10  1  0  0  0
 10 25  1  0  0  0
 25 26  2  0  0  0
 25 27  1  0  0  0
 27 28  1  0  0  0
 28 29  1  0  0  0
 29 30  1  0  0  0
 30 31  1  0  0  0
 30 32  1  0  0  0
 32 33  1  0  0  0
 10  1  2  0  0  0
 33 27  1  0  0  0
 22 13  1  0  0  0
  9  3  1  0  0  0
 21 15  1  0  0  0
  5 11  1  0  0  0
  5 12  1  0  0  0
M  END
> <minimizedAffinity>
-7.42954

> <CNNscore>
0.3648203313

> <CNNaffinity>
6.9296584129

> <CNN_VS>
2.5280802250

> <CNNaffinity_variance>
0.1121846214

$$$$
[H]c1nc(N([H])[H])c2c(-c3sc4c(OC([H])([H])[H])c([H])c(C([H])([H])[H])c([H])c4c3[H])c(C([H])([H])OC([H])([H])C([H])([H])[H])c(C(=O)N3C([H])([H])C([H])([H])N(C([H])([H])[H])C([H])([H])C3([H])[H])n2n1


 37 41  0  0  0  0  0  0  0  0999 V2000
   -2.7746   22.7132  -23.1389 C   0  0  0  0  0  0  0  0  0  0  0  0
   -1.4588   22.4206  -22.9621 C   0  0  0  0  0  0  0  0  0  0  0  0
   -0.8875   22.3024  -24.2155 C   0  0  0  0  0  0  0  0  0  0  0  0
    0.3791   22.0509  -24.6784 C   0  0  0  0  0  0  0  0  0  0  0  0
    1.4881   21.7480  -23.8649 N   0  0  0  0  0  0  0  0  0  0  0  0
    0.6637   22.0196  -26.0161 N   0  0  0  0  0  0  0  0  0  0  0  0
   -0.3229   22.2481  -26.8822 C   0  0  0  0  0  0  0  0  0  0  0  0
   -1.5105   22.4745  -26.3869 N   0  0  0  0  0  0  0  0  0  0  0  0
   -1.8965   22.5222  -25.1230 N   0  0  0  0  0  0  0  0  0  0  0  0
   -3.0673   22.7629  -24.4761 C   0  0  0  0  0  0  0  0  0  0  0  0
    2.1690   22.5271  -23.6460 H   0  0  0  0  0  0  0  0  0  0  0  0
    1.5999   20.7612  -23.5129 H   0  0  0  0  0  0  0  0  0  0  0  0
   -0.7425   21.9517  -21.7811 C   0  0  0  0  0  0  0  0  0  0  0  0
   -0.1423   22.5432  -20.7191 C   0  0  0  0  0  0  0  0  0  0  0  0
    0.5269   21.7520  -19.8512 C   0  0  0  0  0  0  0  0  0  0  0  0
    1.3061   22.1836  -18.7521 C   0  0  0  0  0  0  0  0  0  0  0  0
    2.0325   21.3014  -17.9916 C   0  0  0  0  0  0  0  0  0  0  0  0
    2.8752   21.8259  -16.8394 C   0  0  0  0  0  0  0  0  0  0  0  0
    2.0377   19.9526  -18.2643 C   0  0  0  0  0  0  0  0  0  0  0  0
    1.2929   19.5064  -19.3221 C   0  0  0  0  0  0  0  0  0  0  0  0
    0.5364   20.4168  -20.1064 C   0  0  0  0  0  0  0  0  0  0  0  0
   -0.3661   20.2592  -21.5219 S   0  0  0  0  0  0  0  0  0  0  0  0
    1.2075   18.2029  -19.7245 O   0  0  0  0  0  0  0  0  0  0  0  0
    2.1637   17.5343  -20.4667 C   0  0  0  0  0  0  0  0  0  0  0  0
   -4.3750   22.9240  -25.0590 C   0  0  0  0  0  0  0  0  0  0  0  0
   -5.1868   21.9534  -24.9838 O   0  0  0  0  0  0  0  0  0  0  0  0
   -4.8948   24.0521  -25.7487 N   0  0  0  0  0  0  0  0  0  0  0  0
   -4.2752   25.2720  -26.1219 C   0  0  0  0  0  0  0  0  0  0  0  0
   -4.8822   25.8259  -27.4252 C   0  0  0  0  0  0  0  0  0  0  0  0
   -5.3265   24.8248  -28.2989 N   0  0  0  0  0  0  0  0  0  0  0  0
   -4.5814   24.5699  -29.4768 C   0  0  0  0  0  0  0  0  0  0  0  0
   -6.0972   23.7690  -27.7540 C   0  0  0  0  0  0  0  0  0  0  0  0
   -6.3054   23.9529  -26.2496 C   0  0  0  0  0  0  0  0  0  0  0  0
   -3.6277   22.8701  -21.8746 C   0  0  0  0  0  0  0  0  0  0  0  0
   -4.4509   23.8422  -21.8511 O   0  0  0  0  0  0  0  0  0  0  0  0
   -6.6680   24.4662  -22.5078 C   0  0  0  0  0  0  0  0  0  0  0  0
   -5.4570   24.5317  -21.5793 C   0  0  0  0  0  0  0  0  0  0  0  0
 36 37  1  0  0  0
 37 35  1  0  0  0
 35 34  1  0  0  0
 34  1  1  0  0  0
  1  2  1  0  0  0
  2 13  1  0  0  0
 13 14  2  0  0  0
 14 15  1  0  0  0
 15 16  2  0  0  0
 16 17  1  0  0  0
 17 18  1  0  0  0
 17 19  2  0  0  0
 19 20  1  0  0  0
 20 23  1  0  0  0
 23 24  1  0  0  0
 20 21  2  0  0  0
 21 22  1  0  0  0
  2  3  2  0  0  0
  3  4  1  0  0  0
  4  5  1  0  0  0
  4  6  2  0  0  0
  6  7  1  0  0  0
  7  8  2  0  0  0
  8  9  1  0  0  0
  9 10  1  0  0  0
 10 25  1  0  0  0
 25 26  2  0  0  0
 25 27  1  0  0  0
 27 28  1  0  0  0
 28 29  1  0  0  0
 29 30  1  0  0  0
 30 31  1  0  0  0
 30 32  1  0  0  0
 32 33  1  0  0  0
 10  1  2  0  0  0
 33 27  1  0  0  0
 22 13  1  0  0  0
  9  3  1  0  0  0
 21 15  1  0  0  0
  5 11  1  0  0  0
  5 12  1  0  0  0
M  END
> <minimizedAffinity>
-7.20101

> <CNNscore>
0.3438308537

> <CNNaffinity>
6.9555940628

> <CNN_VS>
2.3915479183

> <CNNaffinity_variance>
0.1480993330

$$$$
[H]c1nc(N([H])[H])c2c(-c3sc4c(OC([H])([H])[H])c([H])c(C([H])([H])[H])c([H])c4c3[H])c(C([H])([H])OC([H])([H])C([H])([H])[H])c(C(=O)N3C([H])([H])C([H])([H])N(C([H])([H])[H])C([H])([H])C3([H])[H])n2n1


 37 41  0  0  0  0  0  0  0  0999 V2000
   -1.7781   22.5397  -22.3101 C   0  0  0  0  0  0  0  0  0  0  0  0
   -0.5979   21.9178  -22.5718 C   0  0  0  0  0  0  0  0  0  0  0  0
   -0.3506   22.0492  -23.9257 C   0  0  0  0  0  0  0  0  0  0  0  0
    0.6669   21.6656  -24.7620 C   0  0  0  0  0  0  0  0  0  0  0  0
    1.7789   20.8928  -24.3751 N   0  0  0  0  0  0  0  0  0  0  0  0
    0.6546   21.9674  -26.0962 N   0  0  0  0  0  0  0  0  0  0  0  0
   -0.3753   22.6590  -26.5829 C   0  0  0  0  0  0  0  0  0  0  0  0
   -1.3197   22.9918  -25.7437 N   0  0  0  0  0  0  0  0  0  0  0  0
   -1.4123   22.7499  -24.4469 N   0  0  0  0  0  0  0  0  0  0  0  0
   -2.3063   23.0474  -23.4674 C   0  0  0  0  0  0  0  0  0  0  0  0
    2.6873   21.3969  -24.1770 H   0  0  0  0  0  0  0  0  0  0  0  0
    1.6659   19.8476  -24.3046 H   0  0  0  0  0  0  0  0  0  0  0  0
    0.1724   20.9713  -21.7729 C   0  0  0  0  0  0  0  0  0  0  0  0
   -0.0163   19.7029  -21.3329 C   0  0  0  0  0  0  0  0  0  0  0  0
    0.9127   19.1782  -20.5030 C   0  0  0  0  0  0  0  0  0  0  0  0
    0.8433   17.9241  -19.8519 C   0  0  0  0  0  0  0  0  0  0  0  0
    1.7944   17.5283  -18.9446 C   0  0  0  0  0  0  0  0  0  0  0  0
    1.6529   16.1810  -18.2537 C   0  0  0  0  0  0  0  0  0  0  0  0
    2.8618   18.3355  -18.6243 C   0  0  0  0  0  0  0  0  0  0  0  0
    2.9547   19.5547  -19.2389 C   0  0  0  0  0  0  0  0  0  0  0  0
    1.9749   19.9634  -20.1818 C   0  0  0  0  0  0  0  0  0  0  0  0
    1.6932   21.4022  -21.0147 S   0  0  0  0  0  0  0  0  0  0  0  0
    3.9455   20.4697  -19.0164 O   0  0  0  0  0  0  0  0  0  0  0  0
    5.1811   20.4725  -19.6374 C   0  0  0  0  0  0  0  0  0  0  0  0
   -3.5991   23.6654  -23.6173 C   0  0  0  0  0  0  0  0  0  0  0  0
   -3.6861   24.9185  -23.4470 O   0  0  0  0  0  0  0  0  0  0  0  0
   -4.8392   23.0421  -23.9211 N   0  0  0  0  0  0  0  0  0  0  0  0
   -5.1694   21.6721  -24.0796 C   0  0  0  0  0  0  0  0  0  0  0  0
   -6.6216   21.3980  -23.6438 C   0  0  0  0  0  0  0  0  0  0  0  0
   -7.0583   22.2381  -22.6112 N   0  0  0  0  0  0  0  0  0  0  0  0
   -7.2144   21.6948  -21.3120 C   0  0  0  0  0  0  0  0  0  0  0  0
   -6.7851   23.6228  -22.7281 C   0  0  0  0  0  0  0  0  0  0  0  0
   -6.0408   23.9339  -24.0280 C   0  0  0  0  0  0  0  0  0  0  0  0
   -2.2754   22.5050  -20.8600 C   0  0  0  0  0  0  0  0  0  0  0  0
   -1.5935   23.1528  -20.0006 O   0  0  0  0  0  0  0  0  0  0  0  0
   -0.5063   22.2809  -18.0529 C   0  0  0  0  0  0  0  0  0  0  0  0
   -0.8420   23.4023  -19.0340 C   0  0  0  0  0  0  0  0  0  0  0  0
 36 37  1  0  0  0
 37 35  1  0  0  0
 35 34  1  0  0  0
 34  1  1  0  0  0
  1  2  1  0  0  0
  2 13  1  0  0  0
 13 14  2  0  0  0
 14 15  1  0  0  0
 15 16  2  0  0  0
 16 17  1  0  0  0
 17 18  1  0  0  0
 17 19  2  0  0  0
 19 20  1  0  0  0
 20 23  1  0  0  0
 23 24  1  0  0  0
 20 21  2  0  0  0
 21 22  1  0  0  0
  2  3  2  0  0  0
  3  4  1  0  0  0
  4  5  1  0  0  0
  4  6  2  0  0  0
  6  7  1  0  0  0
  7  8  2  0  0  0
  8  9  1  0  0  0
  9 10  1  0  0  0
 10 25  1  0  0  0
 25 26  2  0  0  0
 25 27  1  0  0  0
 27 28  1  0  0  0
 28 29  1  0  0  0
 29 30  1  0  0  0
 30 31  1  0  0  0
 30 32  1  0  0  0
 32 33  1  0  0  0
 10  1  2  0  0  0
 33 27  1  0  0  0
 22 13  1  0  0  0
  9  3  1  0  0  0
 21 15  1  0  0  0
  5 11  1  0  0  0
  5 12  1  0  0  0
M  END
> <minimizedAffinity>
-6.35213

> <CNNscore>
0.2712706923

> <CNNaffinity>
6.4245262146

> <CNN_VS>
1.7427856922

> <CNNaffinity_variance>
0.0824911445

$$$$
[H]c1nc(N([H])[H])c2c(-c3sc4c(OC([H])([H])[H])c([H])c(C([H])([H])[H])c([H])c4c3[H])c(C([H])([H])OC([H])([H])C([H])([H])[H])c(C(=O)N3C([H])([H])C([H])([H])N(C([H])([H])[H])C([H])([H])C3([H])[H])n2n1


 37 41  0  0  0  0  0  0  0  0999 V2000
   -2.0026   22.8823  -22.1454 C   0  0  0  0  0  0  0  0  0  0  0  0
   -0.9194   22.3391  -22.7617 C   0  0  0  0  0  0  0  0  0  0  0  0
   -1.1147   22.4572  -24.1253 C   0  0  0  0  0  0  0  0  0  0  0  0
   -0.3815   22.1274  -25.2368 C   0  0  0  0  0  0  0  0  0  0  0  0
    0.8495   21.4436  -25.2154 N   0  0  0  0  0  0  0  0  0  0  0  0
   -0.8293   22.3976  -26.5008 N   0  0  0  0  0  0  0  0  0  0  0  0
   -2.0075   23.0040  -26.6425 C   0  0  0  0  0  0  0  0  0  0  0  0
   -2.6668   23.2883  -25.5510 N   0  0  0  0  0  0  0  0  0  0  0  0
   -2.3344   23.0697  -24.2899 N   0  0  0  0  0  0  0  0  0  0  0  0
   -2.8998   23.3255  -23.0807 C   0  0  0  0  0  0  0  0  0  0  0  0
    1.7347   22.0146  -25.3094 H   0  0  0  0  0  0  0  0  0  0  0  0
    0.8413   20.3948  -25.1138 H   0  0  0  0  0  0  0  0  0  0  0  0
    0.1284   21.4672  -22.2425 C   0  0  0  0  0  0  0  0  0  0  0  0
    1.4820   21.4383  -22.3134 C   0  0  0  0  0  0  0  0  0  0  0  0
    2.1198   20.3786  -21.7682 C   0  0  0  0  0  0  0  0  0  0  0  0
    3.5070   20.1090  -21.8351 C   0  0  0  0  0  0  0  0  0  0  0  0
    4.0416   18.9475  -21.3355 C   0  0  0  0  0  0  0  0  0  0  0  0
    5.5365   18.6985  -21.4612 C   0  0  0  0  0  0  0  0  0  0  0  0
    3.2508   17.9881  -20.7459 C   0  0  0  0  0  0  0  0  0  0  0  0
    1.9047   18.2219  -20.6673 C   0  0  0  0  0  0  0  0  0  0  0  0
    1.3508   19.4252  -21.1785 C   0  0  0  0  0  0  0  0  0  0  0  0
   -0.2271   19.9864  -21.3741 S   0  0  0  0  0  0  0  0  0  0  0  0
    0.9915   17.3620  -20.1242 O   0  0  0  0  0  0  0  0  0  0  0  0
    0.9459   15.9991  -20.3541 C   0  0  0  0  0  0  0  0  0  0  0  0
   -4.2171   23.8476  -22.8208 C   0  0  0  0  0  0  0  0  0  0  0  0
   -4.4207   25.0829  -23.0196 O   0  0  0  0  0  0  0  0  0  0  0  0
   -5.3568   23.1510  -22.3364 N   0  0  0  0  0  0  0  0  0  0  0  0
   -5.5038   21.8075  -21.9067 C   0  0  0  0  0  0  0  0  0  0  0  0
   -6.5807   21.6908  -20.8110 C   0  0  0  0  0  0  0  0  0  0  0  0
   -6.6744   22.8309  -20.0023 N   0  0  0  0  0  0  0  0  0  0  0  0
   -6.1890   22.7639  -18.6728 C   0  0  0  0  0  0  0  0  0  0  0  0
   -6.6952   24.0937  -20.6432 C   0  0  0  0  0  0  0  0  0  0  0  0
   -6.6174   23.9456  -22.1639 C   0  0  0  0  0  0  0  0  0  0  0  0
   -2.0215   22.8452  -20.6127 C   0  0  0  0  0  0  0  0  0  0  0  0
   -1.0682   23.4372  -20.0095 O   0  0  0  0  0  0  0  0  0  0  0  0
    0.8540   22.6891  -18.7922 C   0  0  0  0  0  0  0  0  0  0  0  0
   -0.2159   23.7218  -19.1411 C   0  0  0  0  0  0  0  0  0  0  0  0
 36 37  1  0  0  0
 37 35  1  0  0  0
 35 34  1  0  0  0
 34  1  1  0  0  0
  1  2  1  0  0  0
  2 13  1  0  0  0
 13 14  2  0  0  0
 14 15  1  0  0  0
 15 16  2  0  0  0
 16 17  1  0  0  0
 17 18  1  0  0  0
 17 19  2  0  0  0
 19 20  1  0  0  0
 20 23  1  0  0  0
 23 24  1  0  0  0
 20 21  2  0  0  0
 21 22  1  0  0  0
  2  3  2  0  0  0
  3  4  1  0  0  0
  4  5  1  0  0  0
  4  6  2  0  0  0
  6  7  1  0  0  0
  7  8  2  0  0  0
  8  9  1  0  0  0
  9 10  1  0  0  0
 10 25  1  0  0  0
 25 26  2  0  0  0
 25 27  1  0  0  0
 27 28  1  0  0  0
 28 29  1  0  0  0
 29 30  1  0  0  0
 30 31  1  0  0  0
 30 32  1  0  0  0
 32 33  1  0  0  0
 10  1  2  0  0  0
 33 27  1  0  0  0
 22 13  1  0  0  0
  9  3  1  0  0  0
 21 15  1  0  0  0
  5 11  1  0  0  0
  5 12  1  0  0  0
M  END
> <minimizedAffinity>
-6.85056

> <CNNscore>
0.2351863235

> <CNNaffinity>
6.3601675034

> <CNN_VS>
1.4958244562

> <CNNaffinity_variance>
0.1335985512

$$$$
[H]c1nc(N([H])[H])c2c(-c3sc4c(OC([H])([H])[H])c([H])c(C([H])([H])[H])c([H])c4c3[H])c(C([H])([H])OC([H])([H])C([H])([H])[H])c(C(=O)N3C([H])([H])C([H])([H])N(C([H])([H])[H])C([H])([H])C3([H])[H])n2n1


 37 41  0  0  0  0  0  0  0  0999 V2000
   -4.1177   24.3389  -23.5186 C   0  0  0  0  0  0  0  0  0  0  0  0
   -3.1302   23.6372  -24.1355 C   0  0  0  0  0  0  0  0  0  0  0  0
   -3.5457   23.3859  -25.4300 C   0  0  0  0  0  0  0  0  0  0  0  0
   -2.9900   22.7604  -26.5171 C   0  0  0  0  0  0  0  0  0  0  0  0
   -1.7497   22.0933  -26.5151 N   0  0  0  0  0  0  0  0  0  0  0  0
   -3.6436   22.6855  -27.7165 N   0  0  0  0  0  0  0  0  0  0  0  0
   -4.8485   23.2451  -27.8207 C   0  0  0  0  0  0  0  0  0  0  0  0
   -5.3330   23.8205  -26.7525 N   0  0  0  0  0  0  0  0  0  0  0  0
   -4.7954   23.9458  -25.5509 N   0  0  0  0  0  0  0  0  0  0  0  0
   -5.1675   24.5243  -24.3787 C   0  0  0  0  0  0  0  0  0  0  0  0
   -0.9103   22.6075  -26.9018 H   0  0  0  0  0  0  0  0  0  0  0  0
   -1.7070   21.1108  -26.1367 H   0  0  0  0  0  0  0  0  0  0  0  0
   -1.9845   22.9252  -23.5805 C   0  0  0  0  0  0  0  0  0  0  0  0
   -0.6675   22.8293  -23.8876 C   0  0  0  0  0  0  0  0  0  0  0  0
    0.0845   21.9603  -23.1762 C   0  0  0  0  0  0  0  0  0  0  0  0
    1.4409   21.6350  -23.4134 C   0  0  0  0  0  0  0  0  0  0  0  0
    2.0853   20.6588  -22.6949 C   0  0  0  0  0  0  0  0  0  0  0  0
    3.5360   20.3318  -23.0132 C   0  0  0  0  0  0  0  0  0  0  0  0
    1.4402   19.9483  -21.7088 C   0  0  0  0  0  0  0  0  0  0  0  0
    0.1273   20.2415  -21.4576 C   0  0  0  0  0  0  0  0  0  0  0  0
   -0.5394   21.2549  -22.1958 C   0  0  0  0  0  0  0  0  0  0  0  0
   -2.1384   21.7861  -22.2569 S   0  0  0  0  0  0  0  0  0  0  0  0
   -0.6491   19.6163  -20.5223 O   0  0  0  0  0  0  0  0  0  0  0  0
   -0.5910   19.8421  -19.1592 C   0  0  0  0  0  0  0  0  0  0  0  0
   -6.4425   25.1126  -24.0562 C   0  0  0  0  0  0  0  0  0  0  0  0
   -6.6793   26.2885  -24.4661 O   0  0  0  0  0  0  0  0  0  0  0  0
   -7.5030   24.5466  -23.2988 N   0  0  0  0  0  0  0  0  0  0  0  0
   -7.5824   23.3166  -22.5973 C   0  0  0  0  0  0  0  0  0  0  0  0
   -8.5039   23.4379  -21.3685 C   0  0  0  0  0  0  0  0  0  0  0  0
   -8.4977   24.7162  -20.7951 N   0  0  0  0  0  0  0  0  0  0  0  0
   -7.8402   24.9021  -19.5539 C   0  0  0  0  0  0  0  0  0  0  0  0
   -8.6122   25.8288  -21.6639 C   0  0  0  0  0  0  0  0  0  0  0  0
   -8.7354   25.3837  -23.1224 C   0  0  0  0  0  0  0  0  0  0  0  0
   -3.8891   24.7162  -22.0501 C   0  0  0  0  0  0  0  0  0  0  0  0
   -4.4803   24.0059  -21.1732 O   0  0  0  0  0  0  0  0  0  0  0  0
   -4.5627   22.8428  -19.0812 C   0  0  0  0  0  0  0  0  0  0  0  0
   -4.9154   23.0091  -20.5579 C   0  0  0  0  0  0  0  0  0  0  0  0
 36 37  1  0  0  0
 37 35  1  0  0  0
 35 34  1  0  0  0
 34  1  1  0  0  0
  1  2  1  0  0  0
  2 13  1  0  0  0
 13 14  2  0  0  0
 14 15  1  0  0  0
 15 16  2  0  0  0
 16 17  1  0  0  0
 17 18  1  0  0  0
 17 19  2  0  0  0
 19 20  1  0  0  0
 20 23  1  0  0  0
 23 24  1  0  0  0
 20 21  2  0  0  0
 21 22  1  0  0  0
  2  3  2  0  0  0
  3  4  1  0  0  0
  4  5  1  0  0  0
  4  6  2  0  0  0
  6  7  1  0  0  0
  7  8  2  0  0  0
  8  9  1  0  0  0
  9 10  1  0  0  0
 10 25  1  0  0  0
 25 26  2  0  0  0
 25 27  1  0  0  0
 27 28  1  0  0  0
 28 29  1  0  0  0
 29 30  1  0  0  0
 30 31  1  0  0  0
 30 32  1  0  0  0
 32 33  1  0  0  0
 10  1  2  0  0  0
 33 27  1  0  0  0
 22 13  1  0  0  0
  9  3  1  0  0  0
 21 15  1  0  0  0
  5 11  1  0  0  0
  5 12  1  0  0  0
M  END
> <minimizedAffinity>
-7.11051

> <CNNscore>
0.0796234459

> <CNNaffinity>
6.2746725082

> <CNN_VS>
0.4996110499

> <CNNaffinity_variance>
0.3764901459

$$$$
[H]c1nc(N([H])[H])c2c(-c3sc4c(OC([H])([H])[H])c([H])c(C([H])([H])[H])c([H])c4c3[H])c(C([H])([H])OC([H])([H])C([H])([H])[H])c(C(=O)N3C([H])([H])C([H])([H])N(C([H])([H])[H])C([H])([H])C3([H])[H])n2n1


 37 41  0  0  0  0  0  0  0  0999 V2000
   -6.5488   22.3811  -21.4697 C   0  0  0  0  0  0  0  0  0  0  0  0
   -7.5901   22.6723  -20.6457 C   0  0  0  0  0  0  0  0  0  0  0  0
   -8.3517   23.6449  -21.2667 C   0  0  0  0  0  0  0  0  0  0  0  0
   -9.5108   24.3084  -20.9535 C   0  0  0  0  0  0  0  0  0  0  0  0
  -10.2152   24.1703  -19.7418 N   0  0  0  0  0  0  0  0  0  0  0  0
  -10.0644   25.2293  -21.8002 N   0  0  0  0  0  0  0  0  0  0  0  0
   -9.4556   25.4743  -22.9600 C   0  0  0  0  0  0  0  0  0  0  0  0
   -8.3513   24.8200  -23.2036 N   0  0  0  0  0  0  0  0  0  0  0  0
   -7.7291   23.9198  -22.4612 N   0  0  0  0  0  0  0  0  0  0  0  0
   -6.6102   23.1599  -22.5948 C   0  0  0  0  0  0  0  0  0  0  0  0
  -11.0622   23.5372  -19.7310 H   0  0  0  0  0  0  0  0  0  0  0  0
   -9.8772   24.7050  -18.8991 H   0  0  0  0  0  0  0  0  0  0  0  0
   -7.7951   22.3692  -19.2337 C   0  0  0  0  0  0  0  0  0  0  0  0
   -7.3392   22.8771  -18.0622 C   0  0  0  0  0  0  0  0  0  0  0  0
   -7.6885   22.2425  -16.9211 C   0  0  0  0  0  0  0  0  0  0  0  0
   -7.2291   22.5462  -15.6179 C   0  0  0  0  0  0  0  0  0  0  0  0
   -7.5652   21.7720  -14.5353 C   0  0  0  0  0  0  0  0  0  0  0  0
   -7.0183   22.1300  -13.1622 C   0  0  0  0  0  0  0  0  0  0  0  0
   -8.3658   20.6607  -14.6676 C   0  0  0  0  0  0  0  0  0  0  0  0
   -8.8249   20.3425  -15.9169 C   0  0  0  0  0  0  0  0  0  0  0  0
   -8.4829   21.1454  -17.0370 C   0  0  0  0  0  0  0  0  0  0  0  0
   -8.7428   20.9958  -18.6963 S   0  0  0  0  0  0  0  0  0  0  0  0
   -9.6152   19.2663  -16.2097 O   0  0  0  0  0  0  0  0  0  0  0  0
  -10.9614   19.1621  -15.9110 C   0  0  0  0  0  0  0  0  0  0  0  0
   -5.6220   23.2293  -23.6408 C   0  0  0  0  0  0  0  0  0  0  0  0
   -5.9376   22.7999  -24.7910 O   0  0  0  0  0  0  0  0  0  0  0  0
   -4.2880   23.7109  -23.5564 N   0  0  0  0  0  0  0  0  0  0  0  0
   -3.5415   24.1713  -22.4420 C   0  0  0  0  0  0  0  0  0  0  0  0
   -2.0414   23.8656  -22.6153 C   0  0  0  0  0  0  0  0  0  0  0  0
   -1.7949   22.6972  -23.3480 N   0  0  0  0  0  0  0  0  0  0  0  0
   -1.3214   21.5512  -22.6624 C   0  0  0  0  0  0  0  0  0  0  0  0
   -2.5240   22.5049  -24.5468 C   0  0  0  0  0  0  0  0  0  0  0  0
   -3.4712   23.6761  -24.8142 C   0  0  0  0  0  0  0  0  0  0  0  0
   -5.5443   21.3329  -20.9764 C   0  0  0  0  0  0  0  0  0  0  0  0
   -4.5504   21.7586  -20.3024 O   0  0  0  0  0  0  0  0  0  0  0  0
   -3.9471   21.4402  -18.0066 C   0  0  0  0  0  0  0  0  0  0  0  0
   -3.6340   21.8117  -19.4546 C   0  0  0  0  0  0  0  0  0  0  0  0
 36 37  1  0  0  0
 37 35  1  0  0  0
 35 34  1  0  0  0
 34  1  1  0  0  0
  1  2  1  0  0  0
  2 13  1  0  0  0
 13 14  2  0  0  0
 14 15  1  0  0  0
 15 16  2  0  0  0
 16 17  1  0  0  0
 17 18  1  0  0  0
 17 19  2  0  0  0
 19 20  1  0  0  0
 20 23  1  0  0  0
 23 24  1  0  0  0
 20 21  2  0  0  0
 21 22  1  0  0  0
  2  3  2  0  0  0
  3  4  1  0  0  0
  4  5  1  0  0  0
  4  6  2  0  0  0
  6  7  1  0  0  0
  7  8  2  0  0  0
  8  9  1  0  0  0
  9 10  1  0  0  0
 10 25  1  0  0  0
 25 26  2  0  0  0
 25 27  1  0  0  0
 27 28  1  0  0  0
 28 29  1  0  0  0
 29 30  1  0  0  0
 30 31  1  0  0  0
 30 32  1  0  0  0
 32 33  1  0  0  0
 10  1  2  0  0  0
 33 27  1  0  0  0
 22 13  1  0  0  0
  9  3  1  0  0  0
 21 15  1  0  0  0
  5 11  1  0  0  0
  5 12  1  0  0  0
M  END
> <minimizedAffinity>
-5.79079

> <CNNscore>
0.0462334789

> <CNNaffinity>
5.7404551506

> <CNN_VS>
0.2654012144

> <CNNaffinity_variance>
0.1395417601

$$$$
[H]c1nc(N([H])[H])c2c(-c3sc4c(OC([H])([H])[H])c([H])c(C([H])([H])[H])c([H])c4c3[H])c(C([H])([H])OC([H])([H])C([H])([H])[H])c(C(=O)N3C([H])([H])C([H])([H])OC([H])([H])C3([H])[H])n2n1


 36 40  0  0  0  0  0  0  0  0999 V2000
   -3.2126   23.4205  -25.0580 C   0  0  0  0  0  0  0  0  0  0  0  0
   -1.9985   23.0117  -24.7918 C   0  0  0  0  0  0  0  0  0  0  0  0
   -1.2447   22.8331  -26.0166 C   0  0  0  0  0  0  0  0  0  0  0  0
    0.1164   22.5490  -26.1902 C   0  0  0  0  0  0  0  0  0  0  0  0
    0.9334   22.3071  -25.0893 N   0  0  0  0  0  0  0  0  0  0  0  0
    0.5568   22.6194  -27.4499 N   0  0  0  0  0  0  0  0  0  0  0  0
   -0.2535   22.9452  -28.4317 C   0  0  0  0  0  0  0  0  0  0  0  0
   -1.5950   23.2162  -28.2469 N   0  0  0  0  0  0  0  0  0  0  0  0
   -2.0989   23.1378  -27.0093 N   0  0  0  0  0  0  0  0  0  0  0  0
   -3.2874   23.4571  -26.5075 C   0  0  0  0  0  0  0  0  0  0  0  0
    1.4366   21.4115  -24.9129 H   0  0  0  0  0  0  0  0  0  0  0  0
    1.1315   23.0407  -24.3725 H   0  0  0  0  0  0  0  0  0  0  0  0
   -1.4869   22.3316  -23.5542 C   0  0  0  0  0  0  0  0  0  0  0  0
   -1.8723   22.9362  -22.3048 C   0  0  0  0  0  0  0  0  0  0  0  0
   -1.5004   22.3970  -21.1896 C   0  0  0  0  0  0  0  0  0  0  0  0
   -1.8602   22.7848  -19.8489 C   0  0  0  0  0  0  0  0  0  0  0  0
   -1.4755   22.0398  -18.7684 C   0  0  0  0  0  0  0  0  0  0  0  0
   -2.0307   22.5311  -17.4249 C   0  0  0  0  0  0  0  0  0  0  0  0
   -0.7463   20.9027  -18.8190 C   0  0  0  0  0  0  0  0  0  0  0  0
   -0.3801   20.5140  -20.1494 C   0  0  0  0  0  0  0  0  0  0  0  0
   -0.7559   21.2447  -21.2742 C   0  0  0  0  0  0  0  0  0  0  0  0
   -0.6429   21.0483  -22.9858 S   0  0  0  0  0  0  0  0  0  0  0  0
    0.3685   19.4010  -20.3788 O   0  0  0  0  0  0  0  0  0  0  0  0
    1.7708   19.5029  -20.4992 C   0  0  0  0  0  0  0  0  0  0  0  0
   -4.6126   23.4756  -27.0445 C   0  0  0  0  0  0  0  0  0  0  0  0
   -5.5592   22.7096  -26.6922 O   0  0  0  0  0  0  0  0  0  0  0  0
   -4.9999   24.3408  -28.1287 N   0  0  0  0  0  0  0  0  0  0  0  0
   -4.5801   25.4989  -28.7751 C   0  0  0  0  0  0  0  0  0  0  0  0
   -5.5678   25.8276  -29.8976 C   0  0  0  0  0  0  0  0  0  0  0  0
   -5.3082   24.9599  -30.9886 O   0  0  0  0  0  0  0  0  0  0  0  0
   -5.1545   23.6866  -30.4421 C   0  0  0  0  0  0  0  0  0  0  0  0
   -5.8425   23.4716  -29.1563 C   0  0  0  0  0  0  0  0  0  0  0  0
   -4.3429   23.7758  -24.1412 C   0  0  0  0  0  0  0  0  0  0  0  0
   -4.8371   24.9671  -24.2896 O   0  0  0  0  0  0  0  0  0  0  0  0
   -4.3149   27.0164  -25.2958 C   0  0  0  0  0  0  0  0  0  0  0  0
   -5.2935   26.1049  -24.4499 C   0  0  0  0  0  0  0  0  0  0  0  0
 35 36  1  0  0  0
 36 34  1  0  0  0
 34 33  1  0  0  0
 33  1  1  0  0  0
  1  2  1  0  0  0
  2 13  1  0  0  0
 13 14  2  0  0  0
 14 15  1  0  0  0
 15 16  2  0  0  0
 16 17  1  0  0  0
 17 18  1  0  0  0
 17 19  2  0  0  0
 19 20  1  0  0  0
 20 23  1  0  0  0
 23 24  1  0  0  0
 20 21  2  0  0  0
 21 22  1  0  0  0
  2  3  2  0  0  0
  3  4  1  0  0  0
  4  5  1  0  0  0
  4  6  2  0  0  0
  6  7  1  0  0  0
  7  8  2  0  0  0
  8  9  1  0  0  0
  9 10  1  0  0  0
 10 25  1  0  0  0
 25 26  2  0  0  0
 25 27  1  0  0  0
 27 28  1  0  0  0
 28 29  1  0  0  0
 29 30  1  0  0  0
 30 31  1  0  0  0
 31 32  1  0  0  0
 10  1  2  0  0  0
 32 27  1  0  0  0
 22 13  1  0  0  0
  9  3  1  0  0  0
 21 15  1  0  0  0
  5 11  1  0  0  0
  5 12  1  0  0  0
M  END
> <minimizedAffinity>
-8.10981

> <CNNscore>
0.8551744223

> <CNNaffinity>
7.4624147415

> <CNN_VS>
6.3816661835

> <CNNaffinity_variance>
0.0314152502

$$$$
[H]c1nc(N([H])[H])c2c(-c3sc4c(OC([H])([H])[H])c([H])c(C([H])([H])[H])c([H])c4c3[H])c(C([H])([H])OC([H])([H])C([H])([H])[H])c(C(=O)N3C([H])([H])C([H])([H])OC([H])([H])C3([H])[H])n2n1


 36 40  0  0  0  0  0  0  0  0999 V2000
   -3.0979   23.5035  -24.4017 C   0  0  0  0  0  0  0  0  0  0  0  0
   -1.9100   23.0703  -24.0653 C   0  0  0  0  0  0  0  0  0  0  0  0
   -1.1834   22.6242  -25.2372 C   0  0  0  0  0  0  0  0  0  0  0  0
    0.1542   22.2242  -25.3558 C   0  0  0  0  0  0  0  0  0  0  0  0
    0.9663   22.1317  -24.2288 N   0  0  0  0  0  0  0  0  0  0  0  0
    0.5839   22.0368  -26.6071 N   0  0  0  0  0  0  0  0  0  0  0  0
   -0.2147   22.2326  -27.6321 C   0  0  0  0  0  0  0  0  0  0  0  0
   -1.5335   22.6205  -27.5001 N   0  0  0  0  0  0  0  0  0  0  0  0
   -2.0272   22.8003  -26.2691 N   0  0  0  0  0  0  0  0  0  0  0  0
   -3.1867   23.2827  -25.8340 C   0  0  0  0  0  0  0  0  0  0  0  0
    1.4123   21.2515  -23.8930 H   0  0  0  0  0  0  0  0  0  0  0  0
    1.2198   22.9680  -23.6564 H   0  0  0  0  0  0  0  0  0  0  0  0
   -1.4296   22.5927  -22.7248 C   0  0  0  0  0  0  0  0  0  0  0  0
   -1.0421   21.2069  -22.6578 C   0  0  0  0  0  0  0  0  0  0  0  0
   -0.5874   20.7209  -21.5488 C   0  0  0  0  0  0  0  0  0  0  0  0
   -0.0587   19.4026  -21.3043 C   0  0  0  0  0  0  0  0  0  0  0  0
    0.4937   19.0733  -20.0972 C   0  0  0  0  0  0  0  0  0  0  0  0
    1.1049   17.6670  -20.0381 C   0  0  0  0  0  0  0  0  0  0  0  0
    0.6081   19.9012  -19.0348 C   0  0  0  0  0  0  0  0  0  0  0  0
    0.0790   21.2127  -19.2691 C   0  0  0  0  0  0  0  0  0  0  0  0
   -0.4878   21.5862  -20.4855 C   0  0  0  0  0  0  0  0  0  0  0  0
   -1.0855   23.0453  -21.1889 S   0  0  0  0  0  0  0  0  0  0  0  0
    0.0995   22.1661  -18.2983 O   0  0  0  0  0  0  0  0  0  0  0  0
    0.9557   22.0255  -17.1854 C   0  0  0  0  0  0  0  0  0  0  0  0
   -4.5140   23.2913  -26.3661 C   0  0  0  0  0  0  0  0  0  0  0  0
   -5.4430   22.4942  -26.0370 O   0  0  0  0  0  0  0  0  0  0  0  0
   -4.9232   24.1840  -27.4195 N   0  0  0  0  0  0  0  0  0  0  0  0
   -4.5301   25.3717  -28.0279 C   0  0  0  0  0  0  0  0  0  0  0  0
   -5.5285   25.7170  -29.1358 C   0  0  0  0  0  0  0  0  0  0  0  0
   -5.2547   24.8921  -30.2561 O   0  0  0  0  0  0  0  0  0  0  0  0
   -5.0725   23.6046  -29.7531 C   0  0  0  0  0  0  0  0  0  0  0  0
   -5.7512   23.3322  -28.4733 C   0  0  0  0  0  0  0  0  0  0  0  0
   -4.1922   24.0924  -23.5649 C   0  0  0  0  0  0  0  0  0  0  0  0
   -4.7891   23.2706  -22.7563 O   0  0  0  0  0  0  0  0  0  0  0  0
   -6.5166   21.6899  -22.7203 C   0  0  0  0  0  0  0  0  0  0  0  0
   -5.3456   22.4700  -21.9963 C   0  0  0  0  0  0  0  0  0  0  0  0
 35 36  1  0  0  0
 36 34  1  0  0  0
 34 33  1  0  0  0
 33  1  1  0  0  0
  1  2  1  0  0  0
  2 13  1  0  0  0
 13 14  2  0  0  0
 14 15  1  0  0  0
 15 16  2  0  0  0
 16 17  1  0  0  0
 17 18  1  0  0  0
 17 19  2  0  0  0
 19 20  1  0  0  0
 20 23  1  0  0  0
 23 24  1  0  0  0
 20 21  2  0  0  0
 21 22  1  0  0  0
  2  3  2  0  0  0
  3  4  1  0  0  0
  4  5  1  0  0  0
  4  6  2  0  0  0
  6  7  1  0  0  0
  7  8  2  0  0  0
  8  9  1  0  0  0
  9 10  1  0  0  0
 10 25  1  0  0  0
 25 26  2  0  0  0
 25 27  1  0  0  0
 27 28  1  0  0  0
 28 29  1  0  0  0
 29 30  1  0  0  0
 30 31  1  0  0  0
 31 32  1  0  0  0
 10  1  2  0  0  0
 32 27  1  0  0  0
 22 13  1  0  0  0
  9  3  1  0  0  0
 21 15  1  0  0  0
  5 11  1  0  0  0
  5 12  1  0  0  0
M  END
> <minimizedAffinity>
-7.72103

> <CNNscore>
0.7224742174

> <CNNaffinity>
7.3061537743

> <CNN_VS>
5.2785077095

> <CNNaffinity_variance>
0.1028262973

$$$$
[H]c1nc(N([H])[H])c2c(-c3sc4c(OC([H])([H])[H])c([H])c(C([H])([H])[H])c([H])c4c3[H])c(C([H])([H])OC([H])([H])C([H])([H])[H])c(C(=O)N3C([H])([H])C([H])([H])OC([H])([H])C3([H])[H])n2n1


 36 40  0  0  0  0  0  0  0  0999 V2000
   -2.5572   22.9555  -23.2537 C   0  0  0  0  0  0  0  0  0  0  0  0
   -1.3557   22.4395  -23.2094 C   0  0  0  0  0  0  0  0  0  0  0  0
   -0.8284   22.2691  -24.5485 C   0  0  0  0  0  0  0  0  0  0  0  0
    0.4570   21.8894  -24.9569 C   0  0  0  0  0  0  0  0  0  0  0  0
    1.4178   21.5255  -24.0176 N   0  0  0  0  0  0  0  0  0  0  0  0
    0.6919   21.9931  -26.2683 N   0  0  0  0  0  0  0  0  0  0  0  0
   -0.2359   22.4335  -27.0881 C   0  0  0  0  0  0  0  0  0  0  0  0
   -1.5014   22.7980  -26.6724 N   0  0  0  0  0  0  0  0  0  0  0  0
   -1.8029   22.6925  -25.3726 N   0  0  0  0  0  0  0  0  0  0  0  0
   -2.8625   23.0761  -24.6680 C   0  0  0  0  0  0  0  0  0  0  0  0
    1.8643   20.5852  -23.9634 H   0  0  0  0  0  0  0  0  0  0  0  0
    1.7917   22.2017  -23.3145 H   0  0  0  0  0  0  0  0  0  0  0  0
   -0.7106   21.6559  -22.1023 C   0  0  0  0  0  0  0  0  0  0  0  0
   -0.2493   22.4282  -20.9772 C   0  0  0  0  0  0  0  0  0  0  0  0
    0.2908   21.8291  -19.9662 C   0  0  0  0  0  0  0  0  0  0  0  0
    0.7204   22.4032  -18.7159 C   0  0  0  0  0  0  0  0  0  0  0  0
    1.1705   21.6158  -17.6922 C   0  0  0  0  0  0  0  0  0  0  0  0
    1.4866   22.3740  -16.3961 C   0  0  0  0  0  0  0  0  0  0  0  0
    1.2642   20.2676  -17.7222 C   0  0  0  0  0  0  0  0  0  0  0  0
    0.8438   19.6902  -18.9651 C   0  0  0  0  0  0  0  0  0  0  0  0
    0.3764   20.4588  -20.0287 C   0  0  0  0  0  0  0  0  0  0  0  0
   -0.3273   20.1533  -21.5756 S   0  0  0  0  0  0  0  0  0  0  0  0
    0.8886   18.3456  -19.1699 O   0  0  0  0  0  0  0  0  0  0  0  0
   -0.1820   17.5288  -18.7483 C   0  0  0  0  0  0  0  0  0  0  0  0
   -4.2507   23.2268  -24.9764 C   0  0  0  0  0  0  0  0  0  0  0  0
   -5.1167   22.3019  -24.9384 O   0  0  0  0  0  0  0  0  0  0  0  0
   -4.8113   24.4654  -25.4514 N   0  0  0  0  0  0  0  0  0  0  0  0
   -4.5189   25.8248  -25.4946 C   0  0  0  0  0  0  0  0  0  0  0  0
   -5.6647   26.5578  -26.1970 C   0  0  0  0  0  0  0  0  0  0  0  0
   -5.5400   26.3464  -27.5935 O   0  0  0  0  0  0  0  0  0  0  0  0
   -5.2762   24.9872  -27.7569 C   0  0  0  0  0  0  0  0  0  0  0  0
   -5.7682   24.1205  -26.6709 C   0  0  0  0  0  0  0  0  0  0  0  0
   -3.4893   23.3480  -22.1484 C   0  0  0  0  0  0  0  0  0  0  0  0
   -3.9211   22.3772  -21.4025 O   0  0  0  0  0  0  0  0  0  0  0  0
   -3.4167   21.2986  -19.3859 C   0  0  0  0  0  0  0  0  0  0  0  0
   -4.3221   21.4629  -20.6733 C   0  0  0  0  0  0  0  0  0  0  0  0
 35 36  1  0  0  0
 36 34  1  0  0  0
 34 33  1  0  0  0
 33  1  1  0  0  0
  1  2  1  0  0  0
  2 13  1  0  0  0
 13 14  2  0  0  0
 14 15  1  0  0  0
 15 16  2  0  0  0
 16 17  1  0  0  0
 17 18  1  0  0  0
 17 19  2  0  0  0
 19 20  1  0  0  0
 20 23  1  0  0  0
 23 24  1  0  0  0
 20 21  2  0  0  0
 21 22  1  0  0  0
  2  3  2  0  0  0
  3  4  1  0  0  0
  4  5  1  0  0  0
  4  6  2  0  0  0
  6  7  1  0  0  0
  7  8  2  0  0  0
  8  9  1  0  0  0
  9 10  1  0  0  0
 10 25  1  0  0  0
 25 26  2  0  0  0
 25 27  1  0  0  0
 27 28  1  0  0  0
 28 29  1  0  0  0
 29 30  1  0  0  0
 30 31  1  0  0  0
 31 32  1  0  0  0
 10  1  2  0  0  0
 32 27  1  0  0  0
 22 13  1  0  0  0
  9  3  1  0  0  0
 21 15  1  0  0  0
  5 11  1  0  0  0
  5 12  1  0  0  0
M  END
> <minimizedAffinity>
-7.11408

> <CNNscore>
0.5731058717

> <CNNaffinity>
6.8444185257

> <CNN_VS>
3.9225764275

> <CNNaffinity_variance>
0.1091163307

$$$$
[H]c1nc(N([H])[H])c2c(-c3sc4c(OC([H])([H])[H])c([H])c(C([H])([H])[H])c([H])c4c3[H])c(C([H])([H])OC([H])([H])C([H])([H])[H])c(C(=O)N3C([H])([H])C([H])([H])OC([H])([H])C3([H])[H])n2n1


 36 40  0  0  0  0  0  0  0  0999 V2000
   -2.3881   23.0510  -23.0987 C   0  0  0  0  0  0  0  0  0  0  0  0
   -1.1793   22.5525  -23.0534 C   0  0  0  0  0  0  0  0  0  0  0  0
   -0.6890   22.2916  -24.3920 C   0  0  0  0  0  0  0  0  0  0  0  0
    0.5888   21.8973  -24.8104 C   0  0  0  0  0  0  0  0  0  0  0  0
    1.5811   21.6123  -23.8765 N   0  0  0  0  0  0  0  0  0  0  0  0
    0.7842   21.9087  -26.1323 N   0  0  0  0  0  0  0  0  0  0  0  0
   -0.1725   22.2790  -26.9534 C   0  0  0  0  0  0  0  0  0  0  0  0
   -1.4301   22.6589  -26.5273 N   0  0  0  0  0  0  0  0  0  0  0  0
   -1.6923   22.6441  -25.2149 N   0  0  0  0  0  0  0  0  0  0  0  0
   -2.7359   23.0660  -24.5083 C   0  0  0  0  0  0  0  0  0  0  0  0
    2.0410   20.6832  -23.7684 H   0  0  0  0  0  0  0  0  0  0  0  0
    1.9665   22.3413  -23.2352 H   0  0  0  0  0  0  0  0  0  0  0  0
   -0.4923   21.8576  -21.9128 C   0  0  0  0  0  0  0  0  0  0  0  0
   -0.5749   20.4195  -21.9169 C   0  0  0  0  0  0  0  0  0  0  0  0
    0.0151   19.7405  -20.9876 C   0  0  0  0  0  0  0  0  0  0  0  0
    0.1353   18.3090  -20.8699 C   0  0  0  0  0  0  0  0  0  0  0  0
    0.8938   17.7402  -19.8842 C   0  0  0  0  0  0  0  0  0  0  0  0
    1.0022   16.2116  -19.9649 C   0  0  0  0  0  0  0  0  0  0  0  0
    1.5917   18.4149  -18.9434 C   0  0  0  0  0  0  0  0  0  0  0  0
    1.4722   19.8394  -19.0511 C   0  0  0  0  0  0  0  0  0  0  0  0
    0.7123   20.4551  -20.0429 C   0  0  0  0  0  0  0  0  0  0  0  0
    0.4349   22.0724  -20.5800 S   0  0  0  0  0  0  0  0  0  0  0  0
    2.0987   20.6687  -18.1727 O   0  0  0  0  0  0  0  0  0  0  0  0
    1.4517   21.0566  -16.9801 C   0  0  0  0  0  0  0  0  0  0  0  0
   -4.1343   23.1793  -24.7850 C   0  0  0  0  0  0  0  0  0  0  0  0
   -4.9670   22.2238  -24.7661 O   0  0  0  0  0  0  0  0  0  0  0  0
   -4.7464   24.4142  -25.2025 N   0  0  0  0  0  0  0  0  0  0  0  0
   -4.5018   25.7837  -25.1996 C   0  0  0  0  0  0  0  0  0  0  0  0
   -5.6858   26.5016  -25.8525 C   0  0  0  0  0  0  0  0  0  0  0  0
   -5.5815   26.3467  -27.2581 O   0  0  0  0  0  0  0  0  0  0  0  0
   -5.2745   25.0046  -27.4776 C   0  0  0  0  0  0  0  0  0  0  0  0
   -5.7148   24.0814  -26.4162 C   0  0  0  0  0  0  0  0  0  0  0  0
   -3.2926   23.5121  -21.9971 C   0  0  0  0  0  0  0  0  0  0  0  0
   -3.7725   22.5789  -21.2327 O   0  0  0  0  0  0  0  0  0  0  0  0
   -3.1887   21.3059  -19.3557 C   0  0  0  0  0  0  0  0  0  0  0  0
   -4.2089   21.6785  -20.5066 C   0  0  0  0  0  0  0  0  0  0  0  0
 35 36  1  0  0  0
 36 34  1  0  0  0
 34 33  1  0  0  0
 33  1  1  0  0  0
  1  2  1  0  0  0
  2 13  1  0  0  0
 13 14  2  0  0  0
 14 15  1  0  0  0
 15 16  2  0  0  0
 16 17  1  0  0  0
 17 18  1  0  0  0
 17 19  2  0  0  0
 19 20  1  0  0  0
 20 23  1  0  0  0
 23 24  1  0  0  0
 20 21  2  0  0  0
 21 22  1  0  0  0
  2  3  2  0  0  0
  3  4  1  0  0  0
  4  5  1  0  0  0
  4  6  2  0  0  0
  6  7  1  0  0  0
  7  8  2  0  0  0
  8  9  1  0  0  0
  9 10  1  0  0  0
 10 25  1  0  0  0
 25 26  2  0  0  0
 25 27  1  0  0  0
 27 28  1  0  0  0
 28 29  1  0  0  0
 29 30  1  0  0  0
 30 31  1  0  0  0
 31 32  1  0  0  0
 10  1  2  0  0  0
 32 27  1  0  0  0
 22 13  1  0  0  0
  9  3  1  0  0  0
 21 15  1  0  0  0
  5 11  1  0  0  0
  5 12  1  0  0  0
M  END
> <minimizedAffinity>
-7.09575

> <CNNscore>
0.5058132410

> <CNNaffinity>
6.8112473488

> <CNN_VS>
3.4452190399

> <CNNaffinity_variance>
0.2301137447

$$$$
[H]c1nc(N([H])[H])c2c(-c3sc4c(OC([H])([H])[H])c([H])c(C([H])([H])[H])c([H])c4c3[H])c(C([H])([H])OC([H])([H])C([H])([H])[H])c(C(=O)N3C([H])([H])C([H])([H])OC([H])([H])C3([H])[H])n2n1


 36 40  0  0  0  0  0  0  0  0999 V2000
   -2.0632   22.2348  -22.4500 C   0  0  0  0  0  0  0  0  0  0  0  0
   -0.8343   21.9032  -22.7528 C   0  0  0  0  0  0  0  0  0  0  0  0
   -0.6403   21.9364  -24.1886 C   0  0  0  0  0  0  0  0  0  0  0  0
    0.5397   21.7929  -24.9305 C   0  0  0  0  0  0  0  0  0  0  0  0
    1.7415   21.4934  -24.2950 N   0  0  0  0  0  0  0  0  0  0  0  0
    0.4259   22.0495  -26.2370 N   0  0  0  0  0  0  0  0  0  0  0  0
   -0.7239   22.4184  -26.7554 C   0  0  0  0  0  0  0  0  0  0  0  0
   -1.8810   22.5494  -26.0130 N   0  0  0  0  0  0  0  0  0  0  0  0
   -1.8339   22.2820  -24.7024 N   0  0  0  0  0  0  0  0  0  0  0  0
   -2.7236   22.4363  -23.7273 C   0  0  0  0  0  0  0  0  0  0  0  0
    2.2999   20.6298  -24.4646 H   0  0  0  0  0  0  0  0  0  0  0  0
    2.1922   22.1512  -23.6201 H   0  0  0  0  0  0  0  0  0  0  0  0
    0.1579   21.1279  -21.9341 C   0  0  0  0  0  0  0  0  0  0  0  0
   -0.2594   19.8092  -21.5316 C   0  0  0  0  0  0  0  0  0  0  0  0
    0.5464   19.0616  -20.8501 C   0  0  0  0  0  0  0  0  0  0  0  0
    0.3601   17.6920  -20.4416 C   0  0  0  0  0  0  0  0  0  0  0  0
    1.3596   16.9958  -19.8196 C   0  0  0  0  0  0  0  0  0  0  0  0
    1.0358   15.5206  -19.5485 C   0  0  0  0  0  0  0  0  0  0  0  0
    2.5867   17.4800  -19.5246 C   0  0  0  0  0  0  0  0  0  0  0  0
    2.7771   18.8438  -19.9230 C   0  0  0  0  0  0  0  0  0  0  0  0
    1.7846   19.5838  -20.5615 C   0  0  0  0  0  0  0  0  0  0  0  0
    1.6670   21.1410  -21.2980 S   0  0  0  0  0  0  0  0  0  0  0  0
    3.9505   19.4911  -19.6867 O   0  0  0  0  0  0  0  0  0  0  0  0
    5.0307   19.3497  -20.5837 C   0  0  0  0  0  0  0  0  0  0  0  0
   -4.1525   22.4043  -23.6810 C   0  0  0  0  0  0  0  0  0  0  0  0
   -4.8639   21.3554  -23.6573 O   0  0  0  0  0  0  0  0  0  0  0  0
   -4.9588   23.5963  -23.7365 N   0  0  0  0  0  0  0  0  0  0  0  0
   -4.8519   24.9698  -23.5431 C   0  0  0  0  0  0  0  0  0  0  0  0
   -6.2166   25.6153  -23.7968 C   0  0  0  0  0  0  0  0  0  0  0  0
   -6.4216   25.6897  -25.1978 O   0  0  0  0  0  0  0  0  0  0  0  0
   -6.0460   24.4487  -25.7101 C   0  0  0  0  0  0  0  0  0  0  0  0
   -6.1423   23.3258  -24.7601 C   0  0  0  0  0  0  0  0  0  0  0  0
   -2.7318   22.3807  -21.1173 C   0  0  0  0  0  0  0  0  0  0  0  0
   -1.9580   22.7198  -20.1315 O   0  0  0  0  0  0  0  0  0  0  0  0
   -0.7267   21.8120  -18.3583 C   0  0  0  0  0  0  0  0  0  0  0  0
   -1.2364   23.0600  -19.1871 C   0  0  0  0  0  0  0  0  0  0  0  0
 35 36  1  0  0  0
 36 34  1  0  0  0
 34 33  1  0  0  0
 33  1  1  0  0  0
  1  2  1  0  0  0
  2 13  1  0  0  0
 13 14  2  0  0  0
 14 15  1  0  0  0
 15 16  2  0  0  0
 16 17  1  0  0  0
 17 18  1  0  0  0
 17 19  2  0  0  0
 19 20  1  0  0  0
 20 23  1  0  0  0
 23 24  1  0  0  0
 20 21  2  0  0  0
 21 22  1  0  0  0
  2  3  2  0  0  0
  3  4  1  0  0  0
  4  5  1  0  0  0
  4  6  2  0  0  0
  6  7  1  0  0  0
  7  8  2  0  0  0
  8  9  1  0  0  0
  9 10  1  0  0  0
 10 25  1  0  0  0
 25 26  2  0  0  0
 25 27  1  0  0  0
 27 28  1  0  0  0
 28 29  1  0  0  0
 29 30  1  0  0  0
 30 31  1  0  0  0
 31 32  1  0  0  0
 10  1  2  0  0  0
 32 27  1  0  0  0
 22 13  1  0  0  0
  9  3  1  0  0  0
 21 15  1  0  0  0
  5 11  1  0  0  0
  5 12  1  0  0  0
M  END
> <minimizedAffinity>
-6.97970

> <CNNscore>
0.4830224216

> <CNNaffinity>
6.6111130714

> <CNN_VS>
3.1933157444

> <CNNaffinity_variance>
0.0744100213

$$$$
[H]c1nc(N([H])[H])c2c(-c3sc4c(OC([H])([H])[H])c([H])c(C([H])([H])[H])c([H])c4c3[H])c(C([H])([H])OC([H])([H])C([H])([H])[H])c(C(=O)N3C([H])([H])C([H])([H])OC([H])([H])C3([H])[H])n2n1


 36 40  0  0  0  0  0  0  0  0999 V2000
   -2.1556   23.3630  -22.9386 C   0  0  0  0  0  0  0  0  0  0  0  0
   -1.0151   22.7219  -22.9508 C   0  0  0  0  0  0  0  0  0  0  0  0
   -0.6312   22.3980  -24.3102 C   0  0  0  0  0  0  0  0  0  0  0  0
    0.5659   21.8501  -24.7901 C   0  0  0  0  0  0  0  0  0  0  0  0
    1.5644   21.4510  -23.9059 N   0  0  0  0  0  0  0  0  0  0  0  0
    0.6913   21.8323  -26.1203 N   0  0  0  0  0  0  0  0  0  0  0  0
   -0.2557   22.3122  -26.8947 C   0  0  0  0  0  0  0  0  0  0  0  0
   -1.4340   22.8434  -26.4080 N   0  0  0  0  0  0  0  0  0  0  0  0
   -1.6265   22.8660  -25.0836 N   0  0  0  0  0  0  0  0  0  0  0  0
   -2.5729   23.4141  -24.3284 C   0  0  0  0  0  0  0  0  0  0  0  0
    1.9137   20.4735  -23.8120 H   0  0  0  0  0  0  0  0  0  0  0  0
    2.0682   22.1307  -23.2931 H   0  0  0  0  0  0  0  0  0  0  0  0
   -0.3579   21.9538  -21.8401 C   0  0  0  0  0  0  0  0  0  0  0  0
   -0.5514   20.5266  -21.8682 C   0  0  0  0  0  0  0  0  0  0  0  0
    0.0056   19.7859  -20.9660 C   0  0  0  0  0  0  0  0  0  0  0  0
    0.0175   18.3474  -20.8773 C   0  0  0  0  0  0  0  0  0  0  0  0
    0.7522   17.7025  -19.9208 C   0  0  0  0  0  0  0  0  0  0  0  0
    0.7403   16.1720  -20.0318 C   0  0  0  0  0  0  0  0  0  0  0  0
    1.5215   18.3027  -18.9853 C   0  0  0  0  0  0  0  0  0  0  0  0
    1.5099   19.7340  -19.0642 C   0  0  0  0  0  0  0  0  0  0  0  0
    0.7773   20.4259  -20.0259 C   0  0  0  0  0  0  0  0  0  0  0  0
    0.6135   22.0701  -20.5266 S   0  0  0  0  0  0  0  0  0  0  0  0
    2.2186   20.4951  -18.1865 O   0  0  0  0  0  0  0  0  0  0  0  0
    1.6325   20.9043  -16.9698 C   0  0  0  0  0  0  0  0  0  0  0  0
   -3.9600   23.6947  -24.5335 C   0  0  0  0  0  0  0  0  0  0  0  0
   -4.4418   24.8215  -24.8577 O   0  0  0  0  0  0  0  0  0  0  0  0
   -4.9922   22.7155  -24.3106 N   0  0  0  0  0  0  0  0  0  0  0  0
   -5.1529   21.3387  -24.1924 C   0  0  0  0  0  0  0  0  0  0  0  0
   -6.6331   21.0295  -23.9543 C   0  0  0  0  0  0  0  0  0  0  0  0
   -6.9374   21.3197  -22.6002 O   0  0  0  0  0  0  0  0  0  0  0  0
   -6.3522   22.5557  -22.3285 C   0  0  0  0  0  0  0  0  0  0  0  0
   -6.1592   23.4267  -23.5019 C   0  0  0  0  0  0  0  0  0  0  0  0
   -2.9386   23.9349  -21.7966 C   0  0  0  0  0  0  0  0  0  0  0  0
   -3.2460   23.1017  -20.8495 O   0  0  0  0  0  0  0  0  0  0  0  0
   -2.5807   22.3940  -18.7186 C   0  0  0  0  0  0  0  0  0  0  0  0
   -3.5545   22.2980  -19.9622 C   0  0  0  0  0  0  0  0  0  0  0  0
 35 36  1  0  0  0
 36 34  1  0  0  0
 34 33  1  0  0  0
 33  1  1  0  0  0
  1  2  1  0  0  0
  2 13  1  0  0  0
 13 14  2  0  0  0
 14 15  1  0  0  0
 15 16  2  0  0  0
 16 17  1  0  0  0
 17 18  1  0  0  0
 17 19  2  0  0  0
 19 20  1  0  0  0
 20 23  1  0  0  0
 23 24  1  0  0  0
 20 21  2  0  0  0
 21 22  1  0  0  0
  2  3  2  0  0  0
  3  4  1  0  0  0
  4  5  1  0  0  0
  4  6  2  0  0  0
  6  7  1  0  0  0
  7  8  2  0  0  0
  8  9  1  0  0  0
  9 10  1  0  0  0
 10 25  1  0  0  0
 25 26  2  0  0  0
 25 27  1  0  0  0
 27 28  1  0  0  0
 28 29  1  0  0  0
 29 30  1  0  0  0
 30 31  1  0  0  0
 31 32  1  0  0  0
 10  1  2  0  0  0
 32 27  1  0  0  0
 22 13  1  0  0  0
  9  3  1  0  0  0
 21 15  1  0  0  0
  5 11  1  0  0  0
  5 12  1  0  0  0
M  END
> <minimizedAffinity>
-6.49586

> <CNNscore>
0.4389926493

> <CNNaffinity>
6.5808372498

> <CNN_VS>
2.8889391422

> <CNNaffinity_variance>
0.1655975878

$$$$
[H]c1nc(N([H])[H])c2c(-c3sc4c(OC([H])([H])[H])c([H])c(C([H])([H])[H])c([H])c4c3[H])c(C([H])([H])OC([H])([H])C([H])([H])[H])c(C(=O)N3C([H])([H])C([H])([H])OC([H])([H])C3([H])[H])n2n1


 36 40  0  0  0  0  0  0  0  0999 V2000
   -2.2695   23.2997  -22.8642 C   0  0  0  0  0  0  0  0  0  0  0  0
   -1.1350   22.6482  -22.8760 C   0  0  0  0  0  0  0  0  0  0  0  0
   -0.7198   22.3795  -24.2383 C   0  0  0  0  0  0  0  0  0  0  0  0
    0.4839   21.8408  -24.7117 C   0  0  0  0  0  0  0  0  0  0  0  0
    1.4561   21.3936  -23.8212 N   0  0  0  0  0  0  0  0  0  0  0  0
    0.6426   21.8792  -26.0380 N   0  0  0  0  0  0  0  0  0  0  0  0
   -0.2802   22.4019  -26.8139 C   0  0  0  0  0  0  0  0  0  0  0  0
   -1.4654   22.9234  -26.3339 N   0  0  0  0  0  0  0  0  0  0  0  0
   -1.6911   22.8906  -25.0151 N   0  0  0  0  0  0  0  0  0  0  0  0
   -2.6511   23.4151  -24.2604 C   0  0  0  0  0  0  0  0  0  0  0  0
    1.7941   20.4095  -23.7614 H   0  0  0  0  0  0  0  0  0  0  0  0
    1.9505   22.0410  -23.1672 H   0  0  0  0  0  0  0  0  0  0  0  0
   -0.5129   21.8260  -21.7838 C   0  0  0  0  0  0  0  0  0  0  0  0
    0.0666   22.5701  -20.6950 C   0  0  0  0  0  0  0  0  0  0  0  0
    0.5963   21.9398  -19.6976 C   0  0  0  0  0  0  0  0  0  0  0  0
    1.1323   22.4912  -18.4786 C   0  0  0  0  0  0  0  0  0  0  0  0
    1.5562   21.6817  -17.4610 C   0  0  0  0  0  0  0  0  0  0  0  0
    1.9978   22.4275  -16.1947 C   0  0  0  0  0  0  0  0  0  0  0  0
    1.5270   20.3303  -17.4695 C   0  0  0  0  0  0  0  0  0  0  0  0
    1.0003   19.7748  -18.6815 C   0  0  0  0  0  0  0  0  0  0  0  0
    0.5557   20.5665  -19.7378 C   0  0  0  0  0  0  0  0  0  0  0  0
   -0.2424   20.3029  -21.2460 S   0  0  0  0  0  0  0  0  0  0  0  0
    0.9149   18.4288  -18.8625 O   0  0  0  0  0  0  0  0  0  0  0  0
    1.9983   17.7193  -19.4231 C   0  0  0  0  0  0  0  0  0  0  0  0
   -4.0300   23.7184  -24.4874 C   0  0  0  0  0  0  0  0  0  0  0  0
   -4.4889   24.8546  -24.8120 O   0  0  0  0  0  0  0  0  0  0  0  0
   -5.0808   22.7538  -24.2892 N   0  0  0  0  0  0  0  0  0  0  0  0
   -5.2645   21.3789  -24.1834 C   0  0  0  0  0  0  0  0  0  0  0  0
   -6.7533   21.0909  -23.9730 C   0  0  0  0  0  0  0  0  0  0  0  0
   -7.0765   21.3767  -22.6223 O   0  0  0  0  0  0  0  0  0  0  0  0
   -6.4773   22.6016  -22.3320 C   0  0  0  0  0  0  0  0  0  0  0  0
   -6.2506   23.4774  -23.4957 C   0  0  0  0  0  0  0  0  0  0  0  0
   -3.0758   23.8295  -21.7181 C   0  0  0  0  0  0  0  0  0  0  0  0
   -3.3718   22.9702  -20.7910 O   0  0  0  0  0  0  0  0  0  0  0  0
   -2.9023   22.4123  -18.5655 C   0  0  0  0  0  0  0  0  0  0  0  0
   -3.6671   22.1400  -19.9239 C   0  0  0  0  0  0  0  0  0  0  0  0
 35 36  1  0  0  0
 36 34  1  0  0  0
 34 33  1  0  0  0
 33  1  1  0  0  0
  1  2  1  0  0  0
  2 13  1  0  0  0
 13 14  2  0  0  0
 14 15  1  0  0  0
 15 16  2  0  0  0
 16 17  1  0  0  0
 17 18  1  0  0  0
 17 19  2  0  0  0
 19 20  1  0  0  0
 20 23  1  0  0  0
 23 24  1  0  0  0
 20 21  2  0  0  0
 21 22  1  0  0  0
  2  3  2  0  0  0
  3  4  1  0  0  0
  4  5  1  0  0  0
  4  6  2  0  0  0
  6  7  1  0  0  0
  7  8  2  0  0  0
  8  9  1  0  0  0
  9 10  1  0  0  0
 10 25  1  0  0  0
 25 26  2  0  0  0
 25 27  1  0  0  0
 27 28  1  0  0  0
 28 29  1  0  0  0
 29 30  1  0  0  0
 30 31  1  0  0  0
 31 32  1  0  0  0
 10  1  2  0  0  0
 32 27  1  0  0  0
 22 13  1  0  0  0
  9  3  1  0  0  0
 21 15  1  0  0  0
  5 11  1  0  0  0
  5 12  1  0  0  0
M  END
> <minimizedAffinity>
-6.36869

> <CNNscore>
0.4185109437

> <CNNaffinity>
6.5789575577

> <CNN_VS>
2.7533657551

> <CNNaffinity_variance>
0.1315701902

$$$$
[H]c1nc(N([H])[H])c2c(-c3sc4c(OC([H])([H])[H])c([H])c(C([H])([H])[H])c([H])c4c3[H])c(C([H])([H])OC([H])([H])C([H])([H])[H])c(C(=O)N3C([H])([H])C([H])([H])OC([H])([H])C3([H])[H])n2n1


 36 40  0  0  0  0  0  0  0  0999 V2000
   -2.3028   21.7521  -22.4410 C   0  0  0  0  0  0  0  0  0  0  0  0
   -1.0241   21.5391  -22.6185 C   0  0  0  0  0  0  0  0  0  0  0  0
   -0.6727   21.7039  -24.0148 C   0  0  0  0  0  0  0  0  0  0  0  0
    0.5914   21.7099  -24.6193 C   0  0  0  0  0  0  0  0  0  0  0  0
    1.7346   21.4502  -23.8685 N   0  0  0  0  0  0  0  0  0  0  0  0
    0.6048   22.0632  -25.9080 N   0  0  0  0  0  0  0  0  0  0  0  0
   -0.5058   22.3862  -26.5316 C   0  0  0  0  0  0  0  0  0  0  0  0
   -1.7463   22.3693  -25.9247 N   0  0  0  0  0  0  0  0  0  0  0  0
   -1.8253   22.0001  -24.6407 N   0  0  0  0  0  0  0  0  0  0  0  0
   -2.8293   22.0073  -23.7698 C   0  0  0  0  0  0  0  0  0  0  0  0
    2.3789   20.6475  -24.0325 H   0  0  0  0  0  0  0  0  0  0  0  0
    2.0495   22.0825  -23.0990 H   0  0  0  0  0  0  0  0  0  0  0  0
   -0.0694   20.7758  -21.7458 C   0  0  0  0  0  0  0  0  0  0  0  0
    0.8196   21.5764  -20.9434 C   0  0  0  0  0  0  0  0  0  0  0  0
    1.6534   20.9998  -20.1403 C   0  0  0  0  0  0  0  0  0  0  0  0
    2.5463   21.6151  -19.1908 C   0  0  0  0  0  0  0  0  0  0  0  0
    3.2893   20.8608  -18.3250 C   0  0  0  0  0  0  0  0  0  0  0  0
    4.1052   21.6730  -17.3104 C   0  0  0  0  0  0  0  0  0  0  0  0
    3.2800   19.5110  -18.2538 C   0  0  0  0  0  0  0  0  0  0  0  0
    2.3981   18.8920  -19.1993 C   0  0  0  0  0  0  0  0  0  0  0  0
    1.6233   19.6265  -20.0941 C   0  0  0  0  0  0  0  0  0  0  0  0
    0.3844   19.2834  -21.2467 S   0  0  0  0  0  0  0  0  0  0  0  0
    2.2798   17.5383  -19.2731 O   0  0  0  0  0  0  0  0  0  0  0  0
    3.1284   16.7984  -20.1239 C   0  0  0  0  0  0  0  0  0  0  0  0
   -4.2465   21.8650  -23.8965 C   0  0  0  0  0  0  0  0  0  0  0  0
   -4.8555   20.7873  -24.1694 O   0  0  0  0  0  0  0  0  0  0  0  0
   -5.1513   22.9813  -23.8008 N   0  0  0  0  0  0  0  0  0  0  0  0
   -5.1929   24.2863  -23.3206 C   0  0  0  0  0  0  0  0  0  0  0  0
   -6.5805   24.8726  -23.5934 C   0  0  0  0  0  0  0  0  0  0  0  0
   -6.6529   25.2285  -24.9640 O   0  0  0  0  0  0  0  0  0  0  0  0
   -6.1145   24.1546  -25.6715 C   0  0  0  0  0  0  0  0  0  0  0  0
   -6.1981   22.8514  -24.9878 C   0  0  0  0  0  0  0  0  0  0  0  0
   -3.1275   21.7383  -21.1904 C   0  0  0  0  0  0  0  0  0  0  0  0
   -2.5504   22.2120  -20.1283 O   0  0  0  0  0  0  0  0  0  0  0  0
   -1.5126   21.5468  -18.1370 C   0  0  0  0  0  0  0  0  0  0  0  0
   -2.0148   22.6823  -19.1181 C   0  0  0  0  0  0  0  0  0  0  0  0
 35 36  1  0  0  0
 36 34  1  0  0  0
 34 33  1  0  0  0
 33  1  1  0  0  0
  1  2  1  0  0  0
  2 13  1  0  0  0
 13 14  2  0  0  0
 14 15  1  0  0  0
 15 16  2  0  0  0
 16 17  1  0  0  0
 17 18  1  0  0  0
 17 19  2  0  0  0
 19 20  1  0  0  0
 20 23  1  0  0  0
 23 24  1  0  0  0
 20 21  2  0  0  0
 21 22  1  0  0  0
  2  3  2  0  0  0
  3  4  1  0  0  0
  4  5  1  0  0  0
  4  6  2  0  0  0
  6  7  1  0  0  0
  7  8  2  0  0  0
  8  9  1  0  0  0
  9 10  1  0  0  0
 10 25  1  0  0  0
 25 26  2  0  0  0
 25 27  1  0  0  0
 27 28  1  0  0  0
 28 29  1  0  0  0
 29 30  1  0  0  0
 30 31  1  0  0  0
 31 32  1  0  0  0
 10  1  2  0  0  0
 32 27  1  0  0  0
 22 13  1  0  0  0
  9  3  1  0  0  0
 21 15  1  0  0  0
  5 11  1  0  0  0
  5 12  1  0  0  0
M  END
> <minimizedAffinity>
-6.46678

> <CNNscore>
0.2812118232

> <CNNaffinity>
6.3717088699

> <CNN_VS>
1.7917999029

> <CNNaffinity_variance>
0.0787873268

$$$$
[H]c1nc(N([H])[H])c2c(-c3sc4c(OC([H])([H])[H])c([H])c(C([H])([H])[H])c([H])c4c3[H])c(C([H])([H])OC([H])([H])C([H])([H])[H])c(C(=O)N3C([H])([H])C([H])([H])OC([H])([H])C3([H])[H])n2n1


 36 40  0  0  0  0  0  0  0  0999 V2000
   -4.1587   24.6534  -25.1167 C   0  0  0  0  0  0  0  0  0  0  0  0
   -3.3228   23.7547  -24.6635 C   0  0  0  0  0  0  0  0  0  0  0  0
   -2.6474   23.0924  -25.7614 C   0  0  0  0  0  0  0  0  0  0  0  0
   -1.5851   22.1792  -25.7314 C   0  0  0  0  0  0  0  0  0  0  0  0
   -1.0859   21.7161  -24.5171 N   0  0  0  0  0  0  0  0  0  0  0  0
   -1.0589   21.8780  -26.9223 N   0  0  0  0  0  0  0  0  0  0  0  0
   -1.5220   22.4257  -28.0234 C   0  0  0  0  0  0  0  0  0  0  0  0
   -2.5745   23.3196  -28.0388 N   0  0  0  0  0  0  0  0  0  0  0  0
   -3.1578   23.6410  -26.8778 N   0  0  0  0  0  0  0  0  0  0  0  0
   -4.0812   24.5435  -26.5624 C   0  0  0  0  0  0  0  0  0  0  0  0
   -1.0968   20.7183  -24.2162 H   0  0  0  0  0  0  0  0  0  0  0  0
   -0.6199   22.3500  -23.8299 H   0  0  0  0  0  0  0  0  0  0  0  0
   -3.3135   23.0707  -23.3264 C   0  0  0  0  0  0  0  0  0  0  0  0
   -2.1613   23.3284  -22.5011 C   0  0  0  0  0  0  0  0  0  0  0  0
   -2.0869   22.8034  -21.3214 C   0  0  0  0  0  0  0  0  0  0  0  0
   -1.0785   23.0158  -20.3137 C   0  0  0  0  0  0  0  0  0  0  0  0
   -1.2004   22.4738  -19.0640 C   0  0  0  0  0  0  0  0  0  0  0  0
   -0.0961   22.8840  -18.0806 C   0  0  0  0  0  0  0  0  0  0  0  0
   -2.2304   21.7093  -18.6375 C   0  0  0  0  0  0  0  0  0  0  0  0
   -3.2346   21.4892  -19.6366 C   0  0  0  0  0  0  0  0  0  0  0  0
   -3.1472   22.0272  -20.9185 C   0  0  0  0  0  0  0  0  0  0  0  0
   -4.1670   22.1121  -22.3091 S   0  0  0  0  0  0  0  0  0  0  0  0
   -4.3325   20.7279  -19.3783 O   0  0  0  0  0  0  0  0  0  0  0  0
   -5.2740   21.1467  -18.4142 C   0  0  0  0  0  0  0  0  0  0  0  0
   -5.1796   25.1211  -27.2727 C   0  0  0  0  0  0  0  0  0  0  0  0
   -6.3667   25.2171  -26.8386 O   0  0  0  0  0  0  0  0  0  0  0  0
   -5.0649   25.5983  -28.6267 N   0  0  0  0  0  0  0  0  0  0  0  0
   -4.0952   25.9886  -29.5446 C   0  0  0  0  0  0  0  0  0  0  0  0
   -4.7822   26.3962  -30.8505 C   0  0  0  0  0  0  0  0  0  0  0  0
   -5.1598   25.2178  -31.5428 O   0  0  0  0  0  0  0  0  0  0  0  0
   -5.7412   24.3801  -30.5920 C   0  0  0  0  0  0  0  0  0  0  0  0
   -6.3290   25.0688  -29.4289 C   0  0  0  0  0  0  0  0  0  0  0  0
   -5.0497   25.6104  -24.3856 C   0  0  0  0  0  0  0  0  0  0  0  0
   -6.0256   25.0753  -23.7174 O   0  0  0  0  0  0  0  0  0  0  0  0
   -8.3367   25.2389  -23.3761 C   0  0  0  0  0  0  0  0  0  0  0  0
   -6.9452   24.5441  -23.0844 C   0  0  0  0  0  0  0  0  0  0  0  0
 35 36  1  0  0  0
 36 34  1  0  0  0
 34 33  1  0  0  0
 33  1  1  0  0  0
  1  2  1  0  0  0
  2 13  1  0  0  0
 13 14  2  0  0  0
 14 15  1  0  0  0
 15 16  2  0  0  0
 16 17  1  0  0  0
 17 18  1  0  0  0
 17 19  2  0  0  0
 19 20  1  0  0  0
 20 23  1  0  0  0
 23 24  1  0  0  0
 20 21  2  0  0  0
 21 22  1  0  0  0
  2  3  2  0  0  0
  3  4  1  0  0  0
  4  5  1  0  0  0
  4  6  2  0  0  0
  6  7  1  0  0  0
  7  8  2  0  0  0
  8  9  1  0  0  0
  9 10  1  0  0  0
 10 25  1  0  0  0
 25 26  2  0  0  0
 25 27  1  0  0  0
 27 28  1  0  0  0
 28 29  1  0  0  0
 29 30  1  0  0  0
 30 31  1  0  0  0
 31 32  1  0  0  0
 10  1  2  0  0  0
 32 27  1  0  0  0
 22 13  1  0  0  0
  9  3  1  0  0  0
 21 15  1  0  0  0
  5 11  1  0  0  0
  5 12  1  0  0  0
M  END
> <minimizedAffinity>
-7.51902

> <CNNscore>
0.1934951246

> <CNNaffinity>
6.9710946083

> <CNN_VS>
1.3488727808

> <CNNaffinity_variance>
0.4198221266

$$$$
[H]c1nc(N([H])[H])c(-c2nn(-c3c([H])c(OC([H])([H])[H])c([H])c(OC([H])([H])[H])c3[H])c(=O)c([H])c2[H])nc1-c1c([H])nn(C2([H])C([H])([H])C([H])([H])N(C([H])([H])[H])C([H])([H])C2([H])[H])c1[H]


 38 42  0  0  0  0  0  0  0  0999 V2000
    0.8015   21.0952  -21.8641 C   0  0  0  0  0  0  0  0  0  0  0  0
    0.0412   21.3899  -22.7582 N   0  0  0  0  0  0  0  0  0  0  0  0
   -0.4286   21.6874  -23.8943 C   0  0  0  0  0  0  0  0  0  0  0  0
    0.6842   21.7068  -24.8324 C   0  0  0  0  0  0  0  0  0  0  0  0
    1.7913   21.4080  -24.1668 N   0  0  0  0  0  0  0  0  0  0  0  0
    2.1162   21.1267  -22.9965 C   0  0  0  0  0  0  0  0  0  0  0  0
    3.3389   20.9419  -22.4300 N   0  0  0  0  0  0  0  0  0  0  0  0
    3.7151   21.6017  -21.6626 H   0  0  0  0  0  0  0  0  0  0  0  0
    4.0396   20.1846  -22.6749 H   0  0  0  0  0  0  0  0  0  0  0  0
    2.8068   21.3958  -18.8687 N   0  0  0  0  0  0  0  0  0  0  0  0
    2.1867   21.6819  -19.9544 N   0  0  0  0  0  0  0  0  0  0  0  0
    1.6794   20.7548  -20.8318 C   0  0  0  0  0  0  0  0  0  0  0  0
    1.8753   19.4116  -20.4691 C   0  0  0  0  0  0  0  0  0  0  0  0
    2.5250   19.0803  -19.3297 C   0  0  0  0  0  0  0  0  0  0  0  0
    2.9955   20.0878  -18.5228 C   0  0  0  0  0  0  0  0  0  0  0  0
    3.5980   19.7740  -17.4712 O   0  0  0  0  0  0  0  0  0  0  0  0
    3.2355   23.5420  -15.8698 C   0  0  0  0  0  0  0  0  0  0  0  0
    4.3712   24.2529  -16.1535 C   0  0  0  0  0  0  0  0  0  0  0  0
    5.0218   24.0209  -17.3705 C   0  0  0  0  0  0  0  0  0  0  0  0
    4.5132   23.0925  -18.2520 C   0  0  0  0  0  0  0  0  0  0  0  0
    3.3760   22.3702  -17.9851 C   0  0  0  0  0  0  0  0  0  0  0  0
    2.7383   22.6101  -16.7724 C   0  0  0  0  0  0  0  0  0  0  0  0
    1.8060   22.6728  -14.0924 C   0  0  0  0  0  0  0  0  0  0  0  0
    2.5329   23.7121  -14.6762 O   0  0  0  0  0  0  0  0  0  0  0  0
    6.1535   24.7715  -17.5687 O   0  0  0  0  0  0  0  0  0  0  0  0
    7.1607   24.3543  -18.4624 C   0  0  0  0  0  0  0  0  0  0  0  0
   -1.7627   21.9422  -24.3015 C   0  0  0  0  0  0  0  0  0  0  0  0
   -2.9452   21.4922  -23.7860 C   0  0  0  0  0  0  0  0  0  0  0  0
   -3.9395   21.9721  -24.5012 N   0  0  0  0  0  0  0  0  0  0  0  0
   -3.4690   22.7496  -25.4942 N   0  0  0  0  0  0  0  0  0  0  0  0
   -2.1411   22.7382  -25.3835 C   0  0  0  0  0  0  0  0  0  0  0  0
   -4.2727   23.4553  -26.4773 C   0  0  0  0  0  0  0  0  0  0  0  0
   -4.3000   24.9237  -26.1909 C   0  0  0  0  0  0  0  0  0  0  0  0
   -4.8921   25.7493  -27.2836 C   0  0  0  0  0  0  0  0  0  0  0  0
   -4.7174   25.2713  -28.5853 N   0  0  0  0  0  0  0  0  0  0  0  0
   -5.5704   25.7183  -29.6137 C   0  0  0  0  0  0  0  0  0  0  0  0
   -3.8258   24.2214  -28.8436 C   0  0  0  0  0  0  0  0  0  0  0  0
   -3.7313   23.1430  -27.8318 C   0  0  0  0  0  0  0  0  0  0  0  0
 23 24  1  0  0  0
 24 17  1  0  0  0
 17 18  2  0  0  0
 18 19  1  0  0  0
 19 25  1  0  0  0
 25 26  1  0  0  0
 19 20  2  0  0  0
 20 21  1  0  0  0
 21 22  2  0  0  0
 21 10  1  0  0  0
 10 11  1  0  0  0
 11 12  2  0  0  0
 12 13  1  0  0  0
 13 14  2  0  0  0
 14 15  1  0  0  0
 15 16  2  0  0  0
 12  1  1  0  0  0
  1  2  2  0  0  0
  2  3  1  0  0  0
  3  4  2  0  0  0
  4  5  1  0  0  0
  5  6  2  0  0  0
  6  7  1  0  0  0
  3 27  1  0  0  0
 27 28  1  0  0  0
 28 29  2  0  0  0
 29 30  1  0  0  0
 30 31  1  0  0  0
 30 32  1  0  0  0
 32 33  1  0  0  0
 33 34  1  0  0  0
 34 35  1  0  0  0
 35 36  1  0  0  0
 35 37  1  0  0  0
 37 38  1  0  0  0
 22 17  1  0  0  0
 15 10  1  0  0  0
  6  1  1  0  0  0
 31 27  2  0  0  0
 38 32  1  0  0  0
  7  8  1  0  0  0
  7  9  1  0  0  0
M  END
> <minimizedAffinity>
-8.44962

> <CNNscore>
0.1568545252

> <CNNaffinity>
6.3088994026

> <CNN_VS>
0.9895794392

> <CNNaffinity_variance>
0.1082070470

$$$$
[H]c1nc(N([H])[H])c(-c2nn(-c3c([H])c(OC([H])([H])[H])c([H])c(OC([H])([H])[H])c3[H])c(=O)c([H])c2[H])nc1-c1c([H])nn(C2([H])C([H])([H])C([H])([H])N(C([H])([H])[H])C([H])([H])C2([H])[H])c1[H]


 38 42  0  0  0  0  0  0  0  0999 V2000
    0.7997   21.0673  -21.8397 C   0  0  0  0  0  0  0  0  0  0  0  0
    0.0448   21.3687  -22.7361 N   0  0  0  0  0  0  0  0  0  0  0  0
   -0.4177   21.6784  -23.8719 C   0  0  0  0  0  0  0  0  0  0  0  0
    0.7028   21.7193  -24.8001 C   0  0  0  0  0  0  0  0  0  0  0  0
    1.8065   21.4195  -24.1294 N   0  0  0  0  0  0  0  0  0  0  0  0
    2.1237   21.1244  -22.9603 C   0  0  0  0  0  0  0  0  0  0  0  0
    3.3429   20.9409  -22.3860 N   0  0  0  0  0  0  0  0  0  0  0  0
    3.7075   21.5928  -21.6064 H   0  0  0  0  0  0  0  0  0  0  0  0
    4.0513   20.1923  -22.6354 H   0  0  0  0  0  0  0  0  0  0  0  0
    2.7527   21.3301  -18.8065 N   0  0  0  0  0  0  0  0  0  0  0  0
    2.1409   21.6324  -19.8925 N   0  0  0  0  0  0  0  0  0  0  0  0
    1.6714   20.7192  -20.8048 C   0  0  0  0  0  0  0  0  0  0  0  0
    1.8981   19.3713  -20.4794 C   0  0  0  0  0  0  0  0  0  0  0  0
    2.5399   19.0229  -19.3406 C   0  0  0  0  0  0  0  0  0  0  0  0
    2.9715   20.0177  -18.4969 C   0  0  0  0  0  0  0  0  0  0  0  0
    3.5670   19.6883  -17.4460 O   0  0  0  0  0  0  0  0  0  0  0  0
    4.9423   23.9997  -17.4416 C   0  0  0  0  0  0  0  0  0  0  0  0
    4.4322   24.2125  -16.1885 C   0  0  0  0  0  0  0  0  0  0  0  0
    3.3304   23.4556  -15.7749 C   0  0  0  0  0  0  0  0  0  0  0  0
    2.7851   22.5195  -16.6258 C   0  0  0  0  0  0  0  0  0  0  0  0
    3.2827   22.2921  -17.8856 C   0  0  0  0  0  0  0  0  0  0  0  0
    4.3781   23.0505  -18.2849 C   0  0  0  0  0  0  0  0  0  0  0  0
    7.1337   24.0834  -18.5134 C   0  0  0  0  0  0  0  0  0  0  0  0
    6.0353   24.7171  -17.9291 O   0  0  0  0  0  0  0  0  0  0  0  0
    2.8819   23.7388  -14.5091 O   0  0  0  0  0  0  0  0  0  0  0  0
    1.7775   23.0600  -13.9554 C   0  0  0  0  0  0  0  0  0  0  0  0
   -1.7502   21.9289  -24.2869 C   0  0  0  0  0  0  0  0  0  0  0  0
   -2.9346   21.4825  -23.7726 C   0  0  0  0  0  0  0  0  0  0  0  0
   -3.9261   21.9556  -24.4961 N   0  0  0  0  0  0  0  0  0  0  0  0
   -3.4520   22.7249  -25.4937 N   0  0  0  0  0  0  0  0  0  0  0  0
   -2.1245   22.7153  -25.3774 C   0  0  0  0  0  0  0  0  0  0  0  0
   -4.2519   23.4217  -26.4863 C   0  0  0  0  0  0  0  0  0  0  0  0
   -4.3007   24.8893  -26.1990 C   0  0  0  0  0  0  0  0  0  0  0  0
   -4.8892   25.7087  -27.2984 C   0  0  0  0  0  0  0  0  0  0  0  0
   -4.6925   25.2341  -28.5982 N   0  0  0  0  0  0  0  0  0  0  0  0
   -5.5380   25.6716  -29.6368 C   0  0  0  0  0  0  0  0  0  0  0  0
   -3.7849   24.1955  -28.8462 C   0  0  0  0  0  0  0  0  0  0  0  0
   -3.6899   23.1173  -27.8341 C   0  0  0  0  0  0  0  0  0  0  0  0
 23 24  1  0  0  0
 24 17  1  0  0  0
 17 18  2  0  0  0
 18 19  1  0  0  0
 19 25  1  0  0  0
 25 26  1  0  0  0
 19 20  2  0  0  0
 20 21  1  0  0  0
 21 22  2  0  0  0
 21 10  1  0  0  0
 10 11  1  0  0  0
 11 12  2  0  0  0
 12 13  1  0  0  0
 13 14  2  0  0  0
 14 15  1  0  0  0
 15 16  2  0  0  0
 12  1  1  0  0  0
  1  2  2  0  0  0
  2  3  1  0  0  0
  3  4  2  0  0  0
  4  5  1  0  0  0
  5  6  2  0  0  0
  6  7  1  0  0  0
  3 27  1  0  0  0
 27 28  1  0  0  0
 28 29  2  0  0  0
 29 30  1  0  0  0
 30 31  1  0  0  0
 30 32  1  0  0  0
 32 33  1  0  0  0
 33 34  1  0  0  0
 34 35  1  0  0  0
 35 36  1  0  0  0
 35 37  1  0  0  0
 37 38  1  0  0  0
 22 17  1  0  0  0
 15 10  1  0  0  0
  6  1  1  0  0  0
 31 27  2  0  0  0
 38 32  1  0  0  0
  7  8  1  0  0  0
  7  9  1  0  0  0
M  END
> <minimizedAffinity>
-8.40132

> <CNNscore>
0.1421148032

> <CNNaffinity>
6.2757964134

> <CNN_VS>
0.8918835521

> <CNNaffinity_variance>
0.1136558801

$$$$
[H]c1nc(N([H])[H])c(-c2nn(-c3c([H])c(OC([H])([H])[H])c([H])c(OC([H])([H])[H])c3[H])c(=O)c([H])c2[H])nc1-c1c([H])nn(C2([H])C([H])([H])C([H])([H])N(C([H])([H])[H])C([H])([H])C2([H])[H])c1[H]


 38 42  0  0  0  0  0  0  0  0999 V2000
    0.8205   21.0774  -21.8954 C   0  0  0  0  0  0  0  0  0  0  0  0
    0.0348   21.3711  -22.7674 N   0  0  0  0  0  0  0  0  0  0  0  0
   -0.4662   21.6772  -23.8878 C   0  0  0  0  0  0  0  0  0  0  0  0
    0.6245   21.7333  -24.8500 C   0  0  0  0  0  0  0  0  0  0  0  0
    1.7519   21.4458  -24.2142 N   0  0  0  0  0  0  0  0  0  0  0  0
    2.1085   21.1525  -23.0561 C   0  0  0  0  0  0  0  0  0  0  0  0
    3.3470   20.9829  -22.5200 N   0  0  0  0  0  0  0  0  0  0  0  0
    3.7276   21.6378  -21.7506 H   0  0  0  0  0  0  0  0  0  0  0  0
    4.0564   20.2434  -22.7926 H   0  0  0  0  0  0  0  0  0  0  0  0
    2.8682   21.3613  -18.9272 N   0  0  0  0  0  0  0  0  0  0  0  0
    2.2193   21.6567  -19.9934 N   0  0  0  0  0  0  0  0  0  0  0  0
    1.7278   20.7381  -20.8885 C   0  0  0  0  0  0  0  0  0  0  0  0
    1.9755   19.3926  -20.5683 C   0  0  0  0  0  0  0  0  0  0  0  0
    2.6564   19.0515  -19.4502 C   0  0  0  0  0  0  0  0  0  0  0  0
    3.1071   20.0513  -18.6226 C   0  0  0  0  0  0  0  0  0  0  0  0
    3.7388   19.7285  -17.5909 O   0  0  0  0  0  0  0  0  0  0  0  0
    3.2405   23.4826  -15.9031 C   0  0  0  0  0  0  0  0  0  0  0  0
    4.3797   24.1978  -16.1610 C   0  0  0  0  0  0  0  0  0  0  0  0
    5.0517   23.9774  -17.3683 C   0  0  0  0  0  0  0  0  0  0  0  0
    4.5604   23.0557  -18.2664 C   0  0  0  0  0  0  0  0  0  0  0  0
    3.4200   22.3291  -18.0255 C   0  0  0  0  0  0  0  0  0  0  0  0
    2.7609   22.5575  -16.8222 C   0  0  0  0  0  0  0  0  0  0  0  0
    2.5046   22.6622  -13.7251 C   0  0  0  0  0  0  0  0  0  0  0  0
    2.5170   23.6412  -14.7205 O   0  0  0  0  0  0  0  0  0  0  0  0
    6.1853   24.7317  -17.5404 O   0  0  0  0  0  0  0  0  0  0  0  0
    7.1729   24.3647  -18.4768 C   0  0  0  0  0  0  0  0  0  0  0  0
   -1.8138   21.9123  -24.2611 C   0  0  0  0  0  0  0  0  0  0  0  0
   -2.4536   21.6908  -25.4478 C   0  0  0  0  0  0  0  0  0  0  0  0
   -3.7053   22.0815  -25.3441 N   0  0  0  0  0  0  0  0  0  0  0  0
   -3.9452   22.5605  -24.1092 N   0  0  0  0  0  0  0  0  0  0  0  0
   -2.7975   22.4637  -23.4390 C   0  0  0  0  0  0  0  0  0  0  0  0
   -5.2160   23.0722  -23.6258 C   0  0  0  0  0  0  0  0  0  0  0  0
   -5.0332   24.3815  -22.9250 C   0  0  0  0  0  0  0  0  0  0  0  0
   -6.3077   25.0939  -22.6173 C   0  0  0  0  0  0  0  0  0  0  0  0
   -7.3599   24.8973  -23.5160 N   0  0  0  0  0  0  0  0  0  0  0  0
   -8.6833   25.1586  -23.1096 C   0  0  0  0  0  0  0  0  0  0  0  0
   -7.1335   24.2740  -24.7505 C   0  0  0  0  0  0  0  0  0  0  0  0
   -6.1514   23.1648  -24.7841 C   0  0  0  0  0  0  0  0  0  0  0  0
 23 24  1  0  0  0
 24 17  1  0  0  0
 17 18  2  0  0  0
 18 19  1  0  0  0
 19 25  1  0  0  0
 25 26  1  0  0  0
 19 20  2  0  0  0
 20 21  1  0  0  0
 21 22  2  0  0  0
 21 10  1  0  0  0
 10 11  1  0  0  0
 11 12  2  0  0  0
 12 13  1  0  0  0
 13 14  2  0  0  0
 14 15  1  0  0  0
 15 16  2  0  0  0
 12  1  1  0  0  0
  1  2  2  0  0  0
  2  3  1  0  0  0
  3  4  2  0  0  0
  4  5  1  0  0  0
  5  6  2  0  0  0
  6  7  1  0  0  0
  3 27  1  0  0  0
 27 28  1  0  0  0
 28 29  2  0  0  0
 29 30  1  0  0  0
 30 31  1  0  0  0
 30 32  1  0  0  0
 32 33  1  0  0  0
 33 34  1  0  0  0
 34 35  1  0  0  0
 35 36  1  0  0  0
 35 37  1  0  0  0
 37 38  1  0  0  0
 22 17  1  0  0  0
 15 10  1  0  0  0
  6  1  1  0  0  0
 31 27  2  0  0  0
 38 32  1  0  0  0
  7  8  1  0  0  0
  7  9  1  0  0  0
M  END
> <minimizedAffinity>
-7.93699

> <CNNscore>
0.1324563175

> <CNNaffinity>
6.1597390175

> <CNN_VS>
0.8158963323

> <CNNaffinity_variance>
0.0902428031

$$$$
[H]c1nc(N([H])[H])c(-c2nn(-c3c([H])c(OC([H])([H])[H])c([H])c(OC([H])([H])[H])c3[H])c(=O)c([H])c2[H])nc1-c1c([H])nn(C2([H])C([H])([H])C([H])([H])N(C([H])([H])[H])C([H])([H])C2([H])[H])c1[H]


 38 42  0  0  0  0  0  0  0  0999 V2000
   -6.9425   23.9239  -23.7874 C   0  0  0  0  0  0  0  0  0  0  0  0
   -7.7016   24.0296  -22.8511 N   0  0  0  0  0  0  0  0  0  0  0  0
   -8.4176   24.5108  -21.9260 C   0  0  0  0  0  0  0  0  0  0  0  0
   -8.2531   25.9567  -21.9574 C   0  0  0  0  0  0  0  0  0  0  0  0
   -7.4142   26.2560  -22.9395 N   0  0  0  0  0  0  0  0  0  0  0  0
   -6.7560   25.6492  -23.8073 C   0  0  0  0  0  0  0  0  0  0  0  0
   -5.8342   26.0958  -24.7022 N   0  0  0  0  0  0  0  0  0  0  0  0
   -4.8026   25.7798  -24.6606 H   0  0  0  0  0  0  0  0  0  0  0  0
   -6.0022   26.7857  -25.4897 H   0  0  0  0  0  0  0  0  0  0  0  0
   -3.9843   23.0720  -25.6866 N   0  0  0  0  0  0  0  0  0  0  0  0
   -4.7570   23.4131  -24.7213 N   0  0  0  0  0  0  0  0  0  0  0  0
   -6.0661   23.8019  -24.8687 C   0  0  0  0  0  0  0  0  0  0  0  0
   -6.5483   23.8067  -26.1883 C   0  0  0  0  0  0  0  0  0  0  0  0
   -5.7564   23.4511  -27.2259 C   0  0  0  0  0  0  0  0  0  0  0  0
   -4.4589   23.0805  -26.9675 C   0  0  0  0  0  0  0  0  0  0  0  0
   -3.7309   22.7551  -27.9327 O   0  0  0  0  0  0  0  0  0  0  0  0
   -0.3893   22.6311  -26.5022 C   0  0  0  0  0  0  0  0  0  0  0  0
    0.1228   22.0670  -25.3642 C   0  0  0  0  0  0  0  0  0  0  0  0
   -0.7394   21.8227  -24.2896 C   0  0  0  0  0  0  0  0  0  0  0  0
   -2.0734   22.1495  -24.3948 C   0  0  0  0  0  0  0  0  0  0  0  0
   -2.6051   22.7158  -25.5275 C   0  0  0  0  0  0  0  0  0  0  0  0
   -1.7381   22.9533  -26.5888 C   0  0  0  0  0  0  0  0  0  0  0  0
   -0.1428   23.3202  -28.8309 C   0  0  0  0  0  0  0  0  0  0  0  0
    0.4061   22.9104  -27.6143 O   0  0  0  0  0  0  0  0  0  0  0  0
   -0.1407   21.2620  -23.1892 O   0  0  0  0  0  0  0  0  0  0  0  0
   -0.5899   21.5520  -21.8848 C   0  0  0  0  0  0  0  0  0  0  0  0
   -9.2777   23.8697  -20.9986 C   0  0  0  0  0  0  0  0  0  0  0  0
  -10.5728   24.1428  -20.6598 C   0  0  0  0  0  0  0  0  0  0  0  0
  -10.9652   23.2960  -19.7329 N   0  0  0  0  0  0  0  0  0  0  0  0
   -9.9717   22.4397  -19.4304 N   0  0  0  0  0  0  0  0  0  0  0  0
   -8.9355   22.7807  -20.1958 C   0  0  0  0  0  0  0  0  0  0  0  0
  -10.0423   21.3612  -18.4596 C   0  0  0  0  0  0  0  0  0  0  0  0
   -8.7437   20.6216  -18.3868 C   0  0  0  0  0  0  0  0  0  0  0  0
   -8.6479   19.6642  -17.2464 C   0  0  0  0  0  0  0  0  0  0  0  0
   -9.3472   20.0102  -16.0867 N   0  0  0  0  0  0  0  0  0  0  0  0
   -9.6702   19.0151  -15.1431 C   0  0  0  0  0  0  0  0  0  0  0  0
   -9.8865   21.2951  -15.9382 C   0  0  0  0  0  0  0  0  0  0  0  0
  -10.4483   21.9423  -17.1471 C   0  0  0  0  0  0  0  0  0  0  0  0
 23 24  1  0  0  0
 24 17  1  0  0  0
 17 18  2  0  0  0
 18 19  1  0  0  0
 19 25  1  0  0  0
 25 26  1  0  0  0
 19 20  2  0  0  0
 20 21  1  0  0  0
 21 22  2  0  0  0
 21 10  1  0  0  0
 10 11  1  0  0  0
 11 12  2  0  0  0
 12 13  1  0  0  0
 13 14  2  0  0  0
 14 15  1  0  0  0
 15 16  2  0  0  0
 12  1  1  0  0  0
  1  2  2  0  0  0
  2  3  1  0  0  0
  3  4  2  0  0  0
  4  5  1  0  0  0
  5  6  2  0  0  0
  6  7  1  0  0  0
  3 27  1  0  0  0
 27 28  1  0  0  0
 28 29  2  0  0  0
 29 30  1  0  0  0
 30 31  1  0  0  0
 30 32  1  0  0  0
 32 33  1  0  0  0
 33 34  1  0  0  0
 34 35  1  0  0  0
 35 36  1  0  0  0
 35 37  1  0  0  0
 37 38  1  0  0  0
 22 17  1  0  0  0
 15 10  1  0  0  0
  6  1  1  0  0  0
 31 27  2  0  0  0
 38 32  1  0  0  0
  7  8  1  0  0  0
  7  9  1  0  0  0
M  END
> <minimizedAffinity>
-8.81400

> <CNNscore>
0.1235556230

> <CNNaffinity>
6.5149474144

> <CNN_VS>
0.8049584031

> <CNNaffinity_variance>
0.0576780029

$$$$
[H]c1nc(N([H])[H])c(-c2nn(-c3c([H])c(OC([H])([H])[H])c([H])c(OC([H])([H])[H])c3[H])c(=O)c([H])c2[H])nc1-c1c([H])nn(C2([H])C([H])([H])C([H])([H])N(C([H])([H])[H])C([H])([H])C2([H])[H])c1[H]


 38 42  0  0  0  0  0  0  0  0999 V2000
    0.8275   20.8992  -21.1620 C   0  0  0  0  0  0  0  0  0  0  0  0
    0.6874   21.2393  -22.3147 N   0  0  0  0  0  0  0  0  0  0  0  0
    0.9070   21.4854  -23.5358 C   0  0  0  0  0  0  0  0  0  0  0  0
    2.2927   21.1323  -23.8072 C   0  0  0  0  0  0  0  0  0  0  0  0
    2.8319   20.6805  -22.6833 N   0  0  0  0  0  0  0  0  0  0  0  0
    2.4784   20.4870  -21.5035 C   0  0  0  0  0  0  0  0  0  0  0  0
    3.1914   20.1065  -20.4095 N   0  0  0  0  0  0  0  0  0  0  0  0
    3.3161   20.7582  -19.5578 H   0  0  0  0  0  0  0  0  0  0  0  0
    3.7004   19.1857  -20.2773 H   0  0  0  0  0  0  0  0  0  0  0  0
    1.3723   21.1236  -17.5931 N   0  0  0  0  0  0  0  0  0  0  0  0
    1.4216   21.3669  -18.8515 N   0  0  0  0  0  0  0  0  0  0  0  0
    0.9894   20.5063  -19.8309 C   0  0  0  0  0  0  0  0  0  0  0  0
    0.4608   19.2880  -19.3722 C   0  0  0  0  0  0  0  0  0  0  0  0
    0.3957   19.0047  -18.0510 C   0  0  0  0  0  0  0  0  0  0  0  0
    0.8589   19.9365  -17.1538 C   0  0  0  0  0  0  0  0  0  0  0  0
    0.7979   19.6667  -15.9328 O   0  0  0  0  0  0  0  0  0  0  0  0
    3.4052   23.7897  -15.9983 C   0  0  0  0  0  0  0  0  0  0  0  0
    2.9518   23.7980  -14.7059 C   0  0  0  0  0  0  0  0  0  0  0  0
    1.9429   22.8990  -14.3428 C   0  0  0  0  0  0  0  0  0  0  0  0
    1.4301   22.0307  -15.2811 C   0  0  0  0  0  0  0  0  0  0  0  0
    1.8718   22.0076  -16.5814 C   0  0  0  0  0  0  0  0  0  0  0  0
    2.8750   22.9057  -16.9299 C   0  0  0  0  0  0  0  0  0  0  0  0
    5.5829   24.1915  -17.0249 C   0  0  0  0  0  0  0  0  0  0  0  0
    4.4045   24.6581  -16.4393 O   0  0  0  0  0  0  0  0  0  0  0  0
    1.5456   22.9810  -13.0317 O   0  0  0  0  0  0  0  0  0  0  0  0
    1.8632   24.1031  -12.2398 C   0  0  0  0  0  0  0  0  0  0  0  0
    0.0430   21.9793  -24.5459 C   0  0  0  0  0  0  0  0  0  0  0  0
    0.2296   22.0829  -25.8954 C   0  0  0  0  0  0  0  0  0  0  0  0
   -0.8391   22.6231  -26.4397 N   0  0  0  0  0  0  0  0  0  0  0  0
   -1.7621   22.8874  -25.4962 N   0  0  0  0  0  0  0  0  0  0  0  0
   -1.2346   22.4999  -24.3354 C   0  0  0  0  0  0  0  0  0  0  0  0
   -3.0706   23.4755  -25.7253 C   0  0  0  0  0  0  0  0  0  0  0  0
   -3.5975   23.0983  -27.0740 C   0  0  0  0  0  0  0  0  0  0  0  0
   -5.0309   23.4511  -27.2914 C   0  0  0  0  0  0  0  0  0  0  0  0
   -5.8537   23.4242  -26.1619 N   0  0  0  0  0  0  0  0  0  0  0  0
   -7.0725   24.1308  -26.1689 C   0  0  0  0  0  0  0  0  0  0  0  0
   -5.3992   22.8554  -24.9645 C   0  0  0  0  0  0  0  0  0  0  0  0
   -3.9724   23.0510  -24.6155 C   0  0  0  0  0  0  0  0  0  0  0  0
 23 24  1  0  0  0
 24 17  1  0  0  0
 17 18  2  0  0  0
 18 19  1  0  0  0
 19 25  1  0  0  0
 25 26  1  0  0  0
 19 20  2  0  0  0
 20 21  1  0  0  0
 21 22  2  0  0  0
 21 10  1  0  0  0
 10 11  1  0  0  0
 11 12  2  0  0  0
 12 13  1  0  0  0
 13 14  2  0  0  0
 14 15  1  0  0  0
 15 16  2  0  0  0
 12  1  1  0  0  0
  1  2  2  0  0  0
  2  3  1  0  0  0
  3  4  2  0  0  0
  4  5  1  0  0  0
  5  6  2  0  0  0
  6  7  1  0  0  0
  3 27  1  0  0  0
 27 28  1  0  0  0
 28 29  2  0  0  0
 29 30  1  0  0  0
 30 31  1  0  0  0
 30 32  1  0  0  0
 32 33  1  0  0  0
 33 34  1  0  0  0
 34 35  1  0  0  0
 35 36  1  0  0  0
 35 37  1  0  0  0
 37 38  1  0  0  0
 22 17  1  0  0  0
 15 10  1  0  0  0
  6  1  1  0  0  0
 31 27  2  0  0  0
 38 32  1  0  0  0
  7  8  1  0  0  0
  7  9  1  0  0  0
M  END
> <minimizedAffinity>
-7.48142

> <CNNscore>
0.0960733667

> <CNNaffinity>
6.4002656937

> <CNN_VS>
0.6148950458

> <CNNaffinity_variance>
0.0528302416

$$$$
[H]c1nc(N([H])[H])c(-c2nn(-c3c([H])c(OC([H])([H])[H])c([H])c(OC([H])([H])[H])c3[H])c(=O)c([H])c2[H])nc1-c1c([H])nn(C2([H])C([H])([H])C([H])([H])N(C([H])([H])[H])C([H])([H])C2([H])[H])c1[H]


 38 42  0  0  0  0  0  0  0  0999 V2000
   -6.0330   23.1138  -20.9390 C   0  0  0  0  0  0  0  0  0  0  0  0
   -6.2179   22.9623  -19.7529 N   0  0  0  0  0  0  0  0  0  0  0  0
   -6.3783   23.1849  -18.5181 C   0  0  0  0  0  0  0  0  0  0  0  0
   -6.2797   24.6236  -18.3203 C   0  0  0  0  0  0  0  0  0  0  0  0
   -6.0569   25.1886  -19.4988 N   0  0  0  0  0  0  0  0  0  0  0  0
   -5.9150   24.8262  -20.6833 C   0  0  0  0  0  0  0  0  0  0  0  0
   -5.5794   25.5303  -21.7976 N   0  0  0  0  0  0  0  0  0  0  0  0
   -4.6620   25.3407  -22.3344 H   0  0  0  0  0  0  0  0  0  0  0  0
   -6.1350   26.3200  -22.2359 H   0  0  0  0  0  0  0  0  0  0  0  0
   -4.4236   22.9681  -24.1752 N   0  0  0  0  0  0  0  0  0  0  0  0
   -4.6091   23.0400  -22.9080 N   0  0  0  0  0  0  0  0  0  0  0  0
   -5.8198   23.2888  -22.3088 C   0  0  0  0  0  0  0  0  0  0  0  0
   -6.9018   23.4666  -23.1873 C   0  0  0  0  0  0  0  0  0  0  0  0
   -6.7358   23.3956  -24.5280 C   0  0  0  0  0  0  0  0  0  0  0  0
   -5.4795   23.1437  -25.0238 C   0  0  0  0  0  0  0  0  0  0  0  0
   -5.3326   23.0818  -26.2657 O   0  0  0  0  0  0  0  0  0  0  0  0
   -0.8454   22.0468  -24.5377 C   0  0  0  0  0  0  0  0  0  0  0  0
   -0.5898   22.2988  -25.8594 C   0  0  0  0  0  0  0  0  0  0  0  0
   -1.6265   22.7872  -26.6623 C   0  0  0  0  0  0  0  0  0  0  0  0
   -2.8717   23.0042  -26.1147 C   0  0  0  0  0  0  0  0  0  0  0  0
   -3.1470   22.7574  -24.7919 C   0  0  0  0  0  0  0  0  0  0  0  0
   -2.1083   22.2725  -24.0042 C   0  0  0  0  0  0  0  0  0  0  0  0
   -0.1438   21.2507  -22.3395 C   0  0  0  0  0  0  0  0  0  0  0  0
    0.1335   21.5542  -23.6738 O   0  0  0  0  0  0  0  0  0  0  0  0
   -1.2835   23.0052  -27.9732 O   0  0  0  0  0  0  0  0  0  0  0  0
    0.0656   23.0367  -28.3808 C   0  0  0  0  0  0  0  0  0  0  0  0
   -6.6405   22.2928  -17.4476 C   0  0  0  0  0  0  0  0  0  0  0  0
   -5.9928   22.1276  -16.2561 C   0  0  0  0  0  0  0  0  0  0  0  0
   -6.5751   21.1631  -15.5771 N   0  0  0  0  0  0  0  0  0  0  0  0
   -7.6152   20.6644  -16.2709 N   0  0  0  0  0  0  0  0  0  0  0  0
   -7.6645   21.3452  -17.4155 C   0  0  0  0  0  0  0  0  0  0  0  0
   -8.4979   19.5968  -15.8334 C   0  0  0  0  0  0  0  0  0  0  0  0
   -9.2606   20.0009  -14.6111 C   0  0  0  0  0  0  0  0  0  0  0  0
  -10.3639   19.0668  -14.2417 C   0  0  0  0  0  0  0  0  0  0  0  0
  -10.9934   18.4030  -15.2984 N   0  0  0  0  0  0  0  0  0  0  0  0
  -11.7211   17.2230  -15.0472 C   0  0  0  0  0  0  0  0  0  0  0  0
  -10.7600   18.7940  -16.6237 C   0  0  0  0  0  0  0  0  0  0  0  0
   -9.3883   19.2325  -16.9733 C   0  0  0  0  0  0  0  0  0  0  0  0
 23 24  1  0  0  0
 24 17  1  0  0  0
 17 18  2  0  0  0
 18 19  1  0  0  0
 19 25  1  0  0  0
 25 26  1  0  0  0
 19 20  2  0  0  0
 20 21  1  0  0  0
 21 22  2  0  0  0
 21 10  1  0  0  0
 10 11  1  0  0  0
 11 12  2  0  0  0
 12 13  1  0  0  0
 13 14  2  0  0  0
 14 15  1  0  0  0
 15 16  2  0  0  0
 12  1  1  0  0  0
  1  2  2  0  0  0
  2  3  1  0  0  0
  3  4  2  0  0  0
  4  5  1  0  0  0
  5  6  2  0  0  0
  6  7  1  0  0  0
  3 27  1  0  0  0
 27 28  1  0  0  0
 28 29  2  0  0  0
 29 30  1  0  0  0
 30 31  1  0  0  0
 30 32  1  0  0  0
 32 33  1  0  0  0
 33 34  1  0  0  0
 34 35  1  0  0  0
 35 36  1  0  0  0
 35 37  1  0  0  0
 37 38  1  0  0  0
 22 17  1  0  0  0
 15 10  1  0  0  0
  6  1  1  0  0  0
 31 27  2  0  0  0
 38 32  1  0  0  0
  7  8  1  0  0  0
  7  9  1  0  0  0
M  END
> <minimizedAffinity>
-7.45822

> <CNNscore>
0.0929972678

> <CNNaffinity>
6.1798405647

> <CNN_VS>
0.5747082829

> <CNNaffinity_variance>
0.1154953018

$$$$
[H]c1nc(N([H])[H])c(-c2nn(-c3c([H])c(OC([H])([H])[H])c([H])c(OC([H])([H])[H])c3[H])c(=O)c([H])c2[H])nc1-c1c([H])nn(C2([H])C([H])([H])C([H])([H])N(C([H])([H])[H])C([H])([H])C2([H])[H])c1[H]


 38 42  0  0  0  0  0  0  0  0999 V2000
   -5.3958   22.8941  -19.1247 C   0  0  0  0  0  0  0  0  0  0  0  0
   -5.1055   23.0846  -17.9656 N   0  0  0  0  0  0  0  0  0  0  0  0
   -4.9717   23.6187  -16.8268 C   0  0  0  0  0  0  0  0  0  0  0  0
   -5.5668   24.9452  -16.8971 C   0  0  0  0  0  0  0  0  0  0  0  0
   -6.0355   25.1235  -18.1244 N   0  0  0  0  0  0  0  0  0  0  0  0
   -6.0975   24.4800  -19.1905 C   0  0  0  0  0  0  0  0  0  0  0  0
   -6.5268   24.8442  -20.4287 N   0  0  0  0  0  0  0  0  0  0  0  0
   -5.8562   24.8828  -21.2740 H   0  0  0  0  0  0  0  0  0  0  0  0
   -7.5104   25.1387  -20.6939 H   0  0  0  0  0  0  0  0  0  0  0  0
   -5.0145   22.3654  -22.6826 N   0  0  0  0  0  0  0  0  0  0  0  0
   -4.8156   22.7713  -21.4823 N   0  0  0  0  0  0  0  0  0  0  0  0
   -5.7313   22.6741  -20.4631 C   0  0  0  0  0  0  0  0  0  0  0  0
   -6.9558   22.0775  -20.8080 C   0  0  0  0  0  0  0  0  0  0  0  0
   -7.1930   21.6396  -22.0658 C   0  0  0  0  0  0  0  0  0  0  0  0
   -6.2078   21.7879  -23.0118 C   0  0  0  0  0  0  0  0  0  0  0  0
   -6.4351   21.3827  -24.1745 O   0  0  0  0  0  0  0  0  0  0  0  0
   -1.8484   22.0568  -24.5970 C   0  0  0  0  0  0  0  0  0  0  0  0
   -2.1170   22.7334  -25.7571 C   0  0  0  0  0  0  0  0  0  0  0  0
   -3.3810   23.3112  -25.9198 C   0  0  0  0  0  0  0  0  0  0  0  0
   -4.3219   23.1911  -24.9209 C   0  0  0  0  0  0  0  0  0  0  0  0
   -4.0711   22.5167  -23.7510 C   0  0  0  0  0  0  0  0  0  0  0  0
   -2.8110   21.9471  -23.6011 C   0  0  0  0  0  0  0  0  0  0  0  0
    0.0384   21.5549  -23.1319 C   0  0  0  0  0  0  0  0  0  0  0  0
   -0.6146   21.4490  -24.3616 O   0  0  0  0  0  0  0  0  0  0  0  0
   -3.5648   23.9633  -27.1134 O   0  0  0  0  0  0  0  0  0  0  0  0
   -4.6714   23.6796  -27.9391 C   0  0  0  0  0  0  0  0  0  0  0  0
   -4.4006   23.1108  -15.6325 C   0  0  0  0  0  0  0  0  0  0  0  0
   -4.7988   23.2515  -14.3331 C   0  0  0  0  0  0  0  0  0  0  0  0
   -3.9497   22.6222  -13.5499 N   0  0  0  0  0  0  0  0  0  0  0  0
   -2.9788   22.0439  -14.2811 N   0  0  0  0  0  0  0  0  0  0  0  0
   -3.2424   22.3362  -15.5543 C   0  0  0  0  0  0  0  0  0  0  0  0
   -1.8743   21.2568  -13.7605 C   0  0  0  0  0  0  0  0  0  0  0  0
   -0.6655   21.3900  -14.6322 C   0  0  0  0  0  0  0  0  0  0  0  0
    0.5802   20.8184  -14.0423 C   0  0  0  0  0  0  0  0  0  0  0  0
    0.6859   20.8689  -12.6495 N   0  0  0  0  0  0  0  0  0  0  0  0
    1.5787   20.0048  -11.9852 C   0  0  0  0  0  0  0  0  0  0  0  0
   -0.2117   21.6369  -11.8957 C   0  0  0  0  0  0  0  0  0  0  0  0
   -1.6200   21.6847  -12.3543 C   0  0  0  0  0  0  0  0  0  0  0  0
 23 24  1  0  0  0
 24 17  1  0  0  0
 17 18  2  0  0  0
 18 19  1  0  0  0
 19 25  1  0  0  0
 25 26  1  0  0  0
 19 20  2  0  0  0
 20 21  1  0  0  0
 21 22  2  0  0  0
 21 10  1  0  0  0
 10 11  1  0  0  0
 11 12  2  0  0  0
 12 13  1  0  0  0
 13 14  2  0  0  0
 14 15  1  0  0  0
 15 16  2  0  0  0
 12  1  1  0  0  0
  1  2  2  0  0  0
  2  3  1  0  0  0
  3  4  2  0  0  0
  4  5  1  0  0  0
  5  6  2  0  0  0
  6  7  1  0  0  0
  3 27  1  0  0  0
 27 28  1  0  0  0
 28 29  2  0  0  0
 29 30  1  0  0  0
 30 31  1  0  0  0
 30 32  1  0  0  0
 32 33  1  0  0  0
 33 34  1  0  0  0
 34 35  1  0  0  0
 35 36  1  0  0  0
 35 37  1  0  0  0
 37 38  1  0  0  0
 22 17  1  0  0  0
 15 10  1  0  0  0
  6  1  1  0  0  0
 31 27  2  0  0  0
 38 32  1  0  0  0
  7  8  1  0  0  0
  7  9  1  0  0  0
M  END
> <minimizedAffinity>
-6.72123

> <CNNscore>
0.0816262960

> <CNNaffinity>
5.9231882095

> <CNN_VS>
0.4834879041

> <CNNaffinity_variance>
0.0213729460

$$$$
[H]c1nc(N([H])[H])c(-c2nn(-c3c([H])c(OC([H])([H])[H])c([H])c(OC([H])([H])[H])c3[H])c(=O)c([H])c2[H])nc1-c1c([H])nn(C2([H])C([H])([H])C([H])([H])N(C([H])([H])[H])C([H])([H])C2([H])[H])c1[H]


 38 42  0  0  0  0  0  0  0  0999 V2000
   -5.4047   22.8408  -19.1884 C   0  0  0  0  0  0  0  0  0  0  0  0
   -5.0870   22.9980  -18.0315 N   0  0  0  0  0  0  0  0  0  0  0  0
   -4.9219   23.5010  -16.8827 C   0  0  0  0  0  0  0  0  0  0  0  0
   -5.5017   24.8359  -16.9062 C   0  0  0  0  0  0  0  0  0  0  0  0
   -5.9945   25.0513  -18.1181 N   0  0  0  0  0  0  0  0  0  0  0  0
   -6.0876   24.4362  -19.1986 C   0  0  0  0  0  0  0  0  0  0  0  0
   -6.5390   24.8372  -20.4174 N   0  0  0  0  0  0  0  0  0  0  0  0
   -5.8864   24.8894  -21.2759 H   0  0  0  0  0  0  0  0  0  0  0  0
   -7.5243   25.1502  -20.6534 H   0  0  0  0  0  0  0  0  0  0  0  0
   -5.1140   22.4939  -22.7772 N   0  0  0  0  0  0  0  0  0  0  0  0
   -4.8993   22.8583  -21.5663 N   0  0  0  0  0  0  0  0  0  0  0  0
   -5.7718   22.6592  -20.5243 C   0  0  0  0  0  0  0  0  0  0  0  0
   -6.9686   22.0030  -20.8576 C   0  0  0  0  0  0  0  0  0  0  0  0
   -7.2217   21.6068  -22.1261 C   0  0  0  0  0  0  0  0  0  0  0  0
   -6.2804   21.8579  -23.0948 C   0  0  0  0  0  0  0  0  0  0  0  0
   -6.5222   21.4908  -24.2671 O   0  0  0  0  0  0  0  0  0  0  0  0
   -3.7678   24.0010  -25.8917 C   0  0  0  0  0  0  0  0  0  0  0  0
   -2.5698   23.3584  -26.0579 C   0  0  0  0  0  0  0  0  0  0  0  0
   -2.1875   22.3972  -25.1157 C   0  0  0  0  0  0  0  0  0  0  0  0
   -3.0142   22.1169  -24.0500 C   0  0  0  0  0  0  0  0  0  0  0  0
   -4.2188   22.7508  -23.8667 C   0  0  0  0  0  0  0  0  0  0  0  0
   -4.5877   23.7039  -24.8101 C   0  0  0  0  0  0  0  0  0  0  0  0
   -4.5942   26.2499  -26.3584 C   0  0  0  0  0  0  0  0  0  0  0  0
   -4.2170   24.9748  -26.7845 O   0  0  0  0  0  0  0  0  0  0  0  0
   -0.9712   21.8088  -25.3568 O   0  0  0  0  0  0  0  0  0  0  0  0
    0.0297   21.7650  -24.3652 C   0  0  0  0  0  0  0  0  0  0  0  0
   -4.3315   22.9558  -15.7145 C   0  0  0  0  0  0  0  0  0  0  0  0
   -4.6317   23.1561  -14.3968 C   0  0  0  0  0  0  0  0  0  0  0  0
   -3.8032   22.4556  -13.6530 N   0  0  0  0  0  0  0  0  0  0  0  0
   -2.9430   21.7702  -14.4291 N   0  0  0  0  0  0  0  0  0  0  0  0
   -3.2547   22.0685  -15.6899 C   0  0  0  0  0  0  0  0  0  0  0  0
   -1.8931   20.8827  -13.9594 C   0  0  0  0  0  0  0  0  0  0  0  0
   -1.9250   19.5805  -14.6957 C   0  0  0  0  0  0  0  0  0  0  0  0
   -0.7366   18.7113  -14.4533 C   0  0  0  0  0  0  0  0  0  0  0  0
    0.4709   19.3689  -14.2022 N   0  0  0  0  0  0  0  0  0  0  0  0
    1.5186   18.6827  -13.5570 C   0  0  0  0  0  0  0  0  0  0  0  0
    0.5880   20.7483  -14.4199 C   0  0  0  0  0  0  0  0  0  0  0  0
   -0.5878   21.5911  -14.0990 C   0  0  0  0  0  0  0  0  0  0  0  0
 23 24  1  0  0  0
 24 17  1  0  0  0
 17 18  2  0  0  0
 18 19  1  0  0  0
 19 25  1  0  0  0
 25 26  1  0  0  0
 19 20  2  0  0  0
 20 21  1  0  0  0
 21 22  2  0  0  0
 21 10  1  0  0  0
 10 11  1  0  0  0
 11 12  2  0  0  0
 12 13  1  0  0  0
 13 14  2  0  0  0
 14 15  1  0  0  0
 15 16  2  0  0  0
 12  1  1  0  0  0
  1  2  2  0  0  0
  2  3  1  0  0  0
  3  4  2  0  0  0
  4  5  1  0  0  0
  5  6  2  0  0  0
  6  7  1  0  0  0
  3 27  1  0  0  0
 27 28  1  0  0  0
 28 29  2  0  0  0
 29 30  1  0  0  0
 30 31  1  0  0  0
 30 32  1  0  0  0
 32 33  1  0  0  0
 33 34  1  0  0  0
 34 35  1  0  0  0
 35 36  1  0  0  0
 35 37  1  0  0  0
 37 38  1  0  0  0
 22 17  1  0  0  0
 15 10  1  0  0  0
  6  1  1  0  0  0
 31 27  2  0  0  0
 38 32  1  0  0  0
  7  8  1  0  0  0
  7  9  1  0  0  0
M  END
> <minimizedAffinity>
-6.60090

> <CNNscore>
0.0664635301

> <CNNaffinity>
5.8910155296

> <CNN_VS>
0.3915376961

> <CNNaffinity_variance>
0.0177022759

$$$$
[H]c1nc(N([H])[H])c(-c2nn(-c3c([H])c(OC([H])([H])[H])c([H])c(OC([H])([H])[H])c3[H])c(=O)c([H])c2[H])nc1-c1c([H])nn(C2([H])C([H])([H])C([H])([H])N(C([H])([H])[H])C([H])([H])C2([H])[H])c1[H]


 38 42  0  0  0  0  0  0  0  0999 V2000
   -7.0120   23.3848  -21.1787 C   0  0  0  0  0  0  0  0  0  0  0  0
   -7.0600   22.9545  -20.0488 N   0  0  0  0  0  0  0  0  0  0  0  0
   -6.9335   22.8364  -18.7958 C   0  0  0  0  0  0  0  0  0  0  0  0
   -6.2571   24.0315  -18.3134 C   0  0  0  0  0  0  0  0  0  0  0  0
   -6.0134   24.8169  -19.3534 N   0  0  0  0  0  0  0  0  0  0  0  0
   -6.2033   24.8011  -20.5855 C   0  0  0  0  0  0  0  0  0  0  0  0
   -5.7934   25.6542  -21.5624 N   0  0  0  0  0  0  0  0  0  0  0  0
   -5.1132   25.3420  -22.3406 H   0  0  0  0  0  0  0  0  0  0  0  0
   -6.0592   26.6761  -21.6597 H   0  0  0  0  0  0  0  0  0  0  0  0
   -6.0232   23.7493  -24.6389 N   0  0  0  0  0  0  0  0  0  0  0  0
   -5.9890   23.5016  -23.3809 N   0  0  0  0  0  0  0  0  0  0  0  0
   -6.9569   23.8817  -22.4834 C   0  0  0  0  0  0  0  0  0  0  0  0
   -8.0426   24.5860  -23.0304 C   0  0  0  0  0  0  0  0  0  0  0  0
   -8.1056   24.8608  -24.3535 C   0  0  0  0  0  0  0  0  0  0  0  0
   -7.0808   24.4360  -25.1640 C   0  0  0  0  0  0  0  0  0  0  0  0
   -7.1443   24.6961  -26.3871 O   0  0  0  0  0  0  0  0  0  0  0  0
   -2.7108   22.6178  -25.8765 C   0  0  0  0  0  0  0  0  0  0  0  0
   -2.8531   22.6636  -27.2379 C   0  0  0  0  0  0  0  0  0  0  0  0
   -4.0783   23.0790  -27.7711 C   0  0  0  0  0  0  0  0  0  0  0  0
   -5.1078   23.4314  -26.9263 C   0  0  0  0  0  0  0  0  0  0  0  0
   -4.9840   23.3918  -25.5591 C   0  0  0  0  0  0  0  0  0  0  0  0
   -3.7613   22.9776  -25.0414 C   0  0  0  0  0  0  0  0  0  0  0  0
   -0.2739   22.4872  -25.8271 C   0  0  0  0  0  0  0  0  0  0  0  0
   -1.5230   22.2098  -25.2684 O   0  0  0  0  0  0  0  0  0  0  0  0
   -4.1340   23.0886  -29.1424 O   0  0  0  0  0  0  0  0  0  0  0  0
   -5.3672   23.0575  -29.8246 C   0  0  0  0  0  0  0  0  0  0  0  0
   -7.3560   21.8038  -17.9206 C   0  0  0  0  0  0  0  0  0  0  0  0
   -7.0770   20.4664  -17.9321 C   0  0  0  0  0  0  0  0  0  0  0  0
   -7.7064   19.8846  -16.9343 N   0  0  0  0  0  0  0  0  0  0  0  0
   -8.4074   20.7926  -16.2301 N   0  0  0  0  0  0  0  0  0  0  0  0
   -8.2025   21.9681  -16.8233 C   0  0  0  0  0  0  0  0  0  0  0  0
   -9.2167   20.5195  -15.0549 C   0  0  0  0  0  0  0  0  0  0  0  0
   -9.4878   19.0540  -14.9213 C   0  0  0  0  0  0  0  0  0  0  0  0
  -10.0968   18.6609  -13.6171 C   0  0  0  0  0  0  0  0  0  0  0  0
   -9.7380   19.4323  -12.5083 N   0  0  0  0  0  0  0  0  0  0  0  0
  -10.5533   19.4251  -11.3593 C   0  0  0  0  0  0  0  0  0  0  0  0
   -8.6805   20.3482  -12.5913 C   0  0  0  0  0  0  0  0  0  0  0  0
   -8.5167   21.0862  -13.8658 C   0  0  0  0  0  0  0  0  0  0  0  0
 23 24  1  0  0  0
 24 17  1  0  0  0
 17 18  2  0  0  0
 18 19  1  0  0  0
 19 25  1  0  0  0
 25 26  1  0  0  0
 19 20  2  0  0  0
 20 21  1  0  0  0
 21 22  2  0  0  0
 21 10  1  0  0  0
 10 11  1  0  0  0
 11 12  2  0  0  0
 12 13  1  0  0  0
 13 14  2  0  0  0
 14 15  1  0  0  0
 15 16  2  0  0  0
 12  1  1  0  0  0
  1  2  2  0  0  0
  2  3  1  0  0  0
  3  4  2  0  0  0
  4  5  1  0  0  0
  5  6  2  0  0  0
  6  7  1  0  0  0
  3 27  1  0  0  0
 27 28  1  0  0  0
 28 29  2  0  0  0
 29 30  1  0  0  0
 30 31  1  0  0  0
 30 32  1  0  0  0
 32 33  1  0  0  0
 33 34  1  0  0  0
 34 35  1  0  0  0
 35 36  1  0  0  0
 35 37  1  0  0  0
 37 38  1  0  0  0
 22 17  1  0  0  0
 15 10  1  0  0  0
  6  1  1  0  0  0
 31 27  2  0  0  0
 38 32  1  0  0  0
  7  8  1  0  0  0
  7  9  1  0  0  0
M  END
> <minimizedAffinity>
-7.74515

> <CNNscore>
0.0633516237

> <CNNaffinity>
5.9124827385

> <CNN_VS>
0.3745653927

> <CNNaffinity_variance>
0.0985011309

$$$$
[H]OC1([H])C([H])([H])N(C(=O)c2c(C([H])([H])OC([H])([H])C([H])([H])[H])c(-c3sc4c(OC([H])([H])[H])c([H])c(C([H])([H])[H])c([H])c4c3[H])c3c(N([H])[H])nc([H])nn23)C1([H])[H]


 36 40  0  0  0  0  0  0  0  0999 V2000
   -3.6481   22.6495  -26.3424 C   0  0  0  0  0  0  0  0  0  0  0  0
   -2.3830   22.5618  -25.7362 C   0  0  0  0  0  0  0  0  0  0  0  0
   -1.4652   22.8059  -26.7184 C   0  0  0  0  0  0  0  0  0  0  0  0
   -0.0736   22.8921  -26.7481 C   0  0  0  0  0  0  0  0  0  0  0  0
    0.6693   22.7035  -25.5511 N   0  0  0  0  0  0  0  0  0  0  0  0
    0.5701   23.1890  -27.8916 N   0  0  0  0  0  0  0  0  0  0  0  0
   -0.1004   23.4118  -29.0322 C   0  0  0  0  0  0  0  0  0  0  0  0
   -1.4321   23.3195  -28.9538 N   0  0  0  0  0  0  0  0  0  0  0  0
   -2.1325   23.0347  -27.8799 N   0  0  0  0  0  0  0  0  0  0  0  0
   -3.4859   22.9434  -27.6608 C   0  0  0  0  0  0  0  0  0  0  0  0
    0.6628   23.4334  -24.8043 H   0  0  0  0  0  0  0  0  0  0  0  0
    1.2190   21.8183  -25.4775 H   0  0  0  0  0  0  0  0  0  0  0  0
   -2.1384   22.3413  -24.2944 C   0  0  0  0  0  0  0  0  0  0  0  0
   -1.2787   21.4337  -23.7328 C   0  0  0  0  0  0  0  0  0  0  0  0
   -1.2546   21.3358  -22.3843 C   0  0  0  0  0  0  0  0  0  0  0  0
   -0.4447   20.4700  -21.6144 C   0  0  0  0  0  0  0  0  0  0  0  0
   -0.5328   20.4858  -20.2612 C   0  0  0  0  0  0  0  0  0  0  0  0
    0.3278   19.5656  -19.4513 C   0  0  0  0  0  0  0  0  0  0  0  0
   -1.3805   21.3087  -19.5357 C   0  0  0  0  0  0  0  0  0  0  0  0
   -2.1671   22.1496  -20.2777 C   0  0  0  0  0  0  0  0  0  0  0  0
   -2.0911   22.1492  -21.6843 C   0  0  0  0  0  0  0  0  0  0  0  0
   -2.8838   23.0229  -22.9089 S   0  0  0  0  0  0  0  0  0  0  0  0
   -3.0783   23.0479  -19.7465 O   0  0  0  0  0  0  0  0  0  0  0  0
   -4.3118   22.7215  -19.1922 C   0  0  0  0  0  0  0  0  0  0  0  0
   -4.4228   23.3098  -28.7002 C   0  0  0  0  0  0  0  0  0  0  0  0
   -5.0062   22.3167  -29.3036 O   0  0  0  0  0  0  0  0  0  0  0  0
   -4.7839   24.6055  -29.1516 N   0  0  0  0  0  0  0  0  0  0  0  0
   -5.8122   24.9177  -30.1976 C   0  0  0  0  0  0  0  0  0  0  0  0
   -4.9935   26.1111  -30.5633 C   0  0  0  0  0  0  0  0  0  0  0  0
   -5.6822   27.2511  -30.8998 O   0  0  0  0  0  0  0  0  0  0  0  0
   -4.5596   26.0154  -29.1033 C   0  0  0  0  0  0  0  0  0  0  0  0
   -6.4746   26.9850  -31.4259 H   0  0  0  0  0  0  0  0  0  0  0  0
   -4.8576   22.3567  -25.5806 C   0  0  0  0  0  0  0  0  0  0  0  0
   -5.5681   23.4175  -25.1469 O   0  0  0  0  0  0  0  0  0  0  0  0
   -6.8889   25.0739  -26.2767 C   0  0  0  0  0  0  0  0  0  0  0  0
   -6.7632   23.6089  -25.8776 C   0  0  0  0  0  0  0  0  0  0  0  0
 35 36  1  0  0  0
 36 34  1  0  0  0
 34 33  1  0  0  0
 33  1  1  0  0  0
  1  2  1  0  0  0
  2 13  1  0  0  0
 13 14  2  0  0  0
 14 15  1  0  0  0
 15 16  2  0  0  0
 16 17  1  0  0  0
 17 18  1  0  0  0
 17 19  2  0  0  0
 19 20  1  0  0  0
 20 23  1  0  0  0
 23 24  1  0  0  0
 20 21  2  0  0  0
 21 22  1  0  0  0
  2  3  2  0  0  0
  3  4  1  0  0  0
  4  5  1  0  0  0
  4  6  2  0  0  0
  6  7  1  0  0  0
  7  8  2  0  0  0
  8  9  1  0  0  0
  9 10  1  0  0  0
 10 25  1  0  0  0
 25 26  2  0  0  0
 25 27  1  0  0  0
 27 28  1  0  0  0
 28 29  1  0  0  0
 29 30  1  0  0  0
 29 31  1  0  0  0
 10  1  2  0  0  0
 31 27  1  0  0  0
 22 13  1  0  0  0
  9  3  1  0  0  0
 21 15  1  0  0  0
  5 11  1  0  0  0
  5 12  1  0  0  0
 30 32  1  0  0  0
M  END
> <minimizedAffinity>
-8.87524

> <CNNscore>
0.8667992949

> <CNNaffinity>
7.4973144531

> <CNN_VS>
6.4986667633

> <CNNaffinity_variance>
0.0986629874

$$$$
[H]OC1([H])C([H])([H])N(C(=O)c2c(C([H])([H])OC([H])([H])C([H])([H])[H])c(-c3sc4c(OC([H])([H])[H])c([H])c(C([H])([H])[H])c([H])c4c3[H])c3c(N([H])[H])nc([H])nn23)C1([H])[H]


 36 40  0  0  0  0  0  0  0  0999 V2000
   -3.9332   22.7782  -26.2833 C   0  0  0  0  0  0  0  0  0  0  0  0
   -2.7787   22.6370  -25.4942 C   0  0  0  0  0  0  0  0  0  0  0  0
   -1.7149   22.7046  -26.3488 C   0  0  0  0  0  0  0  0  0  0  0  0
   -0.3309   22.6642  -26.1824 C   0  0  0  0  0  0  0  0  0  0  0  0
    0.2179   22.5253  -24.8787 N   0  0  0  0  0  0  0  0  0  0  0  0
    0.4903   22.7930  -27.2404 N   0  0  0  0  0  0  0  0  0  0  0  0
    0.0086   22.9647  -28.4808 C   0  0  0  0  0  0  0  0  0  0  0  0
   -1.3236   22.9984  -28.5899 N   0  0  0  0  0  0  0  0  0  0  0  0
   -2.1899   22.8800  -27.6099 N   0  0  0  0  0  0  0  0  0  0  0  0
   -3.5628   22.9300  -27.5835 C   0  0  0  0  0  0  0  0  0  0  0  0
    0.1827   23.3206  -24.2028 H   0  0  0  0  0  0  0  0  0  0  0  0
    0.6600   21.6060  -24.6539 H   0  0  0  0  0  0  0  0  0  0  0  0
   -2.7578   22.5339  -24.0190 C   0  0  0  0  0  0  0  0  0  0  0  0
   -3.6332   21.8363  -23.2282 C   0  0  0  0  0  0  0  0  0  0  0  0
   -3.4863   21.9293  -21.8873 C   0  0  0  0  0  0  0  0  0  0  0  0
   -4.2779   21.2922  -20.9044 C   0  0  0  0  0  0  0  0  0  0  0  0
   -4.0072   21.4830  -19.5893 C   0  0  0  0  0  0  0  0  0  0  0  0
   -4.8499   20.8053  -18.5529 C   0  0  0  0  0  0  0  0  0  0  0  0
   -2.9819   22.2792  -19.1025 C   0  0  0  0  0  0  0  0  0  0  0  0
   -2.2121   22.8985  -20.0515 C   0  0  0  0  0  0  0  0  0  0  0  0
   -2.4762   22.7137  -21.4228 C   0  0  0  0  0  0  0  0  0  0  0  0
   -1.7615   23.2974  -22.8511 S   0  0  0  0  0  0  0  0  0  0  0  0
   -1.1418   23.7332  -19.7745 O   0  0  0  0  0  0  0  0  0  0  0  0
    0.0123   23.3730  -19.0861 C   0  0  0  0  0  0  0  0  0  0  0  0
   -4.3064   23.2773  -28.7746 C   0  0  0  0  0  0  0  0  0  0  0  0
   -4.5516   22.2933  -29.5884 O   0  0  0  0  0  0  0  0  0  0  0  0
   -4.7968   24.5472  -29.1748 N   0  0  0  0  0  0  0  0  0  0  0  0
   -5.6165   24.8277  -30.3988 C   0  0  0  0  0  0  0  0  0  0  0  0
   -4.9750   26.1747  -30.4487 C   0  0  0  0  0  0  0  0  0  0  0  0
   -5.7753   27.2245  -30.8290 O   0  0  0  0  0  0  0  0  0  0  0  0
   -4.8544   25.9555  -28.9432 C   0  0  0  0  0  0  0  0  0  0  0  0
   -6.3727   26.9078  -31.5489 H   0  0  0  0  0  0  0  0  0  0  0  0
   -5.2591   22.6673  -25.6845 C   0  0  0  0  0  0  0  0  0  0  0  0
   -6.0353   23.7689  -25.7308 O   0  0  0  0  0  0  0  0  0  0  0  0
   -6.7375   23.9824  -23.4448 C   0  0  0  0  0  0  0  0  0  0  0  0
   -5.9072   24.5751  -24.5764 C   0  0  0  0  0  0  0  0  0  0  0  0
 35 36  1  0  0  0
 36 34  1  0  0  0
 34 33  1  0  0  0
 33  1  1  0  0  0
  1  2  1  0  0  0
  2 13  1  0  0  0
 13 14  2  0  0  0
 14 15  1  0  0  0
 15 16  2  0  0  0
 16 17  1  0  0  0
 17 18  1  0  0  0
 17 19  2  0  0  0
 19 20  1  0  0  0
 20 23  1  0  0  0
 23 24  1  0  0  0
 20 21  2  0  0  0
 21 22  1  0  0  0
  2  3  2  0  0  0
  3  4  1  0  0  0
  4  5  1  0  0  0
  4  6  2  0  0  0
  6  7  1  0  0  0
  7  8  2  0  0  0
  8  9  1  0  0  0
  9 10  1  0  0  0
 10 25  1  0  0  0
 25 26  2  0  0  0
 25 27  1  0  0  0
 27 28  1  0  0  0
 28 29  1  0  0  0
 29 30  1  0  0  0
 29 31  1  0  0  0
 10  1  2  0  0  0
 31 27  1  0  0  0
 22 13  1  0  0  0
  9  3  1  0  0  0
 21 15  1  0  0  0
  5 11  1  0  0  0
  5 12  1  0  0  0
 30 32  1  0  0  0
M  END
> <minimizedAffinity>
-8.79367

> <CNNscore>
0.8614197373

> <CNNaffinity>
7.5298805237

> <CNN_VS>
6.4863877296

> <CNNaffinity_variance>
0.0874083862

$$$$
[H]OC1([H])C([H])([H])N(C(=O)c2c(C([H])([H])OC([H])([H])C([H])([H])[H])c(-c3sc4c(OC([H])([H])[H])c([H])c(C([H])([H])[H])c([H])c4c3[H])c3c(N([H])[H])nc([H])nn23)C1([H])[H]


 36 40  0  0  0  0  0  0  0  0999 V2000
   -2.7076   22.7638  -23.7354 C   0  0  0  0  0  0  0  0  0  0  0  0
   -1.4178   22.2368  -23.5508 C   0  0  0  0  0  0  0  0  0  0  0  0
   -0.7824   22.3368  -24.7561 C   0  0  0  0  0  0  0  0  0  0  0  0
    0.4993   22.0237  -25.2078 C   0  0  0  0  0  0  0  0  0  0  0  0
    1.4486   21.4715  -24.3055 N   0  0  0  0  0  0  0  0  0  0  0  0
    0.8574   22.2740  -26.4803 N   0  0  0  0  0  0  0  0  0  0  0  0
    0.0003   22.8303  -27.3499 C   0  0  0  0  0  0  0  0  0  0  0  0
   -1.2152   23.1140  -26.8705 N   0  0  0  0  0  0  0  0  0  0  0  0
   -1.6405   22.9007  -25.6463 N   0  0  0  0  0  0  0  0  0  0  0  0
   -2.8363   23.1728  -25.0265 C   0  0  0  0  0  0  0  0  0  0  0  0
    1.8800   22.0657  -23.5630 H   0  0  0  0  0  0  0  0  0  0  0  0
    1.6903   20.4643  -24.4409 H   0  0  0  0  0  0  0  0  0  0  0  0
   -0.8624   21.7644  -22.2640 C   0  0  0  0  0  0  0  0  0  0  0  0
   -0.4695   22.5364  -21.2020 C   0  0  0  0  0  0  0  0  0  0  0  0
    0.0852   21.9132  -20.1379 C   0  0  0  0  0  0  0  0  0  0  0  0
    0.5520   22.5224  -18.9507 C   0  0  0  0  0  0  0  0  0  0  0  0
    1.0877   21.7609  -17.9646 C   0  0  0  0  0  0  0  0  0  0  0  0
    1.5808   22.4126  -16.7094 C   0  0  0  0  0  0  0  0  0  0  0  0
    1.2240   20.3823  -18.0187 C   0  0  0  0  0  0  0  0  0  0  0  0
    0.7728   19.7875  -19.1673 C   0  0  0  0  0  0  0  0  0  0  0  0
    0.2130   20.5601  -20.2037 C   0  0  0  0  0  0  0  0  0  0  0  0
   -0.4365   20.1914  -21.7313 S   0  0  0  0  0  0  0  0  0  0  0  0
    0.8177   18.4259  -19.4184 O   0  0  0  0  0  0  0  0  0  0  0  0
    0.6707   17.4197  -18.4691 C   0  0  0  0  0  0  0  0  0  0  0  0
   -3.8618   23.9281  -25.7121 C   0  0  0  0  0  0  0  0  0  0  0  0
   -4.4596   24.8361  -24.9988 O   0  0  0  0  0  0  0  0  0  0  0  0
   -4.3050   23.8057  -27.0544 N   0  0  0  0  0  0  0  0  0  0  0  0
   -5.3359   24.6659  -27.7222 C   0  0  0  0  0  0  0  0  0  0  0  0
   -5.7098   23.4780  -28.5452 C   0  0  0  0  0  0  0  0  0  0  0  0
   -6.0339   23.7158  -29.8588 O   0  0  0  0  0  0  0  0  0  0  0  0
   -4.2561   23.0900  -28.2896 C   0  0  0  0  0  0  0  0  0  0  0  0
   -6.5498   24.5571  -29.8985 H   0  0  0  0  0  0  0  0  0  0  0  0
   -3.6845   22.7308  -22.6521 C   0  0  0  0  0  0  0  0  0  0  0  0
   -4.3844   21.5875  -22.5065 O   0  0  0  0  0  0  0  0  0  0  0  0
   -6.2722   21.4133  -23.9797 C   0  0  0  0  0  0  0  0  0  0  0  0
   -4.8121   21.0489  -23.7418 C   0  0  0  0  0  0  0  0  0  0  0  0
 35 36  1  0  0  0
 36 34  1  0  0  0
 34 33  1  0  0  0
 33  1  1  0  0  0
  1  2  1  0  0  0
  2 13  1  0  0  0
 13 14  2  0  0  0
 14 15  1  0  0  0
 15 16  2  0  0  0
 16 17  1  0  0  0
 17 18  1  0  0  0
 17 19  2  0  0  0
 19 20  1  0  0  0
 20 23  1  0  0  0
 23 24  1  0  0  0
 20 21  2  0  0  0
 21 22  1  0  0  0
  2  3  2  0  0  0
  3  4  1  0  0  0
  4  5  1  0  0  0
  4  6  2  0  0  0
  6  7  1  0  0  0
  7  8  2  0  0  0
  8  9  1  0  0  0
  9 10  1  0  0  0
 10 25  1  0  0  0
 25 26  2  0  0  0
 25 27  1  0  0  0
 27 28  1  0  0  0
 28 29  1  0  0  0
 29 30  1  0  0  0
 29 31  1  0  0  0
 10  1  2  0  0  0
 31 27  1  0  0  0
 22 13  1  0  0  0
  9  3  1  0  0  0
 21 15  1  0  0  0
  5 11  1  0  0  0
  5 12  1  0  0  0
 30 32  1  0  0  0
M  END
> <minimizedAffinity>
-7.15710

> <CNNscore>
0.7397511601

> <CNNaffinity>
7.1197524071

> <CNN_VS>
5.2668452263

> <CNNaffinity_variance>
0.1349759996

$$$$
[H]OC1([H])C([H])([H])N(C(=O)c2c(C([H])([H])OC([H])([H])C([H])([H])[H])c(-c3sc4c(OC([H])([H])[H])c([H])c(C([H])([H])[H])c([H])c4c3[H])c3c(N([H])[H])nc([H])nn23)C1([H])[H]


 36 40  0  0  0  0  0  0  0  0999 V2000
   -2.7950   22.1214  -23.4694 C   0  0  0  0  0  0  0  0  0  0  0  0
   -1.4231   21.8261  -23.3905 C   0  0  0  0  0  0  0  0  0  0  0  0
   -0.9000   22.0829  -24.6262 C   0  0  0  0  0  0  0  0  0  0  0  0
    0.3824   22.0203  -25.1706 C   0  0  0  0  0  0  0  0  0  0  0  0
    1.4739   21.6127  -24.3565 N   0  0  0  0  0  0  0  0  0  0  0  0
    0.6023   22.3780  -26.4488 N   0  0  0  0  0  0  0  0  0  0  0  0
   -0.3971   22.8049  -27.2357 C   0  0  0  0  0  0  0  0  0  0  0  0
   -1.6075   22.8492  -26.6693 N   0  0  0  0  0  0  0  0  0  0  0  0
   -1.9031   22.5179  -25.4333 N   0  0  0  0  0  0  0  0  0  0  0  0
   -3.0823   22.5490  -24.7286 C   0  0  0  0  0  0  0  0  0  0  0  0
    1.8448   22.2460  -23.6136 H   0  0  0  0  0  0  0  0  0  0  0  0
    1.8785   20.6705  -24.5558 H   0  0  0  0  0  0  0  0  0  0  0  0
   -0.7059   21.4124  -22.1651 C   0  0  0  0  0  0  0  0  0  0  0  0
   -0.3544   20.1374  -21.8056 C   0  0  0  0  0  0  0  0  0  0  0  0
    0.2351   19.9594  -20.6018 C   0  0  0  0  0  0  0  0  0  0  0  0
    0.6722   18.7344  -20.0479 C   0  0  0  0  0  0  0  0  0  0  0  0
    1.2495   18.7141  -18.8208 C   0  0  0  0  0  0  0  0  0  0  0  0
    1.7101   17.4128  -18.2396 C   0  0  0  0  0  0  0  0  0  0  0  0
    1.4579   19.8327  -18.0287 C   0  0  0  0  0  0  0  0  0  0  0  0
    1.0360   21.0221  -18.5615 C   0  0  0  0  0  0  0  0  0  0  0  0
    0.4340   21.0653  -19.8344 C   0  0  0  0  0  0  0  0  0  0  0  0
   -0.1984   22.3151  -20.7986 S   0  0  0  0  0  0  0  0  0  0  0  0
    1.1520   22.2512  -17.9330 O   0  0  0  0  0  0  0  0  0  0  0  0
    2.2720   23.0758  -17.9622 C   0  0  0  0  0  0  0  0  0  0  0  0
   -4.2693   23.1347  -25.3120 C   0  0  0  0  0  0  0  0  0  0  0  0
   -4.6172   22.6582  -26.4707 O   0  0  0  0  0  0  0  0  0  0  0  0
   -5.0984   24.1619  -24.7918 N   0  0  0  0  0  0  0  0  0  0  0  0
   -6.3546   24.6829  -25.4237 C   0  0  0  0  0  0  0  0  0  0  0  0
   -6.0383   26.0111  -24.8203 C   0  0  0  0  0  0  0  0  0  0  0  0
   -7.1009   26.7414  -24.3464 O   0  0  0  0  0  0  0  0  0  0  0  0
   -5.3224   25.1492  -23.7841 C   0  0  0  0  0  0  0  0  0  0  0  0
   -7.8560   26.6228  -24.9719 H   0  0  0  0  0  0  0  0  0  0  0  0
   -3.6737   21.8743  -22.3311 C   0  0  0  0  0  0  0  0  0  0  0  0
   -3.8364   22.8932  -21.4631 O   0  0  0  0  0  0  0  0  0  0  0  0
   -3.5694   22.1152  -19.2075 C   0  0  0  0  0  0  0  0  0  0  0  0
   -4.5502   22.5130  -20.3034 C   0  0  0  0  0  0  0  0  0  0  0  0
 35 36  1  0  0  0
 36 34  1  0  0  0
 34 33  1  0  0  0
 33  1  1  0  0  0
  1  2  1  0  0  0
  2 13  1  0  0  0
 13 14  2  0  0  0
 14 15  1  0  0  0
 15 16  2  0  0  0
 16 17  1  0  0  0
 17 18  1  0  0  0
 17 19  2  0  0  0
 19 20  1  0  0  0
 20 23  1  0  0  0
 23 24  1  0  0  0
 20 21  2  0  0  0
 21 22  1  0  0  0
  2  3  2  0  0  0
  3  4  1  0  0  0
  4  5  1  0  0  0
  4  6  2  0  0  0
  6  7  1  0  0  0
  7  8  2  0  0  0
  8  9  1  0  0  0
  9 10  1  0  0  0
 10 25  1  0  0  0
 25 26  2  0  0  0
 25 27  1  0  0  0
 27 28  1  0  0  0
 28 29  1  0  0  0
 29 30  1  0  0  0
 29 31  1  0  0  0
 10  1  2  0  0  0
 31 27  1  0  0  0
 22 13  1  0  0  0
  9  3  1  0  0  0
 21 15  1  0  0  0
  5 11  1  0  0  0
  5 12  1  0  0  0
 30 32  1  0  0  0
M  END
> <minimizedAffinity>
-7.24521

> <CNNscore>
0.6069838405

> <CNNaffinity>
6.8533773422

> <CNN_VS>
4.1598892212

> <CNNaffinity_variance>
0.1107294559

$$$$
[H]OC1([H])C([H])([H])N(C(=O)c2c(C([H])([H])OC([H])([H])C([H])([H])[H])c(-c3sc4c(OC([H])([H])[H])c([H])c(C([H])([H])[H])c([H])c4c3[H])c3c(N([H])[H])nc([H])nn23)C1([H])[H]


 36 40  0  0  0  0  0  0  0  0999 V2000
   -2.8497   22.0625  -23.1531 C   0  0  0  0  0  0  0  0  0  0  0  0
   -1.4686   21.8140  -23.0729 C   0  0  0  0  0  0  0  0  0  0  0  0
   -0.9564   22.0706  -24.3133 C   0  0  0  0  0  0  0  0  0  0  0  0
    0.3266   22.0430  -24.8594 C   0  0  0  0  0  0  0  0  0  0  0  0
    1.4323   21.6832  -24.0419 N   0  0  0  0  0  0  0  0  0  0  0  0
    0.5323   22.3897  -26.1430 N   0  0  0  0  0  0  0  0  0  0  0  0
   -0.4820   22.7720  -26.9337 C   0  0  0  0  0  0  0  0  0  0  0  0
   -1.6923   22.7842  -26.3653 N   0  0  0  0  0  0  0  0  0  0  0  0
   -1.9747   22.4606  -25.1242 N   0  0  0  0  0  0  0  0  0  0  0  0
   -3.1531   22.4626  -24.4175 C   0  0  0  0  0  0  0  0  0  0  0  0
    1.7832   22.3389  -23.3088 H   0  0  0  0  0  0  0  0  0  0  0  0
    1.8676   20.7523  -24.2289 H   0  0  0  0  0  0  0  0  0  0  0  0
   -0.7361   21.4416  -21.8433 C   0  0  0  0  0  0  0  0  0  0  0  0
   -0.3491   22.2774  -20.8284 C   0  0  0  0  0  0  0  0  0  0  0  0
    0.3815   21.7513  -19.8195 C   0  0  0  0  0  0  0  0  0  0  0  0
    0.8747   22.4377  -18.6863 C   0  0  0  0  0  0  0  0  0  0  0  0
    1.5973   21.7706  -17.7525 C   0  0  0  0  0  0  0  0  0  0  0  0
    2.1173   22.5038  -16.5543 C   0  0  0  0  0  0  0  0  0  0  0  0
    1.9084   20.4209  -17.8120 C   0  0  0  0  0  0  0  0  0  0  0  0
    1.4323   19.7516  -18.9084 C   0  0  0  0  0  0  0  0  0  0  0  0
    0.6796   20.4256  -19.8901 C   0  0  0  0  0  0  0  0  0  0  0  0
   -0.0579   19.9476  -21.3457 S   0  0  0  0  0  0  0  0  0  0  0  0
    1.6321   18.4032  -19.1553 O   0  0  0  0  0  0  0  0  0  0  0  0
    2.8489   17.8067  -19.4701 C   0  0  0  0  0  0  0  0  0  0  0  0
   -4.3598   23.0003  -25.0065 C   0  0  0  0  0  0  0  0  0  0  0  0
   -4.7517   22.4244  -26.1045 O   0  0  0  0  0  0  0  0  0  0  0  0
   -5.1669   24.0741  -24.5498 N   0  0  0  0  0  0  0  0  0  0  0  0
   -6.4448   24.5434  -25.1788 C   0  0  0  0  0  0  0  0  0  0  0  0
   -6.1035   25.9184  -24.7083 C   0  0  0  0  0  0  0  0  0  0  0  0
   -7.1462   26.6936  -24.2626 O   0  0  0  0  0  0  0  0  0  0  0  0
   -5.3512   25.1484  -23.6266 C   0  0  0  0  0  0  0  0  0  0  0  0
   -7.9244   26.5238  -24.8466 H   0  0  0  0  0  0  0  0  0  0  0  0
   -3.7178   21.8024  -22.0096 C   0  0  0  0  0  0  0  0  0  0  0  0
   -4.0331   22.8629  -21.2389 O   0  0  0  0  0  0  0  0  0  0  0  0
   -6.2556   22.0649  -21.6726 C   0  0  0  0  0  0  0  0  0  0  0  0
   -5.3315   22.7694  -20.6872 C   0  0  0  0  0  0  0  0  0  0  0  0
 35 36  1  0  0  0
 36 34  1  0  0  0
 34 33  1  0  0  0
 33  1  1  0  0  0
  1  2  1  0  0  0
  2 13  1  0  0  0
 13 14  2  0  0  0
 14 15  1  0  0  0
 15 16  2  0  0  0
 16 17  1  0  0  0
 17 18  1  0  0  0
 17 19  2  0  0  0
 19 20  1  0  0  0
 20 23  1  0  0  0
 23 24  1  0  0  0
 20 21  2  0  0  0
 21 22  1  0  0  0
  2  3  2  0  0  0
  3  4  1  0  0  0
  4  5  1  0  0  0
  4  6  2  0  0  0
  6  7  1  0  0  0
  7  8  2  0  0  0
  8  9  1  0  0  0
  9 10  1  0  0  0
 10 25  1  0  0  0
 25 26  2  0  0  0
 25 27  1  0  0  0
 27 28  1  0  0  0
 28 29  1  0  0  0
 29 30  1  0  0  0
 29 31  1  0  0  0
 10  1  2  0  0  0
 31 27  1  0  0  0
 22 13  1  0  0  0
  9  3  1  0  0  0
 21 15  1  0  0  0
  5 11  1  0  0  0
  5 12  1  0  0  0
 30 32  1  0  0  0
M  END
> <minimizedAffinity>
-7.22892

> <CNNscore>
0.5157719254

> <CNNaffinity>
6.7477293015

> <CNN_VS>
3.4802892208

> <CNNaffinity_variance>
0.0709311217

$$$$
[H]OC1([H])C([H])([H])N(C(=O)c2c(C([H])([H])OC([H])([H])C([H])([H])[H])c(-c3sc4c(OC([H])([H])[H])c([H])c(C([H])([H])[H])c([H])c4c3[H])c3c(N([H])[H])nc([H])nn23)C1([H])[H]


 36 40  0  0  0  0  0  0  0  0999 V2000
   -1.7379   21.5027  -21.6416 C   0  0  0  0  0  0  0  0  0  0  0  0
   -1.3107   21.9975  -22.8858 C   0  0  0  0  0  0  0  0  0  0  0  0
    0.0215   21.7097  -22.9803 C   0  0  0  0  0  0  0  0  0  0  0  0
    0.9908   21.9070  -23.9634 C   0  0  0  0  0  0  0  0  0  0  0  0
    0.6352   22.5375  -25.1865 N   0  0  0  0  0  0  0  0  0  0  0  0
    2.2509   21.4725  -23.7799 N   0  0  0  0  0  0  0  0  0  0  0  0
    2.6135   20.8386  -22.6543 C   0  0  0  0  0  0  0  0  0  0  0  0
    1.6500   20.6716  -21.7425 N   0  0  0  0  0  0  0  0  0  0  0  0
    0.4014   21.0655  -21.8456 N   0  0  0  0  0  0  0  0  0  0  0  0
   -0.6796   20.9283  -21.0085 C   0  0  0  0  0  0  0  0  0  0  0  0
    0.0546   22.0323  -25.8924 H   0  0  0  0  0  0  0  0  0  0  0  0
    0.9961   23.5066  -25.3343 H   0  0  0  0  0  0  0  0  0  0  0  0
   -2.1841   22.6169  -23.9060 C   0  0  0  0  0  0  0  0  0  0  0  0
   -2.5106   22.1035  -25.1341 C   0  0  0  0  0  0  0  0  0  0  0  0
   -3.2688   22.8637  -25.9562 C   0  0  0  0  0  0  0  0  0  0  0  0
   -3.7130   22.5205  -27.2536 C   0  0  0  0  0  0  0  0  0  0  0  0
   -4.4721   23.3930  -27.9620 C   0  0  0  0  0  0  0  0  0  0  0  0
   -4.9392   23.0234  -29.3362 C   0  0  0  0  0  0  0  0  0  0  0  0
   -4.8678   24.6422  -27.5092 C   0  0  0  0  0  0  0  0  0  0  0  0
   -4.4397   24.9790  -26.2522 C   0  0  0  0  0  0  0  0  0  0  0  0
   -3.6504   24.0873  -25.4996 C   0  0  0  0  0  0  0  0  0  0  0  0
   -2.9513   24.1495  -23.9508 S   0  0  0  0  0  0  0  0  0  0  0  0
   -4.7253   26.1772  -25.6183 O   0  0  0  0  0  0  0  0  0  0  0  0
   -5.9092   26.4829  -24.9547 C   0  0  0  0  0  0  0  0  0  0  0  0
   -0.5791   20.1290  -19.8071 C   0  0  0  0  0  0  0  0  0  0  0  0
   -0.7948   20.7635  -18.6928 O   0  0  0  0  0  0  0  0  0  0  0  0
   -0.2710   18.7495  -19.6833 N   0  0  0  0  0  0  0  0  0  0  0  0
   -0.2425   17.9660  -18.4050 C   0  0  0  0  0  0  0  0  0  0  0  0
    0.8306   17.1247  -19.0125 C   0  0  0  0  0  0  0  0  0  0  0  0
    0.7959   15.7813  -18.7275 O   0  0  0  0  0  0  0  0  0  0  0  0
    0.1443   17.5361  -20.3121 C   0  0  0  0  0  0  0  0  0  0  0  0
    0.5273   15.6765  -17.7829 H   0  0  0  0  0  0  0  0  0  0  0  0
   -3.1069   21.7213  -21.1867 C   0  0  0  0  0  0  0  0  0  0  0  0
   -3.3613   22.9019  -20.5871 O   0  0  0  0  0  0  0  0  0  0  0  0
   -5.4542   22.3732  -21.6382 C   0  0  0  0  0  0  0  0  0  0  0  0
   -4.7325   23.2453  -20.6185 C   0  0  0  0  0  0  0  0  0  0  0  0
 35 36  1  0  0  0
 36 34  1  0  0  0
 34 33  1  0  0  0
 33  1  1  0  0  0
  1  2  1  0  0  0
  2 13  1  0  0  0
 13 14  2  0  0  0
 14 15  1  0  0  0
 15 16  2  0  0  0
 16 17  1  0  0  0
 17 18  1  0  0  0
 17 19  2  0  0  0
 19 20  1  0  0  0
 20 23  1  0  0  0
 23 24  1  0  0  0
 20 21  2  0  0  0
 21 22  1  0  0  0
  2  3  2  0  0  0
  3  4  1  0  0  0
  4  5  1  0  0  0
  4  6  2  0  0  0
  6  7  1  0  0  0
  7  8  2  0  0  0
  8  9  1  0  0  0
  9 10  1  0  0  0
 10 25  1  0  0  0
 25 26  2  0  0  0
 25 27  1  0  0  0
 27 28  1  0  0  0
 28 29  1  0  0  0
 29 30  1  0  0  0
 29 31  1  0  0  0
 10  1  2  0  0  0
 31 27  1  0  0  0
 22 13  1  0  0  0
  9  3  1  0  0  0
 21 15  1  0  0  0
  5 11  1  0  0  0
  5 12  1  0  0  0
 30 32  1  0  0  0
M  END
> <minimizedAffinity>
-7.22643

> <CNNscore>
0.3953697383

> <CNNaffinity>
6.7988166809

> <CNN_VS>
2.6880464554

> <CNNaffinity_variance>
0.4184354246

$$$$
[H]OC1([H])C([H])([H])N(C(=O)c2c(C([H])([H])OC([H])([H])C([H])([H])[H])c(-c3sc4c(OC([H])([H])[H])c([H])c(C([H])([H])[H])c([H])c4c3[H])c3c(N([H])[H])nc([H])nn23)C1([H])[H]


 36 40  0  0  0  0  0  0  0  0999 V2000
   -1.8231   21.7295  -21.7374 C   0  0  0  0  0  0  0  0  0  0  0  0
   -1.3933   22.1331  -23.0132 C   0  0  0  0  0  0  0  0  0  0  0  0
   -0.0781   21.7758  -23.1098 C   0  0  0  0  0  0  0  0  0  0  0  0
    0.8831   21.8706  -24.1157 C   0  0  0  0  0  0  0  0  0  0  0  0
    0.5380   22.4490  -25.3673 N   0  0  0  0  0  0  0  0  0  0  0  0
    2.1237   21.3859  -23.9256 N   0  0  0  0  0  0  0  0  0  0  0  0
    2.4741   20.7984  -22.7713 C   0  0  0  0  0  0  0  0  0  0  0  0
    1.5188   20.7295  -21.8382 N   0  0  0  0  0  0  0  0  0  0  0  0
    0.2890   21.1777  -21.9461 N   0  0  0  0  0  0  0  0  0  0  0  0
   -0.7833   21.1401  -21.0877 C   0  0  0  0  0  0  0  0  0  0  0  0
   -0.0777   21.9345  -26.0356 H   0  0  0  0  0  0  0  0  0  0  0  0
    0.9426   23.3896  -25.5743 H   0  0  0  0  0  0  0  0  0  0  0  0
   -2.2526   22.7370  -24.0544 C   0  0  0  0  0  0  0  0  0  0  0  0
   -2.6064   22.1816  -25.2564 C   0  0  0  0  0  0  0  0  0  0  0  0
   -3.3442   22.9307  -26.1067 C   0  0  0  0  0  0  0  0  0  0  0  0
   -3.8101   22.5462  -27.3847 C   0  0  0  0  0  0  0  0  0  0  0  0
   -4.5441   23.4126  -28.1264 C   0  0  0  0  0  0  0  0  0  0  0  0
   -5.0345   22.9992  -29.4799 C   0  0  0  0  0  0  0  0  0  0  0  0
   -4.8927   24.6936  -27.7271 C   0  0  0  0  0  0  0  0  0  0  0  0
   -4.4434   25.0705  -26.4890 C   0  0  0  0  0  0  0  0  0  0  0  0
   -3.6796   24.1859  -25.7025 C   0  0  0  0  0  0  0  0  0  0  0  0
   -2.9666   24.2920  -24.1625 S   0  0  0  0  0  0  0  0  0  0  0  0
   -4.6824   26.3048  -25.9072 O   0  0  0  0  0  0  0  0  0  0  0  0
   -5.8010   26.6442  -25.1530 C   0  0  0  0  0  0  0  0  0  0  0  0
   -0.7014   20.4047  -19.8448 C   0  0  0  0  0  0  0  0  0  0  0  0
   -0.4619   19.1320  -19.9620 O   0  0  0  0  0  0  0  0  0  0  0  0
   -0.8537   20.8854  -18.5186 N   0  0  0  0  0  0  0  0  0  0  0  0
   -0.6958   20.0761  -17.2661 C   0  0  0  0  0  0  0  0  0  0  0  0
   -1.7222   20.9581  -16.6361 C   0  0  0  0  0  0  0  0  0  0  0  0
   -1.5252   21.2881  -15.3172 O   0  0  0  0  0  0  0  0  0  0  0  0
   -1.1913   21.9678  -17.6498 C   0  0  0  0  0  0  0  0  0  0  0  0
   -1.1706   20.4918  -14.8529 H   0  0  0  0  0  0  0  0  0  0  0  0
   -3.1723   22.0397  -21.2766 C   0  0  0  0  0  0  0  0  0  0  0  0
   -4.1776   21.3411  -21.8418 O   0  0  0  0  0  0  0  0  0  0  0  0
   -5.9044   21.7628  -23.4557 C   0  0  0  0  0  0  0  0  0  0  0  0
   -5.3168   22.1373  -22.1009 C   0  0  0  0  0  0  0  0  0  0  0  0
 35 36  1  0  0  0
 36 34  1  0  0  0
 34 33  1  0  0  0
 33  1  1  0  0  0
  1  2  1  0  0  0
  2 13  1  0  0  0
 13 14  2  0  0  0
 14 15  1  0  0  0
 15 16  2  0  0  0
 16 17  1  0  0  0
 17 18  1  0  0  0
 17 19  2  0  0  0
 19 20  1  0  0  0
 20 23  1  0  0  0
 23 24  1  0  0  0
 20 21  2  0  0  0
 21 22  1  0  0  0
  2  3  2  0  0  0
  3  4  1  0  0  0
  4  5  1  0  0  0
  4  6  2  0  0  0
  6  7  1  0  0  0
  7  8  2  0  0  0
  8  9  1  0  0  0
  9 10  1  0  0  0
 10 25  1  0  0  0
 25 26  2  0  0  0
 25 27  1  0  0  0
 27 28  1  0  0  0
 28 29  1  0  0  0
 29 30  1  0  0  0
 29 31  1  0  0  0
 10  1  2  0  0  0
 31 27  1  0  0  0
 22 13  1  0  0  0
  9  3  1  0  0  0
 21 15  1  0  0  0
  5 11  1  0  0  0
  5 12  1  0  0  0
 30 32  1  0  0  0
M  END
> <minimizedAffinity>
-7.26762

> <CNNscore>
0.3189536929

> <CNNaffinity>
6.8193235397

> <CNN_VS>
2.1750483513

> <CNNaffinity_variance>
0.3793908358

$$$$
[H]OC1([H])C([H])([H])N(C(=O)c2c(C([H])([H])OC([H])([H])C([H])([H])[H])c(-c3sc4c(OC([H])([H])[H])c([H])c(C([H])([H])[H])c([H])c4c3[H])c3c(N([H])[H])nc([H])nn23)C1([H])[H]


 36 40  0  0  0  0  0  0  0  0999 V2000
   -4.0143   24.0828  -24.8012 C   0  0  0  0  0  0  0  0  0  0  0  0
   -3.0132   23.2362  -24.2948 C   0  0  0  0  0  0  0  0  0  0  0  0
   -2.1990   22.9266  -25.3474 C   0  0  0  0  0  0  0  0  0  0  0  0
   -1.0357   22.1701  -25.4862 C   0  0  0  0  0  0  0  0  0  0  0  0
   -0.4728   21.5289  -24.3494 N   0  0  0  0  0  0  0  0  0  0  0  0
   -0.4204   22.0723  -26.6787 N   0  0  0  0  0  0  0  0  0  0  0  0
   -0.9010   22.6957  -27.7652 C   0  0  0  0  0  0  0  0  0  0  0  0
   -2.0167   23.4097  -27.5824 N   0  0  0  0  0  0  0  0  0  0  0  0
   -2.6749   23.5537  -26.4551 N   0  0  0  0  0  0  0  0  0  0  0  0
   -3.7980   24.2758  -26.1304 C   0  0  0  0  0  0  0  0  0  0  0  0
    0.0067   22.0890  -23.6099 H   0  0  0  0  0  0  0  0  0  0  0  0
   -0.5551   20.4882  -24.3121 H   0  0  0  0  0  0  0  0  0  0  0  0
   -2.8518   22.8556  -22.8749 C   0  0  0  0  0  0  0  0  0  0  0  0
   -1.7992   23.1631  -22.0528 C   0  0  0  0  0  0  0  0  0  0  0  0
   -1.8057   22.6549  -20.7998 C   0  0  0  0  0  0  0  0  0  0  0  0
   -0.8227   22.8517  -19.8031 C   0  0  0  0  0  0  0  0  0  0  0  0
   -0.9683   22.2729  -18.5852 C   0  0  0  0  0  0  0  0  0  0  0  0
    0.0770   22.4851  -17.5337 C   0  0  0  0  0  0  0  0  0  0  0  0
   -2.0384   21.4730  -18.2151 C   0  0  0  0  0  0  0  0  0  0  0  0
   -2.9936   21.2796  -19.1779 C   0  0  0  0  0  0  0  0  0  0  0  0
   -2.8617   21.8717  -20.4493 C   0  0  0  0  0  0  0  0  0  0  0  0
   -3.8116   21.8619  -21.8596 S   0  0  0  0  0  0  0  0  0  0  0  0
   -4.1373   20.5163  -19.0096 O   0  0  0  0  0  0  0  0  0  0  0  0
   -5.1599   20.7745  -18.1022 C   0  0  0  0  0  0  0  0  0  0  0  0
   -4.3996   25.1688  -27.0963 C   0  0  0  0  0  0  0  0  0  0  0  0
   -4.6804   26.3604  -26.6583 O   0  0  0  0  0  0  0  0  0  0  0  0
   -4.7288   24.9154  -28.4530 N   0  0  0  0  0  0  0  0  0  0  0  0
   -5.2981   25.9099  -29.4204 C   0  0  0  0  0  0  0  0  0  0  0  0
   -6.0085   24.7745  -30.0796 C   0  0  0  0  0  0  0  0  0  0  0  0
   -6.0964   24.8150  -31.4499 O   0  0  0  0  0  0  0  0  0  0  0  0
   -4.8346   23.9744  -29.5223 C   0  0  0  0  0  0  0  0  0  0  0  0
   -6.2558   25.7521  -31.7181 H   0  0  0  0  0  0  0  0  0  0  0  0
   -5.1057   24.5357  -23.9452 C   0  0  0  0  0  0  0  0  0  0  0  0
   -6.2759   23.8758  -24.0610 O   0  0  0  0  0  0  0  0  0  0  0  0
   -7.6871   24.6056  -25.8611 C   0  0  0  0  0  0  0  0  0  0  0  0
   -7.3554   24.7315  -24.3795 C   0  0  0  0  0  0  0  0  0  0  0  0
 35 36  1  0  0  0
 36 34  1  0  0  0
 34 33  1  0  0  0
 33  1  1  0  0  0
  1  2  1  0  0  0
  2 13  1  0  0  0
 13 14  2  0  0  0
 14 15  1  0  0  0
 15 16  2  0  0  0
 16 17  1  0  0  0
 17 18  1  0  0  0
 17 19  2  0  0  0
 19 20  1  0  0  0
 20 23  1  0  0  0
 23 24  1  0  0  0
 20 21  2  0  0  0
 21 22  1  0  0  0
  2  3  2  0  0  0
  3  4  1  0  0  0
  4  5  1  0  0  0
  4  6  2  0  0  0
  6  7  1  0  0  0
  7  8  2  0  0  0
  8  9  1  0  0  0
  9 10  1  0  0  0
 10 25  1  0  0  0
 25 26  2  0  0  0
 25 27  1  0  0  0
 27 28  1  0  0  0
 28 29  1  0  0  0
 29 30  1  0  0  0
 29 31  1  0  0  0
 10  1  2  0  0  0
 31 27  1  0  0  0
 22 13  1  0  0  0
  9  3  1  0  0  0
 21 15  1  0  0  0
  5 11  1  0  0  0
  5 12  1  0  0  0
 30 32  1  0  0  0
M  END
> <minimizedAffinity>
-7.83346

> <CNNscore>
0.2480926365

> <CNNaffinity>
6.8838758469

> <CNN_VS>
1.7078388929

> <CNNaffinity_variance>
0.2606856525

$$$$
[H]OC1([H])C([H])([H])N(C(=O)c2c(C([H])([H])OC([H])([H])C([H])([H])[H])c(-c3sc4c(OC([H])([H])[H])c([H])c(C([H])([H])[H])c([H])c4c3[H])c3c(N([H])[H])nc([H])nn23)C1([H])[H]


 36 40  0  0  0  0  0  0  0  0999 V2000
   -1.5938   21.5107  -21.2494 C   0  0  0  0  0  0  0  0  0  0  0  0
   -1.1619   22.0049  -22.4923 C   0  0  0  0  0  0  0  0  0  0  0  0
    0.1432   21.6241  -22.6281 C   0  0  0  0  0  0  0  0  0  0  0  0
    1.1003   21.7759  -23.6310 C   0  0  0  0  0  0  0  0  0  0  0  0
    0.7621   22.4615  -24.8292 N   0  0  0  0  0  0  0  0  0  0  0  0
    2.3294   21.2470  -23.4906 N   0  0  0  0  0  0  0  0  0  0  0  0
    2.6720   20.5600  -22.3902 C   0  0  0  0  0  0  0  0  0  0  0  0
    1.7211   20.4398  -21.4578 N   0  0  0  0  0  0  0  0  0  0  0  0
    0.5024   20.9254  -21.5192 N   0  0  0  0  0  0  0  0  0  0  0  0
   -0.5652   20.8454  -20.6578 C   0  0  0  0  0  0  0  0  0  0  0  0
    0.1294   22.0178  -25.5316 H   0  0  0  0  0  0  0  0  0  0  0  0
    1.1890   23.4053  -24.9633 H   0  0  0  0  0  0  0  0  0  0  0  0
   -2.0121   22.7116  -23.4745 C   0  0  0  0  0  0  0  0  0  0  0  0
   -2.5756   23.9532  -23.3357 C   0  0  0  0  0  0  0  0  0  0  0  0
   -3.3867   24.3939  -24.3238 C   0  0  0  0  0  0  0  0  0  0  0  0
   -4.0596   25.6361  -24.3736 C   0  0  0  0  0  0  0  0  0  0  0  0
   -4.8442   25.9387  -25.4377 C   0  0  0  0  0  0  0  0  0  0  0  0
   -5.5548   27.2564  -25.4841 C   0  0  0  0  0  0  0  0  0  0  0  0
   -5.0538   25.1050  -26.5253 C   0  0  0  0  0  0  0  0  0  0  0  0
   -4.4034   23.9001  -26.4814 C   0  0  0  0  0  0  0  0  0  0  0  0
   -3.5837   23.5661  -25.3855 C   0  0  0  0  0  0  0  0  0  0  0  0
   -2.6435   22.2066  -24.9865 S   0  0  0  0  0  0  0  0  0  0  0  0
   -4.4801   22.9281  -27.4656 O   0  0  0  0  0  0  0  0  0  0  0  0
   -3.9642   23.0336  -28.7533 C   0  0  0  0  0  0  0  0  0  0  0  0
   -0.4942   20.0105  -19.4787 C   0  0  0  0  0  0  0  0  0  0  0  0
   -0.4644   18.7296  -19.7005 O   0  0  0  0  0  0  0  0  0  0  0  0
   -0.4593   20.4027  -18.1156 N   0  0  0  0  0  0  0  0  0  0  0  0
   -0.3240   19.4830  -16.9389 C   0  0  0  0  0  0  0  0  0  0  0  0
   -1.1459   20.4547  -16.1587 C   0  0  0  0  0  0  0  0  0  0  0  0
   -0.7909   20.6472  -14.8457 O   0  0  0  0  0  0  0  0  0  0  0  0
   -0.5522   21.4514  -17.1502 C   0  0  0  0  0  0  0  0  0  0  0  0
   -0.5258   19.7733  -14.4698 H   0  0  0  0  0  0  0  0  0  0  0  0
   -2.9319   21.8160  -20.7542 C   0  0  0  0  0  0  0  0  0  0  0  0
   -3.9630   21.2615  -21.4230 O   0  0  0  0  0  0  0  0  0  0  0  0
   -5.7983   22.0220  -22.7712 C   0  0  0  0  0  0  0  0  0  0  0  0
   -5.1220   22.0711  -21.4069 C   0  0  0  0  0  0  0  0  0  0  0  0
 35 36  1  0  0  0
 36 34  1  0  0  0
 34 33  1  0  0  0
 33  1  1  0  0  0
  1  2  1  0  0  0
  2 13  1  0  0  0
 13 14  2  0  0  0
 14 15  1  0  0  0
 15 16  2  0  0  0
 16 17  1  0  0  0
 17 18  1  0  0  0
 17 19  2  0  0  0
 19 20  1  0  0  0
 20 23  1  0  0  0
 23 24  1  0  0  0
 20 21  2  0  0  0
 21 22  1  0  0  0
  2  3  2  0  0  0
  3  4  1  0  0  0
  4  5  1  0  0  0
  4  6  2  0  0  0
  6  7  1  0  0  0
  7  8  2  0  0  0
  8  9  1  0  0  0
  9 10  1  0  0  0
 10 25  1  0  0  0
 25 26  2  0  0  0
 25 27  1  0  0  0
 27 28  1  0  0  0
 28 29  1  0  0  0
 29 30  1  0  0  0
 29 31  1  0  0  0
 10  1  2  0  0  0
 31 27  1  0  0  0
 22 13  1  0  0  0
  9  3  1  0  0  0
 21 15  1  0  0  0
  5 11  1  0  0  0
  5 12  1  0  0  0
 30 32  1  0  0  0
M  END
> <minimizedAffinity>
-6.67571

> <CNNscore>
0.2266341597

> <CNNaffinity>
6.6005196571

> <CNN_VS>
1.4959032536

> <CNNaffinity_variance>
0.3067641854

$$$$
[H]c1nc(N([H])C(=O)c2c([H])c([H])c(C3([H])C([H])([H])C([H])([H])N(C([H])([H])[H])C([H])([H])C3([H])[H])c([H])c2[H])c([H])c(Oc2c(OC([H])([H])[H])c([H])c3c(c2[H])c([H])c([H])n3C(=O)N([H])C([H])([H])[H])c1[H]


 40 44  0  0  0  0  0  0  0  0999 V2000
   -2.1989   22.8867  -27.7629 C   0  0  0  0  0  0  0  0  0  0  0  0
   -1.5997   23.4583  -28.8042 C   0  0  0  0  0  0  0  0  0  0  0  0
   -0.2030   23.4567  -28.8978 C   0  0  0  0  0  0  0  0  0  0  0  0
    0.5195   22.8844  -27.9396 N   0  0  0  0  0  0  0  0  0  0  0  0
   -0.0527   22.3045  -26.8789 C   0  0  0  0  0  0  0  0  0  0  0  0
   -1.4118   22.2776  -26.7480 C   0  0  0  0  0  0  0  0  0  0  0  0
    0.7470   21.7888  -25.7993 N   0  0  0  0  0  0  0  0  0  0  0  0
    0.3717   22.0439  -24.4673 C   0  0  0  0  0  0  0  0  0  0  0  0
   -0.6113   22.8379  -24.2598 O   0  0  0  0  0  0  0  0  0  0  0  0
    1.5336   21.1762  -26.0019 H   0  0  0  0  0  0  0  0  0  0  0  0
    1.0616   21.4277  -23.3380 C   0  0  0  0  0  0  0  0  0  0  0  0
    0.5013   21.1469  -22.1314 C   0  0  0  0  0  0  0  0  0  0  0  0
    1.2421   20.5840  -21.0732 C   0  0  0  0  0  0  0  0  0  0  0  0
    2.5638   20.3005  -21.2398 C   0  0  0  0  0  0  0  0  0  0  0  0
    3.1628   20.5776  -22.4693 C   0  0  0  0  0  0  0  0  0  0  0  0
    2.4220   21.1265  -23.4825 C   0  0  0  0  0  0  0  0  0  0  0  0
    3.3519   19.7101  -20.1371 C   0  0  0  0  0  0  0  0  0  0  0  0
    4.8132   19.6742  -20.4655 C   0  0  0  0  0  0  0  0  0  0  0  0
    5.5646   18.5655  -19.8413 C   0  0  0  0  0  0  0  0  0  0  0  0
    4.9753   17.9103  -18.7571 N   0  0  0  0  0  0  0  0  0  0  0  0
    5.7021   17.7051  -17.5730 C   0  0  0  0  0  0  0  0  0  0  0  0
    3.5796   17.7173  -18.7476 C   0  0  0  0  0  0  0  0  0  0  0  0
    2.8821   18.2655  -19.9639 C   0  0  0  0  0  0  0  0  0  0  0  0
   -3.5712   22.8089  -27.5127 O   0  0  0  0  0  0  0  0  0  0  0  0
   -8.4086   26.7375  -21.0019 C   0  0  0  0  0  0  0  0  0  0  0  0
   -7.6128   25.8113  -21.5781 N   0  0  0  0  0  0  0  0  0  0  0  0
   -6.7953   24.8598  -22.1700 C   0  0  0  0  0  0  0  0  0  0  0  0
   -6.4156   23.7888  -21.7097 O   0  0  0  0  0  0  0  0  0  0  0  0
   -6.3565   25.2192  -23.5184 N   0  0  0  0  0  0  0  0  0  0  0  0
   -6.6584   26.3564  -24.1566 C   0  0  0  0  0  0  0  0  0  0  0  0
   -6.1208   26.3395  -25.4245 C   0  0  0  0  0  0  0  0  0  0  0  0
   -5.4621   25.1248  -25.5534 C   0  0  0  0  0  0  0  0  0  0  0  0
   -4.7710   24.5458  -26.5781 C   0  0  0  0  0  0  0  0  0  0  0  0
   -4.2262   23.2590  -26.4008 C   0  0  0  0  0  0  0  0  0  0  0  0
   -4.3880   22.6134  -25.2163 C   0  0  0  0  0  0  0  0  0  0  0  0
   -5.0856   23.1809  -24.1704 C   0  0  0  0  0  0  0  0  0  0  0  0
   -5.6330   24.4604  -24.3461 C   0  0  0  0  0  0  0  0  0  0  0  0
   -7.6656   25.0753  -20.4120 H   0  0  0  0  0  0  0  0  0  0  0  0
   -3.8204   21.3308  -25.0527 O   0  0  0  0  0  0  0  0  0  0  0  0
   -3.4959   20.7452  -23.8569 C   0  0  0  0  0  0  0  0  0  0  0  0
 25 26  1  0  0  0
 26 27  1  0  0  0
 27 28  2  0  0  0
 27 29  1  0  0  0
 29 30  1  0  0  0
 30 31  2  0  0  0
 31 32  1  0  0  0
 32 33  2  0  0  0
 33 34  1  0  0  0
 34 24  1  0  0  0
 24  1  1  0  0  0
  1  2  2  0  0  0
  2  3  1  0  0  0
  3  4  2  0  0  0
  4  5  1  0  0  0
  5  7  1  0  0  0
  7  8  1  0  0  0
  8  9  2  0  0  0
  8 11  1  0  0  0
 11 12  2  0  0  0
 12 13  1  0  0  0
 13 14  2  0  0  0
 14 15  1  0  0  0
 15 16  2  0  0  0
 14 17  1  0  0  0
 17 18  1  0  0  0
 18 19  1  0  0  0
 19 20  1  0  0  0
 20 21  1  0  0  0
 20 22  1  0  0  0
 22 23  1  0  0  0
  5  6  2  0  0  0
 34 35  2  0  0  0
 35 39  1  0  0  0
 39 40  1  0  0  0
 35 36  1  0  0  0
 36 37  2  0  0  0
 37 29  1  0  0  0
 37 32  1  0  0  0
  6  1  1  0  0  0
 16 11  1  0  0  0
 23 17  1  0  0  0
 26 38  1  0  0  0
  7 10  1  0  0  0
M  END
> <minimizedAffinity>
-8.57142

> <CNNscore>
0.9183286428

> <CNNaffinity>
7.4250693321

> <CNN_VS>
6.8186540604

> <CNNaffinity_variance>
0.0666717514

$$$$
[H]c1nc(N([H])C(=O)c2c([H])c([H])c(C3([H])C([H])([H])C([H])([H])N(C([H])([H])[H])C([H])([H])C3([H])[H])c([H])c2[H])c([H])c(Oc2c(OC([H])([H])[H])c([H])c3c(c2[H])c([H])c([H])n3C(=O)N([H])C([H])([H])[H])c1[H]


 40 44  0  0  0  0  0  0  0  0999 V2000
   -2.1961   22.7668  -27.7528 C   0  0  0  0  0  0  0  0  0  0  0  0
   -1.6147   23.4682  -28.7223 C   0  0  0  0  0  0  0  0  0  0  0  0
   -0.2187   23.5459  -28.7917 C   0  0  0  0  0  0  0  0  0  0  0  0
    0.5207   22.9183  -27.8823 N   0  0  0  0  0  0  0  0  0  0  0  0
   -0.0335   22.2081  -26.8938 C   0  0  0  0  0  0  0  0  0  0  0  0
   -1.3909   22.1003  -26.7895 C   0  0  0  0  0  0  0  0  0  0  0  0
    0.7786   21.6286  -25.8567 N   0  0  0  0  0  0  0  0  0  0  0  0
    0.6198   22.0534  -24.5246 C   0  0  0  0  0  0  0  0  0  0  0  0
   -0.1651   23.0391  -24.2960 O   0  0  0  0  0  0  0  0  0  0  0  0
    1.4066   20.8594  -26.0781 H   0  0  0  0  0  0  0  0  0  0  0  0
    1.3120   21.4010  -23.4173 C   0  0  0  0  0  0  0  0  0  0  0  0
    2.6295   21.0654  -23.4010 C   0  0  0  0  0  0  0  0  0  0  0  0
    3.2209   20.4018  -22.3076 C   0  0  0  0  0  0  0  0  0  0  0  0
    2.4704   20.0768  -21.2187 C   0  0  0  0  0  0  0  0  0  0  0  0
    1.1157   20.4114  -21.2095 C   0  0  0  0  0  0  0  0  0  0  0  0
    0.5632   21.0552  -22.2851 C   0  0  0  0  0  0  0  0  0  0  0  0
    3.0792   19.3802  -20.0655 C   0  0  0  0  0  0  0  0  0  0  0  0
    4.4060   19.9747  -19.7038 C   0  0  0  0  0  0  0  0  0  0  0  0
    5.3707   19.0276  -19.1071 C   0  0  0  0  0  0  0  0  0  0  0  0
    4.8722   17.8245  -18.6013 N   0  0  0  0  0  0  0  0  0  0  0  0
    5.2237   17.3989  -17.3098 C   0  0  0  0  0  0  0  0  0  0  0  0
    3.8021   17.1916  -19.2645 C   0  0  0  0  0  0  0  0  0  0  0  0
    3.3221   17.9303  -20.4853 C   0  0  0  0  0  0  0  0  0  0  0  0
   -3.5655   22.5958  -27.5351 O   0  0  0  0  0  0  0  0  0  0  0  0
   -8.3434   25.7096  -20.5564 C   0  0  0  0  0  0  0  0  0  0  0  0
   -7.7509   25.7279  -21.7696 N   0  0  0  0  0  0  0  0  0  0  0  0
   -7.1422   25.7469  -23.0158 C   0  0  0  0  0  0  0  0  0  0  0  0
   -7.0268   26.6879  -23.7933 O   0  0  0  0  0  0  0  0  0  0  0  0
   -6.5741   24.4584  -23.4119 N   0  0  0  0  0  0  0  0  0  0  0  0
   -6.6336   23.3296  -22.6948 C   0  0  0  0  0  0  0  0  0  0  0  0
   -5.9527   22.3246  -23.3453 C   0  0  0  0  0  0  0  0  0  0  0  0
   -5.4569   22.8823  -24.5154 C   0  0  0  0  0  0  0  0  0  0  0  0
   -4.6972   22.3840  -25.5340 C   0  0  0  0  0  0  0  0  0  0  0  0
   -4.3297   23.2318  -26.5973 C   0  0  0  0  0  0  0  0  0  0  0  0
   -4.7379   24.5277  -26.6011 C   0  0  0  0  0  0  0  0  0  0  0  0
   -5.5034   25.0500  -25.5794 C   0  0  0  0  0  0  0  0  0  0  0  0
   -5.8667   24.2091  -24.5172 C   0  0  0  0  0  0  0  0  0  0  0  0
   -8.1413   27.0437  -21.9137 H   0  0  0  0  0  0  0  0  0  0  0  0
   -4.3727   25.3571  -27.6841 O   0  0  0  0  0  0  0  0  0  0  0  0
   -5.0737   25.5035  -28.8525 C   0  0  0  0  0  0  0  0  0  0  0  0
 25 26  1  0  0  0
 26 27  1  0  0  0
 27 28  2  0  0  0
 27 29  1  0  0  0
 29 30  1  0  0  0
 30 31  2  0  0  0
 31 32  1  0  0  0
 32 33  2  0  0  0
 33 34  1  0  0  0
 34 24  1  0  0  0
 24  1  1  0  0  0
  1  2  2  0  0  0
  2  3  1  0  0  0
  3  4  2  0  0  0
  4  5  1  0  0  0
  5  7  1  0  0  0
  7  8  1  0  0  0
  8  9  2  0  0  0
  8 11  1  0  0  0
 11 12  2  0  0  0
 12 13  1  0  0  0
 13 14  2  0  0  0
 14 15  1  0  0  0
 15 16  2  0  0  0
 14 17  1  0  0  0
 17 18  1  0  0  0
 18 19  1  0  0  0
 19 20  1  0  0  0
 20 21  1  0  0  0
 20 22  1  0  0  0
 22 23  1  0  0  0
  5  6  2  0  0  0
 34 35  2  0  0  0
 35 39  1  0  0  0
 39 40  1  0  0  0
 35 36  1  0  0  0
 36 37  2  0  0  0
 37 29  1  0  0  0
 37 32  1  0  0  0
  6  1  1  0  0  0
 16 11  1  0  0  0
 23 17  1  0  0  0
 26 38  1  0  0  0
  7 10  1  0  0  0
M  END
> <minimizedAffinity>
-9.26149

> <CNNscore>
0.8896475434

> <CNNaffinity>
7.3748893738

> <CNN_VS>
6.5610523224

> <CNNaffinity_variance>
0.0891394466

$$$$
[H]c1nc(N([H])C(=O)c2c([H])c([H])c(C3([H])C([H])([H])C([H])([H])N(C([H])([H])[H])C([H])([H])C3([H])[H])c([H])c2[H])c([H])c(Oc2c(OC([H])([H])[H])c([H])c3c(c2[H])c([H])c([H])n3C(=O)N([H])C([H])([H])[H])c1[H]


 40 44  0  0  0  0  0  0  0  0999 V2000
   -3.7379   23.4120  -28.2310 C   0  0  0  0  0  0  0  0  0  0  0  0
   -3.9348   24.2426  -29.2515 C   0  0  0  0  0  0  0  0  0  0  0  0
   -5.0267   25.1184  -29.2426 C   0  0  0  0  0  0  0  0  0  0  0  0
   -5.8660   25.1124  -28.2115 N   0  0  0  0  0  0  0  0  0  0  0  0
   -5.6974   24.2875  -27.1724 C   0  0  0  0  0  0  0  0  0  0  0  0
   -4.6436   23.4195  -27.1355 C   0  0  0  0  0  0  0  0  0  0  0  0
   -6.6758   24.2177  -26.1194 N   0  0  0  0  0  0  0  0  0  0  0  0
   -6.2977   24.4997  -24.7937 C   0  0  0  0  0  0  0  0  0  0  0  0
   -5.0554   24.6918  -24.5493 O   0  0  0  0  0  0  0  0  0  0  0  0
   -7.6517   24.0433  -26.3481 H   0  0  0  0  0  0  0  0  0  0  0  0
   -7.2747   24.5843  -23.7123 C   0  0  0  0  0  0  0  0  0  0  0  0
   -8.5052   25.1552  -23.8061 C   0  0  0  0  0  0  0  0  0  0  0  0
   -9.3818   25.2327  -22.7056 C   0  0  0  0  0  0  0  0  0  0  0  0
   -9.0089   24.7248  -21.4982 C   0  0  0  0  0  0  0  0  0  0  0  0
   -7.7515   24.1321  -21.3756 C   0  0  0  0  0  0  0  0  0  0  0  0
   -6.9163   24.0700  -22.4596 C   0  0  0  0  0  0  0  0  0  0  0  0
   -9.9195   24.8003  -20.3360 C   0  0  0  0  0  0  0  0  0  0  0  0
  -10.0761   23.4653  -19.6744 C   0  0  0  0  0  0  0  0  0  0  0  0
  -11.3815   23.2451  -19.0178 C   0  0  0  0  0  0  0  0  0  0  0  0
  -12.1699   24.3662  -18.7465 N   0  0  0  0  0  0  0  0  0  0  0  0
  -12.7170   24.5549  -17.4668 C   0  0  0  0  0  0  0  0  0  0  0  0
  -12.1754   25.4391  -19.6599 C   0  0  0  0  0  0  0  0  0  0  0  0
  -11.2932   25.2198  -20.8600 C   0  0  0  0  0  0  0  0  0  0  0  0
   -2.7117   22.4749  -28.0871 O   0  0  0  0  0  0  0  0  0  0  0  0
    1.2433   20.6357  -20.2004 C   0  0  0  0  0  0  0  0  0  0  0  0
    1.1561   21.0144  -21.4935 N   0  0  0  0  0  0  0  0  0  0  0  0
    1.0666   21.4034  -22.8219 C   0  0  0  0  0  0  0  0  0  0  0  0
    1.9757   21.6500  -23.6067 O   0  0  0  0  0  0  0  0  0  0  0  0
   -0.3079   21.5171  -23.3094 N   0  0  0  0  0  0  0  0  0  0  0  0
   -1.4108   21.3083  -22.5802 C   0  0  0  0  0  0  0  0  0  0  0  0
   -2.5297   21.4536  -23.3701 C   0  0  0  0  0  0  0  0  0  0  0  0
   -2.0718   21.7651  -24.6426 C   0  0  0  0  0  0  0  0  0  0  0  0
   -2.7065   21.9976  -25.8283 C   0  0  0  0  0  0  0  0  0  0  0  0
   -1.9397   22.2720  -26.9777 C   0  0  0  0  0  0  0  0  0  0  0  0
   -0.5841   22.3083  -26.8935 C   0  0  0  0  0  0  0  0  0  0  0  0
    0.0753   22.0731  -25.7050 C   0  0  0  0  0  0  0  0  0  0  0  0
   -0.6859   21.7951  -24.5601 C   0  0  0  0  0  0  0  0  0  0  0  0
    2.5311   21.1275  -21.5282 H   0  0  0  0  0  0  0  0  0  0  0  0
    0.1661   22.6012  -28.0534 O   0  0  0  0  0  0  0  0  0  0  0  0
   -0.0225   23.6793  -28.8781 C   0  0  0  0  0  0  0  0  0  0  0  0
 25 26  1  0  0  0
 26 27  1  0  0  0
 27 28  2  0  0  0
 27 29  1  0  0  0
 29 30  1  0  0  0
 30 31  2  0  0  0
 31 32  1  0  0  0
 32 33  2  0  0  0
 33 34  1  0  0  0
 34 24  1  0  0  0
 24  1  1  0  0  0
  1  2  2  0  0  0
  2  3  1  0  0  0
  3  4  2  0  0  0
  4  5  1  0  0  0
  5  7  1  0  0  0
  7  8  1  0  0  0
  8  9  2  0  0  0
  8 11  1  0  0  0
 11 12  2  0  0  0
 12 13  1  0  0  0
 13 14  2  0  0  0
 14 15  1  0  0  0
 15 16  2  0  0  0
 14 17  1  0  0  0
 17 18  1  0  0  0
 18 19  1  0  0  0
 19 20  1  0  0  0
 20 21  1  0  0  0
 20 22  1  0  0  0
 22 23  1  0  0  0
  5  6  2  0  0  0
 34 35  2  0  0  0
 35 39  1  0  0  0
 39 40  1  0  0  0
 35 36  1  0  0  0
 36 37  2  0  0  0
 37 29  1  0  0  0
 37 32  1  0  0  0
  6  1  1  0  0  0
 16 11  1  0  0  0
 23 17  1  0  0  0
 26 38  1  0  0  0
  7 10  1  0  0  0
M  END
> <minimizedAffinity>
-10.06748

> <CNNscore>
0.5817798972

> <CNNaffinity>
7.1344842911

> <CNN_VS>
4.1506996155

> <CNNaffinity_variance>
0.0871146545

$$$$
[H]c1nc(N([H])C(=O)c2c([H])c([H])c(C3([H])C([H])([H])C([H])([H])N(C([H])([H])[H])C([H])([H])C3([H])[H])c([H])c2[H])c([H])c(Oc2c(OC([H])([H])[H])c([H])c3c(c2[H])c([H])c([H])n3C(=O)N([H])C([H])([H])[H])c1[H]


 40 44  0  0  0  0  0  0  0  0999 V2000
   -1.5104   22.5666  -26.5078 C   0  0  0  0  0  0  0  0  0  0  0  0
   -0.2827   22.4398  -27.0047 C   0  0  0  0  0  0  0  0  0  0  0  0
    0.7731   22.0461  -26.1741 C   0  0  0  0  0  0  0  0  0  0  0  0
    0.5422   21.8036  -24.8875 N   0  0  0  0  0  0  0  0  0  0  0  0
   -0.6795   21.9253  -24.3572 C   0  0  0  0  0  0  0  0  0  0  0  0
   -1.7404   22.3018  -25.1304 C   0  0  0  0  0  0  0  0  0  0  0  0
   -0.8889   21.7664  -22.9423 N   0  0  0  0  0  0  0  0  0  0  0  0
   -1.3397   22.8566  -22.1753 C   0  0  0  0  0  0  0  0  0  0  0  0
   -1.4324   23.9985  -22.7475 O   0  0  0  0  0  0  0  0  0  0  0  0
   -0.7870   20.8477  -22.5172 H   0  0  0  0  0  0  0  0  0  0  0  0
   -1.7048   22.7144  -20.7691 C   0  0  0  0  0  0  0  0  0  0  0  0
   -0.8292   22.6581  -19.7304 C   0  0  0  0  0  0  0  0  0  0  0  0
   -1.2554   22.4818  -18.3990 C   0  0  0  0  0  0  0  0  0  0  0  0
   -2.5824   22.3635  -18.1166 C   0  0  0  0  0  0  0  0  0  0  0  0
   -3.5022   22.4194  -19.1646 C   0  0  0  0  0  0  0  0  0  0  0  0
   -3.0633   22.5900  -20.4510 C   0  0  0  0  0  0  0  0  0  0  0  0
   -3.0421   22.1778  -16.7238 C   0  0  0  0  0  0  0  0  0  0  0  0
   -3.6903   20.8404  -16.5339 C   0  0  0  0  0  0  0  0  0  0  0  0
   -4.7425   20.8001  -15.4972 C   0  0  0  0  0  0  0  0  0  0  0  0
   -4.7795   21.8426  -14.5678 N   0  0  0  0  0  0  0  0  0  0  0  0
   -4.8522   21.5642  -13.1931 C   0  0  0  0  0  0  0  0  0  0  0  0
   -4.4551   23.1481  -14.9871 C   0  0  0  0  0  0  0  0  0  0  0  0
   -4.0996   23.2467  -16.4466 C   0  0  0  0  0  0  0  0  0  0  0  0
   -2.6649   22.9562  -27.1913 O   0  0  0  0  0  0  0  0  0  0  0  0
   -9.7500   25.9186  -22.4741 C   0  0  0  0  0  0  0  0  0  0  0  0
   -9.0783   25.4138  -23.5312 N   0  0  0  0  0  0  0  0  0  0  0  0
   -8.3885   24.8953  -24.6171 C   0  0  0  0  0  0  0  0  0  0  0  0
   -8.8052   24.6707  -25.7480 O   0  0  0  0  0  0  0  0  0  0  0  0
   -6.9849   24.5967  -24.3332 N   0  0  0  0  0  0  0  0  0  0  0  0
   -6.3797   24.7590  -23.1503 C   0  0  0  0  0  0  0  0  0  0  0  0
   -5.0472   24.4269  -23.2558 C   0  0  0  0  0  0  0  0  0  0  0  0
   -4.8427   24.0464  -24.5746 C   0  0  0  0  0  0  0  0  0  0  0  0
   -3.7372   23.6405  -25.2647 C   0  0  0  0  0  0  0  0  0  0  0  0
   -3.8534   23.3397  -26.6359 C   0  0  0  0  0  0  0  0  0  0  0  0
   -5.0589   23.4501  -27.2528 C   0  0  0  0  0  0  0  0  0  0  0  0
   -6.1864   23.8614  -26.5730 C   0  0  0  0  0  0  0  0  0  0  0  0
   -6.0724   24.1660  -25.2085 C   0  0  0  0  0  0  0  0  0  0  0  0
  -10.2512   25.4391  -24.2579 H   0  0  0  0  0  0  0  0  0  0  0  0
   -5.1580   23.1284  -28.6241 O   0  0  0  0  0  0  0  0  0  0  0  0
   -4.7846   23.9373  -29.6655 C   0  0  0  0  0  0  0  0  0  0  0  0
 25 26  1  0  0  0
 26 27  1  0  0  0
 27 28  2  0  0  0
 27 29  1  0  0  0
 29 30  1  0  0  0
 30 31  2  0  0  0
 31 32  1  0  0  0
 32 33  2  0  0  0
 33 34  1  0  0  0
 34 24  1  0  0  0
 24  1  1  0  0  0
  1  2  2  0  0  0
  2  3  1  0  0  0
  3  4  2  0  0  0
  4  5  1  0  0  0
  5  7  1  0  0  0
  7  8  1  0  0  0
  8  9  2  0  0  0
  8 11  1  0  0  0
 11 12  2  0  0  0
 12 13  1  0  0  0
 13 14  2  0  0  0
 14 15  1  0  0  0
 15 16  2  0  0  0
 14 17  1  0  0  0
 17 18  1  0  0  0
 18 19  1  0  0  0
 19 20  1  0  0  0
 20 21  1  0  0  0
 20 22  1  0  0  0
 22 23  1  0  0  0
  5  6  2  0  0  0
 34 35  2  0  0  0
 35 39  1  0  0  0
 39 40  1  0  0  0
 35 36  1  0  0  0
 36 37  2  0  0  0
 37 29  1  0  0  0
 37 32  1  0  0  0
  6  1  1  0  0  0
 16 11  1  0  0  0
 23 17  1  0  0  0
 26 38  1  0  0  0
  7 10  1  0  0  0
M  END
> <minimizedAffinity>
-8.58886

> <CNNscore>
0.1935804188

> <CNNaffinity>
6.8058233261

> <CNN_VS>
1.3174741268

> <CNNaffinity_variance>
0.1594160050

$$$$
[H]c1nc(N([H])C(=O)c2c([H])c([H])c(C3([H])C([H])([H])C([H])([H])N(C([H])([H])[H])C([H])([H])C3([H])[H])c([H])c2[H])c([H])c(Oc2c(OC([H])([H])[H])c([H])c3c(c2[H])c([H])c([H])n3C(=O)N([H])C([H])([H])[H])c1[H]


 40 44  0  0  0  0  0  0  0  0999 V2000
   -3.5720   21.8800  -22.3403 C   0  0  0  0  0  0  0  0  0  0  0  0
   -2.2594   22.0405  -22.1937 C   0  0  0  0  0  0  0  0  0  0  0  0
   -1.7370   22.4616  -20.9651 C   0  0  0  0  0  0  0  0  0  0  0  0
   -2.5595   22.7029  -19.9489 N   0  0  0  0  0  0  0  0  0  0  0  0
   -3.8835   22.5541  -20.0654 C   0  0  0  0  0  0  0  0  0  0  0  0
   -4.4374   22.1406  -21.2432 C   0  0  0  0  0  0  0  0  0  0  0  0
   -4.7651   22.9257  -18.9903 N   0  0  0  0  0  0  0  0  0  0  0  0
   -4.7650   22.1805  -17.7967 C   0  0  0  0  0  0  0  0  0  0  0  0
   -4.0606   21.1120  -17.7534 O   0  0  0  0  0  0  0  0  0  0  0  0
   -5.3258   23.7712  -19.0668 H   0  0  0  0  0  0  0  0  0  0  0  0
   -5.5308   22.5964  -16.6255 C   0  0  0  0  0  0  0  0  0  0  0  0
   -6.3640   21.7984  -15.9058 C   0  0  0  0  0  0  0  0  0  0  0  0
   -7.1008   22.2816  -14.8062 C   0  0  0  0  0  0  0  0  0  0  0  0
   -6.9909   23.5860  -14.4304 C   0  0  0  0  0  0  0  0  0  0  0  0
   -6.1412   24.4259  -15.1515 C   0  0  0  0  0  0  0  0  0  0  0  0
   -5.4364   23.9332  -16.2179 C   0  0  0  0  0  0  0  0  0  0  0  0
   -7.7590   24.1050  -13.2788 C   0  0  0  0  0  0  0  0  0  0  0  0
   -9.2156   23.7750  -13.3976 C   0  0  0  0  0  0  0  0  0  0  0  0
  -10.1284   24.7500  -12.7656 C   0  0  0  0  0  0  0  0  0  0  0  0
   -9.5862   25.6385  -11.8336 N   0  0  0  0  0  0  0  0  0  0  0  0
  -10.1941   25.8076  -10.5788 C   0  0  0  0  0  0  0  0  0  0  0  0
   -8.2853   26.1395  -12.0387 C   0  0  0  0  0  0  0  0  0  0  0  0
   -7.6282   25.6282  -13.2930 C   0  0  0  0  0  0  0  0  0  0  0  0
   -4.2530   21.4784  -23.4921 O   0  0  0  0  0  0  0  0  0  0  0  0
   -4.9577   25.8051  -31.3667 C   0  0  0  0  0  0  0  0  0  0  0  0
   -5.2846   25.4483  -30.1061 N   0  0  0  0  0  0  0  0  0  0  0  0
   -5.6204   25.0817  -28.8112 C   0  0  0  0  0  0  0  0  0  0  0  0
   -6.6184   25.3865  -28.1674 O   0  0  0  0  0  0  0  0  0  0  0  0
   -4.6306   24.2161  -28.1702 N   0  0  0  0  0  0  0  0  0  0  0  0
   -3.4800   23.8107  -28.7211 C   0  0  0  0  0  0  0  0  0  0  0  0
   -2.8181   22.9669  -27.8570 C   0  0  0  0  0  0  0  0  0  0  0  0
   -3.6169   22.8595  -26.7272 C   0  0  0  0  0  0  0  0  0  0  0  0
   -3.4930   22.1562  -25.5641 C   0  0  0  0  0  0  0  0  0  0  0  0
   -4.5127   22.2413  -24.5960 C   0  0  0  0  0  0  0  0  0  0  0  0
   -5.6000   23.0230  -24.8259 C   0  0  0  0  0  0  0  0  0  0  0  0
   -5.7442   23.7387  -25.9961 C   0  0  0  0  0  0  0  0  0  0  0  0
   -4.7324   23.6519  -26.9637 C   0  0  0  0  0  0  0  0  0  0  0  0
   -6.4098   26.2418  -30.1988 H   0  0  0  0  0  0  0  0  0  0  0  0
   -6.6036   23.1078  -23.8361 O   0  0  0  0  0  0  0  0  0  0  0  0
   -6.8819   24.2096  -23.0702 C   0  0  0  0  0  0  0  0  0  0  0  0
 25 26  1  0  0  0
 26 27  1  0  0  0
 27 28  2  0  0  0
 27 29  1  0  0  0
 29 30  1  0  0  0
 30 31  2  0  0  0
 31 32  1  0  0  0
 32 33  2  0  0  0
 33 34  1  0  0  0
 34 24  1  0  0  0
 24  1  1  0  0  0
  1  2  2  0  0  0
  2  3  1  0  0  0
  3  4  2  0  0  0
  4  5  1  0  0  0
  5  7  1  0  0  0
  7  8  1  0  0  0
  8  9  2  0  0  0
  8 11  1  0  0  0
 11 12  2  0  0  0
 12 13  1  0  0  0
 13 14  2  0  0  0
 14 15  1  0  0  0
 15 16  2  0  0  0
 14 17  1  0  0  0
 17 18  1  0  0  0
 18 19  1  0  0  0
 19 20  1  0  0  0
 20 21  1  0  0  0
 20 22  1  0  0  0
 22 23  1  0  0  0
  5  6  2  0  0  0
 34 35  2  0  0  0
 35 39  1  0  0  0
 39 40  1  0  0  0
 35 36  1  0  0  0
 36 37  2  0  0  0
 37 29  1  0  0  0
 37 32  1  0  0  0
  6  1  1  0  0  0
 16 11  1  0  0  0
 23 17  1  0  0  0
 26 38  1  0  0  0
  7 10  1  0  0  0
M  END
> <minimizedAffinity>
-8.22748

> <CNNscore>
0.1227012575

> <CNNaffinity>
5.9561700821

> <CNN_VS>
0.7308295369

> <CNNaffinity_variance>
0.2154740989

$$$$
[H]c1nc(N([H])C(=O)c2c([H])c([H])c(C3([H])C([H])([H])C([H])([H])N(C([H])([H])[H])C([H])([H])C3([H])[H])c([H])c2[H])c([H])c(Oc2c(OC([H])([H])[H])c([H])c3c(c2[H])c([H])c([H])n3C(=O)N([H])C([H])([H])[H])c1[H]


 40 44  0  0  0  0  0  0  0  0999 V2000
    0.2672   21.0314  -22.1712 C   0  0  0  0  0  0  0  0  0  0  0  0
    1.3575   20.8188  -22.9034 C   0  0  0  0  0  0  0  0  0  0  0  0
    2.6267   20.9854  -22.3368 C   0  0  0  0  0  0  0  0  0  0  0  0
    2.7352   21.3600  -21.0658 N   0  0  0  0  0  0  0  0  0  0  0  0
    1.6588   21.5847  -20.3046 C   0  0  0  0  0  0  0  0  0  0  0  0
    0.4009   21.4298  -20.8133 C   0  0  0  0  0  0  0  0  0  0  0  0
    1.7952   22.0957  -18.9662 N   0  0  0  0  0  0  0  0  0  0  0  0
    1.9434   21.2031  -17.8886 C   0  0  0  0  0  0  0  0  0  0  0  0
    1.8279   19.9496  -18.1242 O   0  0  0  0  0  0  0  0  0  0  0  0
    1.8641   23.0993  -18.8139 H   0  0  0  0  0  0  0  0  0  0  0  0
    2.2286   21.6667  -16.5341 C   0  0  0  0  0  0  0  0  0  0  0  0
    1.9587   20.9779  -15.3932 C   0  0  0  0  0  0  0  0  0  0  0  0
    2.2291   21.5075  -14.1157 C   0  0  0  0  0  0  0  0  0  0  0  0
    2.7807   22.7466  -13.9928 C   0  0  0  0  0  0  0  0  0  0  0  0
    3.0688   23.4739  -15.1483 C   0  0  0  0  0  0  0  0  0  0  0  0
    2.7953   22.9383  -16.3792 C   0  0  0  0  0  0  0  0  0  0  0  0
    3.0688   23.3133  -12.6580 C   0  0  0  0  0  0  0  0  0  0  0  0
    3.0411   22.2568  -11.5961 C   0  0  0  0  0  0  0  0  0  0  0  0
    2.6291   22.7295  -10.2581 C   0  0  0  0  0  0  0  0  0  0  0  0
    2.6709   24.1044  -10.0133 N   0  0  0  0  0  0  0  0  0  0  0  0
    3.3052   24.6004   -8.8625 C   0  0  0  0  0  0  0  0  0  0  0  0
    2.3367   24.9971  -11.0509 C   0  0  0  0  0  0  0  0  0  0  0  0
    1.9599   24.3166  -12.3399 C   0  0  0  0  0  0  0  0  0  0  0  0
   -1.0637   20.9204  -22.5813 O   0  0  0  0  0  0  0  0  0  0  0  0
   -5.0436   25.5908  -29.1823 C   0  0  0  0  0  0  0  0  0  0  0  0
   -4.7163   25.2513  -27.9170 N   0  0  0  0  0  0  0  0  0  0  0  0
   -4.3802   24.9025  -26.6173 C   0  0  0  0  0  0  0  0  0  0  0  0
   -4.8238   25.3553  -25.5678 O   0  0  0  0  0  0  0  0  0  0  0  0
   -3.3654   23.8522  -26.5346 N   0  0  0  0  0  0  0  0  0  0  0  0
   -2.7627   23.2700  -27.5785 C   0  0  0  0  0  0  0  0  0  0  0  0
   -1.9009   22.2910  -27.1362 C   0  0  0  0  0  0  0  0  0  0  0  0
   -1.9936   22.2853  -25.7515 C   0  0  0  0  0  0  0  0  0  0  0  0
   -1.4002   21.5287  -24.7828 C   0  0  0  0  0  0  0  0  0  0  0  0
   -1.7293   21.7574  -23.4324 C   0  0  0  0  0  0  0  0  0  0  0  0
   -2.6243   22.7273  -23.1092 C   0  0  0  0  0  0  0  0  0  0  0  0
   -3.2364   23.4999  -24.0741 C   0  0  0  0  0  0  0  0  0  0  0  0
   -2.9139   23.2710  -25.4199 C   0  0  0  0  0  0  0  0  0  0  0  0
   -5.5691   26.2344  -27.4581 H   0  0  0  0  0  0  0  0  0  0  0  0
   -2.9287   22.9520  -21.7488 O   0  0  0  0  0  0  0  0  0  0  0  0
   -4.1211   23.4198  -21.2616 C   0  0  0  0  0  0  0  0  0  0  0  0
 25 26  1  0  0  0
 26 27  1  0  0  0
 27 28  2  0  0  0
 27 29  1  0  0  0
 29 30  1  0  0  0
 30 31  2  0  0  0
 31 32  1  0  0  0
 32 33  2  0  0  0
 33 34  1  0  0  0
 34 24  1  0  0  0
 24  1  1  0  0  0
  1  2  2  0  0  0
  2  3  1  0  0  0
  3  4  2  0  0  0
  4  5  1  0  0  0
  5  7  1  0  0  0
  7  8  1  0  0  0
  8  9  2  0  0  0
  8 11  1  0  0  0
 11 12  2  0  0  0
 12 13  1  0  0  0
 13 14  2  0  0  0
 14 15  1  0  0  0
 15 16  2  0  0  0
 14 17  1  0  0  0
 17 18  1  0  0  0
 18 19  1  0  0  0
 19 20  1  0  0  0
 20 21  1  0  0  0
 20 22  1  0  0  0
 22 23  1  0  0  0
  5  6  2  0  0  0
 34 35  2  0  0  0
 35 39  1  0  0  0
 39 40  1  0  0  0
 35 36  1  0  0  0
 36 37  2  0  0  0
 37 29  1  0  0  0
 37 32  1  0  0  0
  6  1  1  0  0  0
 16 11  1  0  0  0
 23 17  1  0  0  0
 26 38  1  0  0  0
  7 10  1  0  0  0
M  END
> <minimizedAffinity>
-7.84008

> <CNNscore>
0.1220706403

> <CNNaffinity>
5.5237030983

> <CNN_VS>
0.6742819548

> <CNNaffinity_variance>
0.1746414900

$$$$
[H]c1nc(N([H])C(=O)c2c([H])c([H])c(C3([H])C([H])([H])C([H])([H])N(C([H])([H])[H])C([H])([H])C3([H])[H])c([H])c2[H])c([H])c(Oc2c(OC([H])([H])[H])c([H])c3c(c2[H])c([H])c([H])n3C(=O)N([H])C([H])([H])[H])c1[H]


 40 44  0  0  0  0  0  0  0  0999 V2000
   -2.3646   22.4325  -26.4313 C   0  0  0  0  0  0  0  0  0  0  0  0
   -1.4327   22.7454  -27.3278 C   0  0  0  0  0  0  0  0  0  0  0  0
   -0.0768   22.6332  -26.9987 C   0  0  0  0  0  0  0  0  0  0  0  0
    0.2731   22.2160  -25.7858 N   0  0  0  0  0  0  0  0  0  0  0  0
   -0.6395   21.8971  -24.8615 C   0  0  0  0  0  0  0  0  0  0  0  0
   -1.9736   21.9863  -25.1395 C   0  0  0  0  0  0  0  0  0  0  0  0
   -0.2434   21.5542  -23.5211 N   0  0  0  0  0  0  0  0  0  0  0  0
   -0.6665   22.3513  -22.4415 C   0  0  0  0  0  0  0  0  0  0  0  0
   -1.2950   23.4359  -22.7032 O   0  0  0  0  0  0  0  0  0  0  0  0
    0.2730   20.6941  -23.3520 H   0  0  0  0  0  0  0  0  0  0  0  0
   -0.4155   21.9710  -21.0546 C   0  0  0  0  0  0  0  0  0  0  0  0
    0.2974   20.8851  -20.6529 C   0  0  0  0  0  0  0  0  0  0  0  0
    0.4665   20.5604  -19.2922 C   0  0  0  0  0  0  0  0  0  0  0  0
   -0.0905   21.3450  -18.3284 C   0  0  0  0  0  0  0  0  0  0  0  0
   -0.8259   22.4665  -18.7140 C   0  0  0  0  0  0  0  0  0  0  0  0
   -0.9776   22.7607  -20.0434 C   0  0  0  0  0  0  0  0  0  0  0  0
    0.0794   21.0147  -16.8975 C   0  0  0  0  0  0  0  0  0  0  0  0
   -1.2084   21.1571  -16.1451 C   0  0  0  0  0  0  0  0  0  0  0  0
   -1.0607   21.5327  -14.7236 C   0  0  0  0  0  0  0  0  0  0  0  0
    0.1926   21.3571  -14.1318 N   0  0  0  0  0  0  0  0  0  0  0  0
    0.3083   20.6875  -12.9026 C   0  0  0  0  0  0  0  0  0  0  0  0
    1.3523   21.5913  -14.8971 C   0  0  0  0  0  0  0  0  0  0  0  0
    1.0698   22.0215  -16.3119 C   0  0  0  0  0  0  0  0  0  0  0  0
   -3.7509   22.4964  -26.5926 O   0  0  0  0  0  0  0  0  0  0  0  0
   -9.5320   24.9701  -20.1362 C   0  0  0  0  0  0  0  0  0  0  0  0
   -8.7674   25.0985  -21.2417 N   0  0  0  0  0  0  0  0  0  0  0  0
   -7.9819   25.2305  -22.3773 C   0  0  0  0  0  0  0  0  0  0  0  0
   -7.7615   26.2393  -23.0384 O   0  0  0  0  0  0  0  0  0  0  0  0
   -7.3505   23.9817  -22.8033 N   0  0  0  0  0  0  0  0  0  0  0  0
   -7.5050   22.7913  -22.2109 C   0  0  0  0  0  0  0  0  0  0  0  0
   -6.7269   21.8478  -22.8444 C   0  0  0  0  0  0  0  0  0  0  0  0
   -6.0690   22.5097  -23.8715 C   0  0  0  0  0  0  0  0  0  0  0  0
   -5.1632   22.1047  -24.8088 C   0  0  0  0  0  0  0  0  0  0  0  0
   -4.6505   23.0461  -25.7228 C   0  0  0  0  0  0  0  0  0  0  0  0
   -5.0650   24.3388  -25.6663 C   0  0  0  0  0  0  0  0  0  0  0  0
   -5.9772   24.7674  -24.7247 C   0  0  0  0  0  0  0  0  0  0  0  0
   -6.4857   23.8329  -23.8105 C   0  0  0  0  0  0  0  0  0  0  0  0
   -9.1439   26.4240  -21.3190 H   0  0  0  0  0  0  0  0  0  0  0  0
   -4.5515   25.2636  -26.6017 O   0  0  0  0  0  0  0  0  0  0  0  0
   -5.2626   25.8633  -27.6081 C   0  0  0  0  0  0  0  0  0  0  0  0
 25 26  1  0  0  0
 26 27  1  0  0  0
 27 28  2  0  0  0
 27 29  1  0  0  0
 29 30  1  0  0  0
 30 31  2  0  0  0
 31 32  1  0  0  0
 32 33  2  0  0  0
 33 34  1  0  0  0
 34 24  1  0  0  0
 24  1  1  0  0  0
  1  2  2  0  0  0
  2  3  1  0  0  0
  3  4  2  0  0  0
  4  5  1  0  0  0
  5  7  1  0  0  0
  7  8  1  0  0  0
  8  9  2  0  0  0
  8 11  1  0  0  0
 11 12  2  0  0  0
 12 13  1  0  0  0
 13 14  2  0  0  0
 14 15  1  0  0  0
 15 16  2  0  0  0
 14 17  1  0  0  0
 17 18  1  0  0  0
 18 19  1  0  0  0
 19 20  1  0  0  0
 20 21  1  0  0  0
 20 22  1  0  0  0
 22 23  1  0  0  0
  5  6  2  0  0  0
 34 35  2  0  0  0
 35 39  1  0  0  0
 39 40  1  0  0  0
 35 36  1  0  0  0
 36 37  2  0  0  0
 37 29  1  0  0  0
 37 32  1  0  0  0
  6  1  1  0  0  0
 16 11  1  0  0  0
 23 17  1  0  0  0
 26 38  1  0  0  0
  7 10  1  0  0  0
M  END
> <minimizedAffinity>
-8.79973

> <CNNscore>
0.1179222912

> <CNNaffinity>
6.4800047874

> <CNN_VS>
0.7641370296

> <CNNaffinity_variance>
0.1081424728

$$$$
[H]c1nc(N([H])C(=O)c2c([H])c([H])c(C3([H])C([H])([H])C([H])([H])N(C([H])([H])[H])C([H])([H])C3([H])[H])c([H])c2[H])c([H])c(Oc2c(OC([H])([H])[H])c([H])c3c(c2[H])c([H])c([H])n3C(=O)N([H])C([H])([H])[H])c1[H]


 40 44  0  0  0  0  0  0  0  0999 V2000
   -3.0632   22.1895  -22.4471 C   0  0  0  0  0  0  0  0  0  0  0  0
   -1.9843   22.9600  -22.3352 C   0  0  0  0  0  0  0  0  0  0  0  0
   -1.5258   23.3457  -21.0701 C   0  0  0  0  0  0  0  0  0  0  0  0
   -2.1761   22.9408  -19.9835 N   0  0  0  0  0  0  0  0  0  0  0  0
   -3.2653   22.1687  -20.0627 C   0  0  0  0  0  0  0  0  0  0  0  0
   -3.7458   21.7638  -21.2752 C   0  0  0  0  0  0  0  0  0  0  0  0
   -4.0187   21.8325  -18.8835 N   0  0  0  0  0  0  0  0  0  0  0  0
   -5.0765   22.6628  -18.4691 C   0  0  0  0  0  0  0  0  0  0  0  0
   -5.2560   23.7666  -19.0931 O   0  0  0  0  0  0  0  0  0  0  0  0
   -3.8357   20.9558  -18.4008 H   0  0  0  0  0  0  0  0  0  0  0  0
   -5.9621   22.2955  -17.3684 C   0  0  0  0  0  0  0  0  0  0  0  0
   -6.1255   23.0042  -16.2196 C   0  0  0  0  0  0  0  0  0  0  0  0
   -6.9728   22.5664  -15.1823 C   0  0  0  0  0  0  0  0  0  0  0  0
   -7.6634   21.3996  -15.3111 C   0  0  0  0  0  0  0  0  0  0  0  0
   -7.5146   20.6539  -16.4811 C   0  0  0  0  0  0  0  0  0  0  0  0
   -6.6837   21.0996  -17.4749 C   0  0  0  0  0  0  0  0  0  0  0  0
   -8.5552   20.9294  -14.2298 C   0  0  0  0  0  0  0  0  0  0  0  0
   -8.7959   22.0022  -13.2120 C   0  0  0  0  0  0  0  0  0  0  0  0
   -9.0443   21.5139  -11.8396 C   0  0  0  0  0  0  0  0  0  0  0  0
   -9.3984   20.1717  -11.6815 N   0  0  0  0  0  0  0  0  0  0  0  0
  -10.5157   19.8201  -10.9065 C   0  0  0  0  0  0  0  0  0  0  0  0
   -8.8161   19.2041  -12.5242 C   0  0  0  0  0  0  0  0  0  0  0  0
   -7.8453   19.7741  -13.5236 C   0  0  0  0  0  0  0  0  0  0  0  0
   -3.6544   21.7255  -23.6248 O   0  0  0  0  0  0  0  0  0  0  0  0
   -5.3723   25.9948  -31.3738 C   0  0  0  0  0  0  0  0  0  0  0  0
   -5.5324   25.6486  -30.0785 N   0  0  0  0  0  0  0  0  0  0  0  0
   -5.6970   25.2930  -28.7480 C   0  0  0  0  0  0  0  0  0  0  0  0
   -6.6015   25.6060  -27.9817 O   0  0  0  0  0  0  0  0  0  0  0  0
   -4.6339   24.4289  -28.2350 N   0  0  0  0  0  0  0  0  0  0  0  0
   -3.5661   24.0156  -28.9283 C   0  0  0  0  0  0  0  0  0  0  0  0
   -2.7989   23.1761  -28.1514 C   0  0  0  0  0  0  0  0  0  0  0  0
   -3.4434   23.0800  -26.9261 C   0  0  0  0  0  0  0  0  0  0  0  0
   -3.1702   22.3850  -25.7836 C   0  0  0  0  0  0  0  0  0  0  0  0
   -4.0544   22.4809  -24.6913 C   0  0  0  0  0  0  0  0  0  0  0  0
   -5.1606   23.2645  -24.7832 C   0  0  0  0  0  0  0  0  0  0  0  0
   -5.4549   23.9718  -25.9303 C   0  0  0  0  0  0  0  0  0  0  0  0
   -4.5784   23.8743  -27.0210 C   0  0  0  0  0  0  0  0  0  0  0  0
   -6.6583   26.4452  -30.0297 H   0  0  0  0  0  0  0  0  0  0  0  0
   -6.0260   23.3601  -23.6715 O   0  0  0  0  0  0  0  0  0  0  0  0
   -7.1082   24.1946  -23.5686 C   0  0  0  0  0  0  0  0  0  0  0  0
 25 26  1  0  0  0
 26 27  1  0  0  0
 27 28  2  0  0  0
 27 29  1  0  0  0
 29 30  1  0  0  0
 30 31  2  0  0  0
 31 32  1  0  0  0
 32 33  2  0  0  0
 33 34  1  0  0  0
 34 24  1  0  0  0
 24  1  1  0  0  0
  1  2  2  0  0  0
  2  3  1  0  0  0
  3  4  2  0  0  0
  4  5  1  0  0  0
  5  7  1  0  0  0
  7  8  1  0  0  0
  8  9  2  0  0  0
  8 11  1  0  0  0
 11 12  2  0  0  0
 12 13  1  0  0  0
 13 14  2  0  0  0
 14 15  1  0  0  0
 15 16  2  0  0  0
 14 17  1  0  0  0
 17 18  1  0  0  0
 18 19  1  0  0  0
 19 20  1  0  0  0
 20 21  1  0  0  0
 20 22  1  0  0  0
 22 23  1  0  0  0
  5  6  2  0  0  0
 34 35  2  0  0  0
 35 39  1  0  0  0
 39 40  1  0  0  0
 35 36  1  0  0  0
 36 37  2  0  0  0
 37 29  1  0  0  0
 37 32  1  0  0  0
  6  1  1  0  0  0
 16 11  1  0  0  0
 23 17  1  0  0  0
 26 38  1  0  0  0
  7 10  1  0  0  0
M  END
> <minimizedAffinity>
-7.97406

> <CNNscore>
0.1167204008

> <CNNaffinity>
5.9563350677

> <CNN_VS>
0.6952258348

> <CNNaffinity_variance>
0.3023056090

$$$$
[H]c1nc(N([H])C(=O)c2c([H])c([H])c(C3([H])C([H])([H])C([H])([H])N(C([H])([H])[H])C([H])([H])C3([H])[H])c([H])c2[H])c([H])c(Oc2c(OC([H])([H])[H])c([H])c3c(c2[H])c([H])c([H])n3C(=O)N([H])C([H])([H])[H])c1[H]


 40 44  0  0  0  0  0  0  0  0999 V2000
   -2.1206   21.6271  -23.7062 C   0  0  0  0  0  0  0  0  0  0  0  0
   -0.8009   21.6095  -23.5384 C   0  0  0  0  0  0  0  0  0  0  0  0
   -0.2450   21.9798  -22.3082 C   0  0  0  0  0  0  0  0  0  0  0  0
   -1.0426   22.3518  -21.3117 N   0  0  0  0  0  0  0  0  0  0  0  0
   -2.3725   22.3832  -21.4497 C   0  0  0  0  0  0  0  0  0  0  0  0
   -2.9593   22.0256  -22.6299 C   0  0  0  0  0  0  0  0  0  0  0  0
   -3.2116   22.8935  -20.3978 N   0  0  0  0  0  0  0  0  0  0  0  0
   -3.3968   22.1405  -19.2236 C   0  0  0  0  0  0  0  0  0  0  0  0
   -2.9049   20.9588  -19.1817 O   0  0  0  0  0  0  0  0  0  0  0  0
   -3.6024   23.8298  -20.4734 H   0  0  0  0  0  0  0  0  0  0  0  0
   -4.1177   22.6710  -18.0704 C   0  0  0  0  0  0  0  0  0  0  0  0
   -3.6901   22.6150  -16.7809 C   0  0  0  0  0  0  0  0  0  0  0  0
   -4.4602   23.1170  -15.7130 C   0  0  0  0  0  0  0  0  0  0  0  0
   -5.6750   23.6834  -15.9540 C   0  0  0  0  0  0  0  0  0  0  0  0
   -6.1365   23.7547  -17.2690 C   0  0  0  0  0  0  0  0  0  0  0  0
   -5.3703   23.2583  -18.2903 C   0  0  0  0  0  0  0  0  0  0  0  0
   -6.4924   24.2134  -14.8420 C   0  0  0  0  0  0  0  0  0  0  0  0
   -6.0504   25.5883  -14.4432 C   0  0  0  0  0  0  0  0  0  0  0  0
   -6.2647   25.9227  -13.0199 C   0  0  0  0  0  0  0  0  0  0  0  0
   -7.1573   25.1307  -12.2934 N   0  0  0  0  0  0  0  0  0  0  0  0
   -8.1688   25.7274  -11.5229 C   0  0  0  0  0  0  0  0  0  0  0  0
   -7.2237   23.7489  -12.5609 C   0  0  0  0  0  0  0  0  0  0  0  0
   -6.2783   23.2930  -13.6401 C   0  0  0  0  0  0  0  0  0  0  0  0
   -2.8321   21.2992  -24.8630 O   0  0  0  0  0  0  0  0  0  0  0  0
   -5.8236   27.0650  -31.1106 C   0  0  0  0  0  0  0  0  0  0  0  0
   -4.9604   26.2254  -30.4995 N   0  0  0  0  0  0  0  0  0  0  0  0
   -4.0736   25.3631  -29.8719 C   0  0  0  0  0  0  0  0  0  0  0  0
   -2.9023   25.1361  -30.1544 O   0  0  0  0  0  0  0  0  0  0  0  0
   -4.6506   24.6576  -28.7277 N   0  0  0  0  0  0  0  0  0  0  0  0
   -5.9145   24.7710  -28.3017 C   0  0  0  0  0  0  0  0  0  0  0  0
   -6.0993   24.0043  -27.1726 C   0  0  0  0  0  0  0  0  0  0  0  0
   -4.8787   23.3997  -26.9068 C   0  0  0  0  0  0  0  0  0  0  0  0
   -4.4528   22.5590  -25.9195 C   0  0  0  0  0  0  0  0  0  0  0  0
   -3.1117   22.1281  -25.9131 C   0  0  0  0  0  0  0  0  0  0  0  0
   -2.2622   22.5463  -26.8876 C   0  0  0  0  0  0  0  0  0  0  0  0
   -2.6734   23.3980  -27.8916 C   0  0  0  0  0  0  0  0  0  0  0  0
   -4.0072   23.8323  -27.8975 C   0  0  0  0  0  0  0  0  0  0  0  0
   -4.0163   26.5383  -31.4562 H   0  0  0  0  0  0  0  0  0  0  0  0
   -0.9259   22.0902  -26.8728 O   0  0  0  0  0  0  0  0  0  0  0  0
    0.1914   22.8834  -26.8999 C   0  0  0  0  0  0  0  0  0  0  0  0
 25 26  1  0  0  0
 26 27  1  0  0  0
 27 28  2  0  0  0
 27 29  1  0  0  0
 29 30  1  0  0  0
 30 31  2  0  0  0
 31 32  1  0  0  0
 32 33  2  0  0  0
 33 34  1  0  0  0
 34 24  1  0  0  0
 24  1  1  0  0  0
  1  2  2  0  0  0
  2  3  1  0  0  0
  3  4  2  0  0  0
  4  5  1  0  0  0
  5  7  1  0  0  0
  7  8  1  0  0  0
  8  9  2  0  0  0
  8 11  1  0  0  0
 11 12  2  0  0  0
 12 13  1  0  0  0
 13 14  2  0  0  0
 14 15  1  0  0  0
 15 16  2  0  0  0
 14 17  1  0  0  0
 17 18  1  0  0  0
 18 19  1  0  0  0
 19 20  1  0  0  0
 20 21  1  0  0  0
 20 22  1  0  0  0
 22 23  1  0  0  0
  5  6  2  0  0  0
 34 35  2  0  0  0
 35 39  1  0  0  0
 39 40  1  0  0  0
 35 36  1  0  0  0
 36 37  2  0  0  0
 37 29  1  0  0  0
 37 32  1  0  0  0
  6  1  1  0  0  0
 16 11  1  0  0  0
 23 17  1  0  0  0
 26 38  1  0  0  0
  7 10  1  0  0  0
M  END
> <minimizedAffinity>
-8.13726

> <CNNscore>
0.1063998342

> <CNNaffinity>
5.9728884697

> <CNN_VS>
0.6355143189

> <CNNaffinity_variance>
0.1054347008

$$$$
[H]c1nc(N([H])[H])c(-c2nn(-c3c(Cl)c(OC([H])([H])[H])c([H])c(OC([H])([H])[H])c3Cl)c(=O)c([H])c2[H])nc1-c1c([H])nn(C2([H])C([H])([H])C([H])([H])N(C([H])([H])[H])C([H])([H])C2([H])[H])c1[H]


 40 44  0  0  0  0  0  0  0  0999 V2000
   -2.3360   22.8442  -26.3919 C   0  0  0  0  0  0  0  0  0  0  0  0
   -1.7774   22.4357  -25.2426 N   0  0  0  0  0  0  0  0  0  0  0  0
   -0.4605   22.1214  -25.1932 C   0  0  0  0  0  0  0  0  0  0  0  0
    0.3516   22.2055  -26.3020 C   0  0  0  0  0  0  0  0  0  0  0  0
   -0.2136   22.6157  -27.4518 N   0  0  0  0  0  0  0  0  0  0  0  0
   -1.5266   22.9298  -27.5036 C   0  0  0  0  0  0  0  0  0  0  0  0
   -2.1566   23.3695  -28.7136 N   0  0  0  0  0  0  0  0  0  0  0  0
   -2.0746   24.3760  -28.9902 H   0  0  0  0  0  0  0  0  0  0  0  0
   -2.6933   22.7188  -29.3254 H   0  0  0  0  0  0  0  0  0  0  0  0
   -5.7768   23.6408  -25.3052 N   0  0  0  0  0  0  0  0  0  0  0  0
   -4.4906   23.3378  -25.3164 N   0  0  0  0  0  0  0  0  0  0  0  0
   -3.7572   23.1809  -26.4287 C   0  0  0  0  0  0  0  0  0  0  0  0
   -4.3872   23.3468  -27.6392 C   0  0  0  0  0  0  0  0  0  0  0  0
   -5.7278   23.6626  -27.6268 C   0  0  0  0  0  0  0  0  0  0  0  0
   -6.4542   23.8171  -26.4535 C   0  0  0  0  0  0  0  0  0  0  0  0
   -7.6901   24.1087  -26.4749 O   0  0  0  0  0  0  0  0  0  0  0  0
   -7.4959   22.7187  -22.1928 C   0  0  0  0  0  0  0  0  0  0  0  0
   -7.8305   23.9666  -21.6922 C   0  0  0  0  0  0  0  0  0  0  0  0
   -7.5072   25.1390  -22.3505 C   0  0  0  0  0  0  0  0  0  0  0  0
   -6.8267   25.0148  -23.5457 C   0  0  0  0  0  0  0  0  0  0  0  0
   -6.3907   26.4662  -24.4232 Cl  0  0  0  0  0  0  0  0  0  0  0  0
   -6.4790   23.7875  -24.0712 C   0  0  0  0  0  0  0  0  0  0  0  0
   -6.8142   22.6290  -23.3927 C   0  0  0  0  0  0  0  0  0  0  0  0
   -6.3911   21.0749  -24.0276 Cl  0  0  0  0  0  0  0  0  0  0  0  0
   -8.6100   21.6155  -20.3759 C   0  0  0  0  0  0  0  0  0  0  0  0
   -7.8153   21.5364  -21.5408 O   0  0  0  0  0  0  0  0  0  0  0  0
   -7.8221   26.3946  -21.8856 O   0  0  0  0  0  0  0  0  0  0  0  0
   -8.5620   26.6686  -20.7374 C   0  0  0  0  0  0  0  0  0  0  0  0
    0.0939   21.6833  -23.9205 C   0  0  0  0  0  0  0  0  0  0  0  0
   -0.5774   21.4308  -22.7500 C   0  0  0  0  0  0  0  0  0  0  0  0
    0.3172   21.0549  -21.8445 N   0  0  0  0  0  0  0  0  0  0  0  0
    1.5424   21.0483  -22.3632 N   0  0  0  0  0  0  0  0  0  0  0  0
    1.4383   21.4346  -23.6539 C   0  0  0  0  0  0  0  0  0  0  0  0
    2.7642   20.6845  -21.6438 C   0  0  0  0  0  0  0  0  0  0  0  0
    2.3256   19.9037  -20.4277 C   0  0  0  0  0  0  0  0  0  0  0  0
    3.4492   19.2121  -19.7313 C   0  0  0  0  0  0  0  0  0  0  0  0
    4.7177   19.3514  -20.3719 N   0  0  0  0  0  0  0  0  0  0  0  0
    5.4226   20.5586  -20.0280 C   0  0  0  0  0  0  0  0  0  0  0  0
    4.6871   19.0813  -21.7853 C   0  0  0  0  0  0  0  0  0  0  0  0
    3.6167   19.8173  -22.5196 C   0  0  0  0  0  0  0  0  0  0  0  0
 25 26  1  0  0  0
 26 17  1  0  0  0
 17 18  2  0  0  0
 18 19  1  0  0  0
 19 27  1  0  0  0
 27 28  1  0  0  0
 19 20  2  0  0  0
 20 21  1  0  0  0
 20 22  1  0  0  0
 22 23  2  0  0  0
 23 24  1  0  0  0
 22 10  1  0  0  0
 10 11  1  0  0  0
 11 12  2  0  0  0
 12 13  1  0  0  0
 13 14  2  0  0  0
 14 15  1  0  0  0
 15 16  2  0  0  0
 12  1  1  0  0  0
  1  2  2  0  0  0
  2  3  1  0  0  0
  3  4  2  0  0  0
  4  5  1  0  0  0
  5  6  2  0  0  0
  6  7  1  0  0  0
  3 29  1  0  0  0
 29 30  1  0  0  0
 30 31  2  0  0  0
 31 32  1  0  0  0
 32 33  1  0  0  0
 32 34  1  0  0  0
 34 35  1  0  0  0
 35 36  1  0  0  0
 36 37  1  0  0  0
 37 38  1  0  0  0
 37 39  1  0  0  0
 39 40  1  0  0  0
 23 17  1  0  0  0
 15 10  1  0  0  0
  6  1  1  0  0  0
 33 29  2  0  0  0
 40 34  1  0  0  0
  7  8  1  0  0  0
  7  9  1  0  0  0
M  END
> <minimizedAffinity>
-9.82811

> <CNNscore>
0.7715761662

> <CNNaffinity>
8.0521183014

> <CNN_VS>
6.2128224373

> <CNNaffinity_variance>
0.1576661319

$$$$
[H]c1nc(N([H])[H])c(-c2nn(-c3c(Cl)c(OC([H])([H])[H])c([H])c(OC([H])([H])[H])c3Cl)c(=O)c([H])c2[H])nc1-c1c([H])nn(C2([H])C([H])([H])C([H])([H])N(C([H])([H])[H])C([H])([H])C2([H])[H])c1[H]


 40 44  0  0  0  0  0  0  0  0999 V2000
   -2.2853   22.8908  -26.6028 C   0  0  0  0  0  0  0  0  0  0  0  0
   -1.6844   22.4838  -25.4746 N   0  0  0  0  0  0  0  0  0  0  0  0
   -0.3624   22.1875  -25.4693 C   0  0  0  0  0  0  0  0  0  0  0  0
    0.4123   22.2889  -26.6033 C   0  0  0  0  0  0  0  0  0  0  0  0
   -0.1953   22.6975  -27.7318 N   0  0  0  0  0  0  0  0  0  0  0  0
   -1.5134   22.9936  -27.7395 C   0  0  0  0  0  0  0  0  0  0  0  0
   -2.1881   23.4311  -28.9260 N   0  0  0  0  0  0  0  0  0  0  0  0
   -2.1288   24.4401  -29.1992 H   0  0  0  0  0  0  0  0  0  0  0  0
   -2.7353   22.7764  -29.5240 H   0  0  0  0  0  0  0  0  0  0  0  0
   -5.7074   23.5999  -25.4023 N   0  0  0  0  0  0  0  0  0  0  0  0
   -4.4179   23.3160  -25.4566 N   0  0  0  0  0  0  0  0  0  0  0  0
   -3.7114   23.2080  -26.5920 C   0  0  0  0  0  0  0  0  0  0  0  0
   -4.3747   23.4060  -27.7796 C   0  0  0  0  0  0  0  0  0  0  0  0
   -5.7187   23.7019  -27.7223 C   0  0  0  0  0  0  0  0  0  0  0  0
   -6.4166   23.8055  -26.5263 C   0  0  0  0  0  0  0  0  0  0  0  0
   -7.6564   24.0798  -26.5062 O   0  0  0  0  0  0  0  0  0  0  0  0
   -7.3004   25.1075  -22.4559 C   0  0  0  0  0  0  0  0  0  0  0  0
   -7.6656   23.9778  -21.7417 C   0  0  0  0  0  0  0  0  0  0  0  0
   -7.4052   22.6982  -22.1971 C   0  0  0  0  0  0  0  0  0  0  0  0
   -6.7563   22.5893  -23.4113 C   0  0  0  0  0  0  0  0  0  0  0  0
   -6.4007   20.9931  -24.0378 Cl  0  0  0  0  0  0  0  0  0  0  0  0
   -6.3794   23.6941  -24.1465 C   0  0  0  0  0  0  0  0  0  0  0  0
   -6.6517   24.9639  -23.6687 C   0  0  0  0  0  0  0  0  0  0  0  0
   -6.1907   26.3687  -24.5694 Cl  0  0  0  0  0  0  0  0  0  0  0  0
   -8.2828   26.5478  -20.8066 C   0  0  0  0  0  0  0  0  0  0  0  0
   -7.5567   26.3956  -22.0084 O   0  0  0  0  0  0  0  0  0  0  0  0
   -7.7518   21.5539  -21.5172 O   0  0  0  0  0  0  0  0  0  0  0  0
   -8.5418   21.5037  -20.3707 C   0  0  0  0  0  0  0  0  0  0  0  0
    0.2387   21.7503  -24.2177 C   0  0  0  0  0  0  0  0  0  0  0  0
    1.5625   21.4913  -23.9628 C   0  0  0  0  0  0  0  0  0  0  0  0
    1.6638   21.1199  -22.6926 N   0  0  0  0  0  0  0  0  0  0  0  0
    0.4718   21.1225  -22.1016 N   0  0  0  0  0  0  0  0  0  0  0  0
   -0.4369   21.5102  -23.0235 C   0  0  0  0  0  0  0  0  0  0  0  0
    0.2188   20.7656  -20.7047 C   0  0  0  0  0  0  0  0  0  0  0  0
   -1.1796   21.2414  -20.3904 C   0  0  0  0  0  0  0  0  0  0  0  0
   -1.7091   20.7118  -19.1001 C   0  0  0  0  0  0  0  0  0  0  0  0
   -0.8360   19.8012  -18.4313 N   0  0  0  0  0  0  0  0  0  0  0  0
    0.1609   20.4362  -17.6093 C   0  0  0  0  0  0  0  0  0  0  0  0
   -0.3105   18.7680  -19.2845 C   0  0  0  0  0  0  0  0  0  0  0  0
    0.2915   19.2766  -20.5515 C   0  0  0  0  0  0  0  0  0  0  0  0
 25 26  1  0  0  0
 26 17  1  0  0  0
 17 18  2  0  0  0
 18 19  1  0  0  0
 19 27  1  0  0  0
 27 28  1  0  0  0
 19 20  2  0  0  0
 20 21  1  0  0  0
 20 22  1  0  0  0
 22 23  2  0  0  0
 23 24  1  0  0  0
 22 10  1  0  0  0
 10 11  1  0  0  0
 11 12  2  0  0  0
 12 13  1  0  0  0
 13 14  2  0  0  0
 14 15  1  0  0  0
 15 16  2  0  0  0
 12  1  1  0  0  0
  1  2  2  0  0  0
  2  3  1  0  0  0
  3  4  2  0  0  0
  4  5  1  0  0  0
  5  6  2  0  0  0
  6  7  1  0  0  0
  3 29  1  0  0  0
 29 30  1  0  0  0
 30 31  2  0  0  0
 31 32  1  0  0  0
 32 33  1  0  0  0
 32 34  1  0  0  0
 34 35  1  0  0  0
 35 36  1  0  0  0
 36 37  1  0  0  0
 37 38  1  0  0  0
 37 39  1  0  0  0
 39 40  1  0  0  0
 23 17  1  0  0  0
 15 10  1  0  0  0
  6  1  1  0  0  0
 33 29  2  0  0  0
 40 34  1  0  0  0
  7  8  1  0  0  0
  7  9  1  0  0  0
M  END
> <minimizedAffinity>
-9.62028

> <CNNscore>
0.7289901376

> <CNNaffinity>
8.0704364777

> <CNN_VS>
5.8832688332

> <CNNaffinity_variance>
0.1865318269

$$$$
[H]c1nc(N([H])[H])c(-c2nn(-c3c(Cl)c(OC([H])([H])[H])c([H])c(OC([H])([H])[H])c3Cl)c(=O)c([H])c2[H])nc1-c1c([H])nn(C2([H])C([H])([H])C([H])([H])N(C([H])([H])[H])C([H])([H])C2([H])[H])c1[H]


 40 44  0  0  0  0  0  0  0  0999 V2000
   -2.2993   22.8820  -26.5871 C   0  0  0  0  0  0  0  0  0  0  0  0
   -1.6974   22.4811  -25.4573 N   0  0  0  0  0  0  0  0  0  0  0  0
   -0.3758   22.1832  -25.4521 C   0  0  0  0  0  0  0  0  0  0  0  0
    0.3974   22.2767  -26.5876 C   0  0  0  0  0  0  0  0  0  0  0  0
   -0.2112   22.6792  -27.7178 N   0  0  0  0  0  0  0  0  0  0  0  0
   -1.5289   22.9770  -27.7255 C   0  0  0  0  0  0  0  0  0  0  0  0
   -2.2047   23.4082  -28.9137 N   0  0  0  0  0  0  0  0  0  0  0  0
   -2.1445   24.4155  -29.1930 H   0  0  0  0  0  0  0  0  0  0  0  0
   -2.7536   22.7507  -29.5069 H   0  0  0  0  0  0  0  0  0  0  0  0
   -5.7118   23.6344  -25.3855 N   0  0  0  0  0  0  0  0  0  0  0  0
   -4.4230   23.3473  -25.4399 N   0  0  0  0  0  0  0  0  0  0  0  0
   -3.7251   23.2012  -26.5762 C   0  0  0  0  0  0  0  0  0  0  0  0
   -4.3969   23.3609  -27.7648 C   0  0  0  0  0  0  0  0  0  0  0  0
   -5.7402   23.6601  -27.7074 C   0  0  0  0  0  0  0  0  0  0  0  0
   -6.4291   23.8038  -26.5103 C   0  0  0  0  0  0  0  0  0  0  0  0
   -7.6685   24.0802  -26.4902 O   0  0  0  0  0  0  0  0  0  0  0  0
   -7.3493   22.6854  -22.2373 C   0  0  0  0  0  0  0  0  0  0  0  0
   -7.6511   23.9294  -21.7072 C   0  0  0  0  0  0  0  0  0  0  0  0
   -7.3312   25.1079  -22.3564 C   0  0  0  0  0  0  0  0  0  0  0  0
   -6.6888   24.9938  -23.5734 C   0  0  0  0  0  0  0  0  0  0  0  0
   -6.2590   26.4532  -24.4407 Cl  0  0  0  0  0  0  0  0  0  0  0  0
   -6.3744   23.7706  -24.1285 C   0  0  0  0  0  0  0  0  0  0  0  0
   -6.7054   22.6058  -23.4586 C   0  0  0  0  0  0  0  0  0  0  0  0
   -6.3235   21.0567  -24.1305 Cl  0  0  0  0  0  0  0  0  0  0  0  0
   -8.5055   21.5597  -20.4610 C   0  0  0  0  0  0  0  0  0  0  0  0
   -7.6656   21.4972  -21.5947 O   0  0  0  0  0  0  0  0  0  0  0  0
   -7.6142   26.3600  -21.8623 O   0  0  0  0  0  0  0  0  0  0  0  0
   -8.5099   26.6382  -20.8321 C   0  0  0  0  0  0  0  0  0  0  0  0
    0.2265   21.7526  -24.1987 C   0  0  0  0  0  0  0  0  0  0  0  0
    1.5526   21.5111  -23.9391 C   0  0  0  0  0  0  0  0  0  0  0  0
    1.6542   21.1398  -22.6689 N   0  0  0  0  0  0  0  0  0  0  0  0
    0.4601   21.1259  -22.0823 N   0  0  0  0  0  0  0  0  0  0  0  0
   -0.4503   21.5023  -23.0072 C   0  0  0  0  0  0  0  0  0  0  0  0
    0.2068   20.7642  -20.6867 C   0  0  0  0  0  0  0  0  0  0  0  0
   -1.1672   21.2945  -20.3523 C   0  0  0  0  0  0  0  0  0  0  0  0
   -1.7052   20.7729  -19.0621 C   0  0  0  0  0  0  0  0  0  0  0  0
   -0.8642   19.8192  -18.4127 N   0  0  0  0  0  0  0  0  0  0  0  0
    0.1669   20.4026  -17.5946 C   0  0  0  0  0  0  0  0  0  0  0  0
   -0.3913   18.7745  -19.2825 C   0  0  0  0  0  0  0  0  0  0  0  0
    0.2184   19.2718  -20.5504 C   0  0  0  0  0  0  0  0  0  0  0  0
 25 26  1  0  0  0
 26 17  1  0  0  0
 17 18  2  0  0  0
 18 19  1  0  0  0
 19 27  1  0  0  0
 27 28  1  0  0  0
 19 20  2  0  0  0
 20 21  1  0  0  0
 20 22  1  0  0  0
 22 23  2  0  0  0
 23 24  1  0  0  0
 22 10  1  0  0  0
 10 11  1  0  0  0
 11 12  2  0  0  0
 12 13  1  0  0  0
 13 14  2  0  0  0
 14 15  1  0  0  0
 15 16  2  0  0  0
 12  1  1  0  0  0
  1  2  2  0  0  0
  2  3  1  0  0  0
  3  4  2  0  0  0
  4  5  1  0  0  0
  5  6  2  0  0  0
  6  7  1  0  0  0
  3 29  1  0  0  0
 29 30  1  0  0  0
 30 31  2  0  0  0
 31 32  1  0  0  0
 32 33  1  0  0  0
 32 34  1  0  0  0
 34 35  1  0  0  0
 35 36  1  0  0  0
 36 37  1  0  0  0
 37 38  1  0  0  0
 37 39  1  0  0  0
 39 40  1  0  0  0
 23 17  1  0  0  0
 15 10  1  0  0  0
  6  1  1  0  0  0
 33 29  2  0  0  0
 40 34  1  0  0  0
  7  8  1  0  0  0
  7  9  1  0  0  0
M  END
> <minimizedAffinity>
-9.72715

> <CNNscore>
0.7123196125

> <CNNaffinity>
8.0400180817

> <CNN_VS>
5.7270627022

> <CNNaffinity_variance>
0.2108964473

$$$$
[H]c1nc(N([H])[H])c(-c2nn(-c3c(Cl)c(OC([H])([H])[H])c([H])c(OC([H])([H])[H])c3Cl)c(=O)c([H])c2[H])nc1-c1c([H])nn(C2([H])C([H])([H])C([H])([H])N(C([H])([H])[H])C([H])([H])C2([H])[H])c1[H]


 40 44  0  0  0  0  0  0  0  0999 V2000
   -0.2803   21.6495  -23.2993 C   0  0  0  0  0  0  0  0  0  0  0  0
   -1.5376   22.1082  -23.3909 N   0  0  0  0  0  0  0  0  0  0  0  0
   -2.0013   22.6110  -24.5603 C   0  0  0  0  0  0  0  0  0  0  0  0
   -1.2162   22.6733  -25.6898 C   0  0  0  0  0  0  0  0  0  0  0  0
    0.0437   22.2120  -25.5924 N   0  0  0  0  0  0  0  0  0  0  0  0
    0.5084   21.7100  -24.4274 C   0  0  0  0  0  0  0  0  0  0  0  0
    1.8455   21.2114  -24.2932 N   0  0  0  0  0  0  0  0  0  0  0  0
    2.0554   20.2347  -24.6066 H   0  0  0  0  0  0  0  0  0  0  0  0
    2.6139   21.7905  -23.8935 H   0  0  0  0  0  0  0  0  0  0  0  0
    1.7883   21.1019  -20.2867 N   0  0  0  0  0  0  0  0  0  0  0  0
    1.3151   21.5629  -21.4311 N   0  0  0  0  0  0  0  0  0  0  0  0
    0.2046   21.1088  -22.0315 C   0  0  0  0  0  0  0  0  0  0  0  0
   -0.4878   20.0948  -21.4136 C   0  0  0  0  0  0  0  0  0  0  0  0
    0.0060   19.6147  -20.2207 C   0  0  0  0  0  0  0  0  0  0  0  0
    1.1602   20.1109  -19.6294 C   0  0  0  0  0  0  0  0  0  0  0  0
    1.5905   19.6471  -18.5282 O   0  0  0  0  0  0  0  0  0  0  0  0
    3.9635   23.2724  -18.2741 C   0  0  0  0  0  0  0  0  0  0  0  0
    5.2129   22.7595  -18.5832 C   0  0  0  0  0  0  0  0  0  0  0  0
    5.3824   21.6966  -19.4515 C   0  0  0  0  0  0  0  0  0  0  0  0
    4.2388   21.1581  -20.0074 C   0  0  0  0  0  0  0  0  0  0  0  0
    4.3928   19.8098  -21.1143 Cl  0  0  0  0  0  0  0  0  0  0  0  0
    2.9805   21.6456  -19.7205 C   0  0  0  0  0  0  0  0  0  0  0  0
    2.8378   22.7102  -18.8481 C   0  0  0  0  0  0  0  0  0  0  0  0
    1.2716   23.3432  -18.4692 Cl  0  0  0  0  0  0  0  0  0  0  0  0
    4.8657   24.7128  -16.5798 C   0  0  0  0  0  0  0  0  0  0  0  0
    3.7820   24.3381  -17.4045 O   0  0  0  0  0  0  0  0  0  0  0  0
    6.6052   21.1606  -19.7824 O   0  0  0  0  0  0  0  0  0  0  0  0
    6.9830   19.8330  -19.5930 C   0  0  0  0  0  0  0  0  0  0  0  0
   -3.3734   23.0954  -24.6038 C   0  0  0  0  0  0  0  0  0  0  0  0
   -4.0892   23.5045  -25.7014 C   0  0  0  0  0  0  0  0  0  0  0  0
   -5.2969   23.8642  -25.2846 N   0  0  0  0  0  0  0  0  0  0  0  0
   -5.4087   23.7113  -23.9677 N   0  0  0  0  0  0  0  0  0  0  0  0
   -4.2288   23.2344  -23.5133 C   0  0  0  0  0  0  0  0  0  0  0  0
   -6.6044   24.0128  -23.1791 C   0  0  0  0  0  0  0  0  0  0  0  0
   -6.1912   25.0455  -22.1574 C   0  0  0  0  0  0  0  0  0  0  0  0
   -7.3454   25.6768  -21.4536 C   0  0  0  0  0  0  0  0  0  0  0  0
   -8.6266   25.2481  -21.9157 N   0  0  0  0  0  0  0  0  0  0  0  0
   -9.0943   24.0288  -21.3100 C   0  0  0  0  0  0  0  0  0  0  0  0
   -8.7655   25.2735  -23.3481 C   0  0  0  0  0  0  0  0  0  0  0  0
   -7.6599   24.5848  -24.0761 C   0  0  0  0  0  0  0  0  0  0  0  0
 25 26  1  0  0  0
 26 17  1  0  0  0
 17 18  2  0  0  0
 18 19  1  0  0  0
 19 27  1  0  0  0
 27 28  1  0  0  0
 19 20  2  0  0  0
 20 21  1  0  0  0
 20 22  1  0  0  0
 22 23  2  0  0  0
 23 24  1  0  0  0
 22 10  1  0  0  0
 10 11  1  0  0  0
 11 12  2  0  0  0
 12 13  1  0  0  0
 13 14  2  0  0  0
 14 15  1  0  0  0
 15 16  2  0  0  0
 12  1  1  0  0  0
  1  2  2  0  0  0
  2  3  1  0  0  0
  3  4  2  0  0  0
  4  5  1  0  0  0
  5  6  2  0  0  0
  6  7  1  0  0  0
  3 29  1  0  0  0
 29 30  1  0  0  0
 30 31  2  0  0  0
 31 32  1  0  0  0
 32 33  1  0  0  0
 32 34  1  0  0  0
 34 35  1  0  0  0
 35 36  1  0  0  0
 36 37  1  0  0  0
 37 38  1  0  0  0
 37 39  1  0  0  0
 39 40  1  0  0  0
 23 17  1  0  0  0
 15 10  1  0  0  0
  6  1  1  0  0  0
 33 29  2  0  0  0
 40 34  1  0  0  0
  7  8  1  0  0  0
  7  9  1  0  0  0
M  END
> <minimizedAffinity>
-7.80929

> <CNNscore>
0.1101405844

> <CNNaffinity>
6.8115744591

> <CNN_VS>
0.7502307892

> <CNNaffinity_variance>
0.0445029438

$$$$
[H]c1nc(N([H])[H])c(-c2nn(-c3c(Cl)c(OC([H])([H])[H])c([H])c(OC([H])([H])[H])c3Cl)c(=O)c([H])c2[H])nc1-c1c([H])nn(C2([H])C([H])([H])C([H])([H])N(C([H])([H])[H])C([H])([H])C2([H])[H])c1[H]


 40 44  0  0  0  0  0  0  0  0999 V2000
   -2.6248   22.1947  -24.6683 C   0  0  0  0  0  0  0  0  0  0  0  0
   -1.5344   21.8452  -23.9693 N   0  0  0  0  0  0  0  0  0  0  0  0
   -0.2987   21.9980  -24.5032 C   0  0  0  0  0  0  0  0  0  0  0  0
   -0.1085   22.5106  -25.7670 C   0  0  0  0  0  0  0  0  0  0  0  0
   -1.2052   22.8595  -26.4635 N   0  0  0  0  0  0  0  0  0  0  0  0
   -2.4386   22.7081  -25.9332 C   0  0  0  0  0  0  0  0  0  0  0  0
   -3.6252   23.0706  -26.6509 N   0  0  0  0  0  0  0  0  0  0  0  0
   -3.9294   24.0724  -26.6527 H   0  0  0  0  0  0  0  0  0  0  0  0
   -4.1935   22.3683  -27.1699 H   0  0  0  0  0  0  0  0  0  0  0  0
   -5.6552   22.7774  -22.6355 N   0  0  0  0  0  0  0  0  0  0  0  0
   -4.4628   22.8936  -23.1932 N   0  0  0  0  0  0  0  0  0  0  0  0
   -3.9505   22.0251  -24.0781 C   0  0  0  0  0  0  0  0  0  0  0  0
   -4.7189   20.9405  -24.4283 C   0  0  0  0  0  0  0  0  0  0  0  0
   -5.9617   20.8199  -23.8468 C   0  0  0  0  0  0  0  0  0  0  0  0
   -6.4582   21.7406  -22.9336 C   0  0  0  0  0  0  0  0  0  0  0  0
   -7.6088   21.6017  -22.4143 O   0  0  0  0  0  0  0  0  0  0  0  0
   -6.0818   24.5676  -19.4566 C   0  0  0  0  0  0  0  0  0  0  0  0
   -6.9560   25.5748  -19.8320 C   0  0  0  0  0  0  0  0  0  0  0  0
   -7.4293   25.6998  -21.1254 C   0  0  0  0  0  0  0  0  0  0  0  0
   -6.9892   24.7660  -22.0426 C   0  0  0  0  0  0  0  0  0  0  0  0
   -7.5555   24.8754  -23.6961 Cl  0  0  0  0  0  0  0  0  0  0  0  0
   -6.1193   23.7513  -21.7009 C   0  0  0  0  0  0  0  0  0  0  0  0
   -5.6602   23.6481  -20.3995 C   0  0  0  0  0  0  0  0  0  0  0  0
   -4.5681   22.3853  -19.9414 Cl  0  0  0  0  0  0  0  0  0  0  0  0
   -6.3791   23.7007  -17.2385 C   0  0  0  0  0  0  0  0  0  0  0  0
   -5.6009   24.4329  -18.1622 O   0  0  0  0  0  0  0  0  0  0  0  0
   -8.2971   26.6851  -21.5355 O   0  0  0  0  0  0  0  0  0  0  0  0
   -9.6717   26.6961  -21.3092 C   0  0  0  0  0  0  0  0  0  0  0  0
    0.8499   21.6022  -23.7013 C   0  0  0  0  0  0  0  0  0  0  0  0
    2.1556   21.4716  -24.1045 C   0  0  0  0  0  0  0  0  0  0  0  0
    2.8674   21.0916  -23.0507 N   0  0  0  0  0  0  0  0  0  0  0  0
    2.0932   20.9666  -21.9759 N   0  0  0  0  0  0  0  0  0  0  0  0
    0.8314   21.2772  -22.3469 C   0  0  0  0  0  0  0  0  0  0  0  0
    2.5509   20.5638  -20.6452 C   0  0  0  0  0  0  0  0  0  0  0  0
    3.8728   21.2591  -20.4213 C   0  0  0  0  0  0  0  0  0  0  0  0
    4.3466   21.1889  -19.0083 C   0  0  0  0  0  0  0  0  0  0  0  0
    3.4414   20.5442  -18.1119 N   0  0  0  0  0  0  0  0  0  0  0  0
    3.5605   19.1098  -18.0840 C   0  0  0  0  0  0  0  0  0  0  0  0
    2.0842   21.0105  -18.2222 C   0  0  0  0  0  0  0  0  0  0  0  0
    1.5595   21.0223  -19.6191 C   0  0  0  0  0  0  0  0  0  0  0  0
 25 26  1  0  0  0
 26 17  1  0  0  0
 17 18  2  0  0  0
 18 19  1  0  0  0
 19 27  1  0  0  0
 27 28  1  0  0  0
 19 20  2  0  0  0
 20 21  1  0  0  0
 20 22  1  0  0  0
 22 23  2  0  0  0
 23 24  1  0  0  0
 22 10  1  0  0  0
 10 11  1  0  0  0
 11 12  2  0  0  0
 12 13  1  0  0  0
 13 14  2  0  0  0
 14 15  1  0  0  0
 15 16  2  0  0  0
 12  1  1  0  0  0
  1  2  2  0  0  0
  2  3  1  0  0  0
  3  4  2  0  0  0
  4  5  1  0  0  0
  5  6  2  0  0  0
  6  7  1  0  0  0
  3 29  1  0  0  0
 29 30  1  0  0  0
 30 31  2  0  0  0
 31 32  1  0  0  0
 32 33  1  0  0  0
 32 34  1  0  0  0
 34 35  1  0  0  0
 35 36  1  0  0  0
 36 37  1  0  0  0
 37 38  1  0  0  0
 37 39  1  0  0  0
 39 40  1  0  0  0
 23 17  1  0  0  0
 15 10  1  0  0  0
  6  1  1  0  0  0
 33 29  2  0  0  0
 40 34  1  0  0  0
  7  8  1  0  0  0
  7  9  1  0  0  0
M  END
> <minimizedAffinity>
-7.76289

> <CNNscore>
0.0763386339

> <CNNaffinity>
6.6462745667

> <CNN_VS>
0.5073674917

> <CNNaffinity_variance>
0.2302403003

$$$$
[H]c1nc(N([H])[H])c(-c2nn(-c3c(Cl)c(OC([H])([H])[H])c([H])c(OC([H])([H])[H])c3Cl)c(=O)c([H])c2[H])nc1-c1c([H])nn(C2([H])C([H])([H])C([H])([H])N(C([H])([H])[H])C([H])([H])C2([H])[H])c1[H]


 40 44  0  0  0  0  0  0  0  0999 V2000
   -0.1109   21.6066  -22.9329 C   0  0  0  0  0  0  0  0  0  0  0  0
   -1.1856   21.9471  -23.6600 N   0  0  0  0  0  0  0  0  0  0  0  0
   -1.0943   22.0644  -25.0066 C   0  0  0  0  0  0  0  0  0  0  0  0
    0.0865   21.8432  -25.6795 C   0  0  0  0  0  0  0  0  0  0  0  0
    1.1611   21.5020  -24.9456 N   0  0  0  0  0  0  0  0  0  0  0  0
    1.0724   21.3843  -23.6027 C   0  0  0  0  0  0  0  0  0  0  0  0
    2.1996   21.0225  -22.7945 N   0  0  0  0  0  0  0  0  0  0  0  0
    2.4512   20.0105  -22.7008 H   0  0  0  0  0  0  0  0  0  0  0  0
    2.7752   21.7350  -22.2980 H   0  0  0  0  0  0  0  0  0  0  0  0
    0.7616   21.5373  -19.3428 N   0  0  0  0  0  0  0  0  0  0  0  0
    0.8217   21.6416  -20.6588 N   0  0  0  0  0  0  0  0  0  0  0  0
   -0.2259   21.4828  -21.4817 C   0  0  0  0  0  0  0  0  0  0  0  0
   -1.4448   21.1916  -20.9168 C   0  0  0  0  0  0  0  0  0  0  0  0
   -1.5068   21.0830  -19.5451 C   0  0  0  0  0  0  0  0  0  0  0  0
   -0.3992   21.2545  -18.7254 C   0  0  0  0  0  0  0  0  0  0  0  0
   -0.4885   21.1480  -17.4630 O   0  0  0  0  0  0  0  0  0  0  0  0
    3.7978   20.7177  -17.4449 C   0  0  0  0  0  0  0  0  0  0  0  0
    4.1899   21.9741  -17.0119 C   0  0  0  0  0  0  0  0  0  0  0  0
    3.4804   23.1193  -17.3244 C   0  0  0  0  0  0  0  0  0  0  0  0
    2.3475   22.9585  -18.0974 C   0  0  0  0  0  0  0  0  0  0  0  0
    1.4094   24.3742  -18.5244 Cl  0  0  0  0  0  0  0  0  0  0  0  0
    1.9302   21.7218  -18.5442 C   0  0  0  0  0  0  0  0  0  0  0  0
    2.6580   20.5910  -18.2177 C   0  0  0  0  0  0  0  0  0  0  0  0
    2.1587   19.0260  -18.7641 Cl  0  0  0  0  0  0  0  0  0  0  0  0
    4.4001   19.0538  -15.8237 C   0  0  0  0  0  0  0  0  0  0  0  0
    4.5020   19.5625  -17.1374 O   0  0  0  0  0  0  0  0  0  0  0  0
    3.8380   24.3822  -16.9133 O   0  0  0  0  0  0  0  0  0  0  0  0
    5.1381   24.8081  -16.6501 C   0  0  0  0  0  0  0  0  0  0  0  0
   -2.2913   22.4368  -25.7465 C   0  0  0  0  0  0  0  0  0  0  0  0
   -3.5926   22.0963  -25.4725 C   0  0  0  0  0  0  0  0  0  0  0  0
   -4.3596   22.6508  -26.4030 N   0  0  0  0  0  0  0  0  0  0  0  0
   -3.6256   23.3385  -27.2740 N   0  0  0  0  0  0  0  0  0  0  0  0
   -2.3338   23.2255  -26.8939 C   0  0  0  0  0  0  0  0  0  0  0  0
   -4.1482   24.0747  -28.4261 C   0  0  0  0  0  0  0  0  0  0  0  0
   -4.8546   23.0607  -29.2943 C   0  0  0  0  0  0  0  0  0  0  0  0
   -5.6888   23.6779  -30.3662 C   0  0  0  0  0  0  0  0  0  0  0  0
   -5.7276   25.1049  -30.3381 N   0  0  0  0  0  0  0  0  0  0  0  0
   -4.6257   25.7383  -31.0142 C   0  0  0  0  0  0  0  0  0  0  0  0
   -5.9994   25.6527  -29.0351 C   0  0  0  0  0  0  0  0  0  0  0  0
   -5.1288   25.1050  -27.9541 C   0  0  0  0  0  0  0  0  0  0  0  0
 25 26  1  0  0  0
 26 17  1  0  0  0
 17 18  2  0  0  0
 18 19  1  0  0  0
 19 27  1  0  0  0
 27 28  1  0  0  0
 19 20  2  0  0  0
 20 21  1  0  0  0
 20 22  1  0  0  0
 22 23  2  0  0  0
 23 24  1  0  0  0
 22 10  1  0  0  0
 10 11  1  0  0  0
 11 12  2  0  0  0
 12 13  1  0  0  0
 13 14  2  0  0  0
 14 15  1  0  0  0
 15 16  2  0  0  0
 12  1  1  0  0  0
  1  2  2  0  0  0
  2  3  1  0  0  0
  3  4  2  0  0  0
  4  5  1  0  0  0
  5  6  2  0  0  0
  6  7  1  0  0  0
  3 29  1  0  0  0
 29 30  1  0  0  0
 30 31  2  0  0  0
 31 32  1  0  0  0
 32 33  1  0  0  0
 32 34  1  0  0  0
 34 35  1  0  0  0
 35 36  1  0  0  0
 36 37  1  0  0  0
 37 38  1  0  0  0
 37 39  1  0  0  0
 39 40  1  0  0  0
 23 17  1  0  0  0
 15 10  1  0  0  0
  6  1  1  0  0  0
 33 29  2  0  0  0
 40 34  1  0  0  0
  7  8  1  0  0  0
  7  9  1  0  0  0
M  END
> <minimizedAffinity>
-8.01144

> <CNNscore>
0.0719238147

> <CNNaffinity>
6.8359603882

> <CNN_VS>
0.4916683435

> <CNNaffinity_variance>
0.0813715011

$$$$
[H]c1nc(N([H])[H])c(-c2nn(-c3c(Cl)c(OC([H])([H])[H])c([H])c(OC([H])([H])[H])c3Cl)c(=O)c([H])c2[H])nc1-c1c([H])nn(C2([H])C([H])([H])C([H])([H])N(C([H])([H])[H])C([H])([H])C2([H])[H])c1[H]


 40 44  0  0  0  0  0  0  0  0999 V2000
   -0.0770   21.6525  -21.8332 C   0  0  0  0  0  0  0  0  0  0  0  0
   -0.7124   22.0226  -22.9551 N   0  0  0  0  0  0  0  0  0  0  0  0
   -0.0970   21.9213  -24.1578 C   0  0  0  0  0  0  0  0  0  0  0  0
    1.1879   21.4417  -24.2816 C   0  0  0  0  0  0  0  0  0  0  0  0
    1.8204   21.0720  -23.1534 N   0  0  0  0  0  0  0  0  0  0  0  0
    1.2088   21.1720  -21.9529 C   0  0  0  0  0  0  0  0  0  0  0  0
    1.8570   20.7861  -20.7341 N   0  0  0  0  0  0  0  0  0  0  0  0
    1.8624   19.7752  -20.4618 H   0  0  0  0  0  0  0  0  0  0  0  0
    2.3222   21.4803  -20.1118 H   0  0  0  0  0  0  0  0  0  0  0  0
   -1.9382   20.7741  -18.7641 N   0  0  0  0  0  0  0  0  0  0  0  0
   -1.3158   20.7146  -19.9283 N   0  0  0  0  0  0  0  0  0  0  0  0
   -0.7547   21.7663  -20.5438 C   0  0  0  0  0  0  0  0  0  0  0  0
   -0.8329   22.9890  -19.9205 C   0  0  0  0  0  0  0  0  0  0  0  0
   -1.4818   23.0503  -18.7071 C   0  0  0  0  0  0  0  0  0  0  0  0
   -2.0508   21.9384  -18.1005 C   0  0  0  0  0  0  0  0  0  0  0  0
   -2.6429   22.0270  -16.9805 O   0  0  0  0  0  0  0  0  0  0  0  0
   -2.1588   17.6121  -16.9079 C   0  0  0  0  0  0  0  0  0  0  0  0
   -3.5081   17.3225  -17.0321 C   0  0  0  0  0  0  0  0  0  0  0  0
   -4.3811   18.1450  -17.7204 C   0  0  0  0  0  0  0  0  0  0  0  0
   -3.8463   19.2846  -18.2882 C   0  0  0  0  0  0  0  0  0  0  0  0
   -4.9053   20.3638  -19.1717 Cl  0  0  0  0  0  0  0  0  0  0  0  0
   -2.5078   19.6013  -18.1829 C   0  0  0  0  0  0  0  0  0  0  0  0
   -1.6548   18.7615  -17.4885 C   0  0  0  0  0  0  0  0  0  0  0  0
    0.0295   19.1331  -17.3397 Cl  0  0  0  0  0  0  0  0  0  0  0  0
   -1.3508   16.7730  -14.8097 C   0  0  0  0  0  0  0  0  0  0  0  0
   -1.2743   16.7941  -16.2198 O   0  0  0  0  0  0  0  0  0  0  0  0
   -5.7252   17.8912  -17.8651 O   0  0  0  0  0  0  0  0  0  0  0  0
   -6.6905   18.0625  -16.8753 C   0  0  0  0  0  0  0  0  0  0  0  0
   -0.8325   22.3374  -25.3431 C   0  0  0  0  0  0  0  0  0  0  0  0
   -0.4427   22.2390  -26.6557 C   0  0  0  0  0  0  0  0  0  0  0  0
   -1.4178   22.7383  -27.4050 N   0  0  0  0  0  0  0  0  0  0  0  0
   -2.4282   23.1595  -26.6487 N   0  0  0  0  0  0  0  0  0  0  0  0
   -2.0956   22.9243  -25.3602 C   0  0  0  0  0  0  0  0  0  0  0  0
   -3.6642   23.7642  -27.1478 C   0  0  0  0  0  0  0  0  0  0  0  0
   -3.9751   23.0785  -28.4570 C   0  0  0  0  0  0  0  0  0  0  0  0
   -5.3473   23.3686  -28.9659 C   0  0  0  0  0  0  0  0  0  0  0  0
   -6.1412   24.1785  -28.0985 N   0  0  0  0  0  0  0  0  0  0  0  0
   -5.9277   25.5938  -28.2537 C   0  0  0  0  0  0  0  0  0  0  0  0
   -6.1363   23.7391  -26.7280 C   0  0  0  0  0  0  0  0  0  0  0  0
   -4.7713   23.5106  -26.1701 C   0  0  0  0  0  0  0  0  0  0  0  0
 25 26  1  0  0  0
 26 17  1  0  0  0
 17 18  2  0  0  0
 18 19  1  0  0  0
 19 27  1  0  0  0
 27 28  1  0  0  0
 19 20  2  0  0  0
 20 21  1  0  0  0
 20 22  1  0  0  0
 22 23  2  0  0  0
 23 24  1  0  0  0
 22 10  1  0  0  0
 10 11  1  0  0  0
 11 12  2  0  0  0
 12 13  1  0  0  0
 13 14  2  0  0  0
 14 15  1  0  0  0
 15 16  2  0  0  0
 12  1  1  0  0  0
  1  2  2  0  0  0
  2  3  1  0  0  0
  3  4  2  0  0  0
  4  5  1  0  0  0
  5  6  2  0  0  0
  6  7  1  0  0  0
  3 29  1  0  0  0
 29 30  1  0  0  0
 30 31  2  0  0  0
 31 32  1  0  0  0
 32 33  1  0  0  0
 32 34  1  0  0  0
 34 35  1  0  0  0
 35 36  1  0  0  0
 36 37  1  0  0  0
 37 38  1  0  0  0
 37 39  1  0  0  0
 39 40  1  0  0  0
 23 17  1  0  0  0
 15 10  1  0  0  0
  6  1  1  0  0  0
 33 29  2  0  0  0
 40 34  1  0  0  0
  7  8  1  0  0  0
  7  9  1  0  0  0
M  END
> <minimizedAffinity>
-7.20897

> <CNNscore>
0.0599932708

> <CNNaffinity>
6.7980642319

> <CNN_VS>
0.4078381062

> <CNNaffinity_variance>
0.0492063947

$$$$
[H]c1nc(N([H])[H])c(-c2nn(-c3c(Cl)c(OC([H])([H])[H])c([H])c(OC([H])([H])[H])c3Cl)c(=O)c([H])c2[H])nc1-c1c([H])nn(C2([H])C([H])([H])C([H])([H])N(C([H])([H])[H])C([H])([H])C2([H])[H])c1[H]


 40 44  0  0  0  0  0  0  0  0999 V2000
   -5.4078   22.3457  -21.1816 C   0  0  0  0  0  0  0  0  0  0  0  0
   -4.5059   21.9881  -20.2552 N   0  0  0  0  0  0  0  0  0  0  0  0
   -4.8144   21.0579  -19.3198 C   0  0  0  0  0  0  0  0  0  0  0  0
   -6.0478   20.4469  -19.2779 C   0  0  0  0  0  0  0  0  0  0  0  0
   -6.9484   20.8091  -20.2092 N   0  0  0  0  0  0  0  0  0  0  0  0
   -6.6431   21.7364  -21.1430 C   0  0  0  0  0  0  0  0  0  0  0  0
   -7.5815   22.1426  -22.1475 N   0  0  0  0  0  0  0  0  0  0  0  0
   -7.6902   21.5537  -23.0063 H   0  0  0  0  0  0  0  0  0  0  0  0
   -8.1577   23.0050  -22.0491 H   0  0  0  0  0  0  0  0  0  0  0  0
   -4.3953   23.9004  -24.3773 N   0  0  0  0  0  0  0  0  0  0  0  0
   -4.7179   23.0255  -23.4409 N   0  0  0  0  0  0  0  0  0  0  0  0
   -5.0595   23.3493  -22.1846 C   0  0  0  0  0  0  0  0  0  0  0  0
   -5.0747   24.6823  -21.8491 C   0  0  0  0  0  0  0  0  0  0  0  0
   -4.7384   25.5936  -22.8256 C   0  0  0  0  0  0  0  0  0  0  0  0
   -4.3900   25.2197  -24.1166 C   0  0  0  0  0  0  0  0  0  0  0  0
   -4.0846   26.0842  -24.9954 O   0  0  0  0  0  0  0  0  0  0  0  0
   -2.3638   22.5665  -27.1317 C   0  0  0  0  0  0  0  0  0  0  0  0
   -3.2718   22.6064  -28.1774 C   0  0  0  0  0  0  0  0  0  0  0  0
   -4.5661   23.0663  -28.0165 C   0  0  0  0  0  0  0  0  0  0  0  0
   -4.9234   23.4911  -26.7521 C   0  0  0  0  0  0  0  0  0  0  0  0
   -6.5502   24.0836  -26.4893 Cl  0  0  0  0  0  0  0  0  0  0  0  0
   -4.0432   23.4644  -25.6901 C   0  0  0  0  0  0  0  0  0  0  0  0
   -2.7534   22.9994  -25.8773 C   0  0  0  0  0  0  0  0  0  0  0  0
   -1.6270   22.9541  -24.5634 Cl  0  0  0  0  0  0  0  0  0  0  0  0
   -0.1534   22.9153  -27.9986 C   0  0  0  0  0  0  0  0  0  0  0  0
   -1.0633   22.1072  -27.2819 O   0  0  0  0  0  0  0  0  0  0  0  0
   -5.4949   23.1210  -29.0296 O   0  0  0  0  0  0  0  0  0  0  0  0
   -5.5446   24.0913  -30.0281 C   0  0  0  0  0  0  0  0  0  0  0  0
   -3.7984   20.7076  -18.3380 C   0  0  0  0  0  0  0  0  0  0  0  0
   -2.4940   20.3457  -18.5661 C   0  0  0  0  0  0  0  0  0  0  0  0
   -1.9276   20.1137  -17.3885 N   0  0  0  0  0  0  0  0  0  0  0  0
   -2.7960   20.3055  -16.3989 N   0  0  0  0  0  0  0  0  0  0  0  0
   -3.9701   20.6759  -16.9561 C   0  0  0  0  0  0  0  0  0  0  0  0
   -2.5060   20.1384  -14.9739 C   0  0  0  0  0  0  0  0  0  0  0  0
   -1.8388   21.4159  -14.5227 C   0  0  0  0  0  0  0  0  0  0  0  0
   -1.7293   21.5346  -13.0395 C   0  0  0  0  0  0  0  0  0  0  0  0
   -2.3320   20.4627  -12.3139 N   0  0  0  0  0  0  0  0  0  0  0  0
   -1.4845   19.3103  -12.1518 C   0  0  0  0  0  0  0  0  0  0  0  0
   -3.6658   20.1436  -12.7507 C   0  0  0  0  0  0  0  0  0  0  0  0
   -3.7899   19.9478  -14.2248 C   0  0  0  0  0  0  0  0  0  0  0  0
 25 26  1  0  0  0
 26 17  1  0  0  0
 17 18  2  0  0  0
 18 19  1  0  0  0
 19 27  1  0  0  0
 27 28  1  0  0  0
 19 20  2  0  0  0
 20 21  1  0  0  0
 20 22  1  0  0  0
 22 23  2  0  0  0
 23 24  1  0  0  0
 22 10  1  0  0  0
 10 11  1  0  0  0
 11 12  2  0  0  0
 12 13  1  0  0  0
 13 14  2  0  0  0
 14 15  1  0  0  0
 15 16  2  0  0  0
 12  1  1  0  0  0
  1  2  2  0  0  0
  2  3  1  0  0  0
  3  4  2  0  0  0
  4  5  1  0  0  0
  5  6  2  0  0  0
  6  7  1  0  0  0
  3 29  1  0  0  0
 29 30  1  0  0  0
 30 31  2  0  0  0
 31 32  1  0  0  0
 32 33  1  0  0  0
 32 34  1  0  0  0
 34 35  1  0  0  0
 35 36  1  0  0  0
 36 37  1  0  0  0
 37 38  1  0  0  0
 37 39  1  0  0  0
 39 40  1  0  0  0
 23 17  1  0  0  0
 15 10  1  0  0  0
  6  1  1  0  0  0
 33 29  2  0  0  0
 40 34  1  0  0  0
  7  8  1  0  0  0
  7  9  1  0  0  0
M  END
> <minimizedAffinity>
-7.01803

> <CNNscore>
0.0537453070

> <CNNaffinity>
6.5198211670

> <CNN_VS>
0.3504097760

> <CNNaffinity_variance>
0.0526268072

$$$$
[H]c1nc(N([H])[H])c(-c2nn(-c3c(Cl)c(OC([H])([H])[H])c([H])c(OC([H])([H])[H])c3Cl)c(=O)c([H])c2[H])nc1-c1c([H])nn(C2([H])C([H])([H])C([H])([H])N(C([H])([H])[H])C([H])([H])C2([H])[H])c1[H]


 40 44  0  0  0  0  0  0  0  0999 V2000
   -5.7337   23.4912  -19.3181 C   0  0  0  0  0  0  0  0  0  0  0  0
   -4.9810   22.7996  -18.4494 N   0  0  0  0  0  0  0  0  0  0  0  0
   -4.6987   23.3110  -17.2270 C   0  0  0  0  0  0  0  0  0  0  0  0
   -5.1638   24.5438  -16.8269 C   0  0  0  0  0  0  0  0  0  0  0  0
   -5.9181   25.2330  -17.7019 N   0  0  0  0  0  0  0  0  0  0  0  0
   -6.2011   24.7252  -18.9214 C   0  0  0  0  0  0  0  0  0  0  0  0
   -7.0017   25.4358  -19.8746 N   0  0  0  0  0  0  0  0  0  0  0  0
   -8.0446   25.3881  -19.7953 H   0  0  0  0  0  0  0  0  0  0  0  0
   -6.5778   25.9975  -20.6430 H   0  0  0  0  0  0  0  0  0  0  0  0
   -5.6608   22.8604  -22.9584 N   0  0  0  0  0  0  0  0  0  0  0  0
   -5.4214   23.3435  -21.7519 N   0  0  0  0  0  0  0  0  0  0  0  0
   -6.0306   22.9256  -20.6321 C   0  0  0  0  0  0  0  0  0  0  0  0
   -6.9677   21.9265  -20.7482 C   0  0  0  0  0  0  0  0  0  0  0  0
   -7.2166   21.4234  -22.0060 C   0  0  0  0  0  0  0  0  0  0  0  0
   -6.5650   21.8822  -23.1431 C   0  0  0  0  0  0  0  0  0  0  0  0
   -6.8166   21.3978  -24.2898 O   0  0  0  0  0  0  0  0  0  0  0  0
   -3.0297   23.2477  -25.4922 C   0  0  0  0  0  0  0  0  0  0  0  0
   -3.5499   24.2746  -26.2632 C   0  0  0  0  0  0  0  0  0  0  0  0
   -4.7672   24.8676  -25.9819 C   0  0  0  0  0  0  0  0  0  0  0  0
   -5.4546   24.3881  -24.8844 C   0  0  0  0  0  0  0  0  0  0  0  0
   -7.0022   25.1013  -24.4804 Cl  0  0  0  0  0  0  0  0  0  0  0  0
   -4.9642   23.3674  -24.0965 C   0  0  0  0  0  0  0  0  0  0  0  0
   -3.7434   22.7905  -24.3994 C   0  0  0  0  0  0  0  0  0  0  0  0
   -3.1028   21.5080  -23.4289 Cl  0  0  0  0  0  0  0  0  0  0  0  0
   -1.5840   22.1697  -27.0757 C   0  0  0  0  0  0  0  0  0  0  0  0
   -1.8098   22.6459  -25.7653 O   0  0  0  0  0  0  0  0  0  0  0  0
   -5.3157   25.8882  -26.7232 O   0  0  0  0  0  0  0  0  0  0  0  0
   -5.7731   25.7783  -28.0345 C   0  0  0  0  0  0  0  0  0  0  0  0
   -3.8771   22.5183  -16.3237 C   0  0  0  0  0  0  0  0  0  0  0  0
   -3.0763   21.4470  -16.6326 C   0  0  0  0  0  0  0  0  0  0  0  0
   -2.5105   21.0282  -15.5074 N   0  0  0  0  0  0  0  0  0  0  0  0
   -2.9006   21.7720  -14.4755 N   0  0  0  0  0  0  0  0  0  0  0  0
   -3.7517   22.7085  -14.9496 C   0  0  0  0  0  0  0  0  0  0  0  0
   -2.4706   21.5874  -13.0886 C   0  0  0  0  0  0  0  0  0  0  0  0
   -1.0027   21.9402  -13.0475 C   0  0  0  0  0  0  0  0  0  0  0  0
   -0.4665   22.0818  -11.6625 C   0  0  0  0  0  0  0  0  0  0  0  0
   -1.4425   21.9296  -10.6315 N   0  0  0  0  0  0  0  0  0  0  0  0
   -1.6926   20.5633  -10.2532 C   0  0  0  0  0  0  0  0  0  0  0  0
   -2.6396   22.6991  -10.8472 C   0  0  0  0  0  0  0  0  0  0  0  0
   -3.2387   22.5202  -12.2021 C   0  0  0  0  0  0  0  0  0  0  0  0
 25 26  1  0  0  0
 26 17  1  0  0  0
 17 18  2  0  0  0
 18 19  1  0  0  0
 19 27  1  0  0  0
 27 28  1  0  0  0
 19 20  2  0  0  0
 20 21  1  0  0  0
 20 22  1  0  0  0
 22 23  2  0  0  0
 23 24  1  0  0  0
 22 10  1  0  0  0
 10 11  1  0  0  0
 11 12  2  0  0  0
 12 13  1  0  0  0
 13 14  2  0  0  0
 14 15  1  0  0  0
 15 16  2  0  0  0
 12  1  1  0  0  0
  1  2  2  0  0  0
  2  3  1  0  0  0
  3  4  2  0  0  0
  4  5  1  0  0  0
  5  6  2  0  0  0
  6  7  1  0  0  0
  3 29  1  0  0  0
 29 30  1  0  0  0
 30 31  2  0  0  0
 31 32  1  0  0  0
 32 33  1  0  0  0
 32 34  1  0  0  0
 34 35  1  0  0  0
 35 36  1  0  0  0
 36 37  1  0  0  0
 37 38  1  0  0  0
 37 39  1  0  0  0
 39 40  1  0  0  0
 23 17  1  0  0  0
 15 10  1  0  0  0
  6  1  1  0  0  0
 33 29  2  0  0  0
 40 34  1  0  0  0
  7  8  1  0  0  0
  7  9  1  0  0  0
M  END
> <minimizedAffinity>
-6.90829

> <CNNscore>
0.0506040193

> <CNNaffinity>
5.9731664658

> <CNN_VS>
0.3022662401

> <CNNaffinity_variance>
0.1727322042

$$$$
[H]c1nc(N([H])C(=O)c2c([H])c([H])c(C3([H])C([H])([H])C([H])([H])N(C([H])(C([H])([H])[H])C([H])([H])[H])C([H])([H])C3([H])[H])c([H])c2[H])c([H])c(Oc2c(OC([H])([H])C([H])([H])OC([H])([H])[H])c([H])c3c(c2[H])c([H])c([H])n3C(=O)N([H])C([H])([H])[H])c1[H]


 45 49  0  0  0  0  0  0  0  0999 V2000
   -3.9022   22.8729  -26.3053 C   0  0  0  0  0  0  0  0  0  0  0  0
   -3.4937   23.1531  -27.6388 C   0  0  0  0  0  0  0  0  0  0  0  0
   -2.2234   22.9454  -28.0592 C   0  0  0  0  0  0  0  0  0  0  0  0
   -1.3086   22.4639  -27.2158 N   0  0  0  0  0  0  0  0  0  0  0  0
   -1.6036   22.1590  -25.9000 C   0  0  0  0  0  0  0  0  0  0  0  0
   -2.8964   22.3760  -25.4923 C   0  0  0  0  0  0  0  0  0  0  0  0
   -0.5493   21.6580  -25.1204 N   0  0  0  0  0  0  0  0  0  0  0  0
   -0.3004   22.0286  -23.7850 C   0  0  0  0  0  0  0  0  0  0  0  0
   -0.9459   22.8362  -23.0828 O   0  0  0  0  0  0  0  0  0  0  0  0
    0.1222   20.9362  -25.5699 H   0  0  0  0  0  0  0  0  0  0  0  0
    0.8573   21.4247  -23.0508 C   0  0  0  0  0  0  0  0  0  0  0  0
    2.0629   21.1962  -23.6687 C   0  0  0  0  0  0  0  0  0  0  0  0
    3.1418   20.6195  -22.9860 C   0  0  0  0  0  0  0  0  0  0  0  0
    3.0199   20.2629  -21.6622 C   0  0  0  0  0  0  0  0  0  0  0  0
    1.8048   20.4982  -21.0544 C   0  0  0  0  0  0  0  0  0  0  0  0
    0.7409   21.0657  -21.7242 C   0  0  0  0  0  0  0  0  0  0  0  0
    4.1248   19.6536  -20.8964 C   0  0  0  0  0  0  0  0  0  0  0  0
    4.8470   20.6787  -20.0302 C   0  0  0  0  0  0  0  0  0  0  0  0
    5.5904   19.8862  -18.9422 C   0  0  0  0  0  0  0  0  0  0  0  0
    6.1984   18.7820  -19.5767 N   0  0  0  0  0  0  0  0  0  0  0  0
    6.4604   18.8708  -20.9630 C   0  0  0  0  0  0  0  0  0  0  0  0
    5.1712   18.9991  -21.7713 C   0  0  0  0  0  0  0  0  0  0  0  0
    6.9661   17.9028  -18.7921 C   0  0  0  0  0  0  0  0  0  0  0  0
    7.6033   16.8730  -19.7383 C   0  0  0  0  0  0  0  0  0  0  0  0
    6.1692   17.0873  -17.7927 C   0  0  0  0  0  0  0  0  0  0  0  0
   -5.1336   23.1052  -26.0090 O   0  0  0  0  0  0  0  0  0  0  0  0
  -11.5237   27.3993  -22.5928 C   0  0  0  0  0  0  0  0  0  0  0  0
  -10.3803   26.5213  -22.9736 N   0  0  0  0  0  0  0  0  0  0  0  0
   -9.8903   25.5883  -22.0727 C   0  0  0  0  0  0  0  0  0  0  0  0
  -10.4957   25.5532  -20.9102 O   0  0  0  0  0  0  0  0  0  0  0  0
   -8.8308   24.6716  -22.2341 N   0  0  0  0  0  0  0  0  0  0  0  0
   -8.4479   23.7920  -21.2285 C   0  0  0  0  0  0  0  0  0  0  0  0
   -7.4071   23.0199  -21.6440 C   0  0  0  0  0  0  0  0  0  0  0  0
   -7.1085   23.4010  -22.9351 C   0  0  0  0  0  0  0  0  0  0  0  0
   -6.1524   22.9543  -23.8293 C   0  0  0  0  0  0  0  0  0  0  0  0
   -6.0217   23.4734  -25.0811 C   0  0  0  0  0  0  0  0  0  0  0  0
   -6.9373   24.5240  -25.4365 C   0  0  0  0  0  0  0  0  0  0  0  0
   -7.8749   24.9370  -24.5141 C   0  0  0  0  0  0  0  0  0  0  0  0
   -7.9957   24.4013  -23.2465 C   0  0  0  0  0  0  0  0  0  0  0  0
  -10.0511   26.7066  -23.9141 H   0  0  0  0  0  0  0  0  0  0  0  0
   -6.7964   25.0225  -26.6526 O   0  0  0  0  0  0  0  0  0  0  0  0
   -6.1008   25.8357  -27.4238 C   0  0  0  0  0  0  0  0  0  0  0  0
   -5.9982   25.4549  -28.8641 C   0  0  0  0  0  0  0  0  0  0  0  0
   -5.4129   26.3352  -29.7204 O   0  0  0  0  0  0  0  0  0  0  0  0
   -4.2074   25.8631  -30.2219 C   0  0  0  0  0  0  0  0  0  0  0  0
 27 28  1  0  0  0
 28 29  1  0  0  0
 29 30  2  0  0  0
 29 31  1  0  0  0
 31 32  1  0  0  0
 32 33  2  0  0  0
 33 34  1  0  0  0
 34 35  2  0  0  0
 35 36  1  0  0  0
 36 26  1  0  0  0
 26  1  1  0  0  0
  1  2  2  0  0  0
  2  3  1  0  0  0
  3  4  2  0  0  0
  4  5  1  0  0  0
  5  7  1  0  0  0
  7  8  1  0  0  0
  8  9  2  0  0  0
  8 11  1  0  0  0
 11 12  2  0  0  0
 12 13  1  0  0  0
 13 14  2  0  0  0
 14 15  1  0  0  0
 15 16  2  0  0  0
 14 17  1  0  0  0
 17 18  1  0  0  0
 18 19  1  0  0  0
 19 20  1  0  0  0
 20 21  1  0  0  0
 21 22  1  0  0  0
 20 23  1  0  0  0
 23 24  1  0  0  0
 23 25  1  0  0  0
  5  6  2  0  0  0
 36 37  2  0  0  0
 37 41  1  0  0  0
 41 42  1  0  0  0
 42 43  1  0  0  0
 43 44  1  0  0  0
 44 45  1  0  0  0
 37 38  1  0  0  0
 38 39  2  0  0  0
 39 31  1  0  0  0
 39 34  1  0  0  0
  6  1  1  0  0  0
 16 11  1  0  0  0
 22 17  1  0  0  0
 28 40  1  0  0  0
  7 10  1  0  0  0
M  END
> <minimizedAffinity>
-8.70142

> <CNNscore>
0.4224047065

> <CNNaffinity>
7.0003943443

> <CNN_VS>
2.9569995403

> <CNNaffinity_variance>
0.0293785520

$$$$
[H]c1nc(N([H])C(=O)c2c([H])c([H])c(C3([H])C([H])([H])C([H])([H])N(C([H])(C([H])([H])[H])C([H])([H])[H])C([H])([H])C3([H])[H])c([H])c2[H])c([H])c(Oc2c(OC([H])([H])C([H])([H])OC([H])([H])[H])c([H])c3c(c2[H])c([H])c([H])n3C(=O)N([H])C([H])([H])[H])c1[H]


 45 49  0  0  0  0  0  0  0  0999 V2000
   -8.0407   22.2160  -21.0790 C   0  0  0  0  0  0  0  0  0  0  0  0
   -8.5480   23.5364  -20.9282 C   0  0  0  0  0  0  0  0  0  0  0  0
   -9.1865   23.9361  -19.8030 C   0  0  0  0  0  0  0  0  0  0  0  0
   -9.3574   23.0839  -18.7908 N   0  0  0  0  0  0  0  0  0  0  0  0
   -8.9017   21.7795  -18.8372 C   0  0  0  0  0  0  0  0  0  0  0  0
   -8.2568   21.3928  -19.9859 C   0  0  0  0  0  0  0  0  0  0  0  0
   -9.1459   20.9888  -17.7035 N   0  0  0  0  0  0  0  0  0  0  0  0
  -10.4158   20.5166  -17.3202 C   0  0  0  0  0  0  0  0  0  0  0  0
  -11.5084   20.7084  -17.8960 O   0  0  0  0  0  0  0  0  0  0  0  0
   -8.3046   20.7188  -17.0764 H   0  0  0  0  0  0  0  0  0  0  0  0
  -10.5543   19.6768  -16.0875 C   0  0  0  0  0  0  0  0  0  0  0  0
  -11.6789   18.9241  -15.8505 C   0  0  0  0  0  0  0  0  0  0  0  0
  -11.8144   18.1487  -14.6916 C   0  0  0  0  0  0  0  0  0  0  0  0
  -10.8116   18.1208  -13.7493 C   0  0  0  0  0  0  0  0  0  0  0  0
   -9.6885   18.8805  -14.0000 C   0  0  0  0  0  0  0  0  0  0  0  0
   -9.5525   19.6448  -15.1401 C   0  0  0  0  0  0  0  0  0  0  0  0
  -10.9028   17.3206  -12.5125 C   0  0  0  0  0  0  0  0  0  0  0  0
  -11.4200   15.9131  -12.7847 C   0  0  0  0  0  0  0  0  0  0  0  0
  -10.9983   15.0517  -11.5827 C   0  0  0  0  0  0  0  0  0  0  0  0
  -11.2619   15.8064  -10.4198 N   0  0  0  0  0  0  0  0  0  0  0  0
  -12.2321   16.8317  -10.4960 C   0  0  0  0  0  0  0  0  0  0  0  0
  -11.8123   17.9312  -11.4691 C   0  0  0  0  0  0  0  0  0  0  0  0
  -10.9804   15.2248   -9.1705 C   0  0  0  0  0  0  0  0  0  0  0  0
   -9.6979   14.3925   -9.3249 C   0  0  0  0  0  0  0  0  0  0  0  0
  -12.0315   14.2507   -8.6752 C   0  0  0  0  0  0  0  0  0  0  0  0
   -7.4488   21.9392  -22.1886 O   0  0  0  0  0  0  0  0  0  0  0  0
    0.6732   21.9858  -24.4191 C   0  0  0  0  0  0  0  0  0  0  0  0
   -0.8069   22.0662  -24.2578 N   0  0  0  0  0  0  0  0  0  0  0  0
   -1.5995   22.4865  -25.3147 C   0  0  0  0  0  0  0  0  0  0  0  0
   -0.9568   22.7938  -26.4155 O   0  0  0  0  0  0  0  0  0  0  0  0
   -3.0015   22.6291  -25.3695 N   0  0  0  0  0  0  0  0  0  0  0  0
   -3.6607   23.0705  -26.5107 C   0  0  0  0  0  0  0  0  0  0  0  0
   -5.0038   23.1145  -26.2960 C   0  0  0  0  0  0  0  0  0  0  0  0
   -5.2221   22.6972  -25.0000 C   0  0  0  0  0  0  0  0  0  0  0  0
   -6.3835   22.5491  -24.2635 C   0  0  0  0  0  0  0  0  0  0  0  0
   -6.3816   22.1140  -22.9735 C   0  0  0  0  0  0  0  0  0  0  0  0
   -5.0968   21.8111  -22.4026 C   0  0  0  0  0  0  0  0  0  0  0  0
   -3.9655   21.9722  -23.1737 C   0  0  0  0  0  0  0  0  0  0  0  0
   -3.9823   22.4153  -24.4821 C   0  0  0  0  0  0  0  0  0  0  0  0
   -1.1072   21.7896  -23.3300 H   0  0  0  0  0  0  0  0  0  0  0  0
   -5.1087   21.3946  -21.1481 O   0  0  0  0  0  0  0  0  0  0  0  0
   -4.3953   21.2075  -20.0545 C   0  0  0  0  0  0  0  0  0  0  0  0
   -4.4128   22.3172  -19.0555 C   0  0  0  0  0  0  0  0  0  0  0  0
   -5.6194   22.7597  -18.6090 O   0  0  0  0  0  0  0  0  0  0  0  0
   -5.7218   24.1438  -18.6459 C   0  0  0  0  0  0  0  0  0  0  0  0
 27 28  1  0  0  0
 28 29  1  0  0  0
 29 30  2  0  0  0
 29 31  1  0  0  0
 31 32  1  0  0  0
 32 33  2  0  0  0
 33 34  1  0  0  0
 34 35  2  0  0  0
 35 36  1  0  0  0
 36 26  1  0  0  0
 26  1  1  0  0  0
  1  2  2  0  0  0
  2  3  1  0  0  0
  3  4  2  0  0  0
  4  5  1  0  0  0
  5  7  1  0  0  0
  7  8  1  0  0  0
  8  9  2  0  0  0
  8 11  1  0  0  0
 11 12  2  0  0  0
 12 13  1  0  0  0
 13 14  2  0  0  0
 14 15  1  0  0  0
 15 16  2  0  0  0
 14 17  1  0  0  0
 17 18  1  0  0  0
 18 19  1  0  0  0
 19 20  1  0  0  0
 20 21  1  0  0  0
 21 22  1  0  0  0
 20 23  1  0  0  0
 23 24  1  0  0  0
 23 25  1  0  0  0
  5  6  2  0  0  0
 36 37  2  0  0  0
 37 41  1  0  0  0
 41 42  1  0  0  0
 42 43  1  0  0  0
 43 44  1  0  0  0
 44 45  1  0  0  0
 37 38  1  0  0  0
 38 39  2  0  0  0
 39 31  1  0  0  0
 39 34  1  0  0  0
  6  1  1  0  0  0
 16 11  1  0  0  0
 22 17  1  0  0  0
 28 40  1  0  0  0
  7 10  1  0  0  0
M  END
> <minimizedAffinity>
-6.54174

> <CNNscore>
0.2523977458

> <CNNaffinity>
5.6991243362

> <CNN_VS>
1.4384461641

> <CNNaffinity_variance>
0.1305725127

$$$$
[H]c1nc(N([H])C(=O)c2c([H])c([H])c(C3([H])C([H])([H])C([H])([H])N(C([H])(C([H])([H])[H])C([H])([H])[H])C([H])([H])C3([H])[H])c([H])c2[H])c([H])c(Oc2c(OC([H])([H])C([H])([H])OC([H])([H])[H])c([H])c3c(c2[H])c([H])c([H])n3C(=O)N([H])C([H])([H])[H])c1[H]


 45 49  0  0  0  0  0  0  0  0999 V2000
   -7.1125   24.8075  -23.0386 C   0  0  0  0  0  0  0  0  0  0  0  0
   -8.2589   25.4740  -23.5534 C   0  0  0  0  0  0  0  0  0  0  0  0
   -9.4745   25.3696  -22.9660 C   0  0  0  0  0  0  0  0  0  0  0  0
   -9.6272   24.6246  -21.8697 N   0  0  0  0  0  0  0  0  0  0  0  0
   -8.5769   23.9373  -21.2904 C   0  0  0  0  0  0  0  0  0  0  0  0
   -7.3524   24.0556  -21.8999 C   0  0  0  0  0  0  0  0  0  0  0  0
   -8.8739   23.1920  -20.1386 N   0  0  0  0  0  0  0  0  0  0  0  0
   -8.7692   21.7908  -20.0477 C   0  0  0  0  0  0  0  0  0  0  0  0
   -8.4082   20.9919  -20.9383 O   0  0  0  0  0  0  0  0  0  0  0  0
   -9.2061   23.7245  -19.2554 H   0  0  0  0  0  0  0  0  0  0  0  0
   -9.1127   21.1029  -18.7620 C   0  0  0  0  0  0  0  0  0  0  0  0
   -8.3806   20.0379  -18.2962 C   0  0  0  0  0  0  0  0  0  0  0  0
   -8.7092   19.3860  -17.1005 C   0  0  0  0  0  0  0  0  0  0  0  0
   -9.7875   19.8013  -16.3526 C   0  0  0  0  0  0  0  0  0  0  0  0
  -10.5132   20.8715  -16.8316 C   0  0  0  0  0  0  0  0  0  0  0  0
  -10.1918   21.5151  -18.0085 C   0  0  0  0  0  0  0  0  0  0  0  0
  -10.1763   19.1511  -15.0860 C   0  0  0  0  0  0  0  0  0  0  0  0
   -9.2794   19.5788  -13.9305 C   0  0  0  0  0  0  0  0  0  0  0  0
  -10.0544   19.2723  -12.6382 C   0  0  0  0  0  0  0  0  0  0  0  0
  -10.6291   17.9928  -12.7937 N   0  0  0  0  0  0  0  0  0  0  0  0
  -10.0375   17.1044  -13.7206 C   0  0  0  0  0  0  0  0  0  0  0  0
  -10.1265   17.6403  -15.1478 C   0  0  0  0  0  0  0  0  0  0  0  0
  -11.3803   17.4662  -11.7277 C   0  0  0  0  0  0  0  0  0  0  0  0
  -10.4297   16.6248  -10.8616 C   0  0  0  0  0  0  0  0  0  0  0  0
  -12.4877   16.5172  -12.1426 C   0  0  0  0  0  0  0  0  0  0  0  0
   -6.0042   24.9745  -23.6724 O   0  0  0  0  0  0  0  0  0  0  0  0
    1.6039   21.3620  -23.7772 C   0  0  0  0  0  0  0  0  0  0  0  0
    0.2692   21.9841  -24.0111 N   0  0  0  0  0  0  0  0  0  0  0  0
   -0.2189   22.1175  -25.3018 C   0  0  0  0  0  0  0  0  0  0  0  0
    0.5656   21.6689  -26.2518 O   0  0  0  0  0  0  0  0  0  0  0  0
   -1.4429   22.6688  -25.7342 N   0  0  0  0  0  0  0  0  0  0  0  0
   -1.7949   22.7383  -27.0770 C   0  0  0  0  0  0  0  0  0  0  0  0
   -3.0221   23.3095  -27.2171 C   0  0  0  0  0  0  0  0  0  0  0  0
   -3.4748   23.6157  -25.9510 C   0  0  0  0  0  0  0  0  0  0  0  0
   -4.6469   24.2022  -25.5090 C   0  0  0  0  0  0  0  0  0  0  0  0
   -4.9045   24.4192  -24.1899 C   0  0  0  0  0  0  0  0  0  0  0  0
   -3.8863   24.0046  -23.2628 C   0  0  0  0  0  0  0  0  0  0  0  0
   -2.7342   23.4232  -23.7478 C   0  0  0  0  0  0  0  0  0  0  0  0
   -2.4858   23.2095  -25.0898 C   0  0  0  0  0  0  0  0  0  0  0  0
   -0.1780   22.2687  -23.1472 H   0  0  0  0  0  0  0  0  0  0  0  0
   -4.1468   24.2255  -21.9858 O   0  0  0  0  0  0  0  0  0  0  0  0
   -4.0170   23.7754  -20.7528 C   0  0  0  0  0  0  0  0  0  0  0  0
   -4.3345   22.3320  -20.5387 C   0  0  0  0  0  0  0  0  0  0  0  0
   -3.4082   21.5572  -19.9123 O   0  0  0  0  0  0  0  0  0  0  0  0
   -2.1227   21.7827  -20.3860 C   0  0  0  0  0  0  0  0  0  0  0  0
 27 28  1  0  0  0
 28 29  1  0  0  0
 29 30  2  0  0  0
 29 31  1  0  0  0
 31 32  1  0  0  0
 32 33  2  0  0  0
 33 34  1  0  0  0
 34 35  2  0  0  0
 35 36  1  0  0  0
 36 26  1  0  0  0
 26  1  1  0  0  0
  1  2  2  0  0  0
  2  3  1  0  0  0
  3  4  2  0  0  0
  4  5  1  0  0  0
  5  7  1  0  0  0
  7  8  1  0  0  0
  8  9  2  0  0  0
  8 11  1  0  0  0
 11 12  2  0  0  0
 12 13  1  0  0  0
 13 14  2  0  0  0
 14 15  1  0  0  0
 15 16  2  0  0  0
 14 17  1  0  0  0
 17 18  1  0  0  0
 18 19  1  0  0  0
 19 20  1  0  0  0
 20 21  1  0  0  0
 21 22  1  0  0  0
 20 23  1  0  0  0
 23 24  1  0  0  0
 23 25  1  0  0  0
  5  6  2  0  0  0
 36 37  2  0  0  0
 37 41  1  0  0  0
 41 42  1  0  0  0
 42 43  1  0  0  0
 43 44  1  0  0  0
 44 45  1  0  0  0
 37 38  1  0  0  0
 38 39  2  0  0  0
 39 31  1  0  0  0
 39 34  1  0  0  0
  6  1  1  0  0  0
 16 11  1  0  0  0
 22 17  1  0  0  0
 28 40  1  0  0  0
  7 10  1  0  0  0
M  END
> <minimizedAffinity>
-7.00856

> <CNNscore>
0.2349592149

> <CNNaffinity>
6.0873961449

> <CNN_VS>
1.4302898645

> <CNNaffinity_variance>
0.4232629836

$$$$
[H]c1nc(N([H])C(=O)c2c([H])c([H])c(C3([H])C([H])([H])C([H])([H])N(C([H])(C([H])([H])[H])C([H])([H])[H])C([H])([H])C3([H])[H])c([H])c2[H])c([H])c(Oc2c(OC([H])([H])C([H])([H])OC([H])([H])[H])c([H])c3c(c2[H])c([H])c([H])n3C(=O)N([H])C([H])([H])[H])c1[H]


 45 49  0  0  0  0  0  0  0  0999 V2000
   -5.8851   22.2620  -16.6183 C   0  0  0  0  0  0  0  0  0  0  0  0
   -5.8077   23.4943  -15.9120 C   0  0  0  0  0  0  0  0  0  0  0  0
   -5.7407   24.6858  -16.5519 C   0  0  0  0  0  0  0  0  0  0  0  0
   -5.7460   24.7315  -17.8853 N   0  0  0  0  0  0  0  0  0  0  0  0
   -5.8187   23.5916  -18.6641 C   0  0  0  0  0  0  0  0  0  0  0  0
   -5.8862   22.3933  -17.9975 C   0  0  0  0  0  0  0  0  0  0  0  0
   -5.8173   23.7807  -20.0550 N   0  0  0  0  0  0  0  0  0  0  0  0
   -4.6929   23.5977  -20.8825 C   0  0  0  0  0  0  0  0  0  0  0  0
   -3.5420   23.2488  -20.5422 O   0  0  0  0  0  0  0  0  0  0  0  0
   -6.7409   24.0875  -20.5312 H   0  0  0  0  0  0  0  0  0  0  0  0
   -4.8119   23.8284  -22.3579 C   0  0  0  0  0  0  0  0  0  0  0  0
   -3.9704   24.6862  -23.0237 C   0  0  0  0  0  0  0  0  0  0  0  0
   -4.0895   24.9121  -24.4012 C   0  0  0  0  0  0  0  0  0  0  0  0
   -5.0649   24.2722  -25.1316 C   0  0  0  0  0  0  0  0  0  0  0  0
   -5.9023   23.4138  -24.4509 C   0  0  0  0  0  0  0  0  0  0  0  0
   -5.7872   23.1896  -23.0948 C   0  0  0  0  0  0  0  0  0  0  0  0
   -5.2332   24.4733  -26.5841 C   0  0  0  0  0  0  0  0  0  0  0  0
   -4.3784   23.5051  -27.3932 C   0  0  0  0  0  0  0  0  0  0  0  0
   -4.9940   23.4495  -28.8012 C   0  0  0  0  0  0  0  0  0  0  0  0
   -5.2967   24.7766  -29.1735 N   0  0  0  0  0  0  0  0  0  0  0  0
   -4.5888   25.8243  -28.5416 C   0  0  0  0  0  0  0  0  0  0  0  0
   -4.8725   25.8694  -27.0418 C   0  0  0  0  0  0  0  0  0  0  0  0
   -5.8565   25.0006  -30.4442 C   0  0  0  0  0  0  0  0  0  0  0  0
   -5.8509   23.6604  -31.1962 C   0  0  0  0  0  0  0  0  0  0  0  0
   -5.0704   25.9545  -31.3222 C   0  0  0  0  0  0  0  0  0  0  0  0
   -5.9460   21.1860  -15.9137 O   0  0  0  0  0  0  0  0  0  0  0  0
   -7.3912   12.9153  -16.5859 C   0  0  0  0  0  0  0  0  0  0  0  0
   -6.9104   14.3106  -16.3729 N   0  0  0  0  0  0  0  0  0  0  0  0
   -5.6373   14.5384  -15.8737 C   0  0  0  0  0  0  0  0  0  0  0  0
   -4.9304   13.4644  -15.6171 O   0  0  0  0  0  0  0  0  0  0  0  0
   -4.9973   15.7659  -15.6041 N   0  0  0  0  0  0  0  0  0  0  0  0
   -3.7058   15.8360  -15.0955 C   0  0  0  0  0  0  0  0  0  0  0  0
   -3.3299   17.1337  -14.9315 C   0  0  0  0  0  0  0  0  0  0  0  0
   -4.3888   17.9179  -15.3379 C   0  0  0  0  0  0  0  0  0  0  0  0
   -4.5529   19.2905  -15.3860 C   0  0  0  0  0  0  0  0  0  0  0  0
   -5.6993   19.8754  -15.8300 C   0  0  0  0  0  0  0  0  0  0  0  0
   -6.7483   18.9870  -16.2529 C   0  0  0  0  0  0  0  0  0  0  0  0
   -6.5407   17.6257  -16.1888 C   0  0  0  0  0  0  0  0  0  0  0  0
   -5.3717   17.0457  -15.7353 C   0  0  0  0  0  0  0  0  0  0  0  0
   -7.6081   14.9999  -16.6286 H   0  0  0  0  0  0  0  0  0  0  0  0
   -7.8575   19.5676  -16.6769 O   0  0  0  0  0  0  0  0  0  0  0  0
   -9.1509   19.4224  -16.8915 C   0  0  0  0  0  0  0  0  0  0  0  0
  -10.0084   20.6074  -16.5909 C   0  0  0  0  0  0  0  0  0  0  0  0
  -11.2923   20.6009  -17.0407 O   0  0  0  0  0  0  0  0  0  0  0  0
  -11.5100   21.5476  -18.0327 C   0  0  0  0  0  0  0  0  0  0  0  0
 27 28  1  0  0  0
 28 29  1  0  0  0
 29 30  2  0  0  0
 29 31  1  0  0  0
 31 32  1  0  0  0
 32 33  2  0  0  0
 33 34  1  0  0  0
 34 35  2  0  0  0
 35 36  1  0  0  0
 36 26  1  0  0  0
 26  1  1  0  0  0
  1  2  2  0  0  0
  2  3  1  0  0  0
  3  4  2  0  0  0
  4  5  1  0  0  0
  5  7  1  0  0  0
  7  8  1  0  0  0
  8  9  2  0  0  0
  8 11  1  0  0  0
 11 12  2  0  0  0
 12 13  1  0  0  0
 13 14  2  0  0  0
 14 15  1  0  0  0
 15 16  2  0  0  0
 14 17  1  0  0  0
 17 18  1  0  0  0
 18 19  1  0  0  0
 19 20  1  0  0  0
 20 21  1  0  0  0
 21 22  1  0  0  0
 20 23  1  0  0  0
 23 24  1  0  0  0
 23 25  1  0  0  0
  5  6  2  0  0  0
 36 37  2  0  0  0
 37 41  1  0  0  0
 41 42  1  0  0  0
 42 43  1  0  0  0
 43 44  1  0  0  0
 44 45  1  0  0  0
 37 38  1  0  0  0
 38 39  2  0  0  0
 39 31  1  0  0  0
 39 34  1  0  0  0
  6  1  1  0  0  0
 16 11  1  0  0  0
 22 17  1  0  0  0
 28 40  1  0  0  0
  7 10  1  0  0  0
M  END
> <minimizedAffinity>
-6.59377

> <CNNscore>
0.2085319757

> <CNNaffinity>
6.4148740768

> <CNN_VS>
1.3377063274

> <CNNaffinity_variance>
0.9506556392

$$$$
[H]c1nc(N([H])C(=O)c2c([H])c([H])c(C3([H])C([H])([H])C([H])([H])N(C([H])(C([H])([H])[H])C([H])([H])[H])C([H])([H])C3([H])[H])c([H])c2[H])c([H])c(Oc2c(OC([H])([H])C([H])([H])OC([H])([H])[H])c([H])c3c(c2[H])c([H])c([H])n3C(=O)N([H])C([H])([H])[H])c1[H]


 45 49  0  0  0  0  0  0  0  0999 V2000
   -6.9197   21.8314  -21.6490 C   0  0  0  0  0  0  0  0  0  0  0  0
   -8.2551   21.7494  -21.1656 C   0  0  0  0  0  0  0  0  0  0  0  0
   -8.5336   21.5538  -19.8550 C   0  0  0  0  0  0  0  0  0  0  0  0
   -7.5424   21.4312  -18.9703 N   0  0  0  0  0  0  0  0  0  0  0  0
   -6.2111   21.4964  -19.3374 C   0  0  0  0  0  0  0  0  0  0  0  0
   -5.9486   21.6954  -20.6702 C   0  0  0  0  0  0  0  0  0  0  0  0
   -5.2684   21.3536  -18.3073 N   0  0  0  0  0  0  0  0  0  0  0  0
   -4.6315   22.4273  -17.6561 C   0  0  0  0  0  0  0  0  0  0  0  0
   -4.7841   23.6494  -17.8690 O   0  0  0  0  0  0  0  0  0  0  0  0
   -5.0090   20.3521  -17.9855 H   0  0  0  0  0  0  0  0  0  0  0  0
   -3.6409   22.1521  -16.5665 C   0  0  0  0  0  0  0  0  0  0  0  0
   -3.9544   22.3415  -15.2424 C   0  0  0  0  0  0  0  0  0  0  0  0
   -3.0243   22.0966  -14.2239 C   0  0  0  0  0  0  0  0  0  0  0  0
   -1.7568   21.6542  -14.5276 C   0  0  0  0  0  0  0  0  0  0  0  0
   -1.4558   21.4680  -15.8604 C   0  0  0  0  0  0  0  0  0  0  0  0
   -2.3697   21.7084  -16.8652 C   0  0  0  0  0  0  0  0  0  0  0  0
   -0.7398   21.3800  -13.4939 C   0  0  0  0  0  0  0  0  0  0  0  0
   -1.1859   21.8604  -12.1181 C   0  0  0  0  0  0  0  0  0  0  0  0
   -0.3350   21.0959  -11.0904 C   0  0  0  0  0  0  0  0  0  0  0  0
    0.9939   21.1038  -11.5653 N   0  0  0  0  0  0  0  0  0  0  0  0
    1.3735   22.1238  -12.4675 C   0  0  0  0  0  0  0  0  0  0  0  0
    0.5951   22.0327  -13.7782 C   0  0  0  0  0  0  0  0  0  0  0  0
    1.9838   20.4802  -10.7847 C   0  0  0  0  0  0  0  0  0  0  0  0
    3.3033   21.2313  -11.0224 C   0  0  0  0  0  0  0  0  0  0  0  0
    2.2709   19.0396  -11.1604 C   0  0  0  0  0  0  0  0  0  0  0  0
   -6.7651   22.0203  -22.9133 O   0  0  0  0  0  0  0  0  0  0  0  0
   -3.7805   25.5920  -29.9332 C   0  0  0  0  0  0  0  0  0  0  0  0
   -4.1015   24.8146  -28.7020 N   0  0  0  0  0  0  0  0  0  0  0  0
   -3.2268   23.8395  -28.2479 C   0  0  0  0  0  0  0  0  0  0  0  0
   -2.1443   23.6715  -28.9684 O   0  0  0  0  0  0  0  0  0  0  0  0
   -3.3405   23.0034  -27.1178 N   0  0  0  0  0  0  0  0  0  0  0  0
   -2.3741   22.0599  -26.7898 C   0  0  0  0  0  0  0  0  0  0  0  0
   -2.7268   21.3931  -25.6570 C   0  0  0  0  0  0  0  0  0  0  0  0
   -3.9369   21.9082  -25.2424 C   0  0  0  0  0  0  0  0  0  0  0  0
   -4.7452   21.6046  -24.1618 C   0  0  0  0  0  0  0  0  0  0  0  0
   -5.9240   22.2439  -23.9272 C   0  0  0  0  0  0  0  0  0  0  0  0
   -6.2964   23.2650  -24.8690 C   0  0  0  0  0  0  0  0  0  0  0  0
   -5.4597   23.5351  -25.9308 C   0  0  0  0  0  0  0  0  0  0  0  0
   -4.2659   22.8777  -26.1570 C   0  0  0  0  0  0  0  0  0  0  0  0
   -4.9863   25.0922  -28.2929 H   0  0  0  0  0  0  0  0  0  0  0  0
   -7.4453   23.8742  -24.6325 O   0  0  0  0  0  0  0  0  0  0  0  0
   -8.0283   24.9446  -24.1282 C   0  0  0  0  0  0  0  0  0  0  0  0
   -7.3447   25.5838  -22.9645 C   0  0  0  0  0  0  0  0  0  0  0  0
   -7.8164   25.3160  -21.7169 O   0  0  0  0  0  0  0  0  0  0  0  0
   -6.8354   25.4411  -20.7424 C   0  0  0  0  0  0  0  0  0  0  0  0
 27 28  1  0  0  0
 28 29  1  0  0  0
 29 30  2  0  0  0
 29 31  1  0  0  0
 31 32  1  0  0  0
 32 33  2  0  0  0
 33 34  1  0  0  0
 34 35  2  0  0  0
 35 36  1  0  0  0
 36 26  1  0  0  0
 26  1  1  0  0  0
  1  2  2  0  0  0
  2  3  1  0  0  0
  3  4  2  0  0  0
  4  5  1  0  0  0
  5  7  1  0  0  0
  7  8  1  0  0  0
  8  9  2  0  0  0
  8 11  1  0  0  0
 11 12  2  0  0  0
 12 13  1  0  0  0
 13 14  2  0  0  0
 14 15  1  0  0  0
 15 16  2  0  0  0
 14 17  1  0  0  0
 17 18  1  0  0  0
 18 19  1  0  0  0
 19 20  1  0  0  0
 20 21  1  0  0  0
 21 22  1  0  0  0
 20 23  1  0  0  0
 23 24  1  0  0  0
 23 25  1  0  0  0
  5  6  2  0  0  0
 36 37  2  0  0  0
 37 41  1  0  0  0
 41 42  1  0  0  0
 42 43  1  0  0  0
 43 44  1  0  0  0
 44 45  1  0  0  0
 37 38  1  0  0  0
 38 39  2  0  0  0
 39 31  1  0  0  0
 39 34  1  0  0  0
  6  1  1  0  0  0
 16 11  1  0  0  0
 22 17  1  0  0  0
 28 40  1  0  0  0
  7 10  1  0  0  0
M  END
> <minimizedAffinity>
-7.12362

> <CNNscore>
0.1693906337

> <CNNaffinity>
5.8838319778

> <CNN_VS>
0.9966660142

> <CNNaffinity_variance>
0.1115857586

$$$$
[H]c1nc(N([H])C(=O)c2c([H])c([H])c(C3([H])C([H])([H])C([H])([H])N(C([H])(C([H])([H])[H])C([H])([H])[H])C([H])([H])C3([H])[H])c([H])c2[H])c([H])c(Oc2c(OC([H])([H])C([H])([H])OC([H])([H])[H])c([H])c3c(c2[H])c([H])c([H])n3C(=O)N([H])C([H])([H])[H])c1[H]


 45 49  0  0  0  0  0  0  0  0999 V2000
   -2.1792   22.8298  -20.2172 C   0  0  0  0  0  0  0  0  0  0  0  0
   -1.1205   22.9236  -19.2717 C   0  0  0  0  0  0  0  0  0  0  0  0
   -1.2311   22.4240  -18.0181 C   0  0  0  0  0  0  0  0  0  0  0  0
   -2.3574   21.8208  -17.6340 N   0  0  0  0  0  0  0  0  0  0  0  0
   -3.4441   21.6777  -18.4765 C   0  0  0  0  0  0  0  0  0  0  0  0
   -3.3131   22.1903  -19.7434 C   0  0  0  0  0  0  0  0  0  0  0  0
   -4.5665   21.0217  -17.9472 N   0  0  0  0  0  0  0  0  0  0  0  0
   -4.7366   19.6241  -17.9280 C   0  0  0  0  0  0  0  0  0  0  0  0
   -3.9522   18.7526  -18.3607 O   0  0  0  0  0  0  0  0  0  0  0  0
   -5.3594   21.6253  -17.5220 H   0  0  0  0  0  0  0  0  0  0  0  0
   -5.9795   19.0359  -17.3335 C   0  0  0  0  0  0  0  0  0  0  0  0
   -6.1992   19.0347  -15.9774 C   0  0  0  0  0  0  0  0  0  0  0  0
   -7.3553   18.4733  -15.4199 C   0  0  0  0  0  0  0  0  0  0  0  0
   -8.3125   17.9015  -16.2269 C   0  0  0  0  0  0  0  0  0  0  0  0
   -8.0794   17.9099  -17.5860 C   0  0  0  0  0  0  0  0  0  0  0  0
   -6.9420   18.4620  -18.1374 C   0  0  0  0  0  0  0  0  0  0  0  0
   -9.5483   17.2976  -15.6918 C   0  0  0  0  0  0  0  0  0  0  0  0
  -10.4730   16.8183  -16.8044 C   0  0  0  0  0  0  0  0  0  0  0  0
  -11.4262   15.7922  -16.1697 C   0  0  0  0  0  0  0  0  0  0  0  0
  -11.8473   16.3274  -14.9338 N   0  0  0  0  0  0  0  0  0  0  0  0
  -11.7882   17.7290  -14.7593 C   0  0  0  0  0  0  0  0  0  0  0  0
  -10.3519   18.2434  -14.8266 C   0  0  0  0  0  0  0  0  0  0  0  0
  -12.7530   15.5810  -14.1587 C   0  0  0  0  0  0  0  0  0  0  0  0
  -12.6865   16.1196  -12.7209 C   0  0  0  0  0  0  0  0  0  0  0  0
  -12.4239   14.1051  -14.0479 C   0  0  0  0  0  0  0  0  0  0  0  0
   -1.9703   23.3366  -21.3824 O   0  0  0  0  0  0  0  0  0  0  0  0
   -5.5789   23.7862  -28.9798 C   0  0  0  0  0  0  0  0  0  0  0  0
   -4.7432   23.6057  -27.7582 N   0  0  0  0  0  0  0  0  0  0  0  0
   -3.4620   23.0865  -27.8631 C   0  0  0  0  0  0  0  0  0  0  0  0
   -3.0734   22.7820  -29.0778 O   0  0  0  0  0  0  0  0  0  0  0  0
   -2.5188   22.8409  -26.8438 N   0  0  0  0  0  0  0  0  0  0  0  0
   -1.2624   22.3070  -27.1051 C   0  0  0  0  0  0  0  0  0  0  0  0
   -0.5534   22.1748  -25.9511 C   0  0  0  0  0  0  0  0  0  0  0  0
   -1.3571   22.6277  -24.9261 C   0  0  0  0  0  0  0  0  0  0  0  0
   -1.1452   22.7214  -23.5625 C   0  0  0  0  0  0  0  0  0  0  0  0
   -2.0864   23.2076  -22.7073 C   0  0  0  0  0  0  0  0  0  0  0  0
   -3.3303   23.6255  -23.2958 C   0  0  0  0  0  0  0  0  0  0  0  0
   -3.4974   23.5153  -24.6597 C   0  0  0  0  0  0  0  0  0  0  0  0
   -2.5333   23.0193  -25.5159 C   0  0  0  0  0  0  0  0  0  0  0  0
   -5.2264   23.8974  -26.9163 H   0  0  0  0  0  0  0  0  0  0  0  0
   -4.2371   24.0908  -22.4540 O   0  0  0  0  0  0  0  0  0  0  0  0
   -5.5070   24.0694  -22.0979 C   0  0  0  0  0  0  0  0  0  0  0  0
   -6.3630   25.1691  -22.6345 C   0  0  0  0  0  0  0  0  0  0  0  0
   -6.3625   25.3855  -23.9776 O   0  0  0  0  0  0  0  0  0  0  0  0
   -7.4147   24.7438  -24.6170 C   0  0  0  0  0  0  0  0  0  0  0  0
 27 28  1  0  0  0
 28 29  1  0  0  0
 29 30  2  0  0  0
 29 31  1  0  0  0
 31 32  1  0  0  0
 32 33  2  0  0  0
 33 34  1  0  0  0
 34 35  2  0  0  0
 35 36  1  0  0  0
 36 26  1  0  0  0
 26  1  1  0  0  0
  1  2  2  0  0  0
  2  3  1  0  0  0
  3  4  2  0  0  0
  4  5  1  0  0  0
  5  7  1  0  0  0
  7  8  1  0  0  0
  8  9  2  0  0  0
  8 11  1  0  0  0
 11 12  2  0  0  0
 12 13  1  0  0  0
 13 14  2  0  0  0
 14 15  1  0  0  0
 15 16  2  0  0  0
 14 17  1  0  0  0
 17 18  1  0  0  0
 18 19  1  0  0  0
 19 20  1  0  0  0
 20 21  1  0  0  0
 21 22  1  0  0  0
 20 23  1  0  0  0
 23 24  1  0  0  0
 23 25  1  0  0  0
  5  6  2  0  0  0
 36 37  2  0  0  0
 37 41  1  0  0  0
 41 42  1  0  0  0
 42 43  1  0  0  0
 43 44  1  0  0  0
 44 45  1  0  0  0
 37 38  1  0  0  0
 38 39  2  0  0  0
 39 31  1  0  0  0
 39 34  1  0  0  0
  6  1  1  0  0  0
 16 11  1  0  0  0
 22 17  1  0  0  0
 28 40  1  0  0  0
  7 10  1  0  0  0
M  END
> <minimizedAffinity>
-6.73066

> <CNNscore>
0.1443304121

> <CNNaffinity>
5.9144182205

> <CNN_VS>
0.8536304235

> <CNNaffinity_variance>
0.1122101992

$$$$
[H]c1nc(N([H])C(=O)c2c([H])c([H])c(C3([H])C([H])([H])C([H])([H])N(C([H])(C([H])([H])[H])C([H])([H])[H])C([H])([H])C3([H])[H])c([H])c2[H])c([H])c(Oc2c(OC([H])([H])C([H])([H])OC([H])([H])[H])c([H])c3c(c2[H])c([H])c([H])n3C(=O)N([H])C([H])([H])[H])c1[H]


 45 49  0  0  0  0  0  0  0  0999 V2000
   -8.4045   19.7577  -17.5148 C   0  0  0  0  0  0  0  0  0  0  0  0
   -8.3774   20.8128  -16.5611 C   0  0  0  0  0  0  0  0  0  0  0  0
   -8.1713   22.1016  -16.9217 C   0  0  0  0  0  0  0  0  0  0  0  0
   -7.9855   22.4169  -18.2048 N   0  0  0  0  0  0  0  0  0  0  0  0
   -7.9940   21.4664  -19.2086 C   0  0  0  0  0  0  0  0  0  0  0  0
   -8.2046   20.1656  -18.8236 C   0  0  0  0  0  0  0  0  0  0  0  0
   -7.7876   21.9330  -20.5163 N   0  0  0  0  0  0  0  0  0  0  0  0
   -6.5399   21.9486  -21.1687 C   0  0  0  0  0  0  0  0  0  0  0  0
   -5.4379   21.5661  -20.7201 O   0  0  0  0  0  0  0  0  0  0  0  0
   -8.6420   22.3073  -21.0675 H   0  0  0  0  0  0  0  0  0  0  0  0
   -6.4415   22.4700  -22.5696 C   0  0  0  0  0  0  0  0  0  0  0  0
   -7.1212   23.5949  -22.9696 C   0  0  0  0  0  0  0  0  0  0  0  0
   -7.0398   24.0756  -24.2830 C   0  0  0  0  0  0  0  0  0  0  0  0
   -6.2669   23.4248  -25.2177 C   0  0  0  0  0  0  0  0  0  0  0  0
   -5.5900   22.2975  -24.8027 C   0  0  0  0  0  0  0  0  0  0  0  0
   -5.6684   21.8221  -23.5102 C   0  0  0  0  0  0  0  0  0  0  0  0
   -6.1454   23.8891  -26.6134 C   0  0  0  0  0  0  0  0  0  0  0  0
   -4.8987   23.3315  -27.2899 C   0  0  0  0  0  0  0  0  0  0  0  0
   -5.1362   23.4425  -28.8051 C   0  0  0  0  0  0  0  0  0  0  0  0
   -5.6927   24.7170  -29.0447 N   0  0  0  0  0  0  0  0  0  0  0  0
   -5.4591   25.7361  -28.0933 C   0  0  0  0  0  0  0  0  0  0  0  0
   -6.0806   25.3952  -26.7407 C   0  0  0  0  0  0  0  0  0  0  0  0
   -5.9852   25.0771  -30.3724 C   0  0  0  0  0  0  0  0  0  0  0  0
   -5.8956   23.8040  -31.2286 C   0  0  0  0  0  0  0  0  0  0  0  0
   -5.0011   26.0476  -30.9958 C   0  0  0  0  0  0  0  0  0  0  0  0
   -8.6090   18.5681  -17.0663 O   0  0  0  0  0  0  0  0  0  0  0  0
  -11.2172   12.8087  -11.5011 C   0  0  0  0  0  0  0  0  0  0  0  0
  -10.9880   13.8071  -12.5846 N   0  0  0  0  0  0  0  0  0  0  0  0
  -12.0125   14.1286  -13.4615 C   0  0  0  0  0  0  0  0  0  0  0  0
  -13.1464   13.5018  -13.2600 O   0  0  0  0  0  0  0  0  0  0  0  0
  -12.0037   15.0371  -14.5402 N   0  0  0  0  0  0  0  0  0  0  0  0
  -13.1189   15.2522  -15.3413 C   0  0  0  0  0  0  0  0  0  0  0  0
  -12.8423   16.1752  -16.3023 C   0  0  0  0  0  0  0  0  0  0  0  0
  -11.5318   16.5660  -16.1252 C   0  0  0  0  0  0  0  0  0  0  0  0
  -10.7398   17.4698  -16.8101 C   0  0  0  0  0  0  0  0  0  0  0  0
   -9.4453   17.7153  -16.4673 C   0  0  0  0  0  0  0  0  0  0  0  0
   -8.9309   16.9801  -15.3433 C   0  0  0  0  0  0  0  0  0  0  0  0
   -9.7563   16.0903  -14.6895 C   0  0  0  0  0  0  0  0  0  0  0  0
  -11.0685   15.8507  -15.0489 C   0  0  0  0  0  0  0  0  0  0  0  0
  -10.0435   14.1746  -12.5740 H   0  0  0  0  0  0  0  0  0  0  0  0
   -7.6716   17.2241  -15.0242 O   0  0  0  0  0  0  0  0  0  0  0  0
   -6.4186   16.8323  -15.1530 C   0  0  0  0  0  0  0  0  0  0  0  0
   -6.0896   16.0641  -16.3905 C   0  0  0  0  0  0  0  0  0  0  0  0
   -6.4559   14.7552  -16.4497 O   0  0  0  0  0  0  0  0  0  0  0  0
   -7.3353   14.4988  -17.4931 C   0  0  0  0  0  0  0  0  0  0  0  0
 27 28  1  0  0  0
 28 29  1  0  0  0
 29 30  2  0  0  0
 29 31  1  0  0  0
 31 32  1  0  0  0
 32 33  2  0  0  0
 33 34  1  0  0  0
 34 35  2  0  0  0
 35 36  1  0  0  0
 36 26  1  0  0  0
 26  1  1  0  0  0
  1  2  2  0  0  0
  2  3  1  0  0  0
  3  4  2  0  0  0
  4  5  1  0  0  0
  5  7  1  0  0  0
  7  8  1  0  0  0
  8  9  2  0  0  0
  8 11  1  0  0  0
 11 12  2  0  0  0
 12 13  1  0  0  0
 13 14  2  0  0  0
 14 15  1  0  0  0
 15 16  2  0  0  0
 14 17  1  0  0  0
 17 18  1  0  0  0
 18 19  1  0  0  0
 19 20  1  0  0  0
 20 21  1  0  0  0
 21 22  1  0  0  0
 20 23  1  0  0  0
 23 24  1  0  0  0
 23 25  1  0  0  0
  5  6  2  0  0  0
 36 37  2  0  0  0
 37 41  1  0  0  0
 41 42  1  0  0  0
 42 43  1  0  0  0
 43 44  1  0  0  0
 44 45  1  0  0  0
 37 38  1  0  0  0
 38 39  2  0  0  0
 39 31  1  0  0  0
 39 34  1  0  0  0
  6  1  1  0  0  0
 16 11  1  0  0  0
 22 17  1  0  0  0
 28 40  1  0  0  0
  7 10  1  0  0  0
M  END
> <minimizedAffinity>
-6.70076

> <CNNscore>
0.1263431609

> <CNNaffinity>
6.0214414597

> <CNN_VS>
0.7607679367

> <CNNaffinity_variance>
0.7331840396

$$$$
[H]c1nc(N([H])C(=O)c2c([H])c([H])c(C3([H])C([H])([H])C([H])([H])N(C([H])(C([H])([H])[H])C([H])([H])[H])C([H])([H])C3([H])[H])c([H])c2[H])c([H])c(Oc2c(OC([H])([H])C([H])([H])OC([H])([H])[H])c([H])c3c(c2[H])c([H])c([H])n3C(=O)N([H])C([H])([H])[H])c1[H]


 45 49  0  0  0  0  0  0  0  0999 V2000
   -7.4501   23.7949  -21.8866 C   0  0  0  0  0  0  0  0  0  0  0  0
   -7.1201   25.1259  -21.5083 C   0  0  0  0  0  0  0  0  0  0  0  0
   -7.2950   25.5773  -20.2438 C   0  0  0  0  0  0  0  0  0  0  0  0
   -7.7905   24.7681  -19.3058 N   0  0  0  0  0  0  0  0  0  0  0  0
   -8.1422   23.4575  -19.5704 C   0  0  0  0  0  0  0  0  0  0  0  0
   -7.9575   23.0179  -20.8578 C   0  0  0  0  0  0  0  0  0  0  0  0
   -8.6500   22.7144  -18.4932 N   0  0  0  0  0  0  0  0  0  0  0  0
   -8.0817   21.5195  -18.0119 C   0  0  0  0  0  0  0  0  0  0  0  0
   -7.0658   20.9299  -18.4389 O   0  0  0  0  0  0  0  0  0  0  0  0
   -9.5389   23.0796  -17.9928 H   0  0  0  0  0  0  0  0  0  0  0  0
   -8.7123   20.8126  -16.8514 C   0  0  0  0  0  0  0  0  0  0  0  0
   -8.7522   21.3763  -15.5991 C   0  0  0  0  0  0  0  0  0  0  0  0
   -9.3304   20.7102  -14.5107 C   0  0  0  0  0  0  0  0  0  0  0  0
   -9.8801   19.4585  -14.6702 C   0  0  0  0  0  0  0  0  0  0  0  0
   -9.8336   18.9049  -15.9323 C   0  0  0  0  0  0  0  0  0  0  0  0
   -9.2650   19.5584  -17.0056 C   0  0  0  0  0  0  0  0  0  0  0  0
  -10.5023   18.7141  -13.5580 C   0  0  0  0  0  0  0  0  0  0  0  0
   -9.9080   19.1064  -12.2106 C   0  0  0  0  0  0  0  0  0  0  0  0
  -10.9310   18.6866  -11.1421 C   0  0  0  0  0  0  0  0  0  0  0  0
  -11.3850   17.3960  -11.4881 N   0  0  0  0  0  0  0  0  0  0  0  0
  -10.5550   16.5936  -12.3038 C   0  0  0  0  0  0  0  0  0  0  0  0
  -10.3561   17.2136  -13.6851 C   0  0  0  0  0  0  0  0  0  0  0  0
  -12.3227   16.7719  -10.6458 C   0  0  0  0  0  0  0  0  0  0  0  0
  -12.4973   17.6627   -9.4058 C   0  0  0  0  0  0  0  0  0  0  0  0
  -11.8903   15.4212  -10.1095 C   0  0  0  0  0  0  0  0  0  0  0  0
   -7.2437   23.4668  -23.1145 O   0  0  0  0  0  0  0  0  0  0  0  0
    0.0828   22.3443  -27.1152 C   0  0  0  0  0  0  0  0  0  0  0  0
   -1.3059   22.5995  -26.6362 N   0  0  0  0  0  0  0  0  0  0  0  0
   -2.3021   22.9357  -27.5400 C   0  0  0  0  0  0  0  0  0  0  0  0
   -1.9266   23.0067  -28.7942 O   0  0  0  0  0  0  0  0  0  0  0  0
   -3.6635   23.2116  -27.2966 N   0  0  0  0  0  0  0  0  0  0  0  0
   -4.5496   23.5420  -28.3151 C   0  0  0  0  0  0  0  0  0  0  0  0
   -5.7952   23.7555  -27.8101 C   0  0  0  0  0  0  0  0  0  0  0  0
   -5.7197   23.5618  -26.4469 C   0  0  0  0  0  0  0  0  0  0  0  0
   -6.6754   23.6459  -25.4505 C   0  0  0  0  0  0  0  0  0  0  0  0
   -6.3892   23.4114  -24.1403 C   0  0  0  0  0  0  0  0  0  0  0  0
   -5.0266   23.0672  -23.8349 C   0  0  0  0  0  0  0  0  0  0  0  0
   -4.1076   22.9939  -24.8598 C   0  0  0  0  0  0  0  0  0  0  0  0
   -4.4121   23.2351  -26.1856 C   0  0  0  0  0  0  0  0  0  0  0  0
   -1.3899   22.4975  -25.6313 H   0  0  0  0  0  0  0  0  0  0  0  0
   -4.7613   22.8471  -22.5588 O   0  0  0  0  0  0  0  0  0  0  0  0
   -3.9277   23.0776  -21.5629 C   0  0  0  0  0  0  0  0  0  0  0  0
   -4.2914   22.4795  -20.2439 C   0  0  0  0  0  0  0  0  0  0  0  0
   -4.5703   23.3216  -19.2124 O   0  0  0  0  0  0  0  0  0  0  0  0
   -4.1238   22.8303  -17.9930 C   0  0  0  0  0  0  0  0  0  0  0  0
 27 28  1  0  0  0
 28 29  1  0  0  0
 29 30  2  0  0  0
 29 31  1  0  0  0
 31 32  1  0  0  0
 32 33  2  0  0  0
 33 34  1  0  0  0
 34 35  2  0  0  0
 35 36  1  0  0  0
 36 26  1  0  0  0
 26  1  1  0  0  0
  1  2  2  0  0  0
  2  3  1  0  0  0
  3  4  2  0  0  0
  4  5  1  0  0  0
  5  7  1  0  0  0
  7  8  1  0  0  0
  8  9  2  0  0  0
  8 11  1  0  0  0
 11 12  2  0  0  0
 12 13  1  0  0  0
 13 14  2  0  0  0
 14 15  1  0  0  0
 15 16  2  0  0  0
 14 17  1  0  0  0
 17 18  1  0  0  0
 18 19  1  0  0  0
 19 20  1  0  0  0
 20 21  1  0  0  0
 21 22  1  0  0  0
 20 23  1  0  0  0
 23 24  1  0  0  0
 23 25  1  0  0  0
  5  6  2  0  0  0
 36 37  2  0  0  0
 37 41  1  0  0  0
 41 42  1  0  0  0
 42 43  1  0  0  0
 43 44  1  0  0  0
 44 45  1  0  0  0
 37 38  1  0  0  0
 38 39  2  0  0  0
 39 31  1  0  0  0
 39 34  1  0  0  0
  6  1  1  0  0  0
 16 11  1  0  0  0
 22 17  1  0  0  0
 28 40  1  0  0  0
  7 10  1  0  0  0
M  END
> <minimizedAffinity>
-7.41097

> <CNNscore>
0.1225857362

> <CNNaffinity>
5.5350370407

> <CNN_VS>
0.6785165668

> <CNNaffinity_variance>
0.2529268563

$$$$
[H]c1nc(N([H])C(=O)c2c([H])c([H])c(C3([H])C([H])([H])C([H])([H])N(C([H])(C([H])([H])[H])C([H])([H])[H])C([H])([H])C3([H])[H])c([H])c2[H])c([H])c(Oc2c(OC([H])([H])C([H])([H])OC([H])([H])[H])c([H])c3c(c2[H])c([H])c([H])n3C(=O)N([H])C([H])([H])[H])c1[H]


 45 49  0  0  0  0  0  0  0  0999 V2000
   -0.1954   21.6860  -16.8112 C   0  0  0  0  0  0  0  0  0  0  0  0
    1.2195   21.8333  -16.7999 C   0  0  0  0  0  0  0  0  0  0  0  0
    1.9113   22.2070  -17.9024 C   0  0  0  0  0  0  0  0  0  0  0  0
    1.2689   22.4501  -19.0462 N   0  0  0  0  0  0  0  0  0  0  0  0
   -0.1040   22.3362  -19.1621 C   0  0  0  0  0  0  0  0  0  0  0  0
   -0.7881   21.9566  -18.0339 C   0  0  0  0  0  0  0  0  0  0  0  0
   -0.6533   22.6224  -20.4217 N   0  0  0  0  0  0  0  0  0  0  0  0
   -0.7280   21.7029  -21.4855 C   0  0  0  0  0  0  0  0  0  0  0  0
   -0.3353   20.5165  -21.4995 O   0  0  0  0  0  0  0  0  0  0  0  0
   -1.0494   23.6160  -20.5940 H   0  0  0  0  0  0  0  0  0  0  0  0
   -1.3391   22.1224  -22.7873 C   0  0  0  0  0  0  0  0  0  0  0  0
   -0.8561   21.6673  -23.9902 C   0  0  0  0  0  0  0  0  0  0  0  0
   -1.4189   22.0695  -25.2085 C   0  0  0  0  0  0  0  0  0  0  0  0
   -2.4835   22.9416  -25.2315 C   0  0  0  0  0  0  0  0  0  0  0  0
   -2.9583   23.3901  -24.0171 C   0  0  0  0  0  0  0  0  0  0  0  0
   -2.4061   22.9959  -22.8162 C   0  0  0  0  0  0  0  0  0  0  0  0
   -3.1141   23.3960  -26.4861 C   0  0  0  0  0  0  0  0  0  0  0  0
   -4.5931   23.0325  -26.5413 C   0  0  0  0  0  0  0  0  0  0  0  0
   -5.2331   23.9605  -27.5871 C   0  0  0  0  0  0  0  0  0  0  0  0
   -4.3611   23.9983  -28.6960 N   0  0  0  0  0  0  0  0  0  0  0  0
   -3.4666   22.9189  -28.8779 C   0  0  0  0  0  0  0  0  0  0  0  0
   -2.4700   22.8148  -27.7256 C   0  0  0  0  0  0  0  0  0  0  0  0
   -4.7343   24.7706  -29.8107 C   0  0  0  0  0  0  0  0  0  0  0  0
   -3.5804   25.7404  -30.1103 C   0  0  0  0  0  0  0  0  0  0  0  0
   -5.9492   25.6509  -29.5919 C   0  0  0  0  0  0  0  0  0  0  0  0
   -0.7556   21.3275  -15.7086 O   0  0  0  0  0  0  0  0  0  0  0  0
   -7.6408   17.6750  -12.5153 C   0  0  0  0  0  0  0  0  0  0  0  0
   -6.2969   18.1272  -12.9767 N   0  0  0  0  0  0  0  0  0  0  0  0
   -5.1730   17.3658  -12.6957 C   0  0  0  0  0  0  0  0  0  0  0  0
   -5.3913   16.2650  -12.0176 O   0  0  0  0  0  0  0  0  0  0  0  0
   -3.8273   17.6114  -13.0388 N   0  0  0  0  0  0  0  0  0  0  0  0
   -2.7982   16.7492  -12.6793 C   0  0  0  0  0  0  0  0  0  0  0  0
   -1.6048   17.2181  -13.1353 C   0  0  0  0  0  0  0  0  0  0  0  0
   -1.8594   18.3995  -13.7995 C   0  0  0  0  0  0  0  0  0  0  0  0
   -1.0236   19.2875  -14.4524 C   0  0  0  0  0  0  0  0  0  0  0  0
   -1.4844   20.4174  -15.0561 C   0  0  0  0  0  0  0  0  0  0  0  0
   -2.9019   20.6492  -14.9825 C   0  0  0  0  0  0  0  0  0  0  0  0
   -3.6973   19.7368  -14.3226 C   0  0  0  0  0  0  0  0  0  0  0  0
   -3.2157   18.5941  -13.7138 C   0  0  0  0  0  0  0  0  0  0  0  0
   -6.3401   19.0052  -13.4813 H   0  0  0  0  0  0  0  0  0  0  0  0
   -3.3354   21.7520  -15.5682 O   0  0  0  0  0  0  0  0  0  0  0  0
   -4.0326   22.8623  -15.4225 C   0  0  0  0  0  0  0  0  0  0  0  0
   -4.6812   23.4026  -16.6543 C   0  0  0  0  0  0  0  0  0  0  0  0
   -5.7033   24.2879  -16.5056 O   0  0  0  0  0  0  0  0  0  0  0  0
   -6.0167   24.5149  -15.1723 C   0  0  0  0  0  0  0  0  0  0  0  0
 27 28  1  0  0  0
 28 29  1  0  0  0
 29 30  2  0  0  0
 29 31  1  0  0  0
 31 32  1  0  0  0
 32 33  2  0  0  0
 33 34  1  0  0  0
 34 35  2  0  0  0
 35 36  1  0  0  0
 36 26  1  0  0  0
 26  1  1  0  0  0
  1  2  2  0  0  0
  2  3  1  0  0  0
  3  4  2  0  0  0
  4  5  1  0  0  0
  5  7  1  0  0  0
  7  8  1  0  0  0
  8  9  2  0  0  0
  8 11  1  0  0  0
 11 12  2  0  0  0
 12 13  1  0  0  0
 13 14  2  0  0  0
 14 15  1  0  0  0
 15 16  2  0  0  0
 14 17  1  0  0  0
 17 18  1  0  0  0
 18 19  1  0  0  0
 19 20  1  0  0  0
 20 21  1  0  0  0
 21 22  1  0  0  0
 20 23  1  0  0  0
 23 24  1  0  0  0
 23 25  1  0  0  0
  5  6  2  0  0  0
 36 37  2  0  0  0
 37 41  1  0  0  0
 41 42  1  0  0  0
 42 43  1  0  0  0
 43 44  1  0  0  0
 44 45  1  0  0  0
 37 38  1  0  0  0
 38 39  2  0  0  0
 39 31  1  0  0  0
 39 34  1  0  0  0
  6  1  1  0  0  0
 16 11  1  0  0  0
 22 17  1  0  0  0
 28 40  1  0  0  0
  7 10  1  0  0  0
M  END
> <minimizedAffinity>
-6.57079

> <CNNscore>
0.1159158200

> <CNNaffinity>
6.0678076744

> <CNN_VS>
0.7033548951

> <CNNaffinity_variance>
0.4965735078

$$$$
[H]c1nc(N([H])[H])c2c(-c3sc4c(OC([H])([H])[H])c([H])c(C([H])([H])[H])c([H])c4c3[H])c(C([H])([H])N3C([H])([H])C(=O)N([H])C([H])([H])C3([H])[H])c([H])n2n1


 33 37  0  0  0  0  0  0  0  0999 V2000
   -2.2873   22.7226  -25.4887 C   0  0  0  0  0  0  0  0  0  0  0  0
   -3.6147   22.9260  -25.8948 C   0  0  0  0  0  0  0  0  0  0  0  0
   -3.6437   23.2075  -27.2279 C   0  0  0  0  0  0  0  0  0  0  0  0
   -2.3681   23.1869  -27.6582 N   0  0  0  0  0  0  0  0  0  0  0  0
   -1.9003   23.4247  -28.8709 N   0  0  0  0  0  0  0  0  0  0  0  0
   -0.5825   23.3904  -29.1064 C   0  0  0  0  0  0  0  0  0  0  0  0
    0.2640   23.1181  -28.1199 N   0  0  0  0  0  0  0  0  0  0  0  0
   -0.1783   22.8704  -26.8725 C   0  0  0  0  0  0  0  0  0  0  0  0
    0.7640   22.6658  -25.8494 N   0  0  0  0  0  0  0  0  0  0  0  0
   -1.5262   22.8935  -26.6017 C   0  0  0  0  0  0  0  0  0  0  0  0
    0.9619   23.3883  -25.1559 H   0  0  0  0  0  0  0  0  0  0  0  0
    1.2676   21.7575  -25.8022 H   0  0  0  0  0  0  0  0  0  0  0  0
   -0.4083   20.6581  -20.8284 C   0  0  0  0  0  0  0  0  0  0  0  0
   -0.2247   21.2941  -19.6095 C   0  0  0  0  0  0  0  0  0  0  0  0
   -0.5956   22.6243  -19.5688 C   0  0  0  0  0  0  0  0  0  0  0  0
   -0.3992   23.3109  -18.2614 C   0  0  0  0  0  0  0  0  0  0  0  0
   -1.1085   23.3021  -20.6247 C   0  0  0  0  0  0  0  0  0  0  0  0
   -1.2988   22.6632  -21.8687 C   0  0  0  0  0  0  0  0  0  0  0  0
   -1.7973   23.2197  -22.9934 C   0  0  0  0  0  0  0  0  0  0  0  0
   -1.9146   22.4468  -24.1114 C   0  0  0  0  0  0  0  0  0  0  0  0
   -1.2926   20.9214  -23.5120 S   0  0  0  0  0  0  0  0  0  0  0  0
   -0.9382   21.3573  -21.9197 C   0  0  0  0  0  0  0  0  0  0  0  0
    1.0559   18.6950  -20.6142 C   0  0  0  0  0  0  0  0  0  0  0  0
   -0.0955   19.3467  -21.0439 O   0  0  0  0  0  0  0  0  0  0  0  0
   -4.7684   22.8625  -24.9791 C   0  0  0  0  0  0  0  0  0  0  0  0
   -4.8560   24.0007  -24.0748 N   0  0  0  0  0  0  0  0  0  0  0  0
   -5.2978   25.2004  -24.6983 C   0  0  0  0  0  0  0  0  0  0  0  0
   -6.6723   25.6433  -24.2437 C   0  0  0  0  0  0  0  0  0  0  0  0
   -6.6015   25.8646  -22.8039 N   0  0  0  0  0  0  0  0  0  0  0  0
   -5.7832   24.9104  -22.0943 C   0  0  0  0  0  0  0  0  0  0  0  0
   -5.3752   25.1550  -20.9509 O   0  0  0  0  0  0  0  0  0  0  0  0
   -5.4915   23.6541  -22.8463 C   0  0  0  0  0  0  0  0  0  0  0  0
   -7.0894   26.6354  -22.3113 H   0  0  0  0  0  0  0  0  0  0  0  0
 23 24  1  0  0  0
 24 13  1  0  0  0
 13 14  2  0  0  0
 14 15  1  0  0  0
 15 16  1  0  0  0
 15 17  2  0  0  0
 17 18  1  0  0  0
 18 19  1  0  0  0
 19 20  2  0  0  0
 20 21  1  0  0  0
 21 22  1  0  0  0
 20  1  1  0  0  0
  1  2  1  0  0  0
  2 25  1  0  0  0
 25 26  1  0  0  0
 26 27  1  0  0  0
 27 28  1  0  0  0
 28 29  1  0  0  0
 29 30  1  0  0  0
 30 31  2  0  0  0
 30 32  1  0  0  0
  2  3  2  0  0  0
  3  4  1  0  0  0
  4  5  1  0  0  0
  5  6  2  0  0  0
  6  7  1  0  0  0
  7  8  2  0  0  0
  8  9  1  0  0  0
  8 10  1  0  0  0
 22 13  1  0  0  0
 10  1  2  0  0  0
 22 18  2  0  0  0
 32 26  1  0  0  0
 10  4  1  0  0  0
 29 33  1  0  0  0
  9 11  1  0  0  0
  9 12  1  0  0  0
M  END
> <minimizedAffinity>
-7.59507

> <CNNscore>
0.8653888702

> <CNNaffinity>
7.1310210228

> <CNN_VS>
6.1711063385

> <CNNaffinity_variance>
0.0241143666

$$$$
[H]c1nc(N([H])[H])c2c(-c3sc4c(OC([H])([H])[H])c([H])c(C([H])([H])[H])c([H])c4c3[H])c(C([H])([H])N3C([H])([H])C(=O)N([H])C([H])([H])C3([H])[H])c([H])n2n1


 33 37  0  0  0  0  0  0  0  0999 V2000
   -2.4076   22.7827  -25.3063 C   0  0  0  0  0  0  0  0  0  0  0  0
   -3.5748   23.0827  -26.0247 C   0  0  0  0  0  0  0  0  0  0  0  0
   -3.2779   23.1857  -27.3508 C   0  0  0  0  0  0  0  0  0  0  0  0
   -1.9562   22.9602  -27.4728 N   0  0  0  0  0  0  0  0  0  0  0  0
   -1.2111   22.9785  -28.5640 N   0  0  0  0  0  0  0  0  0  0  0  0
    0.1078   22.7607  -28.4863 C   0  0  0  0  0  0  0  0  0  0  0  0
    0.6764   22.5258  -27.3092 N   0  0  0  0  0  0  0  0  0  0  0  0
   -0.0528   22.4994  -26.1776 C   0  0  0  0  0  0  0  0  0  0  0  0
    0.6103   22.3251  -24.9502 N   0  0  0  0  0  0  0  0  0  0  0  0
   -1.4100   22.7145  -26.2268 C   0  0  0  0  0  0  0  0  0  0  0  0
    0.7565   23.1056  -24.3088 H   0  0  0  0  0  0  0  0  0  0  0  0
    0.9572   21.3789  -24.6947 H   0  0  0  0  0  0  0  0  0  0  0  0
   -3.2019   21.4540  -20.0992 C   0  0  0  0  0  0  0  0  0  0  0  0
   -2.3899   21.7117  -19.0046 C   0  0  0  0  0  0  0  0  0  0  0  0
   -1.2379   22.4261  -19.2714 C   0  0  0  0  0  0  0  0  0  0  0  0
   -0.3629   22.7042  -18.0982 C   0  0  0  0  0  0  0  0  0  0  0  0
   -0.8854   22.8655  -20.5043 C   0  0  0  0  0  0  0  0  0  0  0  0
   -1.7054   22.6080  -21.6237 C   0  0  0  0  0  0  0  0  0  0  0  0
   -1.4721   22.9867  -22.8987 C   0  0  0  0  0  0  0  0  0  0  0  0
   -2.3809   22.6514  -23.8593 C   0  0  0  0  0  0  0  0  0  0  0  0
   -3.5605   21.7848  -22.8947 S   0  0  0  0  0  0  0  0  0  0  0  0
   -2.8388   21.9076  -21.3732 C   0  0  0  0  0  0  0  0  0  0  0  0
   -5.3127   20.8543  -18.9907 C   0  0  0  0  0  0  0  0  0  0  0  0
   -4.3758   20.7620  -20.0149 O   0  0  0  0  0  0  0  0  0  0  0  0
   -4.8943   23.2759  -25.3964 C   0  0  0  0  0  0  0  0  0  0  0  0
   -5.1865   24.6657  -25.0736 N   0  0  0  0  0  0  0  0  0  0  0  0
   -4.9868   24.9943  -23.7042 C   0  0  0  0  0  0  0  0  0  0  0  0
   -3.8202   25.9315  -23.4748 C   0  0  0  0  0  0  0  0  0  0  0  0
   -4.0987   27.1580  -24.2131 N   0  0  0  0  0  0  0  0  0  0  0  0
   -4.7305   26.9514  -25.4944 C   0  0  0  0  0  0  0  0  0  0  0  0
   -5.3074   27.8827  -26.0718 O   0  0  0  0  0  0  0  0  0  0  0  0
   -4.6226   25.5616  -26.0289 C   0  0  0  0  0  0  0  0  0  0  0  0
   -3.8706   28.1080  -23.8659 H   0  0  0  0  0  0  0  0  0  0  0  0
 23 24  1  0  0  0
 24 13  1  0  0  0
 13 14  2  0  0  0
 14 15  1  0  0  0
 15 16  1  0  0  0
 15 17  2  0  0  0
 17 18  1  0  0  0
 18 19  1  0  0  0
 19 20  2  0  0  0
 20 21  1  0  0  0
 21 22  1  0  0  0
 20  1  1  0  0  0
  1  2  1  0  0  0
  2 25  1  0  0  0
 25 26  1  0  0  0
 26 27  1  0  0  0
 27 28  1  0  0  0
 28 29  1  0  0  0
 29 30  1  0  0  0
 30 31  2  0  0  0
 30 32  1  0  0  0
  2  3  2  0  0  0
  3  4  1  0  0  0
  4  5  1  0  0  0
  5  6  2  0  0  0
  6  7  1  0  0  0
  7  8  2  0  0  0
  8  9  1  0  0  0
  8 10  1  0  0  0
 22 13  1  0  0  0
 10  1  2  0  0  0
 22 18  2  0  0  0
 32 26  1  0  0  0
 10  4  1  0  0  0
 29 33  1  0  0  0
  9 11  1  0  0  0
  9 12  1  0  0  0
M  END
> <minimizedAffinity>
-8.14761

> <CNNscore>
0.8045622110

> <CNNaffinity>
7.2119050026

> <CNN_VS>
5.8024263382

> <CNNaffinity_variance>
0.1440751255

$$$$
[H]c1nc(N([H])[H])c2c(-c3sc4c(OC([H])([H])[H])c([H])c(C([H])([H])[H])c([H])c4c3[H])c(C([H])([H])N3C([H])([H])C(=O)N([H])C([H])([H])C3([H])[H])c([H])n2n1


 33 37  0  0  0  0  0  0  0  0999 V2000
   -2.6344   22.6747  -25.5090 C   0  0  0  0  0  0  0  0  0  0  0  0
   -3.7752   22.9702  -26.2705 C   0  0  0  0  0  0  0  0  0  0  0  0
   -3.4161   23.1605  -27.5713 C   0  0  0  0  0  0  0  0  0  0  0  0
   -2.0817   22.9936  -27.6354 N   0  0  0  0  0  0  0  0  0  0  0  0
   -1.2837   23.1033  -28.6830 N   0  0  0  0  0  0  0  0  0  0  0  0
    0.0375   22.9325  -28.5478 C   0  0  0  0  0  0  0  0  0  0  0  0
    0.5550   22.6525  -27.3572 N   0  0  0  0  0  0  0  0  0  0  0  0
   -0.2287   22.5330  -26.2689 C   0  0  0  0  0  0  0  0  0  0  0  0
    0.3780   22.3143  -25.0196 N   0  0  0  0  0  0  0  0  0  0  0  0
   -1.5895   22.6980  -26.3779 C   0  0  0  0  0  0  0  0  0  0  0  0
    0.4590   23.0617  -24.3292 H   0  0  0  0  0  0  0  0  0  0  0  0
    0.7505   21.3691  -24.7989 H   0  0  0  0  0  0  0  0  0  0  0  0
   -2.0404   22.8695  -20.1128 C   0  0  0  0  0  0  0  0  0  0  0  0
   -2.7962   22.2417  -19.1336 C   0  0  0  0  0  0  0  0  0  0  0  0
   -3.8204   21.4373  -19.5948 C   0  0  0  0  0  0  0  0  0  0  0  0
   -4.6347   20.7619  -18.5459 C   0  0  0  0  0  0  0  0  0  0  0  0
   -4.1034   21.2456  -20.9065 C   0  0  0  0  0  0  0  0  0  0  0  0
   -3.3398   21.8802  -21.9095 C   0  0  0  0  0  0  0  0  0  0  0  0
   -3.5150   21.7753  -23.2443 C   0  0  0  0  0  0  0  0  0  0  0  0
   -2.6756   22.4617  -24.0721 C   0  0  0  0  0  0  0  0  0  0  0  0
   -1.6455   23.2551  -22.8964 S   0  0  0  0  0  0  0  0  0  0  0  0
   -2.3319   22.6721  -21.4680 C   0  0  0  0  0  0  0  0  0  0  0  0
    0.0364   23.4470  -18.9308 C   0  0  0  0  0  0  0  0  0  0  0  0
   -0.9918   23.6981  -19.8336 O   0  0  0  0  0  0  0  0  0  0  0  0
   -5.1317   23.0759  -25.7030 C   0  0  0  0  0  0  0  0  0  0  0  0
   -5.6688   24.4294  -25.7290 N   0  0  0  0  0  0  0  0  0  0  0  0
   -6.9808   24.5400  -25.1909 C   0  0  0  0  0  0  0  0  0  0  0  0
   -7.0334   25.3093  -23.8881 C   0  0  0  0  0  0  0  0  0  0  0  0
   -6.5246   26.6495  -24.1560 N   0  0  0  0  0  0  0  0  0  0  0  0
   -5.4131   26.6916  -25.0760 C   0  0  0  0  0  0  0  0  0  0  0  0
   -5.0966   27.7497  -25.6363 O   0  0  0  0  0  0  0  0  0  0  0  0
   -4.7150   25.3870  -25.2747 C   0  0  0  0  0  0  0  0  0  0  0  0
   -6.9132   27.5124  -23.7325 H   0  0  0  0  0  0  0  0  0  0  0  0
 23 24  1  0  0  0
 24 13  1  0  0  0
 13 14  2  0  0  0
 14 15  1  0  0  0
 15 16  1  0  0  0
 15 17  2  0  0  0
 17 18  1  0  0  0
 18 19  1  0  0  0
 19 20  2  0  0  0
 20 21  1  0  0  0
 21 22  1  0  0  0
 20  1  1  0  0  0
  1  2  1  0  0  0
  2 25  1  0  0  0
 25 26  1  0  0  0
 26 27  1  0  0  0
 27 28  1  0  0  0
 28 29  1  0  0  0
 29 30  1  0  0  0
 30 31  2  0  0  0
 30 32  1  0  0  0
  2  3  2  0  0  0
  3  4  1  0  0  0
  4  5  1  0  0  0
  5  6  2  0  0  0
  6  7  1  0  0  0
  7  8  2  0  0  0
  8  9  1  0  0  0
  8 10  1  0  0  0
 22 13  1  0  0  0
 10  1  2  0  0  0
 22 18  2  0  0  0
 32 26  1  0  0  0
 10  4  1  0  0  0
 29 33  1  0  0  0
  9 11  1  0  0  0
  9 12  1  0  0  0
M  END
> <minimizedAffinity>
-8.55364

> <CNNscore>
0.7925196886

> <CNNaffinity>
7.1699614525

> <CNN_VS>
5.6823358536

> <CNNaffinity_variance>
0.0645647943

$$$$
[H]c1nc(N([H])[H])c2c(-c3sc4c(OC([H])([H])[H])c([H])c(C([H])([H])[H])c([H])c4c3[H])c(C([H])([H])N3C([H])([H])C(=O)N([H])C([H])([H])C3([H])[H])c([H])n2n1


 33 37  0  0  0  0  0  0  0  0999 V2000
   -2.1629   22.4525  -25.4094 C   0  0  0  0  0  0  0  0  0  0  0  0
   -3.4723   22.5877  -25.8950 C   0  0  0  0  0  0  0  0  0  0  0  0
   -3.4349   22.9028  -27.2203 C   0  0  0  0  0  0  0  0  0  0  0  0
   -2.1360   22.9694  -27.5684 N   0  0  0  0  0  0  0  0  0  0  0  0
   -1.6085   23.2669  -28.7429 N   0  0  0  0  0  0  0  0  0  0  0  0
   -0.2789   23.3171  -28.8942 C   0  0  0  0  0  0  0  0  0  0  0  0
    0.5192   23.0690  -27.8621 N   0  0  0  0  0  0  0  0  0  0  0  0
    0.0156   22.7621  -26.6516 C   0  0  0  0  0  0  0  0  0  0  0  0
    0.9028   22.5864  -25.5752 N   0  0  0  0  0  0  0  0  0  0  0  0
   -1.3455   22.6980  -26.4672 C   0  0  0  0  0  0  0  0  0  0  0  0
    1.0126   23.3004  -24.8540 H   0  0  0  0  0  0  0  0  0  0  0  0
    1.4567   21.7085  -25.5168 H   0  0  0  0  0  0  0  0  0  0  0  0
   -2.0802   22.0035  -19.9963 C   0  0  0  0  0  0  0  0  0  0  0  0
   -1.3347   21.1385  -19.2089 C   0  0  0  0  0  0  0  0  0  0  0  0
   -0.4782   20.2974  -19.8928 C   0  0  0  0  0  0  0  0  0  0  0  0
    0.3237   19.3665  -19.0504 C   0  0  0  0  0  0  0  0  0  0  0  0
   -0.3434   20.2843  -21.2415 C   0  0  0  0  0  0  0  0  0  0  0  0
   -1.0978   21.1608  -22.0506 C   0  0  0  0  0  0  0  0  0  0  0  0
   -1.0594   21.2494  -23.3974 C   0  0  0  0  0  0  0  0  0  0  0  0
   -1.8610   22.1624  -24.0179 C   0  0  0  0  0  0  0  0  0  0  0  0
   -2.6639   22.8762  -22.6327 S   0  0  0  0  0  0  0  0  0  0  0  0
   -1.9416   21.9908  -21.3896 C   0  0  0  0  0  0  0  0  0  0  0  0
   -3.8164   22.6924  -18.3980 C   0  0  0  0  0  0  0  0  0  0  0  0
   -2.9737   22.9004  -19.4851 O   0  0  0  0  0  0  0  0  0  0  0  0
   -4.6749   22.4314  -25.0568 C   0  0  0  0  0  0  0  0  0  0  0  0
   -5.3494   23.6895  -24.7677 N   0  0  0  0  0  0  0  0  0  0  0  0
   -5.8682   24.3438  -25.9192 C   0  0  0  0  0  0  0  0  0  0  0  0
   -7.3812   24.3669  -25.9671 C   0  0  0  0  0  0  0  0  0  0  0  0
   -7.8410   25.0778  -24.7796 N   0  0  0  0  0  0  0  0  0  0  0  0
   -7.0735   24.8053  -23.5879 C   0  0  0  0  0  0  0  0  0  0  0  0
   -7.1375   25.5608  -22.6088 O   0  0  0  0  0  0  0  0  0  0  0  0
   -6.2314   23.5742  -23.6533 C   0  0  0  0  0  0  0  0  0  0  0  0
   -8.6484   25.7282  -24.7698 H   0  0  0  0  0  0  0  0  0  0  0  0
 23 24  1  0  0  0
 24 13  1  0  0  0
 13 14  2  0  0  0
 14 15  1  0  0  0
 15 16  1  0  0  0
 15 17  2  0  0  0
 17 18  1  0  0  0
 18 19  1  0  0  0
 19 20  2  0  0  0
 20 21  1  0  0  0
 21 22  1  0  0  0
 20  1  1  0  0  0
  1  2  1  0  0  0
  2 25  1  0  0  0
 25 26  1  0  0  0
 26 27  1  0  0  0
 27 28  1  0  0  0
 28 29  1  0  0  0
 29 30  1  0  0  0
 30 31  2  0  0  0
 30 32  1  0  0  0
  2  3  2  0  0  0
  3  4  1  0  0  0
  4  5  1  0  0  0
  5  6  2  0  0  0
  6  7  1  0  0  0
  7  8  2  0  0  0
  8  9  1  0  0  0
  8 10  1  0  0  0
 22 13  1  0  0  0
 10  1  2  0  0  0
 22 18  2  0  0  0
 32 26  1  0  0  0
 10  4  1  0  0  0
 29 33  1  0  0  0
  9 11  1  0  0  0
  9 12  1  0  0  0
M  END
> <minimizedAffinity>
-8.53294

> <CNNscore>
0.7004842758

> <CNNaffinity>
7.0770101547

> <CNN_VS>
4.9573345184

> <CNNaffinity_variance>
0.0309361313

$$$$
[H]c1nc(N([H])[H])c2c(-c3sc4c(OC([H])([H])[H])c([H])c(C([H])([H])[H])c([H])c4c3[H])c(C([H])([H])N3C([H])([H])C(=O)N([H])C([H])([H])C3([H])[H])c([H])n2n1


 33 37  0  0  0  0  0  0  0  0999 V2000
   -3.6613   23.0004  -25.7282 C   0  0  0  0  0  0  0  0  0  0  0  0
   -3.8089   23.0634  -27.1221 C   0  0  0  0  0  0  0  0  0  0  0  0
   -2.6150   22.7864  -27.7181 C   0  0  0  0  0  0  0  0  0  0  0  0
   -1.7303   22.5562  -26.7297 N   0  0  0  0  0  0  0  0  0  0  0  0
   -0.4429   22.2725  -26.8212 N   0  0  0  0  0  0  0  0  0  0  0  0
    0.2936   22.1069  -25.7153 C   0  0  0  0  0  0  0  0  0  0  0  0
   -0.2663   22.2284  -24.5171 N   0  0  0  0  0  0  0  0  0  0  0  0
   -1.5753   22.5161  -24.3871 C   0  0  0  0  0  0  0  0  0  0  0  0
   -2.0996   22.7116  -23.0974 N   0  0  0  0  0  0  0  0  0  0  0  0
   -2.3579   22.6867  -25.5048 C   0  0  0  0  0  0  0  0  0  0  0  0
   -2.3168   23.6454  -22.7471 H   0  0  0  0  0  0  0  0  0  0  0  0
   -2.2680   21.8840  -22.4911 H   0  0  0  0  0  0  0  0  0  0  0  0
   -7.5527   22.8974  -21.9392 C   0  0  0  0  0  0  0  0  0  0  0  0
   -8.2005   23.9630  -21.3319 C   0  0  0  0  0  0  0  0  0  0  0  0
   -7.8243   25.2181  -21.7700 C   0  0  0  0  0  0  0  0  0  0  0  0
   -8.5176   26.3650  -21.1196 C   0  0  0  0  0  0  0  0  0  0  0  0
   -6.8896   25.4397  -22.7263 C   0  0  0  0  0  0  0  0  0  0  0  0
   -6.2253   24.3617  -23.3496 C   0  0  0  0  0  0  0  0  0  0  0  0
   -5.2799   24.4436  -24.3102 C   0  0  0  0  0  0  0  0  0  0  0  0
   -4.7446   23.2900  -24.8040 C   0  0  0  0  0  0  0  0  0  0  0  0
   -5.6210   22.1013  -23.8596 S   0  0  0  0  0  0  0  0  0  0  0  0
   -6.5870   23.1253  -22.9272 C   0  0  0  0  0  0  0  0  0  0  0  0
   -8.1828   21.1033  -20.3810 C   0  0  0  0  0  0  0  0  0  0  0  0
   -7.8026   21.5921  -21.6267 O   0  0  0  0  0  0  0  0  0  0  0  0
   -5.0744   23.4079  -27.7952 C   0  0  0  0  0  0  0  0  0  0  0  0
   -4.8942   24.2162  -28.9932 N   0  0  0  0  0  0  0  0  0  0  0  0
   -4.8516   23.4609  -30.1978 C   0  0  0  0  0  0  0  0  0  0  0  0
   -6.0529   23.6858  -31.0912 C   0  0  0  0  0  0  0  0  0  0  0  0
   -6.0806   25.1039  -31.4305 N   0  0  0  0  0  0  0  0  0  0  0  0
   -5.7004   25.9822  -30.3500 C   0  0  0  0  0  0  0  0  0  0  0  0
   -5.3697   27.1541  -30.5751 O   0  0  0  0  0  0  0  0  0  0  0  0
   -5.7442   25.3610  -28.9931 C   0  0  0  0  0  0  0  0  0  0  0  0
   -6.3477   25.4718  -32.3623 H   0  0  0  0  0  0  0  0  0  0  0  0
 23 24  1  0  0  0
 24 13  1  0  0  0
 13 14  2  0  0  0
 14 15  1  0  0  0
 15 16  1  0  0  0
 15 17  2  0  0  0
 17 18  1  0  0  0
 18 19  1  0  0  0
 19 20  2  0  0  0
 20 21  1  0  0  0
 21 22  1  0  0  0
 20  1  1  0  0  0
  1  2  1  0  0  0
  2 25  1  0  0  0
 25 26  1  0  0  0
 26 27  1  0  0  0
 27 28  1  0  0  0
 28 29  1  0  0  0
 29 30  1  0  0  0
 30 31  2  0  0  0
 30 32  1  0  0  0
  2  3  2  0  0  0
  3  4  1  0  0  0
  4  5  1  0  0  0
  5  6  2  0  0  0
  6  7  1  0  0  0
  7  8  2  0  0  0
  8  9  1  0  0  0
  8 10  1  0  0  0
 22 13  1  0  0  0
 10  1  2  0  0  0
 22 18  2  0  0  0
 32 26  1  0  0  0
 10  4  1  0  0  0
 29 33  1  0  0  0
  9 11  1  0  0  0
  9 12  1  0  0  0
M  END
> <minimizedAffinity>
-8.87531

> <CNNscore>
0.3731904328

> <CNNaffinity>
7.3767023087

> <CNN_VS>
2.7529146671

> <CNNaffinity_variance>
0.2010340393

$$$$
[H]c1nc(N([H])[H])c2c(-c3sc4c(OC([H])([H])[H])c([H])c(C([H])([H])[H])c([H])c4c3[H])c(C([H])([H])N3C([H])([H])C(=O)N([H])C([H])([H])C3([H])[H])c([H])n2n1


 33 37  0  0  0  0  0  0  0  0999 V2000
   -1.7370   22.0582  -23.5807 C   0  0  0  0  0  0  0  0  0  0  0  0
   -2.2607   21.5696  -22.3743 C   0  0  0  0  0  0  0  0  0  0  0  0
   -1.2557   21.0298  -21.6286 C   0  0  0  0  0  0  0  0  0  0  0  0
   -0.1230   21.1685  -22.3430 N   0  0  0  0  0  0  0  0  0  0  0  0
    1.1008   20.7741  -22.0380 N   0  0  0  0  0  0  0  0  0  0  0  0
    2.1089   20.9712  -22.8971 C   0  0  0  0  0  0  0  0  0  0  0  0
    1.8839   21.5642  -24.0640 N   0  0  0  0  0  0  0  0  0  0  0  0
    0.6497   21.9791  -24.4067 C   0  0  0  0  0  0  0  0  0  0  0  0
    0.4522   22.5290  -25.6854 N   0  0  0  0  0  0  0  0  0  0  0  0
   -0.4041   21.7950  -23.5428 C   0  0  0  0  0  0  0  0  0  0  0  0
   -0.0050   21.9984  -26.4281 H   0  0  0  0  0  0  0  0  0  0  0  0
    0.7804   23.4973  -25.8738 H   0  0  0  0  0  0  0  0  0  0  0  0
   -4.5600   25.3484  -26.8543 C   0  0  0  0  0  0  0  0  0  0  0  0
   -5.0586   25.0908  -28.1228 C   0  0  0  0  0  0  0  0  0  0  0  0
   -4.8295   23.8171  -28.6066 C   0  0  0  0  0  0  0  0  0  0  0  0
   -5.3629   23.5371  -29.9691 C   0  0  0  0  0  0  0  0  0  0  0  0
   -4.1670   22.8528  -27.9221 C   0  0  0  0  0  0  0  0  0  0  0  0
   -3.6563   23.1059  -26.6310 C   0  0  0  0  0  0  0  0  0  0  0  0
   -2.9816   22.2386  -25.8462 C   0  0  0  0  0  0  0  0  0  0  0  0
   -2.5621   22.6560  -24.6169 C   0  0  0  0  0  0  0  0  0  0  0  0
   -3.1509   24.3071  -24.6220 S   0  0  0  0  0  0  0  0  0  0  0  0
   -3.8756   24.3528  -26.1464 C   0  0  0  0  0  0  0  0  0  0  0  0
   -5.6858   26.8931  -25.3084 C   0  0  0  0  0  0  0  0  0  0  0  0
   -4.6970   26.5526  -26.2257 O   0  0  0  0  0  0  0  0  0  0  0  0
   -3.6908   21.6274  -22.0212 C   0  0  0  0  0  0  0  0  0  0  0  0
   -3.9954   22.6087  -20.9890 N   0  0  0  0  0  0  0  0  0  0  0  0
   -4.9749   23.5657  -21.3738 C   0  0  0  0  0  0  0  0  0  0  0  0
   -6.2812   23.4247  -20.6219 C   0  0  0  0  0  0  0  0  0  0  0  0
   -5.9864   23.6028  -19.2047 N   0  0  0  0  0  0  0  0  0  0  0  0
   -4.7394   23.0146  -18.7774 C   0  0  0  0  0  0  0  0  0  0  0  0
   -4.2132   23.3557  -17.7096 O   0  0  0  0  0  0  0  0  0  0  0  0
   -4.1736   21.9979  -19.7129 C   0  0  0  0  0  0  0  0  0  0  0  0
   -6.6057   24.1058  -18.5426 H   0  0  0  0  0  0  0  0  0  0  0  0
 23 24  1  0  0  0
 24 13  1  0  0  0
 13 14  2  0  0  0
 14 15  1  0  0  0
 15 16  1  0  0  0
 15 17  2  0  0  0
 17 18  1  0  0  0
 18 19  1  0  0  0
 19 20  2  0  0  0
 20 21  1  0  0  0
 21 22  1  0  0  0
 20  1  1  0  0  0
  1  2  1  0  0  0
  2 25  1  0  0  0
 25 26  1  0  0  0
 26 27  1  0  0  0
 27 28  1  0  0  0
 28 29  1  0  0  0
 29 30  1  0  0  0
 30 31  2  0  0  0
 30 32  1  0  0  0
  2  3  2  0  0  0
  3  4  1  0  0  0
  4  5  1  0  0  0
  5  6  2  0  0  0
  6  7  1  0  0  0
  7  8  2  0  0  0
  8  9  1  0  0  0
  8 10  1  0  0  0
 22 13  1  0  0  0
 10  1  2  0  0  0
 22 18  2  0  0  0
 32 26  1  0  0  0
 10  4  1  0  0  0
 29 33  1  0  0  0
  9 11  1  0  0  0
  9 12  1  0  0  0
M  END
> <minimizedAffinity>
-8.18033

> <CNNscore>
0.2756919563

> <CNNaffinity>
6.7400064468

> <CNN_VS>
1.8581656218

> <CNNaffinity_variance>
0.1691025645

$$$$
[H]c1nc(N([H])[H])c2c(-c3sc4c(OC([H])([H])[H])c([H])c(C([H])([H])[H])c([H])c4c3[H])c(C([H])([H])N3C([H])([H])C(=O)N([H])C([H])([H])C3([H])[H])c([H])n2n1


 33 37  0  0  0  0  0  0  0  0999 V2000
   -4.7849   23.1448  -25.2834 C   0  0  0  0  0  0  0  0  0  0  0  0
   -6.1580   23.2665  -25.0223 C   0  0  0  0  0  0  0  0  0  0  0  0
   -6.8164   23.5569  -26.1797 C   0  0  0  0  0  0  0  0  0  0  0  0
   -5.8864   23.6213  -27.1511 N   0  0  0  0  0  0  0  0  0  0  0  0
   -6.0472   23.8987  -28.4331 N   0  0  0  0  0  0  0  0  0  0  0  0
   -4.9890   23.9506  -29.2519 C   0  0  0  0  0  0  0  0  0  0  0  0
   -3.7687   23.7244  -28.7791 N   0  0  0  0  0  0  0  0  0  0  0  0
   -3.5686   23.4385  -27.4787 C   0  0  0  0  0  0  0  0  0  0  0  0
   -2.2501   23.2858  -27.0152 N   0  0  0  0  0  0  0  0  0  0  0  0
   -4.6366   23.3732  -26.6150 C   0  0  0  0  0  0  0  0  0  0  0  0
   -1.7917   24.0136  -26.4654 H   0  0  0  0  0  0  0  0  0  0  0  0
   -1.7351   22.4111  -27.2397 H   0  0  0  0  0  0  0  0  0  0  0  0
   -0.4263   21.7526  -22.3551 C   0  0  0  0  0  0  0  0  0  0  0  0
   -0.1041   22.1117  -21.0546 C   0  0  0  0  0  0  0  0  0  0  0  0
   -1.0301   22.9082  -20.4088 C   0  0  0  0  0  0  0  0  0  0  0  0
   -0.6871   23.2964  -19.0121 C   0  0  0  0  0  0  0  0  0  0  0  0
   -2.1884   23.3334  -20.9699 C   0  0  0  0  0  0  0  0  0  0  0  0
   -2.5245   22.9729  -22.2924 C   0  0  0  0  0  0  0  0  0  0  0  0
   -3.6398   23.3268  -22.9663 C   0  0  0  0  0  0  0  0  0  0  0  0
   -3.8024   22.8816  -24.2456 C   0  0  0  0  0  0  0  0  0  0  0  0
   -2.3268   21.9581  -24.4524 S   0  0  0  0  0  0  0  0  0  0  0  0
   -1.6227   22.1912  -22.9355 C   0  0  0  0  0  0  0  0  0  0  0  0
    1.4245   21.4102  -23.9364 C   0  0  0  0  0  0  0  0  0  0  0  0
    0.3746   20.9706  -23.1367 O   0  0  0  0  0  0  0  0  0  0  0  0
   -6.7506   23.1218  -23.6802 C   0  0  0  0  0  0  0  0  0  0  0  0
   -6.7002   24.3427  -22.8878 N   0  0  0  0  0  0  0  0  0  0  0  0
   -7.5936   25.3563  -23.3324 C   0  0  0  0  0  0  0  0  0  0  0  0
   -8.7277   25.6243  -22.3659 C   0  0  0  0  0  0  0  0  0  0  0  0
   -8.1306   26.0489  -21.1049 N   0  0  0  0  0  0  0  0  0  0  0  0
   -6.9177   25.3489  -20.7548 C   0  0  0  0  0  0  0  0  0  0  0  0
   -6.1442   25.8114  -19.9056 O   0  0  0  0  0  0  0  0  0  0  0  0
   -6.7004   24.0672  -21.4888 C   0  0  0  0  0  0  0  0  0  0  0  0
   -8.5269   26.7886  -20.4960 H   0  0  0  0  0  0  0  0  0  0  0  0
 23 24  1  0  0  0
 24 13  1  0  0  0
 13 14  2  0  0  0
 14 15  1  0  0  0
 15 16  1  0  0  0
 15 17  2  0  0  0
 17 18  1  0  0  0
 18 19  1  0  0  0
 19 20  2  0  0  0
 20 21  1  0  0  0
 21 22  1  0  0  0
 20  1  1  0  0  0
  1  2  1  0  0  0
  2 25  1  0  0  0
 25 26  1  0  0  0
 26 27  1  0  0  0
 27 28  1  0  0  0
 28 29  1  0  0  0
 29 30  1  0  0  0
 30 31  2  0  0  0
 30 32  1  0  0  0
  2  3  2  0  0  0
  3  4  1  0  0  0
  4  5  1  0  0  0
  5  6  2  0  0  0
  6  7  1  0  0  0
  7  8  2  0  0  0
  8  9  1  0  0  0
  8 10  1  0  0  0
 22 13  1  0  0  0
 10  1  2  0  0  0
 22 18  2  0  0  0
 32 26  1  0  0  0
 10  4  1  0  0  0
 29 33  1  0  0  0
  9 11  1  0  0  0
  9 12  1  0  0  0
M  END
> <minimizedAffinity>
-7.90396

> <CNNscore>
0.2093774676

> <CNNaffinity>
6.6683797836

> <CNN_VS>
1.3962085247

> <CNNaffinity_variance>
0.1046715006

$$$$
[H]c1nc(N([H])[H])c2c(-c3sc4c(OC([H])([H])[H])c([H])c(C([H])([H])[H])c([H])c4c3[H])c(C([H])([H])N3C([H])([H])C(=O)N([H])C([H])([H])C3([H])[H])c([H])n2n1


 33 37  0  0  0  0  0  0  0  0999 V2000
   -1.8642   22.2277  -23.8698 C   0  0  0  0  0  0  0  0  0  0  0  0
   -0.8281   21.6439  -23.1255 C   0  0  0  0  0  0  0  0  0  0  0  0
    0.2544   21.4480  -23.9300 C   0  0  0  0  0  0  0  0  0  0  0  0
   -0.0850   21.8926  -25.1547 N   0  0  0  0  0  0  0  0  0  0  0  0
    0.6317   21.8865  -26.2649 N   0  0  0  0  0  0  0  0  0  0  0  0
    0.1098   22.3454  -27.4095 C   0  0  0  0  0  0  0  0  0  0  0  0
   -1.1344   22.8092  -27.4360 N   0  0  0  0  0  0  0  0  0  0  0  0
   -1.8925   22.8307  -26.3234 C   0  0  0  0  0  0  0  0  0  0  0  0
   -3.2281   23.2580  -26.4237 N   0  0  0  0  0  0  0  0  0  0  0  0
   -1.3819   22.3707  -25.1324 C   0  0  0  0  0  0  0  0  0  0  0  0
   -4.0026   22.5934  -26.4006 H   0  0  0  0  0  0  0  0  0  0  0  0
   -3.4262   24.2737  -26.5233 H   0  0  0  0  0  0  0  0  0  0  0  0
   -6.6519   24.3673  -22.4519 C   0  0  0  0  0  0  0  0  0  0  0  0
   -7.7341   23.7464  -21.8456 C   0  0  0  0  0  0  0  0  0  0  0  0
   -7.5596   22.4113  -21.5364 C   0  0  0  0  0  0  0  0  0  0  0  0
   -8.7201   21.7410  -20.8857 C   0  0  0  0  0  0  0  0  0  0  0  0
   -6.4246   21.7152  -21.7903 C   0  0  0  0  0  0  0  0  0  0  0  0
   -5.3186   22.3386  -22.4068 C   0  0  0  0  0  0  0  0  0  0  0  0
   -4.1362   21.7632  -22.7140 C   0  0  0  0  0  0  0  0  0  0  0  0
   -3.1720   22.5230  -23.3092 C   0  0  0  0  0  0  0  0  0  0  0  0
   -4.0012   24.0635  -23.4186 S   0  0  0  0  0  0  0  0  0  0  0  0
   -5.4789   23.6491  -22.7145 C   0  0  0  0  0  0  0  0  0  0  0  0
   -6.8041   26.1688  -24.1177 C   0  0  0  0  0  0  0  0  0  0  0  0
   -6.6534   25.6810  -22.8237 O   0  0  0  0  0  0  0  0  0  0  0  0
   -0.9461   21.2880  -21.6998 C   0  0  0  0  0  0  0  0  0  0  0  0
   -0.1370   22.1237  -20.8232 N   0  0  0  0  0  0  0  0  0  0  0  0
   -0.8962   23.0000  -19.9993 C   0  0  0  0  0  0  0  0  0  0  0  0
   -0.8396   22.6427  -18.5292 C   0  0  0  0  0  0  0  0  0  0  0  0
    0.5586   22.7122  -18.1204 N   0  0  0  0  0  0  0  0  0  0  0  0
    1.4926   22.2259  -19.1076 C   0  0  0  0  0  0  0  0  0  0  0  0
    2.6943   22.5164  -19.0374 O   0  0  0  0  0  0  0  0  0  0  0  0
    0.8887   21.3746  -20.1751 C   0  0  0  0  0  0  0  0  0  0  0  0
    0.8769   23.0764  -17.2033 H   0  0  0  0  0  0  0  0  0  0  0  0
 23 24  1  0  0  0
 24 13  1  0  0  0
 13 14  2  0  0  0
 14 15  1  0  0  0
 15 16  1  0  0  0
 15 17  2  0  0  0
 17 18  1  0  0  0
 18 19  1  0  0  0
 19 20  2  0  0  0
 20 21  1  0  0  0
 21 22  1  0  0  0
 20  1  1  0  0  0
  1  2  1  0  0  0
  2 25  1  0  0  0
 25 26  1  0  0  0
 26 27  1  0  0  0
 27 28  1  0  0  0
 28 29  1  0  0  0
 29 30  1  0  0  0
 30 31  2  0  0  0
 30 32  1  0  0  0
  2  3  2  0  0  0
  3  4  1  0  0  0
  4  5  1  0  0  0
  5  6  2  0  0  0
  6  7  1  0  0  0
  7  8  2  0  0  0
  8  9  1  0  0  0
  8 10  1  0  0  0
 22 13  1  0  0  0
 10  1  2  0  0  0
 22 18  2  0  0  0
 32 26  1  0  0  0
 10  4  1  0  0  0
 29 33  1  0  0  0
  9 11  1  0  0  0
  9 12  1  0  0  0
M  END
> <minimizedAffinity>
-7.90619

> <CNNscore>
0.2025319934

> <CNNaffinity>
6.4559960365

> <CNN_VS>
1.3075457811

> <CNNaffinity_variance>
0.2476354539

$$$$
[H]c1nc(N([H])[H])c2c(-c3sc4c(OC([H])([H])[H])c([H])c(C([H])([H])[H])c([H])c4c3[H])c(C([H])([H])N3C([H])([H])C(=O)N([H])C([H])([H])C3([H])[H])c([H])n2n1


 33 37  0  0  0  0  0  0  0  0999 V2000
   -3.5655   22.8007  -24.7231 C   0  0  0  0  0  0  0  0  0  0  0  0
   -2.4733   22.1060  -24.1817 C   0  0  0  0  0  0  0  0  0  0  0  0
   -1.5333   21.9128  -25.1493 C   0  0  0  0  0  0  0  0  0  0  0  0
   -2.0158   22.4670  -26.2774 N   0  0  0  0  0  0  0  0  0  0  0  0
   -1.4686   22.5060  -27.4796 N   0  0  0  0  0  0  0  0  0  0  0  0
   -2.1189   23.0785  -28.5006 C   0  0  0  0  0  0  0  0  0  0  0  0
   -3.3209   23.6106  -28.3110 N   0  0  0  0  0  0  0  0  0  0  0  0
   -3.9076   23.5890  -27.0992 C   0  0  0  0  0  0  0  0  0  0  0  0
   -5.2129   24.0954  -26.9711 N   0  0  0  0  0  0  0  0  0  0  0  0
   -3.2619   23.0126  -26.0308 C   0  0  0  0  0  0  0  0  0  0  0  0
   -6.0178   23.4745  -26.8779 H   0  0  0  0  0  0  0  0  0  0  0  0
   -5.3563   25.1250  -26.9718 H   0  0  0  0  0  0  0  0  0  0  0  0
   -7.9186   22.8313  -21.4734 C   0  0  0  0  0  0  0  0  0  0  0  0
   -8.6275   23.9181  -20.9832 C   0  0  0  0  0  0  0  0  0  0  0  0
   -8.1826   25.1579  -21.4000 C   0  0  0  0  0  0  0  0  0  0  0  0
   -8.9412   26.3275  -20.8750 C   0  0  0  0  0  0  0  0  0  0  0  0
   -7.1286   25.3461  -22.2314 C   0  0  0  0  0  0  0  0  0  0  0  0
   -6.4015   24.2463  -22.7350 C   0  0  0  0  0  0  0  0  0  0  0  0
   -5.3380   24.2947  -23.5656 C   0  0  0  0  0  0  0  0  0  0  0  0
   -4.7566   23.1239  -23.9559 C   0  0  0  0  0  0  0  0  0  0  0  0
   -5.7626   21.9682  -23.1043 S   0  0  0  0  0  0  0  0  0  0  0  0
   -6.8298   23.0248  -22.3323 C   0  0  0  0  0  0  0  0  0  0  0  0
   -8.2825   20.9902  -19.8856 C   0  0  0  0  0  0  0  0  0  0  0  0
   -8.2224   21.5369  -21.1633 O   0  0  0  0  0  0  0  0  0  0  0  0
   -2.4077   21.6499  -22.7814 C   0  0  0  0  0  0  0  0  0  0  0  0
   -1.1617   22.0006  -22.1137 N   0  0  0  0  0  0  0  0  0  0  0  0
   -1.3053   23.0000  -21.1119 C   0  0  0  0  0  0  0  0  0  0  0  0
   -1.0803   22.4806  -19.7078 C   0  0  0  0  0  0  0  0  0  0  0  0
    0.2797   21.9570  -19.6528 N   0  0  0  0  0  0  0  0  0  0  0  0
    0.7006   21.2659  -20.8481 C   0  0  0  0  0  0  0  0  0  0  0  0
    1.9015   21.0596  -21.0689 O   0  0  0  0  0  0  0  0  0  0  0  0
   -0.4106   20.8439  -21.7515 C   0  0  0  0  0  0  0  0  0  0  0  0
    0.9082   22.0609  -18.8347 H   0  0  0  0  0  0  0  0  0  0  0  0
 23 24  1  0  0  0
 24 13  1  0  0  0
 13 14  2  0  0  0
 14 15  1  0  0  0
 15 16  1  0  0  0
 15 17  2  0  0  0
 17 18  1  0  0  0
 18 19  1  0  0  0
 19 20  2  0  0  0
 20 21  1  0  0  0
 21 22  1  0  0  0
 20  1  1  0  0  0
  1  2  1  0  0  0
  2 25  1  0  0  0
 25 26  1  0  0  0
 26 27  1  0  0  0
 27 28  1  0  0  0
 28 29  1  0  0  0
 29 30  1  0  0  0
 30 31  2  0  0  0
 30 32  1  0  0  0
  2  3  2  0  0  0
  3  4  1  0  0  0
  4  5  1  0  0  0
  5  6  2  0  0  0
  6  7  1  0  0  0
  7  8  2  0  0  0
  8  9  1  0  0  0
  8 10  1  0  0  0
 22 13  1  0  0  0
 10  1  2  0  0  0
 22 18  2  0  0  0
 32 26  1  0  0  0
 10  4  1  0  0  0
 29 33  1  0  0  0
  9 11  1  0  0  0
  9 12  1  0  0  0
M  END
> <minimizedAffinity>
-7.67078

> <CNNscore>
0.1947146654

> <CNNaffinity>
6.4272108078

> <CNN_VS>
1.2514722347

> <CNNaffinity_variance>
0.2624963522

$$$$
[H]c1nc(N([H])[H])c2c(-c3sc4c(OC([H])([H])[H])c([H])c(C([H])([H])[H])c([H])c4c3[H])c(C([H])([H])OC([H])([H])C([H])([H])[H])c(C(=O)N3C([H])([H])C([H])([H])N(C(=O)C([H])([H])[H])C([H])([H])C3([H])[H])n2n1


 39 43  0  0  0  0  0  0  0  0999 V2000
   -2.1193   21.9806  -22.0961 C   0  0  0  0  0  0  0  0  0  0  0  0
   -1.6513   22.2597  -23.3973 C   0  0  0  0  0  0  0  0  0  0  0  0
   -0.3535   21.8546  -23.4225 C   0  0  0  0  0  0  0  0  0  0  0  0
    0.6661   21.8845  -24.3458 C   0  0  0  0  0  0  0  0  0  0  0  0
    0.4662   22.4409  -25.6301 N   0  0  0  0  0  0  0  0  0  0  0  0
    1.9226   21.4261  -24.0419 N   0  0  0  0  0  0  0  0  0  0  0  0
    2.1859   20.9421  -22.8423 C   0  0  0  0  0  0  0  0  0  0  0  0
    1.1951   20.9187  -21.9551 N   0  0  0  0  0  0  0  0  0  0  0  0
   -0.0211   21.3427  -22.1952 N   0  0  0  0  0  0  0  0  0  0  0  0
   -1.0979   21.4103  -21.3490 C   0  0  0  0  0  0  0  0  0  0  0  0
    0.4348   21.8287  -26.4638 H   0  0  0  0  0  0  0  0  0  0  0  0
    0.3774   23.4820  -25.6801 H   0  0  0  0  0  0  0  0  0  0  0  0
   -1.0859   21.1927  -19.9212 C   0  0  0  0  0  0  0  0  0  0  0  0
   -1.5209   22.2100  -19.1918 O   0  0  0  0  0  0  0  0  0  0  0  0
   -0.7180   20.1241  -19.1592 N   0  0  0  0  0  0  0  0  0  0  0  0
   -0.7640   20.3454  -17.6746 C   0  0  0  0  0  0  0  0  0  0  0  0
   -0.2654   19.1772  -16.9168 C   0  0  0  0  0  0  0  0  0  0  0  0
    0.8120   18.4479  -17.5210 N   0  0  0  0  0  0  0  0  0  0  0  0
    0.9572   18.3852  -18.9564 C   0  0  0  0  0  0  0  0  0  0  0  0
   -0.4100   18.7881  -19.5198 C   0  0  0  0  0  0  0  0  0  0  0  0
    1.7528   17.7726  -16.7138 C   0  0  0  0  0  0  0  0  0  0  0  0
    1.6030   17.8307  -15.2383 C   0  0  0  0  0  0  0  0  0  0  0  0
    2.7138   17.1246  -17.2409 O   0  0  0  0  0  0  0  0  0  0  0  0
   -2.4506   22.8992  -24.4562 C   0  0  0  0  0  0  0  0  0  0  0  0
   -2.7786   22.3950  -25.6884 C   0  0  0  0  0  0  0  0  0  0  0  0
   -3.5822   23.1369  -26.4831 C   0  0  0  0  0  0  0  0  0  0  0  0
   -4.0447   22.8208  -27.7754 C   0  0  0  0  0  0  0  0  0  0  0  0
   -4.8598   23.6361  -28.5055 C   0  0  0  0  0  0  0  0  0  0  0  0
   -5.3098   23.2153  -29.8940 C   0  0  0  0  0  0  0  0  0  0  0  0
   -5.2771   24.8416  -27.9911 C   0  0  0  0  0  0  0  0  0  0  0  0
   -4.8481   25.1899  -26.7309 C   0  0  0  0  0  0  0  0  0  0  0  0
   -4.0083   24.3364  -25.9937 C   0  0  0  0  0  0  0  0  0  0  0  0
   -3.2827   24.3898  -24.4611 S   0  0  0  0  0  0  0  0  0  0  0  0
   -5.2013   26.3771  -26.1067 O   0  0  0  0  0  0  0  0  0  0  0  0
   -6.2355   26.3142  -25.1443 C   0  0  0  0  0  0  0  0  0  0  0  0
   -3.5088   22.2483  -21.7314 C   0  0  0  0  0  0  0  0  0  0  0  0
   -4.4444   21.2853  -22.0319 O   0  0  0  0  0  0  0  0  0  0  0  0
   -5.8765   21.4447  -23.9538 C   0  0  0  0  0  0  0  0  0  0  0  0
   -5.6150   21.8883  -22.5468 C   0  0  0  0  0  0  0  0  0  0  0  0
 38 39  1  0  0  0
 39 37  1  0  0  0
 37 36  1  0  0  0
 36  1  1  0  0  0
  1  2  1  0  0  0
  2 24  1  0  0  0
 24 25  2  0  0  0
 25 26  1  0  0  0
 26 27  2  0  0  0
 27 28  1  0  0  0
 28 29  1  0  0  0
 28 30  2  0  0  0
 30 31  1  0  0  0
 31 34  1  0  0  0
 34 35  1  0  0  0
 31 32  2  0  0  0
 32 33  1  0  0  0
  2  3  2  0  0  0
  3  4  1  0  0  0
  4  5  1  0  0  0
  4  6  2  0  0  0
  6  7  1  0  0  0
  7  8  2  0  0  0
  8  9  1  0  0  0
  9 10  1  0  0  0
 10 13  1  0  0  0
 13 14  2  0  0  0
 13 15  1  0  0  0
 15 16  1  0  0  0
 16 17  1  0  0  0
 17 18  1  0  0  0
 18 19  1  0  0  0
 19 20  1  0  0  0
 18 21  1  0  0  0
 21 22  1  0  0  0
 21 23  2  0  0  0
 10  1  2  0  0  0
 20 15  1  0  0  0
 33 24  1  0  0  0
  9  3  1  0  0  0
 32 26  1  0  0  0
  5 11  1  0  0  0
  5 12  1  0  0  0
M  END
> <minimizedAffinity>
-7.72942

> <CNNscore>
0.5214439631

> <CNNaffinity>
7.2370882034

> <CNN_VS>
3.7737360001

> <CNNaffinity_variance>
0.2724444270

$$$$
[H]c1nc(N([H])[H])c2c(-c3sc4c(OC([H])([H])[H])c([H])c(C([H])([H])[H])c([H])c4c3[H])c(C([H])([H])OC([H])([H])C([H])([H])[H])c(C(=O)N3C([H])([H])C([H])([H])N(C(=O)C([H])([H])[H])C([H])([H])C3([H])[H])n2n1


 39 43  0  0  0  0  0  0  0  0999 V2000
   -1.9974   22.0562  -22.1028 C   0  0  0  0  0  0  0  0  0  0  0  0
   -1.5850   22.3021  -23.4293 C   0  0  0  0  0  0  0  0  0  0  0  0
   -0.2979   21.8707  -23.5065 C   0  0  0  0  0  0  0  0  0  0  0  0
    0.6781   21.8634  -24.4762 C   0  0  0  0  0  0  0  0  0  0  0  0
    0.4296   22.4003  -25.7603 N   0  0  0  0  0  0  0  0  0  0  0  0
    1.9384   21.3854  -24.2218 N   0  0  0  0  0  0  0  0  0  0  0  0
    2.2478   20.9181  -23.0267 C   0  0  0  0  0  0  0  0  0  0  0  0
    1.2990   20.9307  -22.0945 N   0  0  0  0  0  0  0  0  0  0  0  0
    0.0813   21.3746  -22.2863 N   0  0  0  0  0  0  0  0  0  0  0  0
   -0.9535   21.4792  -21.3929 C   0  0  0  0  0  0  0  0  0  0  0  0
    0.3477   21.7738  -26.5798 H   0  0  0  0  0  0  0  0  0  0  0  0
    0.3585   23.4419  -25.8260 H   0  0  0  0  0  0  0  0  0  0  0  0
   -0.8794   21.2873  -19.9632 C   0  0  0  0  0  0  0  0  0  0  0  0
   -2.0104   20.9087  -19.3854 O   0  0  0  0  0  0  0  0  0  0  0  0
    0.1452   21.4110  -19.0729 N   0  0  0  0  0  0  0  0  0  0  0  0
   -0.2268   21.2148  -17.6313 C   0  0  0  0  0  0  0  0  0  0  0  0
    0.9128   21.4540  -16.7194 C   0  0  0  0  0  0  0  0  0  0  0  0
    1.8266   22.4880  -17.1114 N   0  0  0  0  0  0  0  0  0  0  0  0
    2.0495   22.7973  -18.5043 C   0  0  0  0  0  0  0  0  0  0  0  0
    1.5384   21.5764  -19.2771 C   0  0  0  0  0  0  0  0  0  0  0  0
    2.5295   23.2229  -16.1323 C   0  0  0  0  0  0  0  0  0  0  0  0
    2.3065   22.9035  -14.7001 C   0  0  0  0  0  0  0  0  0  0  0  0
    3.3408   24.1440  -16.4704 O   0  0  0  0  0  0  0  0  0  0  0  0
   -2.4203   22.9383  -24.4622 C   0  0  0  0  0  0  0  0  0  0  0  0
   -2.7650   22.4428  -25.6934 C   0  0  0  0  0  0  0  0  0  0  0  0
   -3.6007   23.1779  -26.4608 C   0  0  0  0  0  0  0  0  0  0  0  0
   -4.0850   22.8685  -27.7468 C   0  0  0  0  0  0  0  0  0  0  0  0
   -4.9323   23.6759  -28.4484 C   0  0  0  0  0  0  0  0  0  0  0  0
   -5.4040   23.2633  -29.8322 C   0  0  0  0  0  0  0  0  0  0  0  0
   -5.3625   24.8660  -27.9096 C   0  0  0  0  0  0  0  0  0  0  0  0
   -4.9132   25.2074  -26.6545 C   0  0  0  0  0  0  0  0  0  0  0  0
   -4.0402   24.3622  -25.9469 C   0  0  0  0  0  0  0  0  0  0  0  0
   -3.2824   24.4113  -24.4298 S   0  0  0  0  0  0  0  0  0  0  0  0
   -5.2766   26.3791  -26.0075 O   0  0  0  0  0  0  0  0  0  0  0  0
   -6.2890   26.2833  -25.0249 C   0  0  0  0  0  0  0  0  0  0  0  0
   -3.3631   22.3583  -21.6796 C   0  0  0  0  0  0  0  0  0  0  0  0
   -4.3277   21.4041  -21.9078 O   0  0  0  0  0  0  0  0  0  0  0  0
   -5.8408   21.5246  -23.7696 C   0  0  0  0  0  0  0  0  0  0  0  0
   -5.5085   22.0124  -22.3925 C   0  0  0  0  0  0  0  0  0  0  0  0
 38 39  1  0  0  0
 39 37  1  0  0  0
 37 36  1  0  0  0
 36  1  1  0  0  0
  1  2  1  0  0  0
  2 24  1  0  0  0
 24 25  2  0  0  0
 25 26  1  0  0  0
 26 27  2  0  0  0
 27 28  1  0  0  0
 28 29  1  0  0  0
 28 30  2  0  0  0
 30 31  1  0  0  0
 31 34  1  0  0  0
 34 35  1  0  0  0
 31 32  2  0  0  0
 32 33  1  0  0  0
  2  3  2  0  0  0
  3  4  1  0  0  0
  4  5  1  0  0  0
  4  6  2  0  0  0
  6  7  1  0  0  0
  7  8  2  0  0  0
  8  9  1  0  0  0
  9 10  1  0  0  0
 10 13  1  0  0  0
 13 14  2  0  0  0
 13 15  1  0  0  0
 15 16  1  0  0  0
 16 17  1  0  0  0
 17 18  1  0  0  0
 18 19  1  0  0  0
 19 20  1  0  0  0
 18 21  1  0  0  0
 21 22  1  0  0  0
 21 23  2  0  0  0
 10  1  2  0  0  0
 20 15  1  0  0  0
 33 24  1  0  0  0
  9  3  1  0  0  0
 32 26  1  0  0  0
  5 11  1  0  0  0
  5 12  1  0  0  0
M  END
> <minimizedAffinity>
-8.69290

> <CNNscore>
0.3665491045

> <CNNaffinity>
7.1081037521

> <CNN_VS>
2.6054689884

> <CNNaffinity_variance>
0.2543542981

$$$$
[H]c1nc(N([H])[H])c2c(-c3sc4c(OC([H])([H])[H])c([H])c(C([H])([H])[H])c([H])c4c3[H])c(C([H])([H])OC([H])([H])C([H])([H])[H])c(C(=O)N3C([H])([H])C([H])([H])N(C(=O)C([H])([H])[H])C([H])([H])C3([H])[H])n2n1


 39 43  0  0  0  0  0  0  0  0999 V2000
   -2.0148   21.6268  -21.9273 C   0  0  0  0  0  0  0  0  0  0  0  0
   -1.5141   22.0693  -23.1697 C   0  0  0  0  0  0  0  0  0  0  0  0
   -0.1971   21.7315  -23.1835 C   0  0  0  0  0  0  0  0  0  0  0  0
    0.8530   21.9113  -24.0541 C   0  0  0  0  0  0  0  0  0  0  0  0
    0.6722   22.5956  -25.2780 N   0  0  0  0  0  0  0  0  0  0  0  0
    2.1196   21.4824  -23.7485 N   0  0  0  0  0  0  0  0  0  0  0  0
    2.3631   20.8823  -22.5982 C   0  0  0  0  0  0  0  0  0  0  0  0
    1.3428   20.7143  -21.7616 N   0  0  0  0  0  0  0  0  0  0  0  0
    0.1159   21.1040  -22.0057 N   0  0  0  0  0  0  0  0  0  0  0  0
   -0.9935   21.0268  -21.2036 C   0  0  0  0  0  0  0  0  0  0  0  0
    0.7033   22.0781  -26.1736 H   0  0  0  0  0  0  0  0  0  0  0  0
    0.5313   23.6305  -25.2189 H   0  0  0  0  0  0  0  0  0  0  0  0
   -1.0230   20.6541  -19.8084 C   0  0  0  0  0  0  0  0  0  0  0  0
   -0.6053   19.4245  -19.5440 O   0  0  0  0  0  0  0  0  0  0  0  0
   -1.3931   21.3321  -18.6855 N   0  0  0  0  0  0  0  0  0  0  0  0
   -1.3686   20.5339  -17.4137 C   0  0  0  0  0  0  0  0  0  0  0  0
   -1.8686   21.3064  -16.2558 C   0  0  0  0  0  0  0  0  0  0  0  0
   -2.9324   22.2298  -16.5270 N   0  0  0  0  0  0  0  0  0  0  0  0
   -3.0579   22.8643  -17.8181 C   0  0  0  0  0  0  0  0  0  0  0  0
   -1.6863   22.7043  -18.4830 C   0  0  0  0  0  0  0  0  0  0  0  0
   -3.8789   22.5364  -15.5255 C   0  0  0  0  0  0  0  0  0  0  0  0
   -3.7493   21.8900  -14.1958 C   0  0  0  0  0  0  0  0  0  0  0  0
   -4.8278   23.3529  -15.7576 O   0  0  0  0  0  0  0  0  0  0  0  0
   -2.3059   22.7828  -24.1861 C   0  0  0  0  0  0  0  0  0  0  0  0
   -2.7042   22.3304  -25.4178 C   0  0  0  0  0  0  0  0  0  0  0  0
   -3.4853   23.1399  -26.1677 C   0  0  0  0  0  0  0  0  0  0  0  0
   -4.0079   22.8849  -27.4506 C   0  0  0  0  0  0  0  0  0  0  0  0
   -4.7939   23.7666  -28.1341 C   0  0  0  0  0  0  0  0  0  0  0  0
   -5.3137   23.4090  -29.5159 C   0  0  0  0  0  0  0  0  0  0  0  0
   -5.1186   24.9823  -27.5785 C   0  0  0  0  0  0  0  0  0  0  0  0
   -4.6285   25.2722  -26.3258 C   0  0  0  0  0  0  0  0  0  0  0  0
   -3.8200   24.3507  -25.6371 C   0  0  0  0  0  0  0  0  0  0  0  0
   -3.0435   24.3212  -24.1289 S   0  0  0  0  0  0  0  0  0  0  0  0
   -4.8869   26.4629  -25.6631 O   0  0  0  0  0  0  0  0  0  0  0  0
   -6.0622   26.5199  -24.8789 C   0  0  0  0  0  0  0  0  0  0  0  0
   -3.4289   21.7864  -21.5950 C   0  0  0  0  0  0  0  0  0  0  0  0
   -4.3490   21.1593  -22.4031 O   0  0  0  0  0  0  0  0  0  0  0  0
   -6.1365   21.7847  -23.8810 C   0  0  0  0  0  0  0  0  0  0  0  0
   -5.5078   21.9591  -22.5323 C   0  0  0  0  0  0  0  0  0  0  0  0
 38 39  1  0  0  0
 39 37  1  0  0  0
 37 36  1  0  0  0
 36  1  1  0  0  0
  1  2  1  0  0  0
  2 24  1  0  0  0
 24 25  2  0  0  0
 25 26  1  0  0  0
 26 27  2  0  0  0
 27 28  1  0  0  0
 28 29  1  0  0  0
 28 30  2  0  0  0
 30 31  1  0  0  0
 31 34  1  0  0  0
 34 35  1  0  0  0
 31 32  2  0  0  0
 32 33  1  0  0  0
  2  3  2  0  0  0
  3  4  1  0  0  0
  4  5  1  0  0  0
  4  6  2  0  0  0
  6  7  1  0  0  0
  7  8  2  0  0  0
  8  9  1  0  0  0
  9 10  1  0  0  0
 10 13  1  0  0  0
 13 14  2  0  0  0
 13 15  1  0  0  0
 15 16  1  0  0  0
 16 17  1  0  0  0
 17 18  1  0  0  0
 18 19  1  0  0  0
 19 20  1  0  0  0
 18 21  1  0  0  0
 21 22  1  0  0  0
 21 23  2  0  0  0
 10  1  2  0  0  0
 20 15  1  0  0  0
 33 24  1  0  0  0
  9  3  1  0  0  0
 32 26  1  0  0  0
  5 11  1  0  0  0
  5 12  1  0  0  0
M  END
> <minimizedAffinity>
-8.13790

> <CNNscore>
0.2653479576

> <CNNaffinity>
6.9805717468

> <CNN_VS>
1.8522804976

> <CNNaffinity_variance>
0.1466423124

$$$$
[H]c1nc(N([H])[H])c2c(-c3sc4c(OC([H])([H])[H])c([H])c(C([H])([H])[H])c([H])c4c3[H])c(C([H])([H])OC([H])([H])C([H])([H])[H])c(C(=O)N3C([H])([H])C([H])([H])N(C(=O)C([H])([H])[H])C([H])([H])C3([H])[H])n2n1


 39 43  0  0  0  0  0  0  0  0999 V2000
   -1.1012   21.4872  -21.2420 C   0  0  0  0  0  0  0  0  0  0  0  0
   -0.9151   21.8509  -22.5922 C   0  0  0  0  0  0  0  0  0  0  0  0
    0.3573   21.4876  -22.9051 C   0  0  0  0  0  0  0  0  0  0  0  0
    1.1653   21.5989  -24.0131 C   0  0  0  0  0  0  0  0  0  0  0  0
    0.6961   22.2182  -25.1944 N   0  0  0  0  0  0  0  0  0  0  0  0
    2.4658   21.1631  -23.9992 N   0  0  0  0  0  0  0  0  0  0  0  0
    2.9783   20.6225  -22.9094 C   0  0  0  0  0  0  0  0  0  0  0  0
    2.1910   20.5205  -21.8422 N   0  0  0  0  0  0  0  0  0  0  0  0
    0.9437   20.9198  -21.8039 N   0  0  0  0  0  0  0  0  0  0  0  0
    0.0621   20.9083  -20.7538 C   0  0  0  0  0  0  0  0  0  0  0  0
    0.5059   21.6518  -26.0392 H   0  0  0  0  0  0  0  0  0  0  0  0
    0.5795   23.2573  -25.1630 H   0  0  0  0  0  0  0  0  0  0  0  0
    0.3705   20.6135  -19.3739 C   0  0  0  0  0  0  0  0  0  0  0  0
   -0.4954   19.8206  -18.7592 O   0  0  0  0  0  0  0  0  0  0  0  0
    1.4008   20.9880  -18.5640 N   0  0  0  0  0  0  0  0  0  0  0  0
    1.2939   20.5373  -17.1355 C   0  0  0  0  0  0  0  0  0  0  0  0
    2.3971   21.0567  -16.2984 C   0  0  0  0  0  0  0  0  0  0  0  0
    2.8692   22.3716  -16.6239 N   0  0  0  0  0  0  0  0  0  0  0  0
    2.8056   22.8730  -17.9766 C   0  0  0  0  0  0  0  0  0  0  0  0
    2.6280   21.6333  -18.8601 C   0  0  0  0  0  0  0  0  0  0  0  0
    3.4101   23.2009  -15.6177 C   0  0  0  0  0  0  0  0  0  0  0  0
    3.4818   22.6862  -14.2274 C   0  0  0  0  0  0  0  0  0  0  0  0
    3.8295   24.3703  -15.8964 O   0  0  0  0  0  0  0  0  0  0  0  0
   -1.9263   22.5227  -23.4262 C   0  0  0  0  0  0  0  0  0  0  0  0
   -2.5065   23.7490  -23.2271 C   0  0  0  0  0  0  0  0  0  0  0  0
   -3.3726   24.1994  -24.1624 C   0  0  0  0  0  0  0  0  0  0  0  0
   -4.0791   25.4179  -24.1661 C   0  0  0  0  0  0  0  0  0  0  0  0
   -4.9358   25.7904  -25.1608 C   0  0  0  0  0  0  0  0  0  0  0  0
   -5.6580   27.1245  -25.0823 C   0  0  0  0  0  0  0  0  0  0  0  0
   -5.1516   24.9621  -26.2375 C   0  0  0  0  0  0  0  0  0  0  0  0
   -4.4812   23.7610  -26.2737 C   0  0  0  0  0  0  0  0  0  0  0  0
   -3.6022   23.3946  -25.2391 C   0  0  0  0  0  0  0  0  0  0  0  0
   -2.6158   22.0527  -24.9154 S   0  0  0  0  0  0  0  0  0  0  0  0
   -4.6161   22.8437  -27.3053 O   0  0  0  0  0  0  0  0  0  0  0  0
   -5.0350   23.3444  -28.5597 C   0  0  0  0  0  0  0  0  0  0  0  0
   -2.3912   21.6921  -20.5868 C   0  0  0  0  0  0  0  0  0  0  0  0
   -2.5393   22.8155  -19.8064 O   0  0  0  0  0  0  0  0  0  0  0  0
   -2.5860   22.1609  -17.4956 C   0  0  0  0  0  0  0  0  0  0  0  0
   -3.3836   22.5363  -18.7071 C   0  0  0  0  0  0  0  0  0  0  0  0
 38 39  1  0  0  0
 39 37  1  0  0  0
 37 36  1  0  0  0
 36  1  1  0  0  0
  1  2  1  0  0  0
  2 24  1  0  0  0
 24 25  2  0  0  0
 25 26  1  0  0  0
 26 27  2  0  0  0
 27 28  1  0  0  0
 28 29  1  0  0  0
 28 30  2  0  0  0
 30 31  1  0  0  0
 31 34  1  0  0  0
 34 35  1  0  0  0
 31 32  2  0  0  0
 32 33  1  0  0  0
  2  3  2  0  0  0
  3  4  1  0  0  0
  4  5  1  0  0  0
  4  6  2  0  0  0
  6  7  1  0  0  0
  7  8  2  0  0  0
  8  9  1  0  0  0
  9 10  1  0  0  0
 10 13  1  0  0  0
 13 14  2  0  0  0
 13 15  1  0  0  0
 15 16  1  0  0  0
 16 17  1  0  0  0
 17 18  1  0  0  0
 18 19  1  0  0  0
 19 20  1  0  0  0
 18 21  1  0  0  0
 21 22  1  0  0  0
 21 23  2  0  0  0
 10  1  2  0  0  0
 20 15  1  0  0  0
 33 24  1  0  0  0
  9  3  1  0  0  0
 32 26  1  0  0  0
  5 11  1  0  0  0
  5 12  1  0  0  0
M  END
> <minimizedAffinity>
-7.84381

> <CNNscore>
0.2605597675

> <CNNaffinity>
6.6343216896

> <CNN_VS>
1.7286373377

> <CNNaffinity_variance>
0.1229355484

$$$$
[H]c1nc(N([H])[H])c2c(-c3sc4c(OC([H])([H])[H])c([H])c(C([H])([H])[H])c([H])c4c3[H])c(C([H])([H])OC([H])([H])C([H])([H])[H])c(C(=O)N3C([H])([H])C([H])([H])N(C(=O)C([H])([H])[H])C([H])([H])C3([H])[H])n2n1


 39 43  0  0  0  0  0  0  0  0999 V2000
   -1.5965   21.3179  -21.3773 C   0  0  0  0  0  0  0  0  0  0  0  0
   -1.2277   21.8169  -22.6441 C   0  0  0  0  0  0  0  0  0  0  0  0
    0.0907   21.5194  -22.7936 C   0  0  0  0  0  0  0  0  0  0  0  0
    1.0484   21.7598  -23.7517 C   0  0  0  0  0  0  0  0  0  0  0  0
    0.7343   22.4794  -24.9275 N   0  0  0  0  0  0  0  0  0  0  0  0
    2.3492   21.3589  -23.5820 N   0  0  0  0  0  0  0  0  0  0  0  0
    2.7164   20.7279  -22.4823 C   0  0  0  0  0  0  0  0  0  0  0  0
    1.7847   20.5013  -21.5604 N   0  0  0  0  0  0  0  0  0  0  0  0
    0.5303   20.8621  -21.6740 N   0  0  0  0  0  0  0  0  0  0  0  0
   -0.4956   20.7247  -20.7749 C   0  0  0  0  0  0  0  0  0  0  0  0
    0.6942   21.9936  -25.8403 H   0  0  0  0  0  0  0  0  0  0  0  0
    0.5722   23.5070  -24.8178 H   0  0  0  0  0  0  0  0  0  0  0  0
   -0.3829   20.3044  -19.3976 C   0  0  0  0  0  0  0  0  0  0  0  0
   -0.4596   21.2785  -18.5023 O   0  0  0  0  0  0  0  0  0  0  0  0
   -0.2198   19.0793  -18.8228 N   0  0  0  0  0  0  0  0  0  0  0  0
   -0.0440   19.0858  -17.3314 C   0  0  0  0  0  0  0  0  0  0  0  0
    0.2186   17.7344  -16.7908 C   0  0  0  0  0  0  0  0  0  0  0  0
    0.9998   16.8646  -17.6220 N   0  0  0  0  0  0  0  0  0  0  0  0
    0.9654   16.9793  -19.0611 C   0  0  0  0  0  0  0  0  0  0  0  0
   -0.3062   17.7758  -19.3736 C   0  0  0  0  0  0  0  0  0  0  0  0
    1.8189   15.8732  -17.0398 C   0  0  0  0  0  0  0  0  0  0  0  0
    1.8522   15.7493  -15.5612 C   0  0  0  0  0  0  0  0  0  0  0  0
    2.5176   15.0980  -17.7693 O   0  0  0  0  0  0  0  0  0  0  0  0
   -2.1309   22.5404  -23.5552 C   0  0  0  0  0  0  0  0  0  0  0  0
   -2.6090   23.8195  -23.4314 C   0  0  0  0  0  0  0  0  0  0  0  0
   -3.3824   24.3060  -24.4280 C   0  0  0  0  0  0  0  0  0  0  0  0
   -3.9764   25.5803  -24.5130 C   0  0  0  0  0  0  0  0  0  0  0  0
   -4.7443   25.9861  -25.5656 C   0  0  0  0  0  0  0  0  0  0  0  0
   -5.3479   27.3800  -25.5736 C   0  0  0  0  0  0  0  0  0  0  0  0
   -4.9775   25.1375  -26.6227 C   0  0  0  0  0  0  0  0  0  0  0  0
   -4.4157   23.8821  -26.5800 C   0  0  0  0  0  0  0  0  0  0  0  0
   -3.6272   23.4820  -25.4866 C   0  0  0  0  0  0  0  0  0  0  0  0
   -2.7821   22.0733  -25.0625 S   0  0  0  0  0  0  0  0  0  0  0  0
   -4.5786   22.9397  -27.5845 O   0  0  0  0  0  0  0  0  0  0  0  0
   -3.7847   23.0932  -28.7446 C   0  0  0  0  0  0  0  0  0  0  0  0
   -2.9765   21.4239  -20.9083 C   0  0  0  0  0  0  0  0  0  0  0  0
   -3.3100   22.5220  -20.1495 O   0  0  0  0  0  0  0  0  0  0  0  0
   -5.2579   22.0408  -21.4703 C   0  0  0  0  0  0  0  0  0  0  0  0
   -4.6311   22.9323  -20.4421 C   0  0  0  0  0  0  0  0  0  0  0  0
 38 39  1  0  0  0
 39 37  1  0  0  0
 37 36  1  0  0  0
 36  1  1  0  0  0
  1  2  1  0  0  0
  2 24  1  0  0  0
 24 25  2  0  0  0
 25 26  1  0  0  0
 26 27  2  0  0  0
 27 28  1  0  0  0
 28 29  1  0  0  0
 28 30  2  0  0  0
 30 31  1  0  0  0
 31 34  1  0  0  0
 34 35  1  0  0  0
 31 32  2  0  0  0
 32 33  1  0  0  0
  2  3  2  0  0  0
  3  4  1  0  0  0
  4  5  1  0  0  0
  4  6  2  0  0  0
  6  7  1  0  0  0
  7  8  2  0  0  0
  8  9  1  0  0  0
  9 10  1  0  0  0
 10 13  1  0  0  0
 13 14  2  0  0  0
 13 15  1  0  0  0
 15 16  1  0  0  0
 16 17  1  0  0  0
 17 18  1  0  0  0
 18 19  1  0  0  0
 19 20  1  0  0  0
 18 21  1  0  0  0
 21 22  1  0  0  0
 21 23  2  0  0  0
 10  1  2  0  0  0
 20 15  1  0  0  0
 33 24  1  0  0  0
  9  3  1  0  0  0
 32 26  1  0  0  0
  5 11  1  0  0  0
  5 12  1  0  0  0
M  END
> <minimizedAffinity>
-6.94279

> <CNNscore>
0.2508709729

> <CNNaffinity>
6.6615076065

> <CNN_VS>
1.6711789370

> <CNNaffinity_variance>
0.1033339649

$$$$
[H]c1nc(N([H])[H])c2c(-c3sc4c(OC([H])([H])[H])c([H])c(C([H])([H])[H])c([H])c4c3[H])c(C([H])([H])OC([H])([H])C([H])([H])[H])c(C(=O)N3C([H])([H])C([H])([H])N(C(=O)C([H])([H])[H])C([H])([H])C3([H])[H])n2n1


 39 43  0  0  0  0  0  0  0  0999 V2000
   -1.7741   21.5019  -21.7221 C   0  0  0  0  0  0  0  0  0  0  0  0
   -0.4090   21.4379  -22.0721 C   0  0  0  0  0  0  0  0  0  0  0  0
   -0.3505   21.7184  -23.4013 C   0  0  0  0  0  0  0  0  0  0  0  0
    0.6447   21.7735  -24.3497 C   0  0  0  0  0  0  0  0  0  0  0  0
    1.9886   21.4970  -24.0086 N   0  0  0  0  0  0  0  0  0  0  0  0
    0.3676   22.0463  -25.6652 N   0  0  0  0  0  0  0  0  0  0  0  0
   -0.8746   22.2626  -26.0560 C   0  0  0  0  0  0  0  0  0  0  0  0
   -1.8308   22.2054  -25.1331 N   0  0  0  0  0  0  0  0  0  0  0  0
   -1.6192   21.9501  -23.8655 N   0  0  0  0  0  0  0  0  0  0  0  0
   -2.5256   21.8200  -22.8449 C   0  0  0  0  0  0  0  0  0  0  0  0
    2.6882   22.2592  -23.9886 H   0  0  0  0  0  0  0  0  0  0  0  0
    2.2237   20.4980  -23.8060 H   0  0  0  0  0  0  0  0  0  0  0  0
   -3.9629   21.7552  -22.9728 C   0  0  0  0  0  0  0  0  0  0  0  0
   -4.4171   20.7787  -23.7452 O   0  0  0  0  0  0  0  0  0  0  0  0
   -4.9661   22.5075  -22.4389 N   0  0  0  0  0  0  0  0  0  0  0  0
   -6.3496   22.1657  -22.9125 C   0  0  0  0  0  0  0  0  0  0  0  0
   -7.3736   23.0803  -22.3627 C   0  0  0  0  0  0  0  0  0  0  0  0
   -6.9699   24.4457  -22.1882 N   0  0  0  0  0  0  0  0  0  0  0  0
   -5.5949   24.7866  -21.9078 C   0  0  0  0  0  0  0  0  0  0  0  0
   -4.9481   23.4875  -21.4146 C   0  0  0  0  0  0  0  0  0  0  0  0
   -7.9200   25.4851  -22.2865 C   0  0  0  0  0  0  0  0  0  0  0  0
   -9.3350   25.1374  -22.5692 C   0  0  0  0  0  0  0  0  0  0  0  0
   -7.5707   26.7001  -22.1354 O   0  0  0  0  0  0  0  0  0  0  0  0
    0.6793   21.0920  -21.1420 C   0  0  0  0  0  0  0  0  0  0  0  0
    1.2898   21.9003  -20.2178 C   0  0  0  0  0  0  0  0  0  0  0  0
    2.2320   21.3504  -19.4193 C   0  0  0  0  0  0  0  0  0  0  0  0
    2.9816   21.9844  -18.4093 C   0  0  0  0  0  0  0  0  0  0  0  0
    3.9155   21.3437  -17.6480 C   0  0  0  0  0  0  0  0  0  0  0  0
    4.6795   22.1072  -16.5799 C   0  0  0  0  0  0  0  0  0  0  0  0
    4.1717   20.0065  -17.8432 C   0  0  0  0  0  0  0  0  0  0  0  0
    3.4614   19.3481  -18.8206 C   0  0  0  0  0  0  0  0  0  0  0  0
    2.5028   20.0254  -19.5951 C   0  0  0  0  0  0  0  0  0  0  0  0
    1.4484   19.5957  -20.8528 S   0  0  0  0  0  0  0  0  0  0  0  0
    3.6306   18.0022  -19.1100 O   0  0  0  0  0  0  0  0  0  0  0  0
    2.9240   17.0783  -18.3058 C   0  0  0  0  0  0  0  0  0  0  0  0
   -2.1982   21.2984  -20.3386 C   0  0  0  0  0  0  0  0  0  0  0  0
   -2.2344   22.3990  -19.5137 O   0  0  0  0  0  0  0  0  0  0  0  0
   -2.9889   22.1152  -17.2508 C   0  0  0  0  0  0  0  0  0  0  0  0
   -1.8365   22.0395  -18.2054 C   0  0  0  0  0  0  0  0  0  0  0  0
 38 39  1  0  0  0
 39 37  1  0  0  0
 37 36  1  0  0  0
 36  1  1  0  0  0
  1  2  1  0  0  0
  2 24  1  0  0  0
 24 25  2  0  0  0
 25 26  1  0  0  0
 26 27  2  0  0  0
 27 28  1  0  0  0
 28 29  1  0  0  0
 28 30  2  0  0  0
 30 31  1  0  0  0
 31 34  1  0  0  0
 34 35  1  0  0  0
 31 32  2  0  0  0
 32 33  1  0  0  0
  2  3  2  0  0  0
  3  4  1  0  0  0
  4  5  1  0  0  0
  4  6  2  0  0  0
  6  7  1  0  0  0
  7  8  2  0  0  0
  8  9  1  0  0  0
  9 10  1  0  0  0
 10 13  1  0  0  0
 13 14  2  0  0  0
 13 15  1  0  0  0
 15 16  1  0  0  0
 16 17  1  0  0  0
 17 18  1  0  0  0
 18 19  1  0  0  0
 19 20  1  0  0  0
 18 21  1  0  0  0
 21 22  1  0  0  0
 21 23  2  0  0  0
 10  1  2  0  0  0
 20 15  1  0  0  0
 33 24  1  0  0  0
  9  3  1  0  0  0
 32 26  1  0  0  0
  5 11  1  0  0  0
  5 12  1  0  0  0
M  END
> <minimizedAffinity>
-6.97059

> <CNNscore>
0.2404162437

> <CNNaffinity>
6.5109267235

> <CNN_VS>
1.5653325319

> <CNNaffinity_variance>
0.0923088789

$$$$
[H]c1nc(N([H])[H])c2c(-c3sc4c(OC([H])([H])[H])c([H])c(C([H])([H])[H])c([H])c4c3[H])c(C([H])([H])OC([H])([H])C([H])([H])[H])c(C(=O)N3C([H])([H])C([H])([H])N(C(=O)C([H])([H])[H])C([H])([H])C3([H])[H])n2n1


 39 43  0  0  0  0  0  0  0  0999 V2000
   -0.3761   20.7751  -20.6449 C   0  0  0  0  0  0  0  0  0  0  0  0
   -0.0866   21.2331  -21.9473 C   0  0  0  0  0  0  0  0  0  0  0  0
    1.1986   20.8652  -22.1958 C   0  0  0  0  0  0  0  0  0  0  0  0
    2.0864   21.0395  -23.2323 C   0  0  0  0  0  0  0  0  0  0  0  0
    1.7146   21.7548  -24.3939 N   0  0  0  0  0  0  0  0  0  0  0  0
    3.3748   20.5745  -23.1592 N   0  0  0  0  0  0  0  0  0  0  0  0
    3.7977   19.9437  -22.0795 C   0  0  0  0  0  0  0  0  0  0  0  0
    2.9337   19.7811  -21.0814 N   0  0  0  0  0  0  0  0  0  0  0  0
    1.6940   20.2046  -21.1016 N   0  0  0  0  0  0  0  0  0  0  0  0
    0.7387   20.1357  -20.1205 C   0  0  0  0  0  0  0  0  0  0  0  0
    1.5762   21.2566  -25.2902 H   0  0  0  0  0  0  0  0  0  0  0  0
    1.6140   22.7911  -24.2929 H   0  0  0  0  0  0  0  0  0  0  0  0
    0.9414   19.7330  -18.7482 C   0  0  0  0  0  0  0  0  0  0  0  0
    0.3542   18.5968  -18.4010 O   0  0  0  0  0  0  0  0  0  0  0  0
    1.6386   20.2951  -17.7207 N   0  0  0  0  0  0  0  0  0  0  0  0
    1.5105   19.5968  -16.3974 C   0  0  0  0  0  0  0  0  0  0  0  0
    2.2175   20.3130  -15.3135 C   0  0  0  0  0  0  0  0  0  0  0  0
    2.2101   21.7451  -15.3958 N   0  0  0  0  0  0  0  0  0  0  0  0
    2.1523   22.4183  -16.6721 C   0  0  0  0  0  0  0  0  0  0  0  0
    2.5686   21.3650  -17.7048 C   0  0  0  0  0  0  0  0  0  0  0  0
    2.2625   22.5241  -14.2197 C   0  0  0  0  0  0  0  0  0  0  0  0
    2.3275   21.8351  -12.9068 C   0  0  0  0  0  0  0  0  0  0  0  0
    2.2541   23.7957  -14.2826 O   0  0  0  0  0  0  0  0  0  0  0  0
   -1.0231   21.9873  -22.7980 C   0  0  0  0  0  0  0  0  0  0  0  0
   -1.3993   21.7151  -24.0881 C   0  0  0  0  0  0  0  0  0  0  0  0
   -2.3286   22.5140  -24.6590 C   0  0  0  0  0  0  0  0  0  0  0  0
   -2.8604   22.4227  -25.9600 C   0  0  0  0  0  0  0  0  0  0  0  0
   -3.8029   23.2784  -26.4516 C   0  0  0  0  0  0  0  0  0  0  0  0
   -4.3203   23.1065  -27.8695 C   0  0  0  0  0  0  0  0  0  0  0  0
   -4.2883   24.3004  -25.6694 C   0  0  0  0  0  0  0  0  0  0  0  0
   -3.7952   24.4260  -24.3909 C   0  0  0  0  0  0  0  0  0  0  0  0
   -2.8241   23.5343  -23.9019 C   0  0  0  0  0  0  0  0  0  0  0  0
   -1.9877   23.3488  -22.4376 S   0  0  0  0  0  0  0  0  0  0  0  0
   -4.2066   25.4144  -23.5091 O   0  0  0  0  0  0  0  0  0  0  0  0
   -5.4100   25.1852  -22.8028 C   0  0  0  0  0  0  0  0  0  0  0  0
   -1.7064   20.9603  -20.0691 C   0  0  0  0  0  0  0  0  0  0  0  0
   -2.0030   22.1912  -19.5308 O   0  0  0  0  0  0  0  0  0  0  0  0
   -1.8937   21.5230  -17.2260 C   0  0  0  0  0  0  0  0  0  0  0  0
   -1.3065   22.3703  -18.3133 C   0  0  0  0  0  0  0  0  0  0  0  0
 38 39  1  0  0  0
 39 37  1  0  0  0
 37 36  1  0  0  0
 36  1  1  0  0  0
  1  2  1  0  0  0
  2 24  1  0  0  0
 24 25  2  0  0  0
 25 26  1  0  0  0
 26 27  2  0  0  0
 27 28  1  0  0  0
 28 29  1  0  0  0
 28 30  2  0  0  0
 30 31  1  0  0  0
 31 34  1  0  0  0
 34 35  1  0  0  0
 31 32  2  0  0  0
 32 33  1  0  0  0
  2  3  2  0  0  0
  3  4  1  0  0  0
  4  5  1  0  0  0
  4  6  2  0  0  0
  6  7  1  0  0  0
  7  8  2  0  0  0
  8  9  1  0  0  0
  9 10  1  0  0  0
 10 13  1  0  0  0
 13 14  2  0  0  0
 13 15  1  0  0  0
 15 16  1  0  0  0
 16 17  1  0  0  0
 17 18  1  0  0  0
 18 19  1  0  0  0
 19 20  1  0  0  0
 18 21  1  0  0  0
 21 22  1  0  0  0
 21 23  2  0  0  0
 10  1  2  0  0  0
 20 15  1  0  0  0
 33 24  1  0  0  0
  9  3  1  0  0  0
 32 26  1  0  0  0
  5 11  1  0  0  0
  5 12  1  0  0  0
M  END
> <minimizedAffinity>
-7.45579

> <CNNscore>
0.1428322196

> <CNNaffinity>
5.9566903114

> <CNN_VS>
0.8508073092

> <CNNaffinity_variance>
0.3414912820

$$$$
[H]c1nc(N([H])[H])c2c(-c3sc4c(OC([H])([H])[H])c([H])c(C([H])([H])[H])c([H])c4c3[H])c(C([H])([H])OC([H])([H])C([H])([H])[H])c(C(=O)N3C([H])([H])C([H])([H])N(C(=O)C([H])([H])[H])C([H])([H])C3([H])[H])n2n1


 39 43  0  0  0  0  0  0  0  0999 V2000
   -3.6136   23.9784  -23.5384 C   0  0  0  0  0  0  0  0  0  0  0  0
   -4.6946   24.5416  -24.2485 C   0  0  0  0  0  0  0  0  0  0  0  0
   -5.5445   25.0327  -23.3075 C   0  0  0  0  0  0  0  0  0  0  0  0
   -6.7755   25.6470  -23.3219 C   0  0  0  0  0  0  0  0  0  0  0  0
   -7.4467   25.8990  -24.5405 N   0  0  0  0  0  0  0  0  0  0  0  0
   -7.4195   25.9903  -22.1605 N   0  0  0  0  0  0  0  0  0  0  0  0
   -6.8675   25.7344  -20.9890 C   0  0  0  0  0  0  0  0  0  0  0  0
   -5.6783   25.1385  -20.9841 N   0  0  0  0  0  0  0  0  0  0  0  0
   -5.0217   24.7916  -22.0636 N   0  0  0  0  0  0  0  0  0  0  0  0
   -3.8232   24.1350  -22.1752 C   0  0  0  0  0  0  0  0  0  0  0  0
   -7.5435   26.8678  -24.8910 H   0  0  0  0  0  0  0  0  0  0  0  0
   -7.8448   25.0681  -25.0358 H   0  0  0  0  0  0  0  0  0  0  0  0
   -3.0843   23.5040  -21.1065 C   0  0  0  0  0  0  0  0  0  0  0  0
   -1.7911   23.7912  -21.0685 O   0  0  0  0  0  0  0  0  0  0  0  0
   -3.4615   22.6625  -20.1028 N   0  0  0  0  0  0  0  0  0  0  0  0
   -2.3446   22.1440  -19.2432 C   0  0  0  0  0  0  0  0  0  0  0  0
   -2.8168   21.1683  -18.2369 C   0  0  0  0  0  0  0  0  0  0  0  0
   -3.8913   20.3110  -18.6468 N   0  0  0  0  0  0  0  0  0  0  0  0
   -4.8685   20.7510  -19.6148 C   0  0  0  0  0  0  0  0  0  0  0  0
   -4.7476   22.2786  -19.6464 C   0  0  0  0  0  0  0  0  0  0  0  0
   -4.0116   19.0139  -18.1029 C   0  0  0  0  0  0  0  0  0  0  0  0
   -3.0120   18.5608  -17.1038 C   0  0  0  0  0  0  0  0  0  0  0  0
   -4.9606   18.2449  -18.4624 O   0  0  0  0  0  0  0  0  0  0  0  0
   -4.8307   24.5304  -25.7150 C   0  0  0  0  0  0  0  0  0  0  0  0
   -4.8067   23.4489  -26.5575 C   0  0  0  0  0  0  0  0  0  0  0  0
   -5.0157   23.6676  -27.8752 C   0  0  0  0  0  0  0  0  0  0  0  0
   -5.0356   22.7160  -28.9134 C   0  0  0  0  0  0  0  0  0  0  0  0
   -5.2581   23.0318  -30.2222 C   0  0  0  0  0  0  0  0  0  0  0  0
   -5.2607   21.9396  -31.2780 C   0  0  0  0  0  0  0  0  0  0  0  0
   -5.4793   24.3376  -30.5934 C   0  0  0  0  0  0  0  0  0  0  0  0
   -5.4681   25.3000  -29.6100 C   0  0  0  0  0  0  0  0  0  0  0  0
   -5.2371   24.9551  -28.2665 C   0  0  0  0  0  0  0  0  0  0  0  0
   -5.1470   25.8077  -26.8025 S   0  0  0  0  0  0  0  0  0  0  0  0
   -5.6784   26.6479  -29.8602 O   0  0  0  0  0  0  0  0  0  0  0  0
   -5.7443   27.0473  -31.2152 C   0  0  0  0  0  0  0  0  0  0  0  0
   -2.4778   23.3964  -24.2501 C   0  0  0  0  0  0  0  0  0  0  0  0
   -2.3347   22.0285  -24.2135 O   0  0  0  0  0  0  0  0  0  0  0  0
   -0.0670   22.0244  -25.0058 C   0  0  0  0  0  0  0  0  0  0  0  0
   -1.0024   21.6875  -23.8850 C   0  0  0  0  0  0  0  0  0  0  0  0
 38 39  1  0  0  0
 39 37  1  0  0  0
 37 36  1  0  0  0
 36  1  1  0  0  0
  1  2  1  0  0  0
  2 24  1  0  0  0
 24 25  2  0  0  0
 25 26  1  0  0  0
 26 27  2  0  0  0
 27 28  1  0  0  0
 28 29  1  0  0  0
 28 30  2  0  0  0
 30 31  1  0  0  0
 31 34  1  0  0  0
 34 35  1  0  0  0
 31 32  2  0  0  0
 32 33  1  0  0  0
  2  3  2  0  0  0
  3  4  1  0  0  0
  4  5  1  0  0  0
  4  6  2  0  0  0
  6  7  1  0  0  0
  7  8  2  0  0  0
  8  9  1  0  0  0
  9 10  1  0  0  0
 10 13  1  0  0  0
 13 14  2  0  0  0
 13 15  1  0  0  0
 15 16  1  0  0  0
 16 17  1  0  0  0
 17 18  1  0  0  0
 18 19  1  0  0  0
 19 20  1  0  0  0
 18 21  1  0  0  0
 21 22  1  0  0  0
 21 23  2  0  0  0
 10  1  2  0  0  0
 20 15  1  0  0  0
 33 24  1  0  0  0
  9  3  1  0  0  0
 32 26  1  0  0  0
  5 11  1  0  0  0
  5 12  1  0  0  0
M  END
> <minimizedAffinity>
-9.06495

> <CNNscore>
0.1226969659

> <CNNaffinity>
6.6744642258

> <CNN_VS>
0.8189365268

> <CNNaffinity_variance>
0.3605022430

$$$$
[H]c1nc(N([H])[H])c2c(-c3sc4c(OC([H])([H])[H])c([H])c(C([H])([H])[H])c([H])c4c3[H])c(C([H])([H])OC([H])([H])C([H])([H])[H])c(C(=O)N3C([H])([H])C([H])([H])N(C(=O)C([H])([H])[H])C([H])([H])C3([H])[H])n2n1


 39 43  0  0  0  0  0  0  0  0999 V2000
   -0.8641   21.3544  -20.4742 C   0  0  0  0  0  0  0  0  0  0  0  0
   -1.1684   21.7781  -21.7849 C   0  0  0  0  0  0  0  0  0  0  0  0
   -0.0505   21.5432  -22.5225 C   0  0  0  0  0  0  0  0  0  0  0  0
    0.3294   21.7645  -23.8263 C   0  0  0  0  0  0  0  0  0  0  0  0
   -0.5532   22.3770  -24.7455 N   0  0  0  0  0  0  0  0  0  0  0  0
    1.5885   21.4492  -24.2699 N   0  0  0  0  0  0  0  0  0  0  0  0
    2.4752   20.9222  -23.4462 C   0  0  0  0  0  0  0  0  0  0  0  0
    2.1004   20.7134  -22.1871 N   0  0  0  0  0  0  0  0  0  0  0  0
    0.9115   20.9954  -21.7142 N   0  0  0  0  0  0  0  0  0  0  0  0
    0.4356   20.8686  -20.4346 C   0  0  0  0  0  0  0  0  0  0  0  0
   -0.9719   21.8237  -25.5132 H   0  0  0  0  0  0  0  0  0  0  0  0
   -0.7304   23.3994  -24.6134 H   0  0  0  0  0  0  0  0  0  0  0  0
    1.2092   20.5578  -19.2551 C   0  0  0  0  0  0  0  0  0  0  0  0
    0.7822   19.5139  -18.5592 O   0  0  0  0  0  0  0  0  0  0  0  0
    2.3194   21.1299  -18.7092 N   0  0  0  0  0  0  0  0  0  0  0  0
    2.7607   20.5536  -17.3945 C   0  0  0  0  0  0  0  0  0  0  0  0
    3.9125   21.2821  -16.8201 C   0  0  0  0  0  0  0  0  0  0  0  0
    3.9417   22.6974  -17.0523 N   0  0  0  0  0  0  0  0  0  0  0  0
    3.3541   23.2702  -18.2405 C   0  0  0  0  0  0  0  0  0  0  0  0
    3.2114   22.1038  -19.2245 C   0  0  0  0  0  0  0  0  0  0  0  0
    4.5532   23.5580  -16.1152 C   0  0  0  0  0  0  0  0  0  0  0  0
    5.1628   22.9716  -14.8957 C   0  0  0  0  0  0  0  0  0  0  0  0
    4.5820   24.8157  -16.3115 O   0  0  0  0  0  0  0  0  0  0  0  0
   -2.4478   22.3817  -22.1947 C   0  0  0  0  0  0  0  0  0  0  0  0
   -2.6604   23.6199  -22.7440 C   0  0  0  0  0  0  0  0  0  0  0  0
   -3.9222   23.9450  -23.1042 C   0  0  0  0  0  0  0  0  0  0  0  0
   -4.3696   25.1492  -23.6818 C   0  0  0  0  0  0  0  0  0  0  0  0
   -5.6709   25.3881  -24.0159 C   0  0  0  0  0  0  0  0  0  0  0  0
   -6.0653   26.7183  -24.6344 C   0  0  0  0  0  0  0  0  0  0  0  0
   -6.6319   24.4293  -23.7940 C   0  0  0  0  0  0  0  0  0  0  0  0
   -6.2378   23.2373  -23.2308 C   0  0  0  0  0  0  0  0  0  0  0  0
   -4.8919   23.0095  -22.8934 C   0  0  0  0  0  0  0  0  0  0  0  0
   -4.0230   21.7238  -22.2077 S   0  0  0  0  0  0  0  0  0  0  0  0
   -7.1132   22.1961  -22.9599 O   0  0  0  0  0  0  0  0  0  0  0  0
   -7.7530   22.2061  -21.6988 C   0  0  0  0  0  0  0  0  0  0  0  0
   -1.8721   21.4187  -19.4182 C   0  0  0  0  0  0  0  0  0  0  0  0
   -2.2402   22.6635  -18.9623 O   0  0  0  0  0  0  0  0  0  0  0  0
   -3.6446   22.9219  -17.0307 C   0  0  0  0  0  0  0  0  0  0  0  0
   -3.5761   22.6368  -18.4999 C   0  0  0  0  0  0  0  0  0  0  0  0
 38 39  1  0  0  0
 39 37  1  0  0  0
 37 36  1  0  0  0
 36  1  1  0  0  0
  1  2  1  0  0  0
  2 24  1  0  0  0
 24 25  2  0  0  0
 25 26  1  0  0  0
 26 27  2  0  0  0
 27 28  1  0  0  0
 28 29  1  0  0  0
 28 30  2  0  0  0
 30 31  1  0  0  0
 31 34  1  0  0  0
 34 35  1  0  0  0
 31 32  2  0  0  0
 32 33  1  0  0  0
  2  3  2  0  0  0
  3  4  1  0  0  0
  4  5  1  0  0  0
  4  6  2  0  0  0
  6  7  1  0  0  0
  7  8  2  0  0  0
  8  9  1  0  0  0
  9 10  1  0  0  0
 10 13  1  0  0  0
 13 14  2  0  0  0
 13 15  1  0  0  0
 15 16  1  0  0  0
 16 17  1  0  0  0
 17 18  1  0  0  0
 18 19  1  0  0  0
 19 20  1  0  0  0
 18 21  1  0  0  0
 21 22  1  0  0  0
 21 23  2  0  0  0
 10  1  2  0  0  0
 20 15  1  0  0  0
 33 24  1  0  0  0
  9  3  1  0  0  0
 32 26  1  0  0  0
  5 11  1  0  0  0
  5 12  1  0  0  0
M  END
> <minimizedAffinity>
-7.38339

> <CNNscore>
0.0724012107

> <CNNaffinity>
6.1027770042

> <CNN_VS>
0.4418484569

> <CNNaffinity_variance>
0.1420231760

$$$$
[H]c1nc(N([H])[H])c2c(-c3sc4c(OC([H])([H])[H])c([H])c(C([H])([H])[H])c([H])c4c3[H])c(C([H])([H])N([H])C(=O)C([H])([H])[H])c([H])n2n1


 30 33  0  0  0  0  0  0  0  0999 V2000
   -2.2071   22.6225  -25.3732 C   0  0  0  0  0  0  0  0  0  0  0  0
   -3.5302   22.5490  -25.8732 C   0  0  0  0  0  0  0  0  0  0  0  0
   -3.4173   22.7592  -27.2162 C   0  0  0  0  0  0  0  0  0  0  0  0
   -2.1201   22.9455  -27.5225 N   0  0  0  0  0  0  0  0  0  0  0  0
   -1.5848   23.1551  -28.7037 N   0  0  0  0  0  0  0  0  0  0  0  0
   -0.2501   23.2929  -28.8465 C   0  0  0  0  0  0  0  0  0  0  0  0
    0.5559   23.2146  -27.7663 N   0  0  0  0  0  0  0  0  0  0  0  0
    0.0316   22.9994  -26.5341 C   0  0  0  0  0  0  0  0  0  0  0  0
    0.8930   22.8458  -25.4384 N   0  0  0  0  0  0  0  0  0  0  0  0
   -1.3333   22.8677  -26.4187 C   0  0  0  0  0  0  0  0  0  0  0  0
    1.0729   21.8910  -25.0555 H   0  0  0  0  0  0  0  0  0  0  0  0
    1.3831   23.6427  -24.9627 H   0  0  0  0  0  0  0  0  0  0  0  0
   -0.4635   20.7373  -20.6030 C   0  0  0  0  0  0  0  0  0  0  0  0
   -0.8129   21.1209  -19.3293 C   0  0  0  0  0  0  0  0  0  0  0  0
   -1.7140   22.1514  -19.1963 C   0  0  0  0  0  0  0  0  0  0  0  0
   -2.1371   22.6185  -17.8211 C   0  0  0  0  0  0  0  0  0  0  0  0
   -2.2350   22.7627  -20.3005 C   0  0  0  0  0  0  0  0  0  0  0  0
   -1.9047   22.4017  -21.6276 C   0  0  0  0  0  0  0  0  0  0  0  0
   -2.3538   22.9313  -22.8050 C   0  0  0  0  0  0  0  0  0  0  0  0
   -1.8826   22.4111  -23.9633 C   0  0  0  0  0  0  0  0  0  0  0  0
   -0.8255   21.1899  -23.4098 S   0  0  0  0  0  0  0  0  0  0  0  0
   -1.0089   21.3768  -21.7279 C   0  0  0  0  0  0  0  0  0  0  0  0
    0.1976   18.4192  -20.3857 C   0  0  0  0  0  0  0  0  0  0  0  0
    0.4286   19.7191  -20.8732 O   0  0  0  0  0  0  0  0  0  0  0  0
   -4.7171   22.2840  -25.0389 C   0  0  0  0  0  0  0  0  0  0  0  0
   -5.3569   23.5526  -24.6570 N   0  0  0  0  0  0  0  0  0  0  0  0
   -6.4699   24.0115  -25.3845 C   0  0  0  0  0  0  0  0  0  0  0  0
   -7.1271   25.2766  -25.0226 C   0  0  0  0  0  0  0  0  0  0  0  0
   -6.8996   23.3420  -26.3395 O   0  0  0  0  0  0  0  0  0  0  0  0
   -5.0096   24.1154  -23.8675 H   0  0  0  0  0  0  0  0  0  0  0  0
 23 24  1  0  0  0
 24 13  1  0  0  0
 13 14  2  0  0  0
 14 15  1  0  0  0
 15 16  1  0  0  0
 15 17  2  0  0  0
 17 18  1  0  0  0
 18 19  1  0  0  0
 19 20  2  0  0  0
 20 21  1  0  0  0
 21 22  1  0  0  0
 20  1  1  0  0  0
  1  2  1  0  0  0
  2 25  1  0  0  0
 25 26  1  0  0  0
 26 27  1  0  0  0
 27 28  1  0  0  0
 27 29  2  0  0  0
  2  3  2  0  0  0
  3  4  1  0  0  0
  4  5  1  0  0  0
  5  6  2  0  0  0
  6  7  1  0  0  0
  7  8  2  0  0  0
  8  9  1  0  0  0
  8 10  1  0  0  0
 22 13  1  0  0  0
 10  1  2  0  0  0
 22 18  2  0  0  0
 10  4  1  0  0  0
 26 30  1  0  0  0
  9 11  1  0  0  0
  9 12  1  0  0  0
M  END
> <minimizedAffinity>
-7.20586

> <CNNscore>
0.9197399616

> <CNNaffinity>
7.0408048630

> <CNN_VS>
6.4757094383

> <CNNaffinity_variance>
0.0561882146

$$$$
[H]c1nc(N([H])[H])c2c(-c3sc4c(OC([H])([H])[H])c([H])c(C([H])([H])[H])c([H])c4c3[H])c(C([H])([H])N([H])C(=O)C([H])([H])[H])c([H])n2n1


 30 33  0  0  0  0  0  0  0  0999 V2000
   -2.1306   22.5028  -25.3590 C   0  0  0  0  0  0  0  0  0  0  0  0
   -3.4859   22.5890  -25.7607 C   0  0  0  0  0  0  0  0  0  0  0  0
   -3.4466   22.9066  -27.0866 C   0  0  0  0  0  0  0  0  0  0  0  0
   -2.1617   23.0060  -27.4749 N   0  0  0  0  0  0  0  0  0  0  0  0
   -1.6918   23.2721  -28.6724 N   0  0  0  0  0  0  0  0  0  0  0  0
   -0.3630   23.3056  -28.9050 C   0  0  0  0  0  0  0  0  0  0  0  0
    0.5046   23.0623  -27.8996 N   0  0  0  0  0  0  0  0  0  0  0  0
    0.0484   22.7852  -26.6528 C   0  0  0  0  0  0  0  0  0  0  0  0
    0.9650   22.4611  -25.6424 N   0  0  0  0  0  0  0  0  0  0  0  0
   -1.3117   22.7628  -26.4446 C   0  0  0  0  0  0  0  0  0  0  0  0
    1.0813   21.4641  -25.3539 H   0  0  0  0  0  0  0  0  0  0  0  0
    1.5587   23.1672  -25.1418 H   0  0  0  0  0  0  0  0  0  0  0  0
   -0.5492   22.4554  -20.1776 C   0  0  0  0  0  0  0  0  0  0  0  0
   -0.0666   21.4147  -19.4190 C   0  0  0  0  0  0  0  0  0  0  0  0
    0.0185   20.1767  -20.0120 C   0  0  0  0  0  0  0  0  0  0  0  0
    0.5411   18.9928  -19.2286 C   0  0  0  0  0  0  0  0  0  0  0  0
   -0.3668   20.0027  -21.3103 C   0  0  0  0  0  0  0  0  0  0  0  0
   -0.8683   21.0429  -22.1270 C   0  0  0  0  0  0  0  0  0  0  0  0
   -1.2834   20.9967  -23.4286 C   0  0  0  0  0  0  0  0  0  0  0  0
   -1.7310   22.1401  -24.0000 C   0  0  0  0  0  0  0  0  0  0  0  0
   -1.5679   23.2693  -22.7298 S   0  0  0  0  0  0  0  0  0  0  0  0
   -0.9412   22.2591  -21.5116 C   0  0  0  0  0  0  0  0  0  0  0  0
    0.2115   24.2492  -18.7417 C   0  0  0  0  0  0  0  0  0  0  0  0
   -0.6845   23.7445  -19.7026 O   0  0  0  0  0  0  0  0  0  0  0  0
   -4.6322   22.3551  -24.8626 C   0  0  0  0  0  0  0  0  0  0  0  0
   -5.2346   23.6391  -24.4713 N   0  0  0  0  0  0  0  0  0  0  0  0
   -6.4004   24.0821  -25.1220 C   0  0  0  0  0  0  0  0  0  0  0  0
   -7.0218   25.3620  -24.7490 C   0  0  0  0  0  0  0  0  0  0  0  0
   -6.9076   23.3858  -26.0180 O   0  0  0  0  0  0  0  0  0  0  0  0
   -4.8233   24.2241  -23.7302 H   0  0  0  0  0  0  0  0  0  0  0  0
 23 24  1  0  0  0
 24 13  1  0  0  0
 13 14  2  0  0  0
 14 15  1  0  0  0
 15 16  1  0  0  0
 15 17  2  0  0  0
 17 18  1  0  0  0
 18 19  1  0  0  0
 19 20  2  0  0  0
 20 21  1  0  0  0
 21 22  1  0  0  0
 20  1  1  0  0  0
  1  2  1  0  0  0
  2 25  1  0  0  0
 25 26  1  0  0  0
 26 27  1  0  0  0
 27 28  1  0  0  0
 27 29  2  0  0  0
  2  3  2  0  0  0
  3  4  1  0  0  0
  4  5  1  0  0  0
  5  6  2  0  0  0
  6  7  1  0  0  0
  7  8  2  0  0  0
  8  9  1  0  0  0
  8 10  1  0  0  0
 22 13  1  0  0  0
 10  1  2  0  0  0
 22 18  2  0  0  0
 10  4  1  0  0  0
 26 30  1  0  0  0
  9 11  1  0  0  0
  9 12  1  0  0  0
M  END
> <minimizedAffinity>
-7.47620

> <CNNscore>
0.8718438745

> <CNNaffinity>
6.9966635704

> <CNN_VS>
6.0999984741

> <CNNaffinity_variance>
0.0679215565

$$$$
[H]c1nc(N([H])[H])c2c(-c3sc4c(OC([H])([H])[H])c([H])c(C([H])([H])[H])c([H])c4c3[H])c(C([H])([H])N([H])C(=O)C([H])([H])[H])c([H])n2n1


 30 33  0  0  0  0  0  0  0  0999 V2000
   -1.7975   22.4302  -24.9136 C   0  0  0  0  0  0  0  0  0  0  0  0
   -0.6687   22.0754  -24.1353 C   0  0  0  0  0  0  0  0  0  0  0  0
    0.3755   22.0453  -25.0123 C   0  0  0  0  0  0  0  0  0  0  0  0
   -0.0753   22.3613  -26.2405 N   0  0  0  0  0  0  0  0  0  0  0  0
    0.6096   22.4667  -27.3565 N   0  0  0  0  0  0  0  0  0  0  0  0
    0.0073   22.8258  -28.5094 C   0  0  0  0  0  0  0  0  0  0  0  0
   -1.3178   23.0842  -28.5266 N   0  0  0  0  0  0  0  0  0  0  0  0
   -2.0505   22.9831  -27.3898 C   0  0  0  0  0  0  0  0  0  0  0  0
   -3.4090   23.3296  -27.4154 N   0  0  0  0  0  0  0  0  0  0  0  0
   -1.4099   22.6101  -26.2305 C   0  0  0  0  0  0  0  0  0  0  0  0
   -3.7137   24.2458  -27.0175 H   0  0  0  0  0  0  0  0  0  0  0  0
   -4.1619   22.7180  -27.8163 H   0  0  0  0  0  0  0  0  0  0  0  0
   -6.4044   24.3648  -22.8201 C   0  0  0  0  0  0  0  0  0  0  0  0
   -7.4026   23.7054  -22.1416 C   0  0  0  0  0  0  0  0  0  0  0  0
   -7.2696   22.3474  -21.9694 C   0  0  0  0  0  0  0  0  0  0  0  0
   -8.3348   21.5667  -21.2317 C   0  0  0  0  0  0  0  0  0  0  0  0
   -6.1781   21.6905  -22.4609 C   0  0  0  0  0  0  0  0  0  0  0  0
   -5.1288   22.3272  -23.1638 C   0  0  0  0  0  0  0  0  0  0  0  0
   -3.9941   21.7858  -23.7003 C   0  0  0  0  0  0  0  0  0  0  0  0
   -3.1292   22.6105  -24.3375 C   0  0  0  0  0  0  0  0  0  0  0  0
   -3.8942   24.1291  -24.1829 S   0  0  0  0  0  0  0  0  0  0  0  0
   -5.2884   23.6739  -23.3191 C   0  0  0  0  0  0  0  0  0  0  0  0
   -6.8363   26.2254  -24.3065 C   0  0  0  0  0  0  0  0  0  0  0  0
   -6.4171   25.7241  -23.0600 O   0  0  0  0  0  0  0  0  0  0  0  0
   -0.7107   21.8225  -22.6829 C   0  0  0  0  0  0  0  0  0  0  0  0
    0.4914   21.0838  -22.2660 N   0  0  0  0  0  0  0  0  0  0  0  0
    0.8788   21.1012  -20.9139 C   0  0  0  0  0  0  0  0  0  0  0  0
    2.0765   20.3707  -20.4720 C   0  0  0  0  0  0  0  0  0  0  0  0
    0.2029   21.7386  -20.0882 O   0  0  0  0  0  0  0  0  0  0  0  0
    1.0587   20.5521  -22.9414 H   0  0  0  0  0  0  0  0  0  0  0  0
 23 24  1  0  0  0
 24 13  1  0  0  0
 13 14  2  0  0  0
 14 15  1  0  0  0
 15 16  1  0  0  0
 15 17  2  0  0  0
 17 18  1  0  0  0
 18 19  1  0  0  0
 19 20  2  0  0  0
 20 21  1  0  0  0
 21 22  1  0  0  0
 20  1  1  0  0  0
  1  2  1  0  0  0
  2 25  1  0  0  0
 25 26  1  0  0  0
 26 27  1  0  0  0
 27 28  1  0  0  0
 27 29  2  0  0  0
  2  3  2  0  0  0
  3  4  1  0  0  0
  4  5  1  0  0  0
  5  6  2  0  0  0
  6  7  1  0  0  0
  7  8  2  0  0  0
  8  9  1  0  0  0
  8 10  1  0  0  0
 22 13  1  0  0  0
 10  1  2  0  0  0
 22 18  2  0  0  0
 10  4  1  0  0  0
 26 30  1  0  0  0
  9 11  1  0  0  0
  9 12  1  0  0  0
M  END
> <minimizedAffinity>
-7.75244

> <CNNscore>
0.5805748105

> <CNNaffinity>
6.8907957077

> <CNN_VS>
4.0006222725

> <CNNaffinity_variance>
0.1984588653

$$$$
[H]c1nc(N([H])[H])c2c(-c3sc4c(OC([H])([H])[H])c([H])c(C([H])([H])[H])c([H])c4c3[H])c(C([H])([H])N([H])C(=O)C([H])([H])[H])c([H])n2n1


 30 33  0  0  0  0  0  0  0  0999 V2000
   -1.9266   22.5192  -24.1186 C   0  0  0  0  0  0  0  0  0  0  0  0
   -0.8191   22.0322  -23.3824 C   0  0  0  0  0  0  0  0  0  0  0  0
    0.1595   21.8180  -24.3081 C   0  0  0  0  0  0  0  0  0  0  0  0
   -0.3087   22.1512  -25.5251 N   0  0  0  0  0  0  0  0  0  0  0  0
    0.3211   22.1147  -26.6774 N   0  0  0  0  0  0  0  0  0  0  0  0
   -0.2866   22.5155  -27.8136 C   0  0  0  0  0  0  0  0  0  0  0  0
   -1.5596   22.9636  -27.7764 N   0  0  0  0  0  0  0  0  0  0  0  0
   -2.2349   23.0121  -26.6012 C   0  0  0  0  0  0  0  0  0  0  0  0
   -3.5287   23.5520  -26.5745 N   0  0  0  0  0  0  0  0  0  0  0  0
   -1.5911   22.5923  -25.4598 C   0  0  0  0  0  0  0  0  0  0  0  0
   -3.6759   24.5168  -26.2029 H   0  0  0  0  0  0  0  0  0  0  0  0
   -4.3829   23.0425  -26.9101 H   0  0  0  0  0  0  0  0  0  0  0  0
   -6.8823   22.7134  -21.9383 C   0  0  0  0  0  0  0  0  0  0  0  0
   -7.6741   23.8028  -21.6597 C   0  0  0  0  0  0  0  0  0  0  0  0
   -7.1636   25.0507  -21.9311 C   0  0  0  0  0  0  0  0  0  0  0  0
   -7.9869   26.2874  -21.6460 C   0  0  0  0  0  0  0  0  0  0  0  0
   -5.9118   25.1871  -22.4591 C   0  0  0  0  0  0  0  0  0  0  0  0
   -5.0636   24.0963  -22.7612 C   0  0  0  0  0  0  0  0  0  0  0  0
   -3.8019   24.1018  -23.2873 C   0  0  0  0  0  0  0  0  0  0  0  0
   -3.1845   22.9128  -23.4855 C   0  0  0  0  0  0  0  0  0  0  0  0
   -4.3599   21.7984  -22.9454 S   0  0  0  0  0  0  0  0  0  0  0  0
   -5.5970   22.8714  -22.4813 C   0  0  0  0  0  0  0  0  0  0  0  0
   -7.9462   21.0608  -20.5260 C   0  0  0  0  0  0  0  0  0  0  0  0
   -7.2754   21.4094  -21.7131 O   0  0  0  0  0  0  0  0  0  0  0  0
   -0.8162   21.8414  -21.9200 C   0  0  0  0  0  0  0  0  0  0  0  0
   -0.8330   20.4055  -21.6000 N   0  0  0  0  0  0  0  0  0  0  0  0
    0.3384   19.7902  -21.1228 C   0  0  0  0  0  0  0  0  0  0  0  0
    0.3473   18.3562  -20.7958 C   0  0  0  0  0  0  0  0  0  0  0  0
    1.3722   20.4646  -20.9769 O   0  0  0  0  0  0  0  0  0  0  0  0
   -1.6839   19.8370  -21.7167 H   0  0  0  0  0  0  0  0  0  0  0  0
 23 24  1  0  0  0
 24 13  1  0  0  0
 13 14  2  0  0  0
 14 15  1  0  0  0
 15 16  1  0  0  0
 15 17  2  0  0  0
 17 18  1  0  0  0
 18 19  1  0  0  0
 19 20  2  0  0  0
 20 21  1  0  0  0
 21 22  1  0  0  0
 20  1  1  0  0  0
  1  2  1  0  0  0
  2 25  1  0  0  0
 25 26  1  0  0  0
 26 27  1  0  0  0
 27 28  1  0  0  0
 27 29  2  0  0  0
  2  3  2  0  0  0
  3  4  1  0  0  0
  4  5  1  0  0  0
  5  6  2  0  0  0
  6  7  1  0  0  0
  7  8  2  0  0  0
  8  9  1  0  0  0
  8 10  1  0  0  0
 22 13  1  0  0  0
 10  1  2  0  0  0
 22 18  2  0  0  0
 10  4  1  0  0  0
 26 30  1  0  0  0
  9 11  1  0  0  0
  9 12  1  0  0  0
M  END
> <minimizedAffinity>
-7.32849

> <CNNscore>
0.5094866157

> <CNNaffinity>
6.6334838867

> <CNN_VS>
3.3796713352

> <CNNaffinity_variance>
0.2726038098

$$$$
[H]c1nc(N([H])[H])c2c(-c3sc4c(OC([H])([H])[H])c([H])c(C([H])([H])[H])c([H])c4c3[H])c(C([H])([H])N([H])C(=O)C([H])([H])[H])c([H])n2n1


 30 33  0  0  0  0  0  0  0  0999 V2000
   -3.0859   23.1124  -25.9273 C   0  0  0  0  0  0  0  0  0  0  0  0
   -3.5910   23.6931  -27.1161 C   0  0  0  0  0  0  0  0  0  0  0  0
   -2.5786   23.5877  -28.0240 C   0  0  0  0  0  0  0  0  0  0  0  0
   -1.5275   22.9837  -27.4392 N   0  0  0  0  0  0  0  0  0  0  0  0
   -0.3674   22.6735  -27.9718 N   0  0  0  0  0  0  0  0  0  0  0  0
    0.5787   22.0355  -27.2516 C   0  0  0  0  0  0  0  0  0  0  0  0
    0.3392   21.7056  -25.9645 N   0  0  0  0  0  0  0  0  0  0  0  0
   -0.8491   22.0136  -25.3879 C   0  0  0  0  0  0  0  0  0  0  0  0
   -1.1043   21.5941  -24.0745 N   0  0  0  0  0  0  0  0  0  0  0  0
   -1.7928   22.6685  -26.1455 C   0  0  0  0  0  0  0  0  0  0  0  0
   -1.7274   20.7725  -23.9088 H   0  0  0  0  0  0  0  0  0  0  0  0
   -0.7034   22.0588  -23.2230 H   0  0  0  0  0  0  0  0  0  0  0  0
   -4.8913   22.8835  -20.8245 C   0  0  0  0  0  0  0  0  0  0  0  0
   -6.0761   22.3838  -20.3366 C   0  0  0  0  0  0  0  0  0  0  0  0
   -6.9808   21.8832  -21.2434 C   0  0  0  0  0  0  0  0  0  0  0  0
   -8.3017   21.3199  -20.7676 C   0  0  0  0  0  0  0  0  0  0  0  0
   -6.6980   21.8889  -22.5792 C   0  0  0  0  0  0  0  0  0  0  0  0
   -5.4940   22.3921  -23.1251 C   0  0  0  0  0  0  0  0  0  0  0  0
   -5.0960   22.4535  -24.4313 C   0  0  0  0  0  0  0  0  0  0  0  0
   -3.8832   22.9890  -24.7078 C   0  0  0  0  0  0  0  0  0  0  0  0
   -3.3038   23.3979  -23.1546 S   0  0  0  0  0  0  0  0  0  0  0  0
   -4.6163   22.8819  -22.2016 C   0  0  0  0  0  0  0  0  0  0  0  0
   -2.9420   22.5760  -19.4233 C   0  0  0  0  0  0  0  0  0  0  0  0
   -3.9012   23.4139  -20.0220 O   0  0  0  0  0  0  0  0  0  0  0  0
   -4.9470   24.2574  -27.2508 C   0  0  0  0  0  0  0  0  0  0  0  0
   -5.0447   25.5172  -26.4971 N   0  0  0  0  0  0  0  0  0  0  0  0
   -6.1568   25.7401  -25.6652 C   0  0  0  0  0  0  0  0  0  0  0  0
   -6.2776   26.9912  -24.9014 C   0  0  0  0  0  0  0  0  0  0  0  0
   -7.0424   24.8726  -25.5760 O   0  0  0  0  0  0  0  0  0  0  0  0
   -4.3167   26.2427  -26.5631 H   0  0  0  0  0  0  0  0  0  0  0  0
 23 24  1  0  0  0
 24 13  1  0  0  0
 13 14  2  0  0  0
 14 15  1  0  0  0
 15 16  1  0  0  0
 15 17  2  0  0  0
 17 18  1  0  0  0
 18 19  1  0  0  0
 19 20  2  0  0  0
 20 21  1  0  0  0
 21 22  1  0  0  0
 20  1  1  0  0  0
  1  2  1  0  0  0
  2 25  1  0  0  0
 25 26  1  0  0  0
 26 27  1  0  0  0
 27 28  1  0  0  0
 27 29  2  0  0  0
  2  3  2  0  0  0
  3  4  1  0  0  0
  4  5  1  0  0  0
  5  6  2  0  0  0
  6  7  1  0  0  0
  7  8  2  0  0  0
  8  9  1  0  0  0
  8 10  1  0  0  0
 22 13  1  0  0  0
 10  1  2  0  0  0
 22 18  2  0  0  0
 10  4  1  0  0  0
 26 30  1  0  0  0
  9 11  1  0  0  0
  9 12  1  0  0  0
M  END
> <minimizedAffinity>
-7.29920

> <CNNscore>
0.5029206872

> <CNNaffinity>
6.7617859840

> <CNN_VS>
3.4006421566

> <CNNaffinity_variance>
0.2561522424

$$$$
[H]c1nc(N([H])[H])c2c(-c3sc4c(OC([H])([H])[H])c([H])c(C([H])([H])[H])c([H])c4c3[H])c(C([H])([H])N([H])C(=O)C([H])([H])[H])c([H])n2n1


 30 33  0  0  0  0  0  0  0  0999 V2000
   -3.7551   23.2448  -26.0249 C   0  0  0  0  0  0  0  0  0  0  0  0
   -4.1406   23.2840  -27.3871 C   0  0  0  0  0  0  0  0  0  0  0  0
   -3.0157   22.9590  -28.0867 C   0  0  0  0  0  0  0  0  0  0  0  0
   -2.0112   22.7330  -27.2199 N   0  0  0  0  0  0  0  0  0  0  0  0
   -0.7749   22.3746  -27.4825 N   0  0  0  0  0  0  0  0  0  0  0  0
    0.1106   22.1562  -26.4880 C   0  0  0  0  0  0  0  0  0  0  0  0
   -0.2697   22.3042  -25.2010 N   0  0  0  0  0  0  0  0  0  0  0  0
   -1.5393   22.6739  -24.8998 C   0  0  0  0  0  0  0  0  0  0  0  0
   -1.9326   22.7474  -23.5559 N   0  0  0  0  0  0  0  0  0  0  0  0
   -2.4188   22.8943  -25.9349 C   0  0  0  0  0  0  0  0  0  0  0  0
   -2.5174   21.9840  -23.1486 H   0  0  0  0  0  0  0  0  0  0  0  0
   -1.6747   23.5356  -22.9126 H   0  0  0  0  0  0  0  0  0  0  0  0
   -7.4827   22.9058  -22.1083 C   0  0  0  0  0  0  0  0  0  0  0  0
   -8.1717   23.9081  -21.4662 C   0  0  0  0  0  0  0  0  0  0  0  0
   -7.8853   25.2069  -21.8165 C   0  0  0  0  0  0  0  0  0  0  0  0
   -8.6100   26.3527  -21.1453 C   0  0  0  0  0  0  0  0  0  0  0  0
   -6.9466   25.4760  -22.7708 C   0  0  0  0  0  0  0  0  0  0  0  0
   -6.2147   24.4784  -23.4561 C   0  0  0  0  0  0  0  0  0  0  0  0
   -5.2579   24.6180  -24.4223 C   0  0  0  0  0  0  0  0  0  0  0  0
   -4.6920   23.4978  -24.9312 C   0  0  0  0  0  0  0  0  0  0  0  0
   -5.4945   22.2615  -24.0693 S   0  0  0  0  0  0  0  0  0  0  0  0
   -6.5203   23.2001  -23.0876 C   0  0  0  0  0  0  0  0  0  0  0  0
   -7.9436   21.1197  -20.5414 C   0  0  0  0  0  0  0  0  0  0  0  0
   -7.6753   21.5636  -21.8497 O   0  0  0  0  0  0  0  0  0  0  0  0
   -5.5018   23.6076  -27.8535 C   0  0  0  0  0  0  0  0  0  0  0  0
   -5.4804   23.9165  -29.2918 N   0  0  0  0  0  0  0  0  0  0  0  0
   -5.5253   25.2585  -29.7109 C   0  0  0  0  0  0  0  0  0  0  0  0
   -5.5051   25.5934  -31.1430 C   0  0  0  0  0  0  0  0  0  0  0  0
   -5.5822   26.1663  -28.8639 O   0  0  0  0  0  0  0  0  0  0  0  0
   -5.4330   23.1726  -30.0025 H   0  0  0  0  0  0  0  0  0  0  0  0
 23 24  1  0  0  0
 24 13  1  0  0  0
 13 14  2  0  0  0
 14 15  1  0  0  0
 15 16  1  0  0  0
 15 17  2  0  0  0
 17 18  1  0  0  0
 18 19  1  0  0  0
 19 20  2  0  0  0
 20 21  1  0  0  0
 21 22  1  0  0  0
 20  1  1  0  0  0
  1  2  1  0  0  0
  2 25  1  0  0  0
 25 26  1  0  0  0
 26 27  1  0  0  0
 27 28  1  0  0  0
 27 29  2  0  0  0
  2  3  2  0  0  0
  3  4  1  0  0  0
  4  5  1  0  0  0
  5  6  2  0  0  0
  6  7  1  0  0  0
  7  8  2  0  0  0
  8  9  1  0  0  0
  8 10  1  0  0  0
 22 13  1  0  0  0
 10  1  2  0  0  0
 22 18  2  0  0  0
 10  4  1  0  0  0
 26 30  1  0  0  0
  9 11  1  0  0  0
  9 12  1  0  0  0
M  END
> <minimizedAffinity>
-8.48021

> <CNNscore>
0.4056809247

> <CNNaffinity>
6.9450287819

> <CNN_VS>
2.8174657822

> <CNNaffinity_variance>
0.2326156199

$$$$
[H]c1nc(N([H])[H])c2c(-c3sc4c(OC([H])([H])[H])c([H])c(C([H])([H])[H])c([H])c4c3[H])c(C([H])([H])N([H])C(=O)C([H])([H])[H])c([H])n2n1


 30 33  0  0  0  0  0  0  0  0999 V2000
   -1.7016   21.9497  -23.7557 C   0  0  0  0  0  0  0  0  0  0  0  0
   -2.3626   21.4600  -22.6029 C   0  0  0  0  0  0  0  0  0  0  0  0
   -1.3746   20.9456  -21.8155 C   0  0  0  0  0  0  0  0  0  0  0  0
   -0.1913   21.1086  -22.4357 N   0  0  0  0  0  0  0  0  0  0  0  0
    1.0046   20.7728  -22.0080 N   0  0  0  0  0  0  0  0  0  0  0  0
    2.1043   21.0357  -22.7445 C   0  0  0  0  0  0  0  0  0  0  0  0
    1.9849   21.6536  -23.9390 N   0  0  0  0  0  0  0  0  0  0  0  0
    0.7630   22.0116  -24.4062 C   0  0  0  0  0  0  0  0  0  0  0  0
    0.6697   22.7197  -25.6129 N   0  0  0  0  0  0  0  0  0  0  0  0
   -0.3406   21.7261  -23.6355 C   0  0  0  0  0  0  0  0  0  0  0  0
    0.4861   23.7475  -25.5932 H   0  0  0  0  0  0  0  0  0  0  0  0
    0.7737   22.2791  -26.5599 H   0  0  0  0  0  0  0  0  0  0  0  0
   -4.6545   25.2812  -26.8431 C   0  0  0  0  0  0  0  0  0  0  0  0
   -5.1649   25.0834  -28.1047 C   0  0  0  0  0  0  0  0  0  0  0  0
   -4.8868   23.8888  -28.7271 C   0  0  0  0  0  0  0  0  0  0  0  0
   -5.4200   23.6128  -30.1156 C   0  0  0  0  0  0  0  0  0  0  0  0
   -4.1285   22.9416  -28.1008 C   0  0  0  0  0  0  0  0  0  0  0  0
   -3.5838   23.1019  -26.8053 C   0  0  0  0  0  0  0  0  0  0  0  0
   -2.8162   22.2366  -26.0769 C   0  0  0  0  0  0  0  0  0  0  0  0
   -2.4076   22.6230  -24.8449 C   0  0  0  0  0  0  0  0  0  0  0  0
   -3.0950   24.1797  -24.7056 S   0  0  0  0  0  0  0  0  0  0  0  0
   -3.8764   24.2964  -26.2133 C   0  0  0  0  0  0  0  0  0  0  0  0
   -5.9318   26.5221  -25.2040 C   0  0  0  0  0  0  0  0  0  0  0  0
   -4.8595   26.4336  -26.1113 O   0  0  0  0  0  0  0  0  0  0  0  0
   -3.8186   21.5451  -22.3842 C   0  0  0  0  0  0  0  0  0  0  0  0
   -4.1210   21.4042  -20.9513 N   0  0  0  0  0  0  0  0  0  0  0  0
   -4.3434   22.5563  -20.1755 C   0  0  0  0  0  0  0  0  0  0  0  0
   -4.6475   22.4419  -18.7410 C   0  0  0  0  0  0  0  0  0  0  0  0
   -4.2822   23.6779  -20.7076 O   0  0  0  0  0  0  0  0  0  0  0  0
   -4.1746   20.4800  -20.4999 H   0  0  0  0  0  0  0  0  0  0  0  0
 23 24  1  0  0  0
 24 13  1  0  0  0
 13 14  2  0  0  0
 14 15  1  0  0  0
 15 16  1  0  0  0
 15 17  2  0  0  0
 17 18  1  0  0  0
 18 19  1  0  0  0
 19 20  2  0  0  0
 20 21  1  0  0  0
 21 22  1  0  0  0
 20  1  1  0  0  0
  1  2  1  0  0  0
  2 25  1  0  0  0
 25 26  1  0  0  0
 26 27  1  0  0  0
 27 28  1  0  0  0
 27 29  2  0  0  0
  2  3  2  0  0  0
  3  4  1  0  0  0
  4  5  1  0  0  0
  5  6  2  0  0  0
  6  7  1  0  0  0
  7  8  2  0  0  0
  8  9  1  0  0  0
  8 10  1  0  0  0
 22 13  1  0  0  0
 10  1  2  0  0  0
 22 18  2  0  0  0
 10  4  1  0  0  0
 26 30  1  0  0  0
  9 11  1  0  0  0
  9 12  1  0  0  0
M  END
> <minimizedAffinity>
-8.02628

> <CNNscore>
0.3977245688

> <CNNaffinity>
6.7593827248

> <CNN_VS>
2.6883726120

> <CNNaffinity_variance>
0.3030984402

$$$$
[H]c1nc(N([H])[H])c2c(-c3sc4c(OC([H])([H])[H])c([H])c(C([H])([H])[H])c([H])c4c3[H])c(C([H])([H])N([H])C(=O)C([H])([H])[H])c([H])n2n1


 30 33  0  0  0  0  0  0  0  0999 V2000
   -3.8996   23.0942  -26.3059 C   0  0  0  0  0  0  0  0  0  0  0  0
   -4.2139   23.2613  -27.6766 C   0  0  0  0  0  0  0  0  0  0  0  0
   -3.0296   23.1102  -28.3362 C   0  0  0  0  0  0  0  0  0  0  0  0
   -2.0570   22.8649  -27.4388 N   0  0  0  0  0  0  0  0  0  0  0  0
   -0.7824   22.6384  -27.6617 N   0  0  0  0  0  0  0  0  0  0  0  0
    0.0644   22.3764  -26.6442 C   0  0  0  0  0  0  0  0  0  0  0  0
   -0.3952   22.3428  -25.3752 N   0  0  0  0  0  0  0  0  0  0  0  0
   -1.7062   22.5731  -25.1148 C   0  0  0  0  0  0  0  0  0  0  0  0
   -2.1754   22.4580  -23.7985 N   0  0  0  0  0  0  0  0  0  0  0  0
   -2.5449   22.8424  -26.1720 C   0  0  0  0  0  0  0  0  0  0  0  0
   -2.7133   21.6085  -23.5166 H   0  0  0  0  0  0  0  0  0  0  0  0
   -2.0207   23.1838  -23.0561 H   0  0  0  0  0  0  0  0  0  0  0  0
   -7.3493   24.5486  -22.3900 C   0  0  0  0  0  0  0  0  0  0  0  0
   -8.0227   23.7662  -21.4813 C   0  0  0  0  0  0  0  0  0  0  0  0
   -7.8483   22.4040  -21.5570 C   0  0  0  0  0  0  0  0  0  0  0  0
   -8.5624   21.4909  -20.5850 C   0  0  0  0  0  0  0  0  0  0  0  0
   -7.0313   21.8621  -22.5074 C   0  0  0  0  0  0  0  0  0  0  0  0
   -6.3201   22.6274  -23.4610 C   0  0  0  0  0  0  0  0  0  0  0  0
   -5.4791   22.2075  -24.4534 C   0  0  0  0  0  0  0  0  0  0  0  0
   -4.9118   23.1429  -25.2517 C   0  0  0  0  0  0  0  0  0  0  0  0
   -5.5455   24.5956  -24.6166 S   0  0  0  0  0  0  0  0  0  0  0  0
   -6.5129   23.9750  -23.3612 C   0  0  0  0  0  0  0  0  0  0  0  0
   -8.0910   26.6232  -21.3880 C   0  0  0  0  0  0  0  0  0  0  0  0
   -7.4380   25.9259  -22.4215 O   0  0  0  0  0  0  0  0  0  0  0  0
   -5.5711   23.5283  -28.1884 C   0  0  0  0  0  0  0  0  0  0  0  0
   -5.5012   23.9819  -29.5863 N   0  0  0  0  0  0  0  0  0  0  0  0
   -5.5468   25.3591  -29.8689 C   0  0  0  0  0  0  0  0  0  0  0  0
   -5.4786   25.8378  -31.2580 C   0  0  0  0  0  0  0  0  0  0  0  0
   -5.6452   26.1757  -28.9370 O   0  0  0  0  0  0  0  0  0  0  0  0
   -5.4192   23.3143  -30.3663 H   0  0  0  0  0  0  0  0  0  0  0  0
 23 24  1  0  0  0
 24 13  1  0  0  0
 13 14  2  0  0  0
 14 15  1  0  0  0
 15 16  1  0  0  0
 15 17  2  0  0  0
 17 18  1  0  0  0
 18 19  1  0  0  0
 19 20  2  0  0  0
 20 21  1  0  0  0
 21 22  1  0  0  0
 20  1  1  0  0  0
  1  2  1  0  0  0
  2 25  1  0  0  0
 25 26  1  0  0  0
 26 27  1  0  0  0
 27 28  1  0  0  0
 27 29  2  0  0  0
  2  3  2  0  0  0
  3  4  1  0  0  0
  4  5  1  0  0  0
  5  6  2  0  0  0
  6  7  1  0  0  0
  7  8  2  0  0  0
  8  9  1  0  0  0
  8 10  1  0  0  0
 22 13  1  0  0  0
 10  1  2  0  0  0
 22 18  2  0  0  0
 10  4  1  0  0  0
 26 30  1  0  0  0
  9 11  1  0  0  0
  9 12  1  0  0  0
M  END
> <minimizedAffinity>
-8.87194

> <CNNscore>
0.3922943473

> <CNNaffinity>
7.0370125771

> <CNN_VS>
2.7605803013

> <CNNaffinity_variance>
0.3290344179

$$$$
[H]c1nc(N([H])[H])c2c(-c3sc4c(OC([H])([H])[H])c([H])c(C([H])([H])[H])c([H])c4c3[H])c(C([H])([H])N([H])C(=O)C([H])([H])[H])c([H])n2n1


 30 33  0  0  0  0  0  0  0  0999 V2000
   -3.1918   22.7896  -25.4179 C   0  0  0  0  0  0  0  0  0  0  0  0
   -3.7282   23.0962  -26.6922 C   0  0  0  0  0  0  0  0  0  0  0  0
   -2.6780   22.9939  -27.5566 C   0  0  0  0  0  0  0  0  0  0  0  0
   -1.5756   22.6469  -26.8668 N   0  0  0  0  0  0  0  0  0  0  0  0
   -0.3648   22.4252  -27.3255 N   0  0  0  0  0  0  0  0  0  0  0  0
    0.6334   22.0514  -26.4980 C   0  0  0  0  0  0  0  0  0  0  0  0
    0.3945   21.8990  -25.1779 N   0  0  0  0  0  0  0  0  0  0  0  0
   -0.8456   22.1214  -24.6758 C   0  0  0  0  0  0  0  0  0  0  0  0
   -1.0886   21.8834  -23.3155 N   0  0  0  0  0  0  0  0  0  0  0  0
   -1.8424   22.5062  -25.5430 C   0  0  0  0  0  0  0  0  0  0  0  0
   -1.5973   21.0180  -23.0275 H   0  0  0  0  0  0  0  0  0  0  0  0
   -0.7879   22.5298  -22.5451 H   0  0  0  0  0  0  0  0  0  0  0  0
   -5.7871   23.8644  -20.7855 C   0  0  0  0  0  0  0  0  0  0  0  0
   -6.3837   23.0020  -19.8958 C   0  0  0  0  0  0  0  0  0  0  0  0
   -6.3698   21.6604  -20.1983 C   0  0  0  0  0  0  0  0  0  0  0  0
   -7.0102   20.6626  -19.2588 C   0  0  0  0  0  0  0  0  0  0  0  0
   -5.7799   21.2154  -21.3465 C   0  0  0  0  0  0  0  0  0  0  0  0
   -5.1552   22.0651  -22.2891 C   0  0  0  0  0  0  0  0  0  0  0  0
   -4.5355   21.7449  -23.4646 C   0  0  0  0  0  0  0  0  0  0  0  0
   -4.0088   22.7485  -24.2060 C   0  0  0  0  0  0  0  0  0  0  0  0
   -4.3730   24.1256  -23.2647 S   0  0  0  0  0  0  0  0  0  0  0  0
   -5.1848   23.3900  -21.9620 C   0  0  0  0  0  0  0  0  0  0  0  0
   -6.8940   25.9538  -20.2689 C   0  0  0  0  0  0  0  0  0  0  0  0
   -5.7326   25.2313  -20.6003 O   0  0  0  0  0  0  0  0  0  0  0  0
   -5.1434   23.4322  -26.9359 C   0  0  0  0  0  0  0  0  0  0  0  0
   -5.2446   24.4397  -28.0033 N   0  0  0  0  0  0  0  0  0  0  0  0
   -5.5051   24.0254  -29.3220 C   0  0  0  0  0  0  0  0  0  0  0  0
   -5.6108   25.0131  -30.4068 C   0  0  0  0  0  0  0  0  0  0  0  0
   -5.6467   22.8158  -29.5705 O   0  0  0  0  0  0  0  0  0  0  0  0
   -5.1293   25.4445  -27.8090 H   0  0  0  0  0  0  0  0  0  0  0  0
 23 24  1  0  0  0
 24 13  1  0  0  0
 13 14  2  0  0  0
 14 15  1  0  0  0
 15 16  1  0  0  0
 15 17  2  0  0  0
 17 18  1  0  0  0
 18 19  1  0  0  0
 19 20  2  0  0  0
 20 21  1  0  0  0
 21 22  1  0  0  0
 20  1  1  0  0  0
  1  2  1  0  0  0
  2 25  1  0  0  0
 25 26  1  0  0  0
 26 27  1  0  0  0
 27 28  1  0  0  0
 27 29  2  0  0  0
  2  3  2  0  0  0
  3  4  1  0  0  0
  4  5  1  0  0  0
  5  6  2  0  0  0
  6  7  1  0  0  0
  7  8  2  0  0  0
  8  9  1  0  0  0
  8 10  1  0  0  0
 22 13  1  0  0  0
 10  1  2  0  0  0
 22 18  2  0  0  0
 10  4  1  0  0  0
 26 30  1  0  0  0
  9 11  1  0  0  0
  9 12  1  0  0  0
M  END
> <minimizedAffinity>
-7.55555

> <CNNscore>
0.3652566969

> <CNNaffinity>
6.8050050735

> <CNN_VS>
2.4855737686

> <CNNaffinity_variance>
0.3843818009

$$$$
[H]c1nc(N([H])[H])c2c(-c3sc4c(OC([H])([H])[H])c([H])c(C([H])([H])[H])c([H])c4c3[H])c(C([H])([H])OC([H])([H])C([H])([H])[H])c(C(=O)N3C([H])([H])C([H])([H])N(C([H])(C([H])([H])[H])C([H])([H])[H])C([H])([H])C3([H])[H])n2n1


 39 43  0  0  0  0  0  0  0  0999 V2000
   -2.0644   21.5978  -22.2347 C   0  0  0  0  0  0  0  0  0  0  0  0
   -1.5196   22.0320  -23.4612 C   0  0  0  0  0  0  0  0  0  0  0  0
   -0.1918   21.8059  -23.4003 C   0  0  0  0  0  0  0  0  0  0  0  0
    0.8423   21.9423  -24.3033 C   0  0  0  0  0  0  0  0  0  0  0  0
    0.7073   22.3607  -25.6476 N   0  0  0  0  0  0  0  0  0  0  0  0
    2.0920   21.5451  -23.9350 N   0  0  0  0  0  0  0  0  0  0  0  0
    2.3461   21.0260  -22.7380 C   0  0  0  0  0  0  0  0  0  0  0  0
    1.3172   20.9082  -21.9083 N   0  0  0  0  0  0  0  0  0  0  0  0
    0.0802   21.2630  -22.1712 N   0  0  0  0  0  0  0  0  0  0  0  0
   -1.0597   21.1212  -21.4272 C   0  0  0  0  0  0  0  0  0  0  0  0
    0.2235   21.7855  -26.3762 H   0  0  0  0  0  0  0  0  0  0  0  0
    1.1384   23.2729  -25.9491 H   0  0  0  0  0  0  0  0  0  0  0  0
   -2.3139   22.7210  -24.4966 C   0  0  0  0  0  0  0  0  0  0  0  0
   -2.6006   22.3889  -25.7868 C   0  0  0  0  0  0  0  0  0  0  0  0
   -3.4306   23.1878  -26.4898 C   0  0  0  0  0  0  0  0  0  0  0  0
   -3.8913   22.9605  -27.8054 C   0  0  0  0  0  0  0  0  0  0  0  0
   -4.7851   23.8286  -28.3649 C   0  0  0  0  0  0  0  0  0  0  0  0
   -5.2892   23.5696  -29.7502 C   0  0  0  0  0  0  0  0  0  0  0  0
   -5.2972   24.9565  -27.7315 C   0  0  0  0  0  0  0  0  0  0  0  0
   -4.8439   25.1609  -26.4695 C   0  0  0  0  0  0  0  0  0  0  0  0
   -3.9271   24.2796  -25.8717 C   0  0  0  0  0  0  0  0  0  0  0  0
   -3.2377   24.1769  -24.3349 S   0  0  0  0  0  0  0  0  0  0  0  0
   -5.2287   26.2372  -25.6852 O   0  0  0  0  0  0  0  0  0  0  0  0
   -4.3769   27.3870  -25.6021 C   0  0  0  0  0  0  0  0  0  0  0  0
   -1.1154   20.3638  -20.1915 C   0  0  0  0  0  0  0  0  0  0  0  0
   -0.4493   19.2639  -20.0875 O   0  0  0  0  0  0  0  0  0  0  0  0
   -1.8652   20.7116  -19.0527 N   0  0  0  0  0  0  0  0  0  0  0  0
   -1.6966   19.8723  -17.8356 C   0  0  0  0  0  0  0  0  0  0  0  0
   -1.5685   20.7833  -16.6627 C   0  0  0  0  0  0  0  0  0  0  0  0
   -2.7461   21.5910  -16.5721 N   0  0  0  0  0  0  0  0  0  0  0  0
   -2.8750   22.4851  -17.6818 C   0  0  0  0  0  0  0  0  0  0  0  0
   -2.9231   21.6642  -18.9480 C   0  0  0  0  0  0  0  0  0  0  0  0
   -2.8205   22.2205  -15.2956 C   0  0  0  0  0  0  0  0  0  0  0  0
   -2.1817   21.3899  -14.1992 C   0  0  0  0  0  0  0  0  0  0  0  0
   -4.2318   22.5927  -14.9025 C   0  0  0  0  0  0  0  0  0  0  0  0
   -3.4932   21.6201  -21.8719 C   0  0  0  0  0  0  0  0  0  0  0  0
   -4.3515   21.0716  -22.8002 O   0  0  0  0  0  0  0  0  0  0  0  0
   -6.2107   21.7770  -24.1378 C   0  0  0  0  0  0  0  0  0  0  0  0
   -5.5310   21.8294  -22.7993 C   0  0  0  0  0  0  0  0  0  0  0  0
 38 39  1  0  0  0
 39 37  1  0  0  0
 37 36  1  0  0  0
 36  1  1  0  0  0
  1  2  1  0  0  0
  2 13  1  0  0  0
 13 14  2  0  0  0
 14 15  1  0  0  0
 15 16  2  0  0  0
 16 17  1  0  0  0
 17 18  1  0  0  0
 17 19  2  0  0  0
 19 20  1  0  0  0
 20 23  1  0  0  0
 23 24  1  0  0  0
 20 21  2  0  0  0
 21 22  1  0  0  0
  2  3  2  0  0  0
  3  4  1  0  0  0
  4  5  1  0  0  0
  4  6  2  0  0  0
  6  7  1  0  0  0
  7  8  2  0  0  0
  8  9  1  0  0  0
  9 10  1  0  0  0
 10 25  1  0  0  0
 25 26  2  0  0  0
 25 27  1  0  0  0
 27 28  1  0  0  0
 28 29  1  0  0  0
 29 30  1  0  0  0
 30 31  1  0  0  0
 31 32  1  0  0  0
 30 33  1  0  0  0
 33 34  1  0  0  0
 33 35  1  0  0  0
 10  1  2  0  0  0
 32 27  1  0  0  0
 22 13  1  0  0  0
  9  3  1  0  0  0
 21 15  1  0  0  0
  5 11  1  0  0  0
  5 12  1  0  0  0
M  END
> <minimizedAffinity>
-7.67290

> <CNNscore>
0.4619361162

> <CNNaffinity>
7.3220434189

> <CNN_VS>
3.3823163509

> <CNNaffinity_variance>
0.1706620306

$$$$
[H]c1nc(N([H])[H])c2c(-c3sc4c(OC([H])([H])[H])c([H])c(C([H])([H])[H])c([H])c4c3[H])c(C([H])([H])OC([H])([H])C([H])([H])[H])c(C(=O)N3C([H])([H])C([H])([H])N(C([H])(C([H])([H])[H])C([H])([H])[H])C([H])([H])C3([H])[H])n2n1


 39 43  0  0  0  0  0  0  0  0999 V2000
   -1.1628   21.4114  -21.0802 C   0  0  0  0  0  0  0  0  0  0  0  0
   -0.8752   21.7968  -22.4063 C   0  0  0  0  0  0  0  0  0  0  0  0
    0.4184   21.4897  -22.6301 C   0  0  0  0  0  0  0  0  0  0  0  0
    1.2362   21.5515  -23.7395 C   0  0  0  0  0  0  0  0  0  0  0  0
    0.8348   21.9617  -25.0322 N   0  0  0  0  0  0  0  0  0  0  0  0
    2.5111   21.0822  -23.6422 N   0  0  0  0  0  0  0  0  0  0  0  0
    2.9904   20.5625  -22.5166 C   0  0  0  0  0  0  0  0  0  0  0  0
    2.1628   20.5181  -21.4803 N   0  0  0  0  0  0  0  0  0  0  0  0
    0.9208   20.9456  -21.4765 N   0  0  0  0  0  0  0  0  0  0  0  0
   -0.0350   20.8831  -20.4991 C   0  0  0  0  0  0  0  0  0  0  0  0
    0.1710   21.4090  -25.6236 H   0  0  0  0  0  0  0  0  0  0  0  0
    1.2414   22.8419  -25.4430 H   0  0  0  0  0  0  0  0  0  0  0  0
   -1.8356   22.5213  -23.2608 C   0  0  0  0  0  0  0  0  0  0  0  0
   -2.4615   23.7214  -23.1019 C   0  0  0  0  0  0  0  0  0  0  0  0
   -3.2459   24.1776  -24.1009 C   0  0  0  0  0  0  0  0  0  0  0  0
   -3.9089   25.4241  -24.1378 C   0  0  0  0  0  0  0  0  0  0  0  0
   -4.6178   25.7766  -25.2508 C   0  0  0  0  0  0  0  0  0  0  0  0
   -5.2979   27.1092  -25.2947 C   0  0  0  0  0  0  0  0  0  0  0  0
   -4.7501   24.9876  -26.3890 C   0  0  0  0  0  0  0  0  0  0  0  0
   -4.1085   23.7937  -26.3368 C   0  0  0  0  0  0  0  0  0  0  0  0
   -3.3702   23.4109  -25.2041 C   0  0  0  0  0  0  0  0  0  0  0  0
   -2.4008   22.0793  -24.8371 S   0  0  0  0  0  0  0  0  0  0  0  0
   -4.1354   22.8670  -27.3674 O   0  0  0  0  0  0  0  0  0  0  0  0
   -3.2753   23.0489  -28.4996 C   0  0  0  0  0  0  0  0  0  0  0  0
    0.1373   20.1451  -19.2623 C   0  0  0  0  0  0  0  0  0  0  0  0
    0.3332   20.7856  -18.1598 O   0  0  0  0  0  0  0  0  0  0  0  0
    0.1283   18.7433  -19.1389 N   0  0  0  0  0  0  0  0  0  0  0  0
    0.1976   18.1734  -17.7661 C   0  0  0  0  0  0  0  0  0  0  0  0
   -0.8086   17.0778  -17.6715 C   0  0  0  0  0  0  0  0  0  0  0  0
   -0.5072   16.0851  -18.6570 N   0  0  0  0  0  0  0  0  0  0  0  0
   -0.6705   16.5794  -19.9898 C   0  0  0  0  0  0  0  0  0  0  0  0
    0.2475   17.7643  -20.1708 C   0  0  0  0  0  0  0  0  0  0  0  0
   -1.2183   14.8806  -18.3832 C   0  0  0  0  0  0  0  0  0  0  0  0
   -0.8521   13.7593  -19.3364 C   0  0  0  0  0  0  0  0  0  0  0  0
   -2.7176   15.0714  -18.3657 C   0  0  0  0  0  0  0  0  0  0  0  0
   -2.4739   21.5261  -20.4159 C   0  0  0  0  0  0  0  0  0  0  0  0
   -2.6611   22.6639  -19.6611 O   0  0  0  0  0  0  0  0  0  0  0  0
   -5.0080   22.2026  -19.8109 C   0  0  0  0  0  0  0  0  0  0  0  0
   -3.8380   22.5005  -18.9171 C   0  0  0  0  0  0  0  0  0  0  0  0
 38 39  1  0  0  0
 39 37  1  0  0  0
 37 36  1  0  0  0
 36  1  1  0  0  0
  1  2  1  0  0  0
  2 13  1  0  0  0
 13 14  2  0  0  0
 14 15  1  0  0  0
 15 16  2  0  0  0
 16 17  1  0  0  0
 17 18  1  0  0  0
 17 19  2  0  0  0
 19 20  1  0  0  0
 20 23  1  0  0  0
 23 24  1  0  0  0
 20 21  2  0  0  0
 21 22  1  0  0  0
  2  3  2  0  0  0
  3  4  1  0  0  0
  4  5  1  0  0  0
  4  6  2  0  0  0
  6  7  1  0  0  0
  7  8  2  0  0  0
  8  9  1  0  0  0
  9 10  1  0  0  0
 10 25  1  0  0  0
 25 26  2  0  0  0
 25 27  1  0  0  0
 27 28  1  0  0  0
 28 29  1  0  0  0
 29 30  1  0  0  0
 30 31  1  0  0  0
 31 32  1  0  0  0
 30 33  1  0  0  0
 33 34  1  0  0  0
 33 35  1  0  0  0
 10  1  2  0  0  0
 32 27  1  0  0  0
 22 13  1  0  0  0
  9  3  1  0  0  0
 21 15  1  0  0  0
  5 11  1  0  0  0
  5 12  1  0  0  0
M  END
> <minimizedAffinity>
-7.28452

> <CNNscore>
0.2946940362

> <CNNaffinity>
6.6941385269

> <CNN_VS>
1.9727226496

> <CNNaffinity_variance>
0.1667693704

$$$$
[H]c1nc(N([H])[H])c2c(-c3sc4c(OC([H])([H])[H])c([H])c(C([H])([H])[H])c([H])c4c3[H])c(C([H])([H])OC([H])([H])C([H])([H])[H])c(C(=O)N3C([H])([H])C([H])([H])N(C([H])(C([H])([H])[H])C([H])([H])[H])C([H])([H])C3([H])[H])n2n1


 39 43  0  0  0  0  0  0  0  0999 V2000
   -1.3951   21.5343  -21.5040 C   0  0  0  0  0  0  0  0  0  0  0  0
   -0.9537   21.8291  -22.8109 C   0  0  0  0  0  0  0  0  0  0  0  0
    0.3598   21.5280  -22.8564 C   0  0  0  0  0  0  0  0  0  0  0  0
    1.3041   21.5239  -23.8622 C   0  0  0  0  0  0  0  0  0  0  0  0
    1.0574   21.8346  -25.2198 N   0  0  0  0  0  0  0  0  0  0  0  0
    2.5617   21.0835  -23.5802 N   0  0  0  0  0  0  0  0  0  0  0  0
    2.9066   20.6530  -22.3708 C   0  0  0  0  0  0  0  0  0  0  0  0
    1.9612   20.6690  -21.4399 N   0  0  0  0  0  0  0  0  0  0  0  0
    0.7245   21.0754  -21.6149 N   0  0  0  0  0  0  0  0  0  0  0  0
   -0.3411   21.0671  -20.7561 C   0  0  0  0  0  0  0  0  0  0  0  0
    0.4734   21.2306  -25.8443 H   0  0  0  0  0  0  0  0  0  0  0  0
    1.5035   22.6899  -25.6421 H   0  0  0  0  0  0  0  0  0  0  0  0
   -1.8102   22.4753  -23.8239 C   0  0  0  0  0  0  0  0  0  0  0  0
   -2.1501   22.1048  -25.0906 C   0  0  0  0  0  0  0  0  0  0  0  0
   -3.0290   22.8686  -25.7727 C   0  0  0  0  0  0  0  0  0  0  0  0
   -3.5460   22.5987  -27.0590 C   0  0  0  0  0  0  0  0  0  0  0  0
   -4.4834   23.4341  -27.5965 C   0  0  0  0  0  0  0  0  0  0  0  0
   -5.0464   23.1297  -28.9496 C   0  0  0  0  0  0  0  0  0  0  0  0
   -4.9892   24.5672  -26.9674 C   0  0  0  0  0  0  0  0  0  0  0  0
   -4.4816   24.8127  -25.7337 C   0  0  0  0  0  0  0  0  0  0  0  0
   -3.5191   23.9655  -25.1587 C   0  0  0  0  0  0  0  0  0  0  0  0
   -2.7563   23.9159  -23.6543 S   0  0  0  0  0  0  0  0  0  0  0  0
   -4.8520   25.9006  -24.9586 O   0  0  0  0  0  0  0  0  0  0  0  0
   -4.4297   27.2151  -25.3438 C   0  0  0  0  0  0  0  0  0  0  0  0
   -0.3126   20.4218  -19.4574 C   0  0  0  0  0  0  0  0  0  0  0  0
   -0.3773   21.1396  -18.3874 O   0  0  0  0  0  0  0  0  0  0  0  0
   -0.2007   19.0368  -19.2351 N   0  0  0  0  0  0  0  0  0  0  0  0
   -0.3138   18.5542  -17.8321 C   0  0  0  0  0  0  0  0  0  0  0  0
   -1.2048   17.3592  -17.8271 C   0  0  0  0  0  0  0  0  0  0  0  0
   -0.6377   16.3543  -18.6731 N   0  0  0  0  0  0  0  0  0  0  0  0
   -0.6159   16.7536  -20.0470 C   0  0  0  0  0  0  0  0  0  0  0  0
    0.1947   18.0225  -20.1582 C   0  0  0  0  0  0  0  0  0  0  0  0
   -1.2597   15.0943  -18.4347 C   0  0  0  0  0  0  0  0  0  0  0  0
   -0.2641   13.9508  -18.4019 C   0  0  0  0  0  0  0  0  0  0  0  0
   -2.3645   14.7860  -19.4192 C   0  0  0  0  0  0  0  0  0  0  0  0
   -2.7772   21.6747  -21.0105 C   0  0  0  0  0  0  0  0  0  0  0  0
   -3.0163   22.7747  -20.2154 O   0  0  0  0  0  0  0  0  0  0  0  0
   -4.6209   21.2147  -19.3579 C   0  0  0  0  0  0  0  0  0  0  0  0
   -3.6680   22.3355  -19.0544 C   0  0  0  0  0  0  0  0  0  0  0  0
 38 39  1  0  0  0
 39 37  1  0  0  0
 37 36  1  0  0  0
 36  1  1  0  0  0
  1  2  1  0  0  0
  2 13  1  0  0  0
 13 14  2  0  0  0
 14 15  1  0  0  0
 15 16  2  0  0  0
 16 17  1  0  0  0
 17 18  1  0  0  0
 17 19  2  0  0  0
 19 20  1  0  0  0
 20 23  1  0  0  0
 23 24  1  0  0  0
 20 21  2  0  0  0
 21 22  1  0  0  0
  2  3  2  0  0  0
  3  4  1  0  0  0
  4  5  1  0  0  0
  4  6  2  0  0  0
  6  7  1  0  0  0
  7  8  2  0  0  0
  8  9  1  0  0  0
  9 10  1  0  0  0
 10 25  1  0  0  0
 25 26  2  0  0  0
 25 27  1  0  0  0
 27 28  1  0  0  0
 28 29  1  0  0  0
 29 30  1  0  0  0
 30 31  1  0  0  0
 31 32  1  0  0  0
 30 33  1  0  0  0
 33 34  1  0  0  0
 33 35  1  0  0  0
 10  1  2  0  0  0
 32 27  1  0  0  0
 22 13  1  0  0  0
  9  3  1  0  0  0
 21 15  1  0  0  0
  5 11  1  0  0  0
  5 12  1  0  0  0
M  END
> <minimizedAffinity>
-7.63200

> <CNNscore>
0.2818353176

> <CNNaffinity>
6.8450326920

> <CNN_VS>
1.9291719198

> <CNNaffinity_variance>
0.1423270404

$$$$
[H]c1nc(N([H])[H])c2c(-c3sc4c(OC([H])([H])[H])c([H])c(C([H])([H])[H])c([H])c4c3[H])c(C([H])([H])OC([H])([H])C([H])([H])[H])c(C(=O)N3C([H])([H])C([H])([H])N(C([H])(C([H])([H])[H])C([H])([H])[H])C([H])([H])C3([H])[H])n2n1


 39 43  0  0  0  0  0  0  0  0999 V2000
   -1.2500   21.4670  -21.1636 C   0  0  0  0  0  0  0  0  0  0  0  0
   -0.9484   21.8306  -22.4927 C   0  0  0  0  0  0  0  0  0  0  0  0
    0.3499   21.5284  -22.6950 C   0  0  0  0  0  0  0  0  0  0  0  0
    1.1810   21.5758  -23.7952 C   0  0  0  0  0  0  0  0  0  0  0  0
    0.7932   21.9602  -25.0999 N   0  0  0  0  0  0  0  0  0  0  0  0
    2.4576   21.1169  -23.6737 N   0  0  0  0  0  0  0  0  0  0  0  0
    2.9262   20.6205  -22.5332 C   0  0  0  0  0  0  0  0  0  0  0  0
    2.0860   20.5891  -21.5065 N   0  0  0  0  0  0  0  0  0  0  0  0
    0.8413   21.0082  -21.5258 N   0  0  0  0  0  0  0  0  0  0  0  0
   -0.1262   20.9567  -20.5592 C   0  0  0  0  0  0  0  0  0  0  0  0
    0.1404   21.3927  -25.6894 H   0  0  0  0  0  0  0  0  0  0  0  0
    1.1992   22.8357  -25.5213 H   0  0  0  0  0  0  0  0  0  0  0  0
   -1.9027   22.5334  -23.3719 C   0  0  0  0  0  0  0  0  0  0  0  0
   -2.5610   23.7181  -23.2287 C   0  0  0  0  0  0  0  0  0  0  0  0
   -3.3292   24.1570  -24.2478 C   0  0  0  0  0  0  0  0  0  0  0  0
   -4.0205   25.3874  -24.3013 C   0  0  0  0  0  0  0  0  0  0  0  0
   -4.7078   25.7245  -25.4325 C   0  0  0  0  0  0  0  0  0  0  0  0
   -5.4180   27.0406  -25.4933 C   0  0  0  0  0  0  0  0  0  0  0  0
   -4.7909   24.9343  -26.5745 C   0  0  0  0  0  0  0  0  0  0  0  0
   -4.1226   23.7559  -26.5062 C   0  0  0  0  0  0  0  0  0  0  0  0
   -3.4058   23.3891  -25.3546 C   0  0  0  0  0  0  0  0  0  0  0  0
   -2.4150   22.0805  -24.9630 S   0  0  0  0  0  0  0  0  0  0  0  0
   -4.1001   22.8304  -27.5380 O   0  0  0  0  0  0  0  0  0  0  0  0
   -3.1567   22.9898  -28.6054 C   0  0  0  0  0  0  0  0  0  0  0  0
    0.0354   20.2420  -19.3074 C   0  0  0  0  0  0  0  0  0  0  0  0
   -0.1717   18.9693  -19.2688 O   0  0  0  0  0  0  0  0  0  0  0  0
    0.3942   20.8210  -18.0761 N   0  0  0  0  0  0  0  0  0  0  0  0
    0.6314   19.9042  -16.9283 C   0  0  0  0  0  0  0  0  0  0  0  0
    1.8741   20.3475  -16.2347 C   0  0  0  0  0  0  0  0  0  0  0  0
    1.7007   21.6961  -15.7892 N   0  0  0  0  0  0  0  0  0  0  0  0
    1.5769   22.6140  -16.8799 C   0  0  0  0  0  0  0  0  0  0  0  0
    0.3873   22.2014  -17.7130 C   0  0  0  0  0  0  0  0  0  0  0  0
    2.7070   22.0398  -14.8403 C   0  0  0  0  0  0  0  0  0  0  0  0
    2.1542   22.8185  -13.6621 C   0  0  0  0  0  0  0  0  0  0  0  0
    3.8658   22.7908  -15.4548 C   0  0  0  0  0  0  0  0  0  0  0  0
   -2.5700   21.5848  -20.5177 C   0  0  0  0  0  0  0  0  0  0  0  0
   -2.7875   22.7511  -19.8165 O   0  0  0  0  0  0  0  0  0  0  0  0
   -5.0532   22.9945  -20.5587 C   0  0  0  0  0  0  0  0  0  0  0  0
   -4.1261   22.7620  -19.3999 C   0  0  0  0  0  0  0  0  0  0  0  0
 38 39  1  0  0  0
 39 37  1  0  0  0
 37 36  1  0  0  0
 36  1  1  0  0  0
  1  2  1  0  0  0
  2 13  1  0  0  0
 13 14  2  0  0  0
 14 15  1  0  0  0
 15 16  2  0  0  0
 16 17  1  0  0  0
 17 18  1  0  0  0
 17 19  2  0  0  0
 19 20  1  0  0  0
 20 23  1  0  0  0
 23 24  1  0  0  0
 20 21  2  0  0  0
 21 22  1  0  0  0
  2  3  2  0  0  0
  3  4  1  0  0  0
  4  5  1  0  0  0
  4  6  2  0  0  0
  6  7  1  0  0  0
  7  8  2  0  0  0
  8  9  1  0  0  0
  9 10  1  0  0  0
 10 25  1  0  0  0
 25 26  2  0  0  0
 25 27  1  0  0  0
 27 28  1  0  0  0
 28 29  1  0  0  0
 29 30  1  0  0  0
 30 31  1  0  0  0
 31 32  1  0  0  0
 30 33  1  0  0  0
 33 34  1  0  0  0
 33 35  1  0  0  0
 10  1  2  0  0  0
 32 27  1  0  0  0
 22 13  1  0  0  0
  9  3  1  0  0  0
 21 15  1  0  0  0
  5 11  1  0  0  0
  5 12  1  0  0  0
M  END
> <minimizedAffinity>
-7.41451

> <CNNscore>
0.1948299706

> <CNNaffinity>
6.5678496361

> <CNN_VS>
1.2796139717

> <CNNaffinity_variance>
0.1853216588

$$$$
[H]c1nc(N([H])[H])c2c(-c3sc4c(OC([H])([H])[H])c([H])c(C([H])([H])[H])c([H])c4c3[H])c(C([H])([H])OC([H])([H])C([H])([H])[H])c(C(=O)N3C([H])([H])C([H])([H])N(C([H])(C([H])([H])[H])C([H])([H])[H])C([H])([H])C3([H])[H])n2n1


 39 43  0  0  0  0  0  0  0  0999 V2000
   -1.7713   22.0349  -22.0297 C   0  0  0  0  0  0  0  0  0  0  0  0
   -1.3002   22.1632  -23.3531 C   0  0  0  0  0  0  0  0  0  0  0  0
    0.0004   21.8083  -23.3405 C   0  0  0  0  0  0  0  0  0  0  0  0
    0.9577   21.6543  -24.3220 C   0  0  0  0  0  0  0  0  0  0  0  0
    0.7426   21.8193  -25.7102 N   0  0  0  0  0  0  0  0  0  0  0  0
    2.1924   21.2002  -23.9694 N   0  0  0  0  0  0  0  0  0  0  0  0
    2.5028   20.8957  -22.7133 C   0  0  0  0  0  0  0  0  0  0  0  0
    1.5460   21.0531  -21.8075 N   0  0  0  0  0  0  0  0  0  0  0  0
    0.3293   21.4848  -22.0496 N   0  0  0  0  0  0  0  0  0  0  0  0
   -0.7475   21.6145  -21.2149 C   0  0  0  0  0  0  0  0  0  0  0  0
    0.1433   21.1718  -26.2736 H   0  0  0  0  0  0  0  0  0  0  0  0
    1.2288   22.6037  -26.2174 H   0  0  0  0  0  0  0  0  0  0  0  0
   -2.1158   22.7238  -24.4477 C   0  0  0  0  0  0  0  0  0  0  0  0
   -2.4527   22.2263  -25.6709 C   0  0  0  0  0  0  0  0  0  0  0  0
   -3.2905   22.9419  -26.4503 C   0  0  0  0  0  0  0  0  0  0  0  0
   -3.8000   22.5489  -27.7075 C   0  0  0  0  0  0  0  0  0  0  0  0
   -4.6953   23.3540  -28.3523 C   0  0  0  0  0  0  0  0  0  0  0  0
   -5.2513   22.9212  -29.6729 C   0  0  0  0  0  0  0  0  0  0  0  0
   -5.1636   24.5694  -27.8635 C   0  0  0  0  0  0  0  0  0  0  0  0
   -4.6636   24.9325  -26.6559 C   0  0  0  0  0  0  0  0  0  0  0  0
   -3.7443   24.1190  -25.9721 C   0  0  0  0  0  0  0  0  0  0  0  0
   -3.0051   24.2098  -24.4579 S   0  0  0  0  0  0  0  0  0  0  0  0
   -5.0005   26.1144  -26.0145 O   0  0  0  0  0  0  0  0  0  0  0  0
   -6.2033   26.1745  -25.2369 C   0  0  0  0  0  0  0  0  0  0  0  0
   -0.7632   21.1191  -19.8518 C   0  0  0  0  0  0  0  0  0  0  0  0
   -1.4468   20.0632  -19.5652 O   0  0  0  0  0  0  0  0  0  0  0  0
   -0.0946   21.7054  -18.7613 N   0  0  0  0  0  0  0  0  0  0  0  0
   -0.1296   20.9801  -17.4625 C   0  0  0  0  0  0  0  0  0  0  0  0
    1.2458   20.9982  -16.8883 C   0  0  0  0  0  0  0  0  0  0  0  0
    1.6554   22.3573  -16.7081 N   0  0  0  0  0  0  0  0  0  0  0  0
    1.8000   23.0477  -17.9530 C   0  0  0  0  0  0  0  0  0  0  0  0
    0.4722   23.0123  -18.6709 C   0  0  0  0  0  0  0  0  0  0  0  0
    2.7990   22.4239  -15.8601 C   0  0  0  0  0  0  0  0  0  0  0  0
    2.5315   23.1955  -14.5822 C   0  0  0  0  0  0  0  0  0  0  0  0
    4.0171   22.9872  -16.5555 C   0  0  0  0  0  0  0  0  0  0  0  0
   -3.1533   22.2834  -21.5804 C   0  0  0  0  0  0  0  0  0  0  0  0
   -4.0930   21.3740  -22.0154 O   0  0  0  0  0  0  0  0  0  0  0  0
   -5.7457   21.6193  -23.7335 C   0  0  0  0  0  0  0  0  0  0  0  0
   -5.2384   22.0857  -22.3987 C   0  0  0  0  0  0  0  0  0  0  0  0
 38 39  1  0  0  0
 39 37  1  0  0  0
 37 36  1  0  0  0
 36  1  1  0  0  0
  1  2  1  0  0  0
  2 13  1  0  0  0
 13 14  2  0  0  0
 14 15  1  0  0  0
 15 16  2  0  0  0
 16 17  1  0  0  0
 17 18  1  0  0  0
 17 19  2  0  0  0
 19 20  1  0  0  0
 20 23  1  0  0  0
 23 24  1  0  0  0
 20 21  2  0  0  0
 21 22  1  0  0  0
  2  3  2  0  0  0
  3  4  1  0  0  0
  4  5  1  0  0  0
  4  6  2  0  0  0
  6  7  1  0  0  0
  7  8  2  0  0  0
  8  9  1  0  0  0
  9 10  1  0  0  0
 10 25  1  0  0  0
 25 26  2  0  0  0
 25 27  1  0  0  0
 27 28  1  0  0  0
 28 29  1  0  0  0
 29 30  1  0  0  0
 30 31  1  0  0  0
 31 32  1  0  0  0
 30 33  1  0  0  0
 33 34  1  0  0  0
 33 35  1  0  0  0
 10  1  2  0  0  0
 32 27  1  0  0  0
 22 13  1  0  0  0
  9  3  1  0  0  0
 21 15  1  0  0  0
  5 11  1  0  0  0
  5 12  1  0  0  0
M  END
> <minimizedAffinity>
-8.03058

> <CNNscore>
0.1716515422

> <CNNaffinity>
6.8124160767

> <CNN_VS>
1.1693617105

> <CNNaffinity_variance>
0.1543796957

$$$$
[H]c1nc(N([H])[H])c2c(-c3sc4c(OC([H])([H])[H])c([H])c(C([H])([H])[H])c([H])c4c3[H])c(C([H])([H])OC([H])([H])C([H])([H])[H])c(C(=O)N3C([H])([H])C([H])([H])N(C([H])(C([H])([H])[H])C([H])([H])[H])C([H])([H])C3([H])[H])n2n1


 39 43  0  0  0  0  0  0  0  0999 V2000
    0.2824   21.4481  -20.1940 C   0  0  0  0  0  0  0  0  0  0  0  0
    0.8934   21.2114  -21.4432 C   0  0  0  0  0  0  0  0  0  0  0  0
    2.1391   20.7623  -21.1896 C   0  0  0  0  0  0  0  0  0  0  0  0
    3.1658   20.2951  -21.9840 C   0  0  0  0  0  0  0  0  0  0  0  0
    3.1087   20.1359  -23.3882 N   0  0  0  0  0  0  0  0  0  0  0  0
    4.3016   19.8382  -21.3873 N   0  0  0  0  0  0  0  0  0  0  0  0
    4.4507   19.8226  -20.0665 C   0  0  0  0  0  0  0  0  0  0  0  0
    3.4322   20.2747  -19.3460 N   0  0  0  0  0  0  0  0  0  0  0  0
    2.3008   20.7353  -19.8285 N   0  0  0  0  0  0  0  0  0  0  0  0
    1.1677   21.1535  -19.1850 C   0  0  0  0  0  0  0  0  0  0  0  0
    2.5001   19.4237  -23.8553 H   0  0  0  0  0  0  0  0  0  0  0  0
    3.7265   20.7301  -23.9997 H   0  0  0  0  0  0  0  0  0  0  0  0
    0.2571   21.5562  -22.7293 C   0  0  0  0  0  0  0  0  0  0  0  0
    0.7725   22.0526  -23.8891 C   0  0  0  0  0  0  0  0  0  0  0  0
   -0.0496   22.2022  -24.9489 C   0  0  0  0  0  0  0  0  0  0  0  0
    0.3253   22.6311  -26.2412 C   0  0  0  0  0  0  0  0  0  0  0  0
   -0.6108   22.6706  -27.2350 C   0  0  0  0  0  0  0  0  0  0  0  0
   -0.2029   23.1021  -28.6090 C   0  0  0  0  0  0  0  0  0  0  0  0
   -1.9469   22.3152  -27.0800 C   0  0  0  0  0  0  0  0  0  0  0  0
   -2.2905   21.9069  -25.8330 C   0  0  0  0  0  0  0  0  0  0  0  0
   -1.3442   21.8546  -24.7955 C   0  0  0  0  0  0  0  0  0  0  0  0
   -1.3958   21.3284  -23.1930 S   0  0  0  0  0  0  0  0  0  0  0  0
   -3.5764   21.5265  -25.4817 O   0  0  0  0  0  0  0  0  0  0  0  0
   -4.6070   22.5197  -25.4029 C   0  0  0  0  0  0  0  0  0  0  0  0
    0.9625   21.0067  -17.7566 C   0  0  0  0  0  0  0  0  0  0  0  0
    1.4670   21.8757  -16.9476 O   0  0  0  0  0  0  0  0  0  0  0  0
    0.2538   19.9614  -17.1358 N   0  0  0  0  0  0  0  0  0  0  0  0
    0.0455   20.0503  -15.6651 C   0  0  0  0  0  0  0  0  0  0  0  0
   -1.3730   19.6929  -15.3790 C   0  0  0  0  0  0  0  0  0  0  0  0
   -1.6222   18.3668  -15.8551 N   0  0  0  0  0  0  0  0  0  0  0  0
   -1.5326   18.2784  -17.2804 C   0  0  0  0  0  0  0  0  0  0  0  0
   -0.1467   18.7108  -17.6951 C   0  0  0  0  0  0  0  0  0  0  0  0
   -2.8377   17.8621  -15.3080 C   0  0  0  0  0  0  0  0  0  0  0  0
   -4.0637   18.3961  -16.0234 C   0  0  0  0  0  0  0  0  0  0  0  0
   -2.9623   18.1069  -13.8217 C   0  0  0  0  0  0  0  0  0  0  0  0
   -1.1013   21.9132  -19.9872 C   0  0  0  0  0  0  0  0  0  0  0  0
   -2.0183   20.9327  -19.6754 O   0  0  0  0  0  0  0  0  0  0  0  0
   -2.2849   22.6171  -17.9916 C   0  0  0  0  0  0  0  0  0  0  0  0
   -2.8985   21.4533  -18.7164 C   0  0  0  0  0  0  0  0  0  0  0  0
 38 39  1  0  0  0
 39 37  1  0  0  0
 37 36  1  0  0  0
 36  1  1  0  0  0
  1  2  1  0  0  0
  2 13  1  0  0  0
 13 14  2  0  0  0
 14 15  1  0  0  0
 15 16  2  0  0  0
 16 17  1  0  0  0
 17 18  1  0  0  0
 17 19  2  0  0  0
 19 20  1  0  0  0
 20 23  1  0  0  0
 23 24  1  0  0  0
 20 21  2  0  0  0
 21 22  1  0  0  0
  2  3  2  0  0  0
  3  4  1  0  0  0
  4  5  1  0  0  0
  4  6  2  0  0  0
  6  7  1  0  0  0
  7  8  2  0  0  0
  8  9  1  0  0  0
  9 10  1  0  0  0
 10 25  1  0  0  0
 25 26  2  0  0  0
 25 27  1  0  0  0
 27 28  1  0  0  0
 28 29  1  0  0  0
 29 30  1  0  0  0
 30 31  1  0  0  0
 31 32  1  0  0  0
 30 33  1  0  0  0
 33 34  1  0  0  0
 33 35  1  0  0  0
 10  1  2  0  0  0
 32 27  1  0  0  0
 22 13  1  0  0  0
  9  3  1  0  0  0
 21 15  1  0  0  0
  5 11  1  0  0  0
  5 12  1  0  0  0
M  END
> <minimizedAffinity>
-6.80887

> <CNNscore>
0.1651655287

> <CNNaffinity>
5.9710817337

> <CNN_VS>
0.9862168431

> <CNNaffinity_variance>
0.2732835412

$$$$
[H]c1nc(N([H])[H])c2c(-c3sc4c(OC([H])([H])[H])c([H])c(C([H])([H])[H])c([H])c4c3[H])c(C([H])([H])OC([H])([H])C([H])([H])[H])c(C(=O)N3C([H])([H])C([H])([H])N(C([H])(C([H])([H])[H])C([H])([H])[H])C([H])([H])C3([H])[H])n2n1


 39 43  0  0  0  0  0  0  0  0999 V2000
   -1.5224   21.7073  -21.7509 C   0  0  0  0  0  0  0  0  0  0  0  0
   -1.1014   21.9366  -23.0775 C   0  0  0  0  0  0  0  0  0  0  0  0
    0.2102   21.6286  -23.1296 C   0  0  0  0  0  0  0  0  0  0  0  0
    1.1379   21.5721  -24.1492 C   0  0  0  0  0  0  0  0  0  0  0  0
    0.8701   21.8175  -25.5161 N   0  0  0  0  0  0  0  0  0  0  0  0
    2.3986   21.1411  -23.8664 N   0  0  0  0  0  0  0  0  0  0  0  0
    2.7619   20.7684  -22.6433 C   0  0  0  0  0  0  0  0  0  0  0  0
    1.8319   20.8332  -21.6991 N   0  0  0  0  0  0  0  0  0  0  0  0
    0.5937   21.2354  -21.8736 N   0  0  0  0  0  0  0  0  0  0  0  0
   -0.4577   21.2728  -20.9983 C   0  0  0  0  0  0  0  0  0  0  0  0
    0.2741   21.1862  -26.1009 H   0  0  0  0  0  0  0  0  0  0  0  0
    1.3119   22.6496  -25.9865 H   0  0  0  0  0  0  0  0  0  0  0  0
   -1.9724   22.5362  -24.1068 C   0  0  0  0  0  0  0  0  0  0  0  0
   -2.2478   22.1629  -25.3882 C   0  0  0  0  0  0  0  0  0  0  0  0
   -3.1592   22.8729  -26.0858 C   0  0  0  0  0  0  0  0  0  0  0  0
   -3.6177   22.5875  -27.3907 C   0  0  0  0  0  0  0  0  0  0  0  0
   -4.5968   23.3624  -27.9445 C   0  0  0  0  0  0  0  0  0  0  0  0
   -5.0968   23.0405  -29.3181 C   0  0  0  0  0  0  0  0  0  0  0  0
   -5.2009   24.4460  -27.3150 C   0  0  0  0  0  0  0  0  0  0  0  0
   -4.7484   24.7072  -26.0632 C   0  0  0  0  0  0  0  0  0  0  0  0
   -3.7445   23.9219  -25.4715 C   0  0  0  0  0  0  0  0  0  0  0  0
   -3.0242   23.9026  -23.9456 S   0  0  0  0  0  0  0  0  0  0  0  0
   -5.2185   25.7532  -25.2844 O   0  0  0  0  0  0  0  0  0  0  0  0
   -4.9300   27.1030  -25.6712 C   0  0  0  0  0  0  0  0  0  0  0  0
   -0.4100   20.6912  -19.6704 C   0  0  0  0  0  0  0  0  0  0  0  0
   -0.8729   19.5025  -19.4783 O   0  0  0  0  0  0  0  0  0  0  0  0
    0.0957   21.3227  -18.5191 N   0  0  0  0  0  0  0  0  0  0  0  0
    0.1729   20.5170  -17.2705 C   0  0  0  0  0  0  0  0  0  0  0  0
    1.4998   20.7706  -16.6406 C   0  0  0  0  0  0  0  0  0  0  0  0
    1.6202   22.1684  -16.3596 N   0  0  0  0  0  0  0  0  0  0  0  0
    1.6559   22.9584  -17.5522 C   0  0  0  0  0  0  0  0  0  0  0  0
    0.3831   22.7073  -18.3245 C   0  0  0  0  0  0  0  0  0  0  0  0
    2.7028   22.4041  -15.4632 C   0  0  0  0  0  0  0  0  0  0  0  0
    2.2412   22.5985  -14.0317 C   0  0  0  0  0  0  0  0  0  0  0  0
    3.5755   23.5643  -15.8840 C   0  0  0  0  0  0  0  0  0  0  0  0
   -2.8958   21.8768  -21.2425 C   0  0  0  0  0  0  0  0  0  0  0  0
   -3.0693   22.8883  -20.3227 O   0  0  0  0  0  0  0  0  0  0  0  0
   -3.3574   22.4212  -17.9898 C   0  0  0  0  0  0  0  0  0  0  0  0
   -3.9814   22.4420  -19.3561 C   0  0  0  0  0  0  0  0  0  0  0  0
 38 39  1  0  0  0
 39 37  1  0  0  0
 37 36  1  0  0  0
 36  1  1  0  0  0
  1  2  1  0  0  0
  2 13  1  0  0  0
 13 14  2  0  0  0
 14 15  1  0  0  0
 15 16  2  0  0  0
 16 17  1  0  0  0
 17 18  1  0  0  0
 17 19  2  0  0  0
 19 20  1  0  0  0
 20 23  1  0  0  0
 23 24  1  0  0  0
 20 21  2  0  0  0
 21 22  1  0  0  0
  2  3  2  0  0  0
  3  4  1  0  0  0
  4  5  1  0  0  0
  4  6  2  0  0  0
  6  7  1  0  0  0
  7  8  2  0  0  0
  8  9  1  0  0  0
  9 10  1  0  0  0
 10 25  1  0  0  0
 25 26  2  0  0  0
 25 27  1  0  0  0
 27 28  1  0  0  0
 28 29  1  0  0  0
 29 30  1  0  0  0
 30 31  1  0  0  0
 31 32  1  0  0  0
 30 33  1  0  0  0
 33 34  1  0  0  0
 33 35  1  0  0  0
 10  1  2  0  0  0
 32 27  1  0  0  0
 22 13  1  0  0  0
  9  3  1  0  0  0
 21 15  1  0  0  0
  5 11  1  0  0  0
  5 12  1  0  0  0
M  END
> <minimizedAffinity>
-8.11637

> <CNNscore>
0.1614343375

> <CNNaffinity>
6.5434885025

> <CNN_VS>
1.0563436747

> <CNNaffinity_variance>
0.2199434340

$$$$
[H]c1nc(N([H])[H])c2c(-c3sc4c(OC([H])([H])[H])c([H])c(C([H])([H])[H])c([H])c4c3[H])c(C([H])([H])OC([H])([H])C([H])([H])[H])c(C(=O)N3C([H])([H])C([H])([H])N(C([H])(C([H])([H])[H])C([H])([H])[H])C([H])([H])C3([H])[H])n2n1


 39 43  0  0  0  0  0  0  0  0999 V2000
   -6.0506   22.4351  -22.4030 C   0  0  0  0  0  0  0  0  0  0  0  0
   -6.0927   23.3864  -23.4437 C   0  0  0  0  0  0  0  0  0  0  0  0
   -7.1743   24.1601  -23.2217 C   0  0  0  0  0  0  0  0  0  0  0  0
   -7.6856   25.2851  -23.8353 C   0  0  0  0  0  0  0  0  0  0  0  0
   -7.0962   25.9627  -24.9280 N   0  0  0  0  0  0  0  0  0  0  0  0
   -8.7877   25.8807  -23.3008 N   0  0  0  0  0  0  0  0  0  0  0  0
   -9.3822   25.4175  -22.2059 C   0  0  0  0  0  0  0  0  0  0  0  0
   -8.8481   24.3383  -21.6483 N   0  0  0  0  0  0  0  0  0  0  0  0
   -7.7912   23.6951  -22.0893 N   0  0  0  0  0  0  0  0  0  0  0  0
   -7.1181   22.6279  -21.5591 C   0  0  0  0  0  0  0  0  0  0  0  0
   -6.1923   26.4851  -24.8523 H   0  0  0  0  0  0  0  0  0  0  0  0
   -7.5962   25.9790  -25.8546 H   0  0  0  0  0  0  0  0  0  0  0  0
   -5.1643   23.3673  -24.5905 C   0  0  0  0  0  0  0  0  0  0  0  0
   -3.8080   23.2506  -24.6545 C   0  0  0  0  0  0  0  0  0  0  0  0
   -3.2221   23.1872  -25.8687 C   0  0  0  0  0  0  0  0  0  0  0  0
   -1.8461   22.9946  -26.1217 C   0  0  0  0  0  0  0  0  0  0  0  0
   -1.4077   22.8852  -27.4107 C   0  0  0  0  0  0  0  0  0  0  0  0
    0.0481   22.6564  -27.6725 C   0  0  0  0  0  0  0  0  0  0  0  0
   -2.2254   22.9510  -28.5342 C   0  0  0  0  0  0  0  0  0  0  0  0
   -3.5436   23.1373  -28.2739 C   0  0  0  0  0  0  0  0  0  0  0  0
   -4.0184   23.2492  -26.9560 C   0  0  0  0  0  0  0  0  0  0  0  0
   -5.5567   23.3923  -26.2771 S   0  0  0  0  0  0  0  0  0  0  0  0
   -4.5095   23.2421  -29.2626 O   0  0  0  0  0  0  0  0  0  0  0  0
   -4.8310   24.5324  -29.7978 C   0  0  0  0  0  0  0  0  0  0  0  0
   -7.3976   22.0831  -20.2443 C   0  0  0  0  0  0  0  0  0  0  0  0
   -7.8600   20.8836  -20.1365 O   0  0  0  0  0  0  0  0  0  0  0  0
   -7.2241   22.7625  -19.0242 N   0  0  0  0  0  0  0  0  0  0  0  0
   -7.4483   21.9928  -17.7706 C   0  0  0  0  0  0  0  0  0  0  0  0
   -6.3365   22.3112  -16.8302 C   0  0  0  0  0  0  0  0  0  0  0  0
   -6.3329   23.7193  -16.5762 N   0  0  0  0  0  0  0  0  0  0  0  0
   -6.0137   24.4788  -17.7461 C   0  0  0  0  0  0  0  0  0  0  0  0
   -7.0366   24.1612  -18.8102 C   0  0  0  0  0  0  0  0  0  0  0  0
   -5.5252   24.0178  -15.4405 C   0  0  0  0  0  0  0  0  0  0  0  0
   -4.5598   22.8981  -15.1027 C   0  0  0  0  0  0  0  0  0  0  0  0
   -6.3368   24.3831  -14.2188 C   0  0  0  0  0  0  0  0  0  0  0  0
   -5.0122   21.4046  -22.2206 C   0  0  0  0  0  0  0  0  0  0  0  0
   -4.1790   21.5847  -21.1377 O   0  0  0  0  0  0  0  0  0  0  0  0
   -2.3647   23.1434  -21.2863 C   0  0  0  0  0  0  0  0  0  0  0  0
   -2.8762   21.7712  -21.6208 C   0  0  0  0  0  0  0  0  0  0  0  0
 38 39  1  0  0  0
 39 37  1  0  0  0
 37 36  1  0  0  0
 36  1  1  0  0  0
  1  2  1  0  0  0
  2 13  1  0  0  0
 13 14  2  0  0  0
 14 15  1  0  0  0
 15 16  2  0  0  0
 16 17  1  0  0  0
 17 18  1  0  0  0
 17 19  2  0  0  0
 19 20  1  0  0  0
 20 23  1  0  0  0
 23 24  1  0  0  0
 20 21  2  0  0  0
 21 22  1  0  0  0
  2  3  2  0  0  0
  3  4  1  0  0  0
  4  5  1  0  0  0
  4  6  2  0  0  0
  6  7  1  0  0  0
  7  8  2  0  0  0
  8  9  1  0  0  0
  9 10  1  0  0  0
 10 25  1  0  0  0
 25 26  2  0  0  0
 25 27  1  0  0  0
 27 28  1  0  0  0
 28 29  1  0  0  0
 29 30  1  0  0  0
 30 31  1  0  0  0
 31 32  1  0  0  0
 30 33  1  0  0  0
 33 34  1  0  0  0
 33 35  1  0  0  0
 10  1  2  0  0  0
 32 27  1  0  0  0
 22 13  1  0  0  0
  9  3  1  0  0  0
 21 15  1  0  0  0
  5 11  1  0  0  0
  5 12  1  0  0  0
M  END
> <minimizedAffinity>
-8.52228

> <CNNscore>
0.0681746751

> <CNNaffinity>
6.1010303497

> <CNN_VS>
0.4159357548

> <CNNaffinity_variance>
0.4318459630

$$$$
[H]c1nc(N([H])[H])c2c(-c3sc4c(OC([H])([H])[H])c([H])c(C([H])([H])[H])c([H])c4c3[H])c(C([H])([H])OC([H])([H])C([H])([H])[H])c(C(=O)N3C([H])([H])C([H])([H])N(C([H])(C([H])([H])[H])C([H])([H])[H])C([H])([H])C3([H])[H])n2n1


 39 43  0  0  0  0  0  0  0  0999 V2000
   -0.9487   21.0110  -20.9858 C   0  0  0  0  0  0  0  0  0  0  0  0
   -1.9295   21.8374  -21.5730 C   0  0  0  0  0  0  0  0  0  0  0  0
   -2.8308   22.1179  -20.6102 C   0  0  0  0  0  0  0  0  0  0  0  0
   -3.9472   22.9265  -20.5539 C   0  0  0  0  0  0  0  0  0  0  0  0
   -4.4139   23.7542  -21.6016 N   0  0  0  0  0  0  0  0  0  0  0  0
   -4.6135   23.0442  -19.3719 N   0  0  0  0  0  0  0  0  0  0  0  0
   -4.2205   22.4109  -18.2713 C   0  0  0  0  0  0  0  0  0  0  0  0
   -3.1370   21.6518  -18.3747 N   0  0  0  0  0  0  0  0  0  0  0  0
   -2.4304   21.4749  -19.4677 N   0  0  0  0  0  0  0  0  0  0  0  0
   -1.2675   20.7819  -19.6688 C   0  0  0  0  0  0  0  0  0  0  0  0
   -3.8911   24.5971  -21.9361 H   0  0  0  0  0  0  0  0  0  0  0  0
   -5.3435   23.5438  -22.0493 H   0  0  0  0  0  0  0  0  0  0  0  0
   -1.9531   22.1616  -23.0124 C   0  0  0  0  0  0  0  0  0  0  0  0
   -0.9484   22.3568  -23.9123 C   0  0  0  0  0  0  0  0  0  0  0  0
   -1.2721   22.5702  -25.2049 C   0  0  0  0  0  0  0  0  0  0  0  0
   -0.3660   22.7190  -26.2780 C   0  0  0  0  0  0  0  0  0  0  0  0
   -0.8456   22.8642  -27.5486 C   0  0  0  0  0  0  0  0  0  0  0  0
    0.1192   22.9965  -28.6853 C   0  0  0  0  0  0  0  0  0  0  0  0
   -2.1943   22.8811  -27.8896 C   0  0  0  0  0  0  0  0  0  0  0  0
   -3.0509   22.7383  -26.8476 C   0  0  0  0  0  0  0  0  0  0  0  0
   -2.5809   22.5838  -25.5323 C   0  0  0  0  0  0  0  0  0  0  0  0
   -3.3336   22.3005  -24.0489 S   0  0  0  0  0  0  0  0  0  0  0  0
   -4.4301   22.7439  -26.9871 O   0  0  0  0  0  0  0  0  0  0  0  0
   -5.0125   23.2404  -28.1992 C   0  0  0  0  0  0  0  0  0  0  0  0
   -0.4866   20.2061  -18.5906 C   0  0  0  0  0  0  0  0  0  0  0  0
   -0.6193   18.9550  -18.3052 O   0  0  0  0  0  0  0  0  0  0  0  0
    0.4270   20.9045  -17.7797 N   0  0  0  0  0  0  0  0  0  0  0  0
    1.2258   20.1133  -16.8050 C   0  0  0  0  0  0  0  0  0  0  0  0
    2.6390   20.5813  -16.8809 C   0  0  0  0  0  0  0  0  0  0  0  0
    2.6826   21.9772  -16.5696 N   0  0  0  0  0  0  0  0  0  0  0  0
    2.0106   22.7713  -17.5520 C   0  0  0  0  0  0  0  0  0  0  0  0
    0.5730   22.3160  -17.6259 C   0  0  0  0  0  0  0  0  0  0  0  0
    4.0209   22.3843  -16.2966 C   0  0  0  0  0  0  0  0  0  0  0  0
    4.1340   23.8740  -16.0356 C   0  0  0  0  0  0  0  0  0  0  0  0
    4.9941   21.9766  -17.3788 C   0  0  0  0  0  0  0  0  0  0  0  0
    0.2532   20.4888  -21.6613 C   0  0  0  0  0  0  0  0  0  0  0  0
    1.4497   21.0414  -21.2583 O   0  0  0  0  0  0  0  0  0  0  0  0
    2.7714   20.8075  -23.2437 C   0  0  0  0  0  0  0  0  0  0  0  0
    2.4864   20.3103  -21.8552 C   0  0  0  0  0  0  0  0  0  0  0  0
 38 39  1  0  0  0
 39 37  1  0  0  0
 37 36  1  0  0  0
 36  1  1  0  0  0
  1  2  1  0  0  0
  2 13  1  0  0  0
 13 14  2  0  0  0
 14 15  1  0  0  0
 15 16  2  0  0  0
 16 17  1  0  0  0
 17 18  1  0  0  0
 17 19  2  0  0  0
 19 20  1  0  0  0
 20 23  1  0  0  0
 23 24  1  0  0  0
 20 21  2  0  0  0
 21 22  1  0  0  0
  2  3  2  0  0  0
  3  4  1  0  0  0
  4  5  1  0  0  0
  4  6  2  0  0  0
  6  7  1  0  0  0
  7  8  2  0  0  0
  8  9  1  0  0  0
  9 10  1  0  0  0
 10 25  1  0  0  0
 25 26  2  0  0  0
 25 27  1  0  0  0
 27 28  1  0  0  0
 28 29  1  0  0  0
 29 30  1  0  0  0
 30 31  1  0  0  0
 31 32  1  0  0  0
 30 33  1  0  0  0
 33 34  1  0  0  0
 33 35  1  0  0  0
 10  1  2  0  0  0
 32 27  1  0  0  0
 22 13  1  0  0  0
  9  3  1  0  0  0
 21 15  1  0  0  0
  5 11  1  0  0  0
  5 12  1  0  0  0
M  END
> <minimizedAffinity>
-7.53794

> <CNNscore>
0.0448936112

> <CNNaffinity>
5.8668341637

> <CNN_VS>
0.2633833587

> <CNNaffinity_variance>
0.4418018460

$$$$
[H]c1nc(N([H])C(=O)c2c([H])c([H])c(C3([H])C([H])([H])C([H])([H])N(C([H])(C([H])([H])[H])C([H])([H])[H])C([H])([H])C3([H])[H])c([H])c2[H])c([H])c(Oc2c(OC([H])([H])C([H])([H])C([H])([H])OC([H])([H])[H])c([H])c3c(c2[H])c([H])c([H])n3C(=O)N([H])C([H])([H])[H])c1[H]


 46 50  0  0  0  0  0  0  0  0999 V2000
   -2.2537   22.6566  -27.2940 C   0  0  0  0  0  0  0  0  0  0  0  0
   -1.5876   23.1944  -28.3828 C   0  0  0  0  0  0  0  0  0  0  0  0
   -0.2159   23.2021  -28.3498 C   0  0  0  0  0  0  0  0  0  0  0  0
    0.4634   22.7239  -27.3358 N   0  0  0  0  0  0  0  0  0  0  0  0
   -0.1184   22.1907  -26.2505 C   0  0  0  0  0  0  0  0  0  0  0  0
   -1.4871   22.1557  -26.2284 C   0  0  0  0  0  0  0  0  0  0  0  0
    0.6894   21.6971  -25.2053 N   0  0  0  0  0  0  0  0  0  0  0  0
    0.5279   21.8023  -23.8207 C   0  0  0  0  0  0  0  0  0  0  0  0
   -0.4031   22.3932  -23.2761 O   0  0  0  0  0  0  0  0  0  0  0  0
    1.5671   21.1416  -25.5458 H   0  0  0  0  0  0  0  0  0  0  0  0
    1.5220   21.1731  -22.9201 C   0  0  0  0  0  0  0  0  0  0  0  0
    2.7644   20.8861  -23.3877 C   0  0  0  0  0  0  0  0  0  0  0  0
    3.6892   20.2834  -22.5436 C   0  0  0  0  0  0  0  0  0  0  0  0
    3.4150   19.9558  -21.2388 C   0  0  0  0  0  0  0  0  0  0  0  0
    2.1336   20.2605  -20.7857 C   0  0  0  0  0  0  0  0  0  0  0  0
    1.2058   20.8596  -21.6185 C   0  0  0  0  0  0  0  0  0  0  0  0
    4.4380   19.3397  -20.4124 C   0  0  0  0  0  0  0  0  0  0  0  0
    5.3918   20.3789  -19.7936 C   0  0  0  0  0  0  0  0  0  0  0  0
    6.2584   19.6899  -18.7589 C   0  0  0  0  0  0  0  0  0  0  0  0
    6.0325   18.2914  -18.8507 N   0  0  0  0  0  0  0  0  0  0  0  0
    6.2770   17.7207  -20.1233 C   0  0  0  0  0  0  0  0  0  0  0  0
    5.2453   18.2652  -21.1019 C   0  0  0  0  0  0  0  0  0  0  0  0
    6.2365   17.5046  -17.7010 C   0  0  0  0  0  0  0  0  0  0  0  0
    4.8579   17.0431  -17.2103 C   0  0  0  0  0  0  0  0  0  0  0  0
    6.9768   16.2409  -18.0853 C   0  0  0  0  0  0  0  0  0  0  0  0
   -3.6121   22.6446  -27.3266 O   0  0  0  0  0  0  0  0  0  0  0  0
   -8.7966   26.3288  -20.9211 C   0  0  0  0  0  0  0  0  0  0  0  0
   -8.0877   25.1201  -21.3329 N   0  0  0  0  0  0  0  0  0  0  0  0
   -7.3760   25.1327  -22.5738 C   0  0  0  0  0  0  0  0  0  0  0  0
   -7.3875   26.2023  -23.2784 O   0  0  0  0  0  0  0  0  0  0  0  0
   -6.6682   23.9930  -23.0272 N   0  0  0  0  0  0  0  0  0  0  0  0
   -6.6189   22.8462  -22.3349 C   0  0  0  0  0  0  0  0  0  0  0  0
   -5.8641   21.9093  -22.9894 C   0  0  0  0  0  0  0  0  0  0  0  0
   -5.4252   22.5167  -24.1481 C   0  0  0  0  0  0  0  0  0  0  0  0
   -4.6538   22.1374  -25.2062 C   0  0  0  0  0  0  0  0  0  0  0  0
   -4.3837   22.9850  -26.2402 C   0  0  0  0  0  0  0  0  0  0  0  0
   -4.8949   24.3098  -26.2650 C   0  0  0  0  0  0  0  0  0  0  0  0
   -5.6912   24.6781  -25.1577 C   0  0  0  0  0  0  0  0  0  0  0  0
   -5.9420   23.8182  -24.1490 C   0  0  0  0  0  0  0  0  0  0  0  0
   -8.1065   24.2872  -20.7407 H   0  0  0  0  0  0  0  0  0  0  0  0
   -4.6289   25.1004  -27.2453 O   0  0  0  0  0  0  0  0  0  0  0  0
   -4.3628   25.8785  -28.2184 C   0  0  0  0  0  0  0  0  0  0  0  0
   -4.2501   25.1527  -29.5699 C   0  0  0  0  0  0  0  0  0  0  0  0
   -5.5179   24.4011  -29.8351 C   0  0  0  0  0  0  0  0  0  0  0  0
   -5.8597   24.4768  -31.1650 O   0  0  0  0  0  0  0  0  0  0  0  0
   -5.6691   25.7226  -31.6894 C   0  0  0  0  0  0  0  0  0  0  0  0
 27 28  1  0  0  0
 28 29  1  0  0  0
 29 30  2  0  0  0
 29 31  1  0  0  0
 31 32  1  0  0  0
 32 33  2  0  0  0
 33 34  1  0  0  0
 34 35  2  0  0  0
 35 36  1  0  0  0
 36 26  1  0  0  0
 26  1  1  0  0  0
  1  2  2  0  0  0
  2  3  1  0  0  0
  3  4  2  0  0  0
  4  5  1  0  0  0
  5  7  1  0  0  0
  7  8  1  0  0  0
  8  9  2  0  0  0
  8 11  1  0  0  0
 11 12  2  0  0  0
 12 13  1  0  0  0
 13 14  2  0  0  0
 14 15  1  0  0  0
 15 16  2  0  0  0
 14 17  1  0  0  0
 17 18  1  0  0  0
 18 19  1  0  0  0
 19 20  1  0  0  0
 20 21  1  0  0  0
 21 22  1  0  0  0
 20 23  1  0  0  0
 23 24  1  0  0  0
 23 25  1  0  0  0
  5  6  2  0  0  0
 36 37  2  0  0  0
 37 41  1  0  0  0
 41 42  1  0  0  0
 42 43  1  0  0  0
 43 44  1  0  0  0
 44 45  1  0  0  0
 45 46  1  0  0  0
 37 38  1  0  0  0
 38 39  2  0  0  0
 39 31  1  0  0  0
 39 34  1  0  0  0
  6  1  1  0  0  0
 16 11  1  0  0  0
 22 17  1  0  0  0
 28 40  1  0  0  0
  7 10  1  0  0  0
M  END
> <minimizedAffinity>
-8.55023

> <CNNscore>
0.8842886686

> <CNNaffinity>
7.6741089821

> <CNN_VS>
6.7861275673

> <CNNaffinity_variance>
0.0527967103

$$$$
[H]c1nc(N([H])C(=O)c2c([H])c([H])c(C3([H])C([H])([H])C([H])([H])N(C([H])(C([H])([H])[H])C([H])([H])[H])C([H])([H])C3([H])[H])c([H])c2[H])c([H])c(Oc2c(OC([H])([H])C([H])([H])C([H])([H])OC([H])([H])[H])c([H])c3c(c2[H])c([H])c([H])n3C(=O)N([H])C([H])([H])[H])c1[H]


 46 50  0  0  0  0  0  0  0  0999 V2000
   -1.8284   22.3826  -26.3969 C   0  0  0  0  0  0  0  0  0  0  0  0
   -0.8964   22.5170  -27.4126 C   0  0  0  0  0  0  0  0  0  0  0  0
    0.4303   22.4204  -27.0764 C   0  0  0  0  0  0  0  0  0  0  0  0
    0.8276   22.2091  -25.8452 N   0  0  0  0  0  0  0  0  0  0  0  0
   -0.0212   22.0710  -24.8151 C   0  0  0  0  0  0  0  0  0  0  0  0
   -1.3595   22.1576  -25.0917 C   0  0  0  0  0  0  0  0  0  0  0  0
    0.4927   21.8437  -23.5217 N   0  0  0  0  0  0  0  0  0  0  0  0
    1.6359   21.1462  -23.1206 C   0  0  0  0  0  0  0  0  0  0  0  0
    2.4069   20.5797  -23.8934 O   0  0  0  0  0  0  0  0  0  0  0  0
   -0.0992   22.2964  -22.7219 H   0  0  0  0  0  0  0  0  0  0  0  0
    1.9727   21.0637  -21.6801 C   0  0  0  0  0  0  0  0  0  0  0  0
    0.9807   20.8978  -20.7673 C   0  0  0  0  0  0  0  0  0  0  0  0
    1.2998   20.8349  -19.4162 C   0  0  0  0  0  0  0  0  0  0  0  0
    2.5844   20.9313  -18.9414 C   0  0  0  0  0  0  0  0  0  0  0  0
    3.5816   21.1016  -19.8989 C   0  0  0  0  0  0  0  0  0  0  0  0
    3.2740   21.1664  -21.2460 C   0  0  0  0  0  0  0  0  0  0  0  0
    2.8420   20.8426  -17.5149 C   0  0  0  0  0  0  0  0  0  0  0  0
    2.6622   19.4101  -16.9779 C   0  0  0  0  0  0  0  0  0  0  0  0
    3.1884   19.3522  -15.5580 C   0  0  0  0  0  0  0  0  0  0  0  0
    3.4863   20.6760  -15.1407 N   0  0  0  0  0  0  0  0  0  0  0  0
    2.4056   21.5887  -15.2042 C   0  0  0  0  0  0  0  0  0  0  0  0
    2.0395   21.8010  -16.6669 C   0  0  0  0  0  0  0  0  0  0  0  0
    4.4755   20.8594  -14.1556 C   0  0  0  0  0  0  0  0  0  0  0  0
    5.8148   21.0489  -14.8801 C   0  0  0  0  0  0  0  0  0  0  0  0
    4.2187   22.1610  -13.4259 C   0  0  0  0  0  0  0  0  0  0  0  0
   -3.1430   22.4741  -26.7287 O   0  0  0  0  0  0  0  0  0  0  0  0
  -10.2971   25.8278  -22.3637 C   0  0  0  0  0  0  0  0  0  0  0  0
   -8.9431   25.3030  -22.2078 N   0  0  0  0  0  0  0  0  0  0  0  0
   -8.2346   24.8780  -23.3756 C   0  0  0  0  0  0  0  0  0  0  0  0
   -8.8135   24.9720  -24.5144 O   0  0  0  0  0  0  0  0  0  0  0  0
   -6.9188   24.3615  -23.2901 N   0  0  0  0  0  0  0  0  0  0  0  0
   -6.2610   24.2391  -22.1286 C   0  0  0  0  0  0  0  0  0  0  0  0
   -5.0079   23.7226  -22.3257 C   0  0  0  0  0  0  0  0  0  0  0  0
   -4.8908   23.5178  -23.6853 C   0  0  0  0  0  0  0  0  0  0  0  0
   -3.9171   23.0386  -24.5105 C   0  0  0  0  0  0  0  0  0  0  0  0
   -4.0964   22.9512  -25.8599 C   0  0  0  0  0  0  0  0  0  0  0  0
   -5.3111   23.3569  -26.4736 C   0  0  0  0  0  0  0  0  0  0  0  0
   -6.3038   23.8491  -25.5971 C   0  0  0  0  0  0  0  0  0  0  0  0
   -6.0986   23.9239  -24.2659 C   0  0  0  0  0  0  0  0  0  0  0  0
   -8.5196   25.2434  -21.2794 H   0  0  0  0  0  0  0  0  0  0  0  0
   -5.4653   23.2724  -27.7488 O   0  0  0  0  0  0  0  0  0  0  0  0
   -5.6131   23.1921  -29.0117 C   0  0  0  0  0  0  0  0  0  0  0  0
   -4.9543   24.3502  -29.7802 C   0  0  0  0  0  0  0  0  0  0  0  0
   -5.4193   25.6528  -29.2063 C   0  0  0  0  0  0  0  0  0  0  0  0
   -5.4412   26.6307  -30.1729 O   0  0  0  0  0  0  0  0  0  0  0  0
   -5.4135   26.1224  -31.4395 C   0  0  0  0  0  0  0  0  0  0  0  0
 27 28  1  0  0  0
 28 29  1  0  0  0
 29 30  2  0  0  0
 29 31  1  0  0  0
 31 32  1  0  0  0
 32 33  2  0  0  0
 33 34  1  0  0  0
 34 35  2  0  0  0
 35 36  1  0  0  0
 36 26  1  0  0  0
 26  1  1  0  0  0
  1  2  2  0  0  0
  2  3  1  0  0  0
  3  4  2  0  0  0
  4  5  1  0  0  0
  5  7  1  0  0  0
  7  8  1  0  0  0
  8  9  2  0  0  0
  8 11  1  0  0  0
 11 12  2  0  0  0
 12 13  1  0  0  0
 13 14  2  0  0  0
 14 15  1  0  0  0
 15 16  2  0  0  0
 14 17  1  0  0  0
 17 18  1  0  0  0
 18 19  1  0  0  0
 19 20  1  0  0  0
 20 21  1  0  0  0
 21 22  1  0  0  0
 20 23  1  0  0  0
 23 24  1  0  0  0
 23 25  1  0  0  0
  5  6  2  0  0  0
 36 37  2  0  0  0
 37 41  1  0  0  0
 41 42  1  0  0  0
 42 43  1  0  0  0
 43 44  1  0  0  0
 44 45  1  0  0  0
 45 46  1  0  0  0
 37 38  1  0  0  0
 38 39  2  0  0  0
 39 31  1  0  0  0
 39 34  1  0  0  0
  6  1  1  0  0  0
 16 11  1  0  0  0
 22 17  1  0  0  0
 28 40  1  0  0  0
  7 10  1  0  0  0
M  END
> <minimizedAffinity>
-7.99681

> <CNNscore>
0.3576862514

> <CNNaffinity>
7.1948423386

> <CNN_VS>
2.5734961033

> <CNNaffinity_variance>
0.1104555279

$$$$
[H]c1nc(N([H])C(=O)c2c([H])c([H])c(C3([H])C([H])([H])C([H])([H])N(C([H])(C([H])([H])[H])C([H])([H])[H])C([H])([H])C3([H])[H])c([H])c2[H])c([H])c(Oc2c(OC([H])([H])C([H])([H])C([H])([H])OC([H])([H])[H])c([H])c3c(c2[H])c([H])c([H])n3C(=O)N([H])C([H])([H])[H])c1[H]


 46 50  0  0  0  0  0  0  0  0999 V2000
    0.9162   20.5840  -21.5683 C   0  0  0  0  0  0  0  0  0  0  0  0
    2.2354   20.1679  -21.6388 C   0  0  0  0  0  0  0  0  0  0  0  0
    2.5364   18.9202  -21.1535 C   0  0  0  0  0  0  0  0  0  0  0  0
    1.6263   18.1312  -20.6365 N   0  0  0  0  0  0  0  0  0  0  0  0
    0.3323   18.4721  -20.5367 C   0  0  0  0  0  0  0  0  0  0  0  0
   -0.0269   19.7072  -21.0062 C   0  0  0  0  0  0  0  0  0  0  0  0
   -0.5809   17.5602  -19.9682 N   0  0  0  0  0  0  0  0  0  0  0  0
   -0.4979   16.1708  -19.8387 C   0  0  0  0  0  0  0  0  0  0  0  0
    0.4465   15.4940  -20.2419 O   0  0  0  0  0  0  0  0  0  0  0  0
   -1.4820   18.0276  -19.5625 H   0  0  0  0  0  0  0  0  0  0  0  0
   -1.5994   15.4322  -19.1780 C   0  0  0  0  0  0  0  0  0  0  0  0
   -2.6348   14.9643  -19.9220 C   0  0  0  0  0  0  0  0  0  0  0  0
   -3.6726   14.2842  -19.2962 C   0  0  0  0  0  0  0  0  0  0  0  0
   -3.7123   14.0523  -17.9436 C   0  0  0  0  0  0  0  0  0  0  0  0
   -2.6384   14.5435  -17.2049 C   0  0  0  0  0  0  0  0  0  0  0  0
   -1.6012   15.2225  -17.8184 C   0  0  0  0  0  0  0  0  0  0  0  0
   -4.8243   13.3211  -17.3625 C   0  0  0  0  0  0  0  0  0  0  0  0
   -4.3569   12.1038  -16.5425 C   0  0  0  0  0  0  0  0  0  0  0  0
   -5.5393   11.5521  -15.7718 C   0  0  0  0  0  0  0  0  0  0  0  0
   -6.7099   12.2207  -16.2163 N   0  0  0  0  0  0  0  0  0  0  0  0
   -6.9700   12.1279  -17.6051 C   0  0  0  0  0  0  0  0  0  0  0  0
   -5.8798   12.8849  -18.3512 C   0  0  0  0  0  0  0  0  0  0  0  0
   -7.7953   12.3309  -15.3262 C   0  0  0  0  0  0  0  0  0  0  0  0
   -7.4544   13.4399  -14.3221 C   0  0  0  0  0  0  0  0  0  0  0  0
   -9.0122   12.8236  -16.0805 C   0  0  0  0  0  0  0  0  0  0  0  0
    0.6156   21.8178  -22.0520 O   0  0  0  0  0  0  0  0  0  0  0  0
   -4.7078   23.2590  -29.1982 C   0  0  0  0  0  0  0  0  0  0  0  0
   -3.3408   22.9801  -28.7660 N   0  0  0  0  0  0  0  0  0  0  0  0
   -3.0779   22.8508  -27.3658 C   0  0  0  0  0  0  0  0  0  0  0  0
   -4.0500   22.9854  -26.5427 O   0  0  0  0  0  0  0  0  0  0  0  0
   -1.7741   22.5794  -26.8844 N   0  0  0  0  0  0  0  0  0  0  0  0
   -0.7176   22.4280  -27.6954 C   0  0  0  0  0  0  0  0  0  0  0  0
    0.4191   22.1658  -26.9778 C   0  0  0  0  0  0  0  0  0  0  0  0
    0.0374   22.1550  -25.6518 C   0  0  0  0  0  0  0  0  0  0  0  0
    0.6758   21.9576  -24.4635 C   0  0  0  0  0  0  0  0  0  0  0  0
    0.0122   22.0097  -23.2729 C   0  0  0  0  0  0  0  0  0  0  0  0
   -1.3820   22.2730  -23.2128 C   0  0  0  0  0  0  0  0  0  0  0  0
   -2.0200   22.4742  -24.4572 C   0  0  0  0  0  0  0  0  0  0  0  0
   -1.3378   22.4170  -25.6196 C   0  0  0  0  0  0  0  0  0  0  0  0
   -2.5940   22.8823  -29.4572 H   0  0  0  0  0  0  0  0  0  0  0  0
   -1.9964   22.3155  -22.0824 O   0  0  0  0  0  0  0  0  0  0  0  0
   -2.6018   22.3525  -20.9620 C   0  0  0  0  0  0  0  0  0  0  0  0
   -4.0176   22.9471  -21.0504 C   0  0  0  0  0  0  0  0  0  0  0  0
   -4.8817   22.0466  -21.8780 C   0  0  0  0  0  0  0  0  0  0  0  0
   -5.8235   22.7739  -22.5673 O   0  0  0  0  0  0  0  0  0  0  0  0
   -5.3092   23.9070  -23.1285 C   0  0  0  0  0  0  0  0  0  0  0  0
 27 28  1  0  0  0
 28 29  1  0  0  0
 29 30  2  0  0  0
 29 31  1  0  0  0
 31 32  1  0  0  0
 32 33  2  0  0  0
 33 34  1  0  0  0
 34 35  2  0  0  0
 35 36  1  0  0  0
 36 26  1  0  0  0
 26  1  1  0  0  0
  1  2  2  0  0  0
  2  3  1  0  0  0
  3  4  2  0  0  0
  4  5  1  0  0  0
  5  7  1  0  0  0
  7  8  1  0  0  0
  8  9  2  0  0  0
  8 11  1  0  0  0
 11 12  2  0  0  0
 12 13  1  0  0  0
 13 14  2  0  0  0
 14 15  1  0  0  0
 15 16  2  0  0  0
 14 17  1  0  0  0
 17 18  1  0  0  0
 18 19  1  0  0  0
 19 20  1  0  0  0
 20 21  1  0  0  0
 21 22  1  0  0  0
 20 23  1  0  0  0
 23 24  1  0  0  0
 23 25  1  0  0  0
  5  6  2  0  0  0
 36 37  2  0  0  0
 37 41  1  0  0  0
 41 42  1  0  0  0
 42 43  1  0  0  0
 43 44  1  0  0  0
 44 45  1  0  0  0
 45 46  1  0  0  0
 37 38  1  0  0  0
 38 39  2  0  0  0
 39 31  1  0  0  0
 39 34  1  0  0  0
  6  1  1  0  0  0
 16 11  1  0  0  0
 22 17  1  0  0  0
 28 40  1  0  0  0
  7 10  1  0  0  0
M  END
> <minimizedAffinity>
-6.80795

> <CNNscore>
0.2121575624

> <CNNaffinity>
6.5578470230

> <CNN_VS>
1.3912968636

> <CNNaffinity_variance>
0.0970395133

$$$$
[H]c1nc(N([H])C(=O)c2c([H])c([H])c(C3([H])C([H])([H])C([H])([H])N(C([H])(C([H])([H])[H])C([H])([H])[H])C([H])([H])C3([H])[H])c([H])c2[H])c([H])c(Oc2c(OC([H])([H])C([H])([H])C([H])([H])OC([H])([H])[H])c([H])c3c(c2[H])c([H])c([H])n3C(=O)N([H])C([H])([H])[H])c1[H]


 46 50  0  0  0  0  0  0  0  0999 V2000
    1.8205   18.2985  -18.2658 C   0  0  0  0  0  0  0  0  0  0  0  0
    2.8134   17.4305  -18.6892 C   0  0  0  0  0  0  0  0  0  0  0  0
    3.0650   17.3591  -20.0362 C   0  0  0  0  0  0  0  0  0  0  0  0
    2.4032   18.0760  -20.9116 N   0  0  0  0  0  0  0  0  0  0  0  0
    1.4297   18.9341  -20.5699 C   0  0  0  0  0  0  0  0  0  0  0  0
    1.1356   19.0475  -19.2374 C   0  0  0  0  0  0  0  0  0  0  0  0
    0.7701   19.6679  -21.5774 N   0  0  0  0  0  0  0  0  0  0  0  0
    1.1863   20.8037  -22.2781 C   0  0  0  0  0  0  0  0  0  0  0  0
    2.2603   21.3742  -22.0947 O   0  0  0  0  0  0  0  0  0  0  0  0
   -0.2115   19.2696  -21.8474 H   0  0  0  0  0  0  0  0  0  0  0  0
    0.3035   21.3850  -23.3163 C   0  0  0  0  0  0  0  0  0  0  0  0
   -1.0262   21.5140  -23.0713 C   0  0  0  0  0  0  0  0  0  0  0  0
   -1.8527   22.0470  -24.0531 C   0  0  0  0  0  0  0  0  0  0  0  0
   -1.3942   22.4598  -25.2796 C   0  0  0  0  0  0  0  0  0  0  0  0
   -0.0271   22.3155  -25.5043 C   0  0  0  0  0  0  0  0  0  0  0  0
    0.8036   21.7853  -24.5337 C   0  0  0  0  0  0  0  0  0  0  0  0
   -2.3170   23.0203  -26.2510 C   0  0  0  0  0  0  0  0  0  0  0  0
   -3.7585   22.5193  -26.0424 C   0  0  0  0  0  0  0  0  0  0  0  0
   -4.6890   23.3330  -26.9190 C   0  0  0  0  0  0  0  0  0  0  0  0
   -3.8973   24.1433  -27.7744 N   0  0  0  0  0  0  0  0  0  0  0  0
   -2.9761   23.4430  -28.5904 C   0  0  0  0  0  0  0  0  0  0  0  0
   -1.9181   22.8152  -27.6934 C   0  0  0  0  0  0  0  0  0  0  0  0
   -4.4466   25.3500  -28.2486 C   0  0  0  0  0  0  0  0  0  0  0  0
   -4.4131   25.2981  -29.7818 C   0  0  0  0  0  0  0  0  0  0  0  0
   -5.9125   25.4128  -27.8746 C   0  0  0  0  0  0  0  0  0  0  0  0
    1.5726   18.3733  -16.9319 O   0  0  0  0  0  0  0  0  0  0  0  0
    1.6105   25.3033  -11.1477 C   0  0  0  0  0  0  0  0  0  0  0  0
    2.1436   24.8016  -12.4115 N   0  0  0  0  0  0  0  0  0  0  0  0
    1.7434   23.5021  -12.8561 C   0  0  0  0  0  0  0  0  0  0  0  0
    0.9336   22.8260  -12.1295 O   0  0  0  0  0  0  0  0  0  0  0  0
    2.2243   22.9608  -14.0730 N   0  0  0  0  0  0  0  0  0  0  0  0
    3.0722   23.6194  -14.8756 C   0  0  0  0  0  0  0  0  0  0  0  0
    3.3721   22.8782  -15.9877 C   0  0  0  0  0  0  0  0  0  0  0  0
    2.6672   21.6988  -15.8597 C   0  0  0  0  0  0  0  0  0  0  0  0
    2.5324   20.5669  -16.6076 C   0  0  0  0  0  0  0  0  0  0  0  0
    1.7372   19.5324  -16.2102 C   0  0  0  0  0  0  0  0  0  0  0  0
    1.0075   19.5842  -14.9929 C   0  0  0  0  0  0  0  0  0  0  0  0
    1.1644   20.7670  -14.2364 C   0  0  0  0  0  0  0  0  0  0  0  0
    1.9585   21.7743  -14.6544 C   0  0  0  0  0  0  0  0  0  0  0  0
    2.7896   25.3739  -12.9593 H   0  0  0  0  0  0  0  0  0  0  0  0
    0.2577   18.6021  -14.6319 O   0  0  0  0  0  0  0  0  0  0  0  0
   -0.4798   17.6265  -14.2748 C   0  0  0  0  0  0  0  0  0  0  0  0
    0.2980   16.3166  -14.0625 C   0  0  0  0  0  0  0  0  0  0  0  0
    0.1150   15.8558  -12.6495 C   0  0  0  0  0  0  0  0  0  0  0  0
    0.4438   16.8560  -11.7647 O   0  0  0  0  0  0  0  0  0  0  0  0
    1.0033   16.3805  -10.6140 C   0  0  0  0  0  0  0  0  0  0  0  0
 27 28  1  0  0  0
 28 29  1  0  0  0
 29 30  2  0  0  0
 29 31  1  0  0  0
 31 32  1  0  0  0
 32 33  2  0  0  0
 33 34  1  0  0  0
 34 35  2  0  0  0
 35 36  1  0  0  0
 36 26  1  0  0  0
 26  1  1  0  0  0
  1  2  2  0  0  0
  2  3  1  0  0  0
  3  4  2  0  0  0
  4  5  1  0  0  0
  5  7  1  0  0  0
  7  8  1  0  0  0
  8  9  2  0  0  0
  8 11  1  0  0  0
 11 12  2  0  0  0
 12 13  1  0  0  0
 13 14  2  0  0  0
 14 15  1  0  0  0
 15 16  2  0  0  0
 14 17  1  0  0  0
 17 18  1  0  0  0
 18 19  1  0  0  0
 19 20  1  0  0  0
 20 21  1  0  0  0
 21 22  1  0  0  0
 20 23  1  0  0  0
 23 24  1  0  0  0
 23 25  1  0  0  0
  5  6  2  0  0  0
 36 37  2  0  0  0
 37 41  1  0  0  0
 41 42  1  0  0  0
 42 43  1  0  0  0
 43 44  1  0  0  0
 44 45  1  0  0  0
 45 46  1  0  0  0
 37 38  1  0  0  0
 38 39  2  0  0  0
 39 31  1  0  0  0
 39 34  1  0  0  0
  6  1  1  0  0  0
 16 11  1  0  0  0
 22 17  1  0  0  0
 28 40  1  0  0  0
  7 10  1  0  0  0
M  END
> <minimizedAffinity>
-6.96752

> <CNNscore>
0.1707333475

> <CNNaffinity>
6.2270145416

> <CNN_VS>
1.0631589890

> <CNNaffinity_variance>
0.3157784343

$$$$
[H]c1nc(N([H])C(=O)c2c([H])c([H])c(C3([H])C([H])([H])C([H])([H])N(C([H])(C([H])([H])[H])C([H])([H])[H])C([H])([H])C3([H])[H])c([H])c2[H])c([H])c(Oc2c(OC([H])([H])C([H])([H])C([H])([H])OC([H])([H])[H])c([H])c3c(c2[H])c([H])c([H])n3C(=O)N([H])C([H])([H])[H])c1[H]


 46 50  0  0  0  0  0  0  0  0999 V2000
   -3.8863   20.0792  -16.7509 C   0  0  0  0  0  0  0  0  0  0  0  0
   -2.5948   19.6124  -16.5713 C   0  0  0  0  0  0  0  0  0  0  0  0
   -1.7136   19.7602  -17.6126 C   0  0  0  0  0  0  0  0  0  0  0  0
   -2.0571   20.3195  -18.7472 N   0  0  0  0  0  0  0  0  0  0  0  0
   -3.2901   20.7913  -18.9876 C   0  0  0  0  0  0  0  0  0  0  0  0
   -4.2124   20.6714  -17.9827 C   0  0  0  0  0  0  0  0  0  0  0  0
   -3.5733   21.3806  -20.2371 N   0  0  0  0  0  0  0  0  0  0  0  0
   -4.0450   22.6616  -20.5383 C   0  0  0  0  0  0  0  0  0  0  0  0
   -4.3113   23.5163  -19.6950 O   0  0  0  0  0  0  0  0  0  0  0  0
   -3.3802   20.7265  -21.0914 H   0  0  0  0  0  0  0  0  0  0  0  0
   -4.2486   23.0504  -21.9535 C   0  0  0  0  0  0  0  0  0  0  0  0
   -4.7770   22.1540  -22.8264 C   0  0  0  0  0  0  0  0  0  0  0  0
   -4.9534   22.5183  -24.1558 C   0  0  0  0  0  0  0  0  0  0  0  0
   -4.6191   23.7559  -24.6473 C   0  0  0  0  0  0  0  0  0  0  0  0
   -4.0788   24.6549  -23.7308 C   0  0  0  0  0  0  0  0  0  0  0  0
   -3.8985   24.3015  -22.4057 C   0  0  0  0  0  0  0  0  0  0  0  0
   -4.8457   24.0689  -26.0473 C   0  0  0  0  0  0  0  0  0  0  0  0
   -4.9450   25.5856  -26.2970 C   0  0  0  0  0  0  0  0  0  0  0  0
   -4.9261   25.8358  -27.7915 C   0  0  0  0  0  0  0  0  0  0  0  0
   -5.0201   24.5831  -28.4525 N   0  0  0  0  0  0  0  0  0  0  0  0
   -6.1569   23.8069  -28.1206 C   0  0  0  0  0  0  0  0  0  0  0  0
   -6.0400   23.3794  -26.6639 C   0  0  0  0  0  0  0  0  0  0  0  0
   -4.4680   24.4651  -29.7424 C   0  0  0  0  0  0  0  0  0  0  0  0
   -5.6346   24.4167  -30.7380 C   0  0  0  0  0  0  0  0  0  0  0  0
   -3.7003   25.7271  -30.0747 C   0  0  0  0  0  0  0  0  0  0  0  0
   -4.7593   19.9371  -15.7193 O   0  0  0  0  0  0  0  0  0  0  0  0
   -9.4889   26.6753  -12.0166 C   0  0  0  0  0  0  0  0  0  0  0  0
   -8.1929   26.0026  -12.0446 N   0  0  0  0  0  0  0  0  0  0  0  0
   -8.0248   24.8753  -12.9091 C   0  0  0  0  0  0  0  0  0  0  0  0
   -9.0168   24.4966  -13.6257 O   0  0  0  0  0  0  0  0  0  0  0  0
   -6.7923   24.1818  -12.9821 N   0  0  0  0  0  0  0  0  0  0  0  0
   -5.7193   24.5303  -12.2582 C   0  0  0  0  0  0  0  0  0  0  0  0
   -4.6591   23.7043  -12.5222 C   0  0  0  0  0  0  0  0  0  0  0  0
   -5.1076   22.7989  -13.4620 C   0  0  0  0  0  0  0  0  0  0  0  0
   -4.5583   21.7426  -14.1261 C   0  0  0  0  0  0  0  0  0  0  0  0
   -5.2724   21.0096  -15.0280 C   0  0  0  0  0  0  0  0  0  0  0  0
   -6.6287   21.3125  -15.3206 C   0  0  0  0  0  0  0  0  0  0  0  0
   -7.1744   22.4108  -14.6193 C   0  0  0  0  0  0  0  0  0  0  0  0
   -6.4441   23.1177  -13.7323 C   0  0  0  0  0  0  0  0  0  0  0  0
   -7.4283   26.3369  -11.4542 H   0  0  0  0  0  0  0  0  0  0  0  0
   -7.2897   20.6147  -16.1769 O   0  0  0  0  0  0  0  0  0  0  0  0
   -7.9427   19.9192  -17.0213 C   0  0  0  0  0  0  0  0  0  0  0  0
   -8.2534   20.6729  -18.3257 C   0  0  0  0  0  0  0  0  0  0  0  0
   -8.1564   22.1470  -18.0806 C   0  0  0  0  0  0  0  0  0  0  0  0
   -9.4058   22.7213  -18.0651 O   0  0  0  0  0  0  0  0  0  0  0  0
  -10.2869   22.0921  -18.8963 C   0  0  0  0  0  0  0  0  0  0  0  0
 27 28  1  0  0  0
 28 29  1  0  0  0
 29 30  2  0  0  0
 29 31  1  0  0  0
 31 32  1  0  0  0
 32 33  2  0  0  0
 33 34  1  0  0  0
 34 35  2  0  0  0
 35 36  1  0  0  0
 36 26  1  0  0  0
 26  1  1  0  0  0
  1  2  2  0  0  0
  2  3  1  0  0  0
  3  4  2  0  0  0
  4  5  1  0  0  0
  5  7  1  0  0  0
  7  8  1  0  0  0
  8  9  2  0  0  0
  8 11  1  0  0  0
 11 12  2  0  0  0
 12 13  1  0  0  0
 13 14  2  0  0  0
 14 15  1  0  0  0
 15 16  2  0  0  0
 14 17  1  0  0  0
 17 18  1  0  0  0
 18 19  1  0  0  0
 19 20  1  0  0  0
 20 21  1  0  0  0
 21 22  1  0  0  0
 20 23  1  0  0  0
 23 24  1  0  0  0
 23 25  1  0  0  0
  5  6  2  0  0  0
 36 37  2  0  0  0
 37 41  1  0  0  0
 41 42  1  0  0  0
 42 43  1  0  0  0
 43 44  1  0  0  0
 44 45  1  0  0  0
 45 46  1  0  0  0
 37 38  1  0  0  0
 38 39  2  0  0  0
 39 31  1  0  0  0
 39 34  1  0  0  0
  6  1  1  0  0  0
 16 11  1  0  0  0
 22 17  1  0  0  0
 28 40  1  0  0  0
  7 10  1  0  0  0
M  END
> <minimizedAffinity>
-6.77804

> <CNNscore>
0.1552032232

> <CNNaffinity>
6.2044749260

> <CNN_VS>
0.9629545212

> <CNNaffinity_variance>
0.5693567395

$$$$
[H]c1nc(N([H])C(=O)c2c([H])c([H])c(C3([H])C([H])([H])C([H])([H])N(C([H])(C([H])([H])[H])C([H])([H])[H])C([H])([H])C3([H])[H])c([H])c2[H])c([H])c(Oc2c(OC([H])([H])C([H])([H])C([H])([H])OC([H])([H])[H])c([H])c3c(c2[H])c([H])c([H])n3C(=O)N([H])C([H])([H])[H])c1[H]


 46 50  0  0  0  0  0  0  0  0999 V2000
   -5.6416   23.7007  -20.8497 C   0  0  0  0  0  0  0  0  0  0  0  0
   -5.8725   25.0534  -20.6620 C   0  0  0  0  0  0  0  0  0  0  0  0
   -6.6935   25.4216  -19.6260 C   0  0  0  0  0  0  0  0  0  0  0  0
   -7.2517   24.5438  -18.8284 N   0  0  0  0  0  0  0  0  0  0  0  0
   -7.0714   23.2201  -18.9550 C   0  0  0  0  0  0  0  0  0  0  0  0
   -6.2601   22.7941  -19.9724 C   0  0  0  0  0  0  0  0  0  0  0  0
   -7.7092   22.3460  -18.0507 N   0  0  0  0  0  0  0  0  0  0  0  0
   -8.8121   21.5080  -18.2398 C   0  0  0  0  0  0  0  0  0  0  0  0
   -9.4367   21.4149  -19.2951 O   0  0  0  0  0  0  0  0  0  0  0  0
   -7.2543   22.3245  -17.0569 H   0  0  0  0  0  0  0  0  0  0  0  0
   -9.2868   20.6623  -17.1197 C   0  0  0  0  0  0  0  0  0  0  0  0
   -8.3903   20.1582  -16.2326 C   0  0  0  0  0  0  0  0  0  0  0  0
   -8.8384   19.3541  -15.1915 C   0  0  0  0  0  0  0  0  0  0  0  0
  -10.1602   19.0346  -15.0032 C   0  0  0  0  0  0  0  0  0  0  0  0
  -11.0575   19.5643  -15.9275 C   0  0  0  0  0  0  0  0  0  0  0  0
  -10.6212   20.3649  -16.9678 C   0  0  0  0  0  0  0  0  0  0  0  0
  -10.5549   18.1991  -13.8828 C   0  0  0  0  0  0  0  0  0  0  0  0
  -11.9302   17.5411  -14.1022 C   0  0  0  0  0  0  0  0  0  0  0  0
  -12.1514   16.5019  -13.0216 C   0  0  0  0  0  0  0  0  0  0  0  0
  -11.1078   16.6251  -12.0672 N   0  0  0  0  0  0  0  0  0  0  0  0
  -10.9802   17.9030  -11.4708 C   0  0  0  0  0  0  0  0  0  0  0  0
  -10.5384   18.8921  -12.5407 C   0  0  0  0  0  0  0  0  0  0  0  0
  -10.7463   15.4866  -11.3217 C   0  0  0  0  0  0  0  0  0  0  0  0
  -10.0988   14.4896  -12.2918 C   0  0  0  0  0  0  0  0  0  0  0  0
   -9.6602   15.8596  -10.3349 C   0  0  0  0  0  0  0  0  0  0  0  0
   -4.8257   23.3345  -21.8728 O   0  0  0  0  0  0  0  0  0  0  0  0
   -4.7270   25.5620  -30.6199 C   0  0  0  0  0  0  0  0  0  0  0  0
   -5.5680   25.4227  -29.4340 N   0  0  0  0  0  0  0  0  0  0  0  0
   -4.9648   24.9806  -28.2145 C   0  0  0  0  0  0  0  0  0  0  0  0
   -3.7102   24.7221  -28.2075 O   0  0  0  0  0  0  0  0  0  0  0  0
   -5.7265   24.8272  -27.0306 N   0  0  0  0  0  0  0  0  0  0  0  0
   -7.0413   25.0821  -26.9752 C   0  0  0  0  0  0  0  0  0  0  0  0
   -7.5318   24.8622  -25.7155 C   0  0  0  0  0  0  0  0  0  0  0  0
   -6.4563   24.4499  -24.9555 C   0  0  0  0  0  0  0  0  0  0  0  0
   -6.2753   24.0834  -23.6550 C   0  0  0  0  0  0  0  0  0  0  0  0
   -5.0535   23.7120  -23.1755 C   0  0  0  0  0  0  0  0  0  0  0  0
   -3.9055   23.6892  -24.0112 C   0  0  0  0  0  0  0  0  0  0  0  0
   -4.1195   24.0729  -25.3539 C   0  0  0  0  0  0  0  0  0  0  0  0
   -5.3398   24.4353  -25.8005 C   0  0  0  0  0  0  0  0  0  0  0  0
   -6.5661   25.6378  -29.4845 H   0  0  0  0  0  0  0  0  0  0  0  0
   -2.7577   23.3403  -23.5445 O   0  0  0  0  0  0  0  0  0  0  0  0
   -1.6243   22.9914  -23.0787 C   0  0  0  0  0  0  0  0  0  0  0  0
   -0.9496   21.8695  -23.8862 C   0  0  0  0  0  0  0  0  0  0  0  0
   -0.0656   22.4754  -24.9321 C   0  0  0  0  0  0  0  0  0  0  0  0
   -0.7242   22.5613  -26.1362 O   0  0  0  0  0  0  0  0  0  0  0  0
    0.1232   22.5246  -27.2057 C   0  0  0  0  0  0  0  0  0  0  0  0
 27 28  1  0  0  0
 28 29  1  0  0  0
 29 30  2  0  0  0
 29 31  1  0  0  0
 31 32  1  0  0  0
 32 33  2  0  0  0
 33 34  1  0  0  0
 34 35  2  0  0  0
 35 36  1  0  0  0
 36 26  1  0  0  0
 26  1  1  0  0  0
  1  2  2  0  0  0
  2  3  1  0  0  0
  3  4  2  0  0  0
  4  5  1  0  0  0
  5  7  1  0  0  0
  7  8  1  0  0  0
  8  9  2  0  0  0
  8 11  1  0  0  0
 11 12  2  0  0  0
 12 13  1  0  0  0
 13 14  2  0  0  0
 14 15  1  0  0  0
 15 16  2  0  0  0
 14 17  1  0  0  0
 17 18  1  0  0  0
 18 19  1  0  0  0
 19 20  1  0  0  0
 20 21  1  0  0  0
 21 22  1  0  0  0
 20 23  1  0  0  0
 23 24  1  0  0  0
 23 25  1  0  0  0
  5  6  2  0  0  0
 36 37  2  0  0  0
 37 41  1  0  0  0
 41 42  1  0  0  0
 42 43  1  0  0  0
 43 44  1  0  0  0
 44 45  1  0  0  0
 45 46  1  0  0  0
 37 38  1  0  0  0
 38 39  2  0  0  0
 39 31  1  0  0  0
 39 34  1  0  0  0
  6  1  1  0  0  0
 16 11  1  0  0  0
 22 17  1  0  0  0
 28 40  1  0  0  0
  7 10  1  0  0  0
M  END
> <minimizedAffinity>
-7.21334

> <CNNscore>
0.1267172843

> <CNNaffinity>
5.8584356308

> <CNN_VS>
0.7423650622

> <CNNaffinity_variance>
0.0939520597

$$$$
[H]c1nc(N([H])C(=O)c2c([H])c([H])c(C3([H])C([H])([H])C([H])([H])N(C([H])(C([H])([H])[H])C([H])([H])[H])C([H])([H])C3([H])[H])c([H])c2[H])c([H])c(Oc2c(OC([H])([H])C([H])([H])C([H])([H])OC([H])([H])[H])c([H])c3c(c2[H])c([H])c([H])n3C(=O)N([H])C([H])([H])[H])c1[H]


 46 50  0  0  0  0  0  0  0  0999 V2000
   -2.9185   22.4739  -26.0723 C   0  0  0  0  0  0  0  0  0  0  0  0
   -2.0478   22.8818  -27.0692 C   0  0  0  0  0  0  0  0  0  0  0  0
   -0.7030   22.7374  -26.8384 C   0  0  0  0  0  0  0  0  0  0  0  0
   -0.2335   22.2346  -25.7226 N   0  0  0  0  0  0  0  0  0  0  0  0
   -1.0203   21.8216  -24.7171 C   0  0  0  0  0  0  0  0  0  0  0  0
   -2.3731   21.9411  -24.8921 C   0  0  0  0  0  0  0  0  0  0  0  0
   -0.4307   21.2905  -23.5514 N   0  0  0  0  0  0  0  0  0  0  0  0
   -0.4800   21.7501  -22.2320 C   0  0  0  0  0  0  0  0  0  0  0  0
   -1.0784   22.7635  -21.8748 O   0  0  0  0  0  0  0  0  0  0  0  0
    0.1412   20.3742  -23.7199 H   0  0  0  0  0  0  0  0  0  0  0  0
    0.2210   20.9930  -21.1687 C   0  0  0  0  0  0  0  0  0  0  0  0
    0.1588   19.6362  -21.1586 C   0  0  0  0  0  0  0  0  0  0  0  0
    0.8063   18.9307  -20.1515 C   0  0  0  0  0  0  0  0  0  0  0  0
    1.5199   19.5371  -19.1476 C   0  0  0  0  0  0  0  0  0  0  0  0
    1.5666   20.9288  -19.1819 C   0  0  0  0  0  0  0  0  0  0  0  0
    0.9246   21.6400  -20.1796 C   0  0  0  0  0  0  0  0  0  0  0  0
    2.1821   18.7321  -18.1363 C   0  0  0  0  0  0  0  0  0  0  0  0
    3.6791   18.5315  -18.4389 C   0  0  0  0  0  0  0  0  0  0  0  0
    4.3420   17.9080  -17.2272 C   0  0  0  0  0  0  0  0  0  0  0  0
    3.3269   17.5434  -16.3043 N   0  0  0  0  0  0  0  0  0  0  0  0
    2.3406   16.6602  -16.8065 C   0  0  0  0  0  0  0  0  0  0  0  0
    1.5387   17.3907  -17.8750 C   0  0  0  0  0  0  0  0  0  0  0  0
    3.6554   17.4903  -14.9362 C   0  0  0  0  0  0  0  0  0  0  0  0
    3.8816   18.9322  -14.4624 C   0  0  0  0  0  0  0  0  0  0  0  0
    2.4604   16.9869  -14.1545 C   0  0  0  0  0  0  0  0  0  0  0  0
   -4.2509   22.6126  -26.3007 O   0  0  0  0  0  0  0  0  0  0  0  0
  -10.0914   26.2459  -20.4552 C   0  0  0  0  0  0  0  0  0  0  0  0
   -9.3755   25.0277  -20.8245 N   0  0  0  0  0  0  0  0  0  0  0  0
   -8.5103   25.0601  -21.9633 C   0  0  0  0  0  0  0  0  0  0  0  0
   -8.3960   26.1554  -22.6177 O   0  0  0  0  0  0  0  0  0  0  0  0
   -7.7880   23.9124  -22.3710 N   0  0  0  0  0  0  0  0  0  0  0  0
   -7.8657   22.7391  -21.7274 C   0  0  0  0  0  0  0  0  0  0  0  0
   -7.0643   21.7997  -22.3198 C   0  0  0  0  0  0  0  0  0  0  0  0
   -6.4604   22.4335  -23.3866 C   0  0  0  0  0  0  0  0  0  0  0  0
   -5.5724   22.0654  -24.3533 C   0  0  0  0  0  0  0  0  0  0  0  0
   -5.1440   22.9407  -25.3077 C   0  0  0  0  0  0  0  0  0  0  0  0
   -5.6040   24.2839  -25.3410 C   0  0  0  0  0  0  0  0  0  0  0  0
   -6.5235   24.6401  -24.3292 C   0  0  0  0  0  0  0  0  0  0  0  0
   -6.9298   23.7527  -23.3979 C   0  0  0  0  0  0  0  0  0  0  0  0
   -9.4976   24.1742  -20.2754 H   0  0  0  0  0  0  0  0  0  0  0  0
   -5.1884   25.1004  -26.2452 O   0  0  0  0  0  0  0  0  0  0  0  0
   -4.7719   25.9089  -27.1374 C   0  0  0  0  0  0  0  0  0  0  0  0
   -5.2488   25.5540  -28.5561 C   0  0  0  0  0  0  0  0  0  0  0  0
   -4.0836   25.0717  -29.3636 C   0  0  0  0  0  0  0  0  0  0  0  0
   -3.9746   25.7840  -30.5348 O   0  0  0  0  0  0  0  0  0  0  0  0
   -5.1496   25.8463  -31.2267 C   0  0  0  0  0  0  0  0  0  0  0  0
 27 28  1  0  0  0
 28 29  1  0  0  0
 29 30  2  0  0  0
 29 31  1  0  0  0
 31 32  1  0  0  0
 32 33  2  0  0  0
 33 34  1  0  0  0
 34 35  2  0  0  0
 35 36  1  0  0  0
 36 26  1  0  0  0
 26  1  1  0  0  0
  1  2  2  0  0  0
  2  3  1  0  0  0
  3  4  2  0  0  0
  4  5  1  0  0  0
  5  7  1  0  0  0
  7  8  1  0  0  0
  8  9  2  0  0  0
  8 11  1  0  0  0
 11 12  2  0  0  0
 12 13  1  0  0  0
 13 14  2  0  0  0
 14 15  1  0  0  0
 15 16  2  0  0  0
 14 17  1  0  0  0
 17 18  1  0  0  0
 18 19  1  0  0  0
 19 20  1  0  0  0
 20 21  1  0  0  0
 21 22  1  0  0  0
 20 23  1  0  0  0
 23 24  1  0  0  0
 23 25  1  0  0  0
  5  6  2  0  0  0
 36 37  2  0  0  0
 37 41  1  0  0  0
 41 42  1  0  0  0
 42 43  1  0  0  0
 43 44  1  0  0  0
 44 45  1  0  0  0
 45 46  1  0  0  0
 37 38  1  0  0  0
 38 39  2  0  0  0
 39 31  1  0  0  0
 39 34  1  0  0  0
  6  1  1  0  0  0
 16 11  1  0  0  0
 22 17  1  0  0  0
 28 40  1  0  0  0
  7 10  1  0  0  0
M  END
> <minimizedAffinity>
-7.82032

> <CNNscore>
0.1186734289

> <CNNaffinity>
6.7798638344

> <CNN_VS>
0.8045896888

> <CNNaffinity_variance>
0.0797709152

$$$$
[H]c1nc(N([H])C(=O)c2c([H])c([H])c(C3([H])C([H])([H])C([H])([H])N(C([H])(C([H])([H])[H])C([H])([H])[H])C([H])([H])C3([H])[H])c([H])c2[H])c([H])c(Oc2c(OC([H])([H])C([H])([H])C([H])([H])OC([H])([H])[H])c([H])c3c(c2[H])c([H])c([H])n3C(=O)N([H])C([H])([H])[H])c1[H]


 46 50  0  0  0  0  0  0  0  0999 V2000
   -6.5208   21.6773  -21.5271 C   0  0  0  0  0  0  0  0  0  0  0  0
   -6.5857   22.0076  -22.8706 C   0  0  0  0  0  0  0  0  0  0  0  0
   -5.4264   22.4105  -23.4840 C   0  0  0  0  0  0  0  0  0  0  0  0
   -4.2853   22.4887  -22.8436 N   0  0  0  0  0  0  0  0  0  0  0  0
   -4.1529   22.1851  -21.5432 C   0  0  0  0  0  0  0  0  0  0  0  0
   -5.2781   21.7757  -20.8789 C   0  0  0  0  0  0  0  0  0  0  0  0
   -2.8862   22.2954  -20.9332 N   0  0  0  0  0  0  0  0  0  0  0  0
   -1.6670   21.7091  -21.2854 C   0  0  0  0  0  0  0  0  0  0  0  0
   -1.5157   20.9486  -22.2401 O   0  0  0  0  0  0  0  0  0  0  0  0
   -2.8694   22.9504  -20.0582 H   0  0  0  0  0  0  0  0  0  0  0  0
   -0.4576   22.0004  -20.4806 C   0  0  0  0  0  0  0  0  0  0  0  0
   -0.4913   22.9922  -19.5532 C   0  0  0  0  0  0  0  0  0  0  0  0
    0.6495   23.2711  -18.8103 C   0  0  0  0  0  0  0  0  0  0  0  0
    1.8310   22.5885  -18.9612 C   0  0  0  0  0  0  0  0  0  0  0  0
    1.8377   21.5774  -19.9193 C   0  0  0  0  0  0  0  0  0  0  0  0
    0.7077   21.2928  -20.6645 C   0  0  0  0  0  0  0  0  0  0  0  0
    2.9783   22.9279  -18.1380 C   0  0  0  0  0  0  0  0  0  0  0  0
    3.1908   21.9221  -16.9909 C   0  0  0  0  0  0  0  0  0  0  0  0
    4.5331   22.1972  -16.3437 C   0  0  0  0  0  0  0  0  0  0  0  0
    5.0475   23.4047  -16.8846 N   0  0  0  0  0  0  0  0  0  0  0  0
    4.2130   24.5389  -16.7357 C   0  0  0  0  0  0  0  0  0  0  0  0
    2.9622   24.3310  -17.5788 C   0  0  0  0  0  0  0  0  0  0  0  0
    6.4437   23.5850  -16.9081 C   0  0  0  0  0  0  0  0  0  0  0  0
    7.0871   22.1935  -16.8429 C   0  0  0  0  0  0  0  0  0  0  0  0
    6.8508   24.1603  -18.2482 C   0  0  0  0  0  0  0  0  0  0  0  0
   -7.6672   21.2744  -20.9188 O   0  0  0  0  0  0  0  0  0  0  0  0
   -8.9093   22.1146  -12.0175 C   0  0  0  0  0  0  0  0  0  0  0  0
   -8.5027   21.2038  -13.0843 N   0  0  0  0  0  0  0  0  0  0  0  0
   -8.5165   21.6793  -14.4334 C   0  0  0  0  0  0  0  0  0  0  0  0
   -8.8859   22.8854  -14.6565 O   0  0  0  0  0  0  0  0  0  0  0  0
   -8.1322   20.8452  -15.5112 N   0  0  0  0  0  0  0  0  0  0  0  0
   -7.7363   19.5758  -15.3414 C   0  0  0  0  0  0  0  0  0  0  0  0
   -7.4136   18.9972  -16.5401 C   0  0  0  0  0  0  0  0  0  0  0  0
   -7.6229   19.9673  -17.4989 C   0  0  0  0  0  0  0  0  0  0  0  0
   -7.4917   20.0312  -18.8544 C   0  0  0  0  0  0  0  0  0  0  0  0
   -7.7842   21.1657  -19.5529 C   0  0  0  0  0  0  0  0  0  0  0  0
   -8.2413   22.3408  -18.8993 C   0  0  0  0  0  0  0  0  0  0  0  0
   -8.3691   22.2486  -17.4954 C   0  0  0  0  0  0  0  0  0  0  0  0
   -8.0727   21.1127  -16.8308 C   0  0  0  0  0  0  0  0  0  0  0  0
   -8.2170   20.2479  -12.8619 H   0  0  0  0  0  0  0  0  0  0  0  0
   -8.5100   23.4058  -19.5706 O   0  0  0  0  0  0  0  0  0  0  0  0
   -8.7712   24.4625  -20.2327 C   0  0  0  0  0  0  0  0  0  0  0  0
   -7.6389   25.5029  -20.1972 C   0  0  0  0  0  0  0  0  0  0  0  0
   -6.8780   25.4504  -21.4859 C   0  0  0  0  0  0  0  0  0  0  0  0
   -7.5094   26.1945  -22.4549 O   0  0  0  0  0  0  0  0  0  0  0  0
   -7.5102   25.5819  -23.6747 C   0  0  0  0  0  0  0  0  0  0  0  0
 27 28  1  0  0  0
 28 29  1  0  0  0
 29 30  2  0  0  0
 29 31  1  0  0  0
 31 32  1  0  0  0
 32 33  2  0  0  0
 33 34  1  0  0  0
 34 35  2  0  0  0
 35 36  1  0  0  0
 36 26  1  0  0  0
 26  1  1  0  0  0
  1  2  2  0  0  0
  2  3  1  0  0  0
  3  4  2  0  0  0
  4  5  1  0  0  0
  5  7  1  0  0  0
  7  8  1  0  0  0
  8  9  2  0  0  0
  8 11  1  0  0  0
 11 12  2  0  0  0
 12 13  1  0  0  0
 13 14  2  0  0  0
 14 15  1  0  0  0
 15 16  2  0  0  0
 14 17  1  0  0  0
 17 18  1  0  0  0
 18 19  1  0  0  0
 19 20  1  0  0  0
 20 21  1  0  0  0
 21 22  1  0  0  0
 20 23  1  0  0  0
 23 24  1  0  0  0
 23 25  1  0  0  0
  5  6  2  0  0  0
 36 37  2  0  0  0
 37 41  1  0  0  0
 41 42  1  0  0  0
 42 43  1  0  0  0
 43 44  1  0  0  0
 44 45  1  0  0  0
 45 46  1  0  0  0
 37 38  1  0  0  0
 38 39  2  0  0  0
 39 31  1  0  0  0
 39 34  1  0  0  0
  6  1  1  0  0  0
 16 11  1  0  0  0
 22 17  1  0  0  0
 28 40  1  0  0  0
  7 10  1  0  0  0
M  END
> <minimizedAffinity>
-6.68285

> <CNNscore>
0.1170196608

> <CNNaffinity>
5.9478526115

> <CNN_VS>
0.6960157156

> <CNNaffinity_variance>
0.1179908365

$$$$
[H]c1nc(N([H])C(=O)c2c([H])c([H])c(C3([H])C([H])([H])C([H])([H])N(C([H])(C([H])([H])[H])C([H])([H])[H])C([H])([H])C3([H])[H])c([H])c2[H])c([H])c(Oc2c(OC([H])([H])C([H])([H])C([H])([H])OC([H])([H])[H])c([H])c3c(c2[H])c([H])c([H])n3C(=O)N([H])C([H])([H])[H])c1[H]


 46 50  0  0  0  0  0  0  0  0999 V2000
   -3.0092   21.8235  -24.5104 C   0  0  0  0  0  0  0  0  0  0  0  0
   -2.0616   21.9052  -25.5172 C   0  0  0  0  0  0  0  0  0  0  0  0
   -0.7409   21.9454  -25.1470 C   0  0  0  0  0  0  0  0  0  0  0  0
   -0.3636   21.9095  -23.8922 N   0  0  0  0  0  0  0  0  0  0  0  0
   -1.2284   21.8319  -22.8690 C   0  0  0  0  0  0  0  0  0  0  0  0
   -2.5614   21.7879  -23.1791 C   0  0  0  0  0  0  0  0  0  0  0  0
   -0.7352   21.7958  -21.5484 N   0  0  0  0  0  0  0  0  0  0  0  0
   -0.8675   22.7288  -20.5158 C   0  0  0  0  0  0  0  0  0  0  0  0
   -1.4663   23.7978  -20.6223 O   0  0  0  0  0  0  0  0  0  0  0  0
   -0.1740   20.8891  -21.3077 H   0  0  0  0  0  0  0  0  0  0  0  0
   -0.2612   22.4454  -19.1939 C   0  0  0  0  0  0  0  0  0  0  0  0
    0.9983   22.8777  -18.9265 C   0  0  0  0  0  0  0  0  0  0  0  0
    1.5681   22.5977  -17.6904 C   0  0  0  0  0  0  0  0  0  0  0  0
    0.9191   21.8968  -16.7043 C   0  0  0  0  0  0  0  0  0  0  0  0
   -0.3705   21.4650  -17.0055 C   0  0  0  0  0  0  0  0  0  0  0  0
   -0.9461   21.7380  -18.2333 C   0  0  0  0  0  0  0  0  0  0  0  0
    1.5746   21.6546  -15.4312 C   0  0  0  0  0  0  0  0  0  0  0  0
    1.8426   20.1572  -15.1890 C   0  0  0  0  0  0  0  0  0  0  0  0
    2.7424   20.0127  -13.9783 C   0  0  0  0  0  0  0  0  0  0  0  0
    2.8720   21.2872  -13.3669 N   0  0  0  0  0  0  0  0  0  0  0  0
    1.6556   21.8987  -12.9776 C   0  0  0  0  0  0  0  0  0  0  0  0
    0.8633   22.2375  -14.2330 C   0  0  0  0  0  0  0  0  0  0  0  0
    4.0377   21.5569  -12.6247 C   0  0  0  0  0  0  0  0  0  0  0  0
    5.0612   22.1749  -13.5864 C   0  0  0  0  0  0  0  0  0  0  0  0
    3.7403   22.6312  -11.6000 C   0  0  0  0  0  0  0  0  0  0  0  0
   -4.3174   21.7796  -24.8753 O   0  0  0  0  0  0  0  0  0  0  0  0
  -10.6062   26.8134  -20.8016 C   0  0  0  0  0  0  0  0  0  0  0  0
   -9.9700   25.4993  -20.8386 N   0  0  0  0  0  0  0  0  0  0  0  0
   -8.9363   25.2654  -21.7994 C   0  0  0  0  0  0  0  0  0  0  0  0
   -8.6075   26.2161  -22.5925 O   0  0  0  0  0  0  0  0  0  0  0  0
   -8.2805   24.0132  -21.8840 N   0  0  0  0  0  0  0  0  0  0  0  0
   -8.5798   22.9814  -21.0824 C   0  0  0  0  0  0  0  0  0  0  0  0
   -7.7955   21.8950  -21.3664 C   0  0  0  0  0  0  0  0  0  0  0  0
   -6.9680   22.2835  -22.4001 C   0  0  0  0  0  0  0  0  0  0  0  0
   -5.9805   21.6853  -23.1250 C   0  0  0  0  0  0  0  0  0  0  0  0
   -5.3182   22.3437  -24.1192 C   0  0  0  0  0  0  0  0  0  0  0  0
   -5.6263   23.6902  -24.4490 C   0  0  0  0  0  0  0  0  0  0  0  0
   -6.6531   24.2870  -23.6838 C   0  0  0  0  0  0  0  0  0  0  0  0
   -7.2913   23.6111  -22.7063 C   0  0  0  0  0  0  0  0  0  0  0  0
  -10.2649   24.7678  -20.1882 H   0  0  0  0  0  0  0  0  0  0  0  0
   -4.9907   24.3007  -25.3872 O   0  0  0  0  0  0  0  0  0  0  0  0
   -4.3585   24.9001  -26.3169 C   0  0  0  0  0  0  0  0  0  0  0  0
   -4.2934   24.0989  -27.6284 C   0  0  0  0  0  0  0  0  0  0  0  0
   -5.6769   23.6849  -28.0245 C   0  0  0  0  0  0  0  0  0  0  0  0
   -6.1333   24.4505  -29.0716 O   0  0  0  0  0  0  0  0  0  0  0  0
   -5.1424   24.7966  -29.9443 C   0  0  0  0  0  0  0  0  0  0  0  0
 27 28  1  0  0  0
 28 29  1  0  0  0
 29 30  2  0  0  0
 29 31  1  0  0  0
 31 32  1  0  0  0
 32 33  2  0  0  0
 33 34  1  0  0  0
 34 35  2  0  0  0
 35 36  1  0  0  0
 36 26  1  0  0  0
 26  1  1  0  0  0
  1  2  2  0  0  0
  2  3  1  0  0  0
  3  4  2  0  0  0
  4  5  1  0  0  0
  5  7  1  0  0  0
  7  8  1  0  0  0
  8  9  2  0  0  0
  8 11  1  0  0  0
 11 12  2  0  0  0
 12 13  1  0  0  0
 13 14  2  0  0  0
 14 15  1  0  0  0
 15 16  2  0  0  0
 14 17  1  0  0  0
 17 18  1  0  0  0
 18 19  1  0  0  0
 19 20  1  0  0  0
 20 21  1  0  0  0
 21 22  1  0  0  0
 20 23  1  0  0  0
 23 24  1  0  0  0
 23 25  1  0  0  0
  5  6  2  0  0  0
 36 37  2  0  0  0
 37 41  1  0  0  0
 41 42  1  0  0  0
 42 43  1  0  0  0
 43 44  1  0  0  0
 44 45  1  0  0  0
 45 46  1  0  0  0
 37 38  1  0  0  0
 38 39  2  0  0  0
 39 31  1  0  0  0
 39 34  1  0  0  0
  6  1  1  0  0  0
 16 11  1  0  0  0
 22 17  1  0  0  0
 28 40  1  0  0  0
  7 10  1  0  0  0
M  END
> <minimizedAffinity>
-8.19888

> <CNNscore>
0.1074436158

> <CNNaffinity>
6.2128238678

> <CNN_VS>
0.6675282717

> <CNNaffinity_variance>
0.2418406904

$$$$
[H]c1nc(N([H])[H])c2c(-c3sc4c(OC([H])([H])[H])c([H])c(C([H])([H])[H])c([H])c4c3[H])c(C([H])([H])OC([H])([H])C([H])([H])[H])c(C(=O)N3C([H])([H])C([H])([H])C3([H])[H])n2n1


 34 38  0  0  0  0  0  0  0  0999 V2000
   -3.4344   22.4824  -25.4907 C   0  0  0  0  0  0  0  0  0  0  0  0
   -2.1988   22.2409  -25.0453 C   0  0  0  0  0  0  0  0  0  0  0  0
   -1.2903   22.4482  -26.1018 C   0  0  0  0  0  0  0  0  0  0  0  0
    0.0549   22.4631  -26.2178 C   0  0  0  0  0  0  0  0  0  0  0  0
    0.9221   22.1621  -25.1599 N   0  0  0  0  0  0  0  0  0  0  0  0
    0.6453   22.8237  -27.4159 N   0  0  0  0  0  0  0  0  0  0  0  0
   -0.1013   23.1759  -28.4599 C   0  0  0  0  0  0  0  0  0  0  0  0
   -1.4354   23.1688  -28.3359 N   0  0  0  0  0  0  0  0  0  0  0  0
   -2.0192   22.8120  -27.1928 N   0  0  0  0  0  0  0  0  0  0  0  0
   -3.3438   22.8387  -26.8476 C   0  0  0  0  0  0  0  0  0  0  0  0
    1.1909   22.7934  -24.3613 H   0  0  0  0  0  0  0  0  0  0  0  0
    1.3931   21.1952  -25.1671 H   0  0  0  0  0  0  0  0  0  0  0  0
   -1.6464   22.0261  -23.7021 C   0  0  0  0  0  0  0  0  0  0  0  0
   -0.6768   21.1229  -23.3159 C   0  0  0  0  0  0  0  0  0  0  0  0
   -0.2473   21.2055  -22.0380 C   0  0  0  0  0  0  0  0  0  0  0  0
    0.8095   20.4607  -21.4710 C   0  0  0  0  0  0  0  0  0  0  0  0
    1.2669   20.6652  -20.1876 C   0  0  0  0  0  0  0  0  0  0  0  0
    2.4405   19.8946  -19.6650 C   0  0  0  0  0  0  0  0  0  0  0  0
    0.6739   21.6392  -19.4034 C   0  0  0  0  0  0  0  0  0  0  0  0
   -0.3495   22.3612  -19.9349 C   0  0  0  0  0  0  0  0  0  0  0  0
   -0.8173   22.1564  -21.2500 C   0  0  0  0  0  0  0  0  0  0  0  0
   -1.9233   22.9112  -22.2771 S   0  0  0  0  0  0  0  0  0  0  0  0
   -0.9856   23.3557  -19.2158 O   0  0  0  0  0  0  0  0  0  0  0  0
   -2.0091   23.1796  -18.2866 C   0  0  0  0  0  0  0  0  0  0  0  0
   -4.3149   23.3660  -27.7924 C   0  0  0  0  0  0  0  0  0  0  0  0
   -4.6008   22.8167  -28.8402 O   0  0  0  0  0  0  0  0  0  0  0  0
   -4.9831   24.6018  -27.4887 N   0  0  0  0  0  0  0  0  0  0  0  0
   -6.0795   25.4739  -27.8105 C   0  0  0  0  0  0  0  0  0  0  0  0
   -5.6787   26.4067  -26.6397 C   0  0  0  0  0  0  0  0  0  0  0  0
   -4.3405   25.7899  -26.8170 C   0  0  0  0  0  0  0  0  0  0  0  0
   -4.6865   22.1599  -24.7982 C   0  0  0  0  0  0  0  0  0  0  0  0
   -4.6756   21.0662  -23.9439 O   0  0  0  0  0  0  0  0  0  0  0  0
   -6.5791   22.1767  -22.8678 C   0  0  0  0  0  0  0  0  0  0  0  0
   -5.3305   21.3784  -22.7688 C   0  0  0  0  0  0  0  0  0  0  0  0
 33 34  1  0  0  0
 34 32  1  0  0  0
 32 31  1  0  0  0
 31  1  1  0  0  0
  1  2  1  0  0  0
  2 13  1  0  0  0
 13 14  2  0  0  0
 14 15  1  0  0  0
 15 16  2  0  0  0
 16 17  1  0  0  0
 17 18  1  0  0  0
 17 19  2  0  0  0
 19 20  1  0  0  0
 20 23  1  0  0  0
 23 24  1  0  0  0
 20 21  2  0  0  0
 21 22  1  0  0  0
  2  3  2  0  0  0
  3  4  1  0  0  0
  4  5  1  0  0  0
  4  6  2  0  0  0
  6  7  1  0  0  0
  7  8  2  0  0  0
  8  9  1  0  0  0
  9 10  1  0  0  0
 10 25  1  0  0  0
 25 26  2  0  0  0
 25 27  1  0  0  0
 27 28  1  0  0  0
 28 29  1  0  0  0
 29 30  1  0  0  0
 10  1  2  0  0  0
 30 27  1  0  0  0
 22 13  1  0  0  0
  9  3  1  0  0  0
 21 15  1  0  0  0
  5 11  1  0  0  0
  5 12  1  0  0  0
M  END
> <minimizedAffinity>
-8.22086

> <CNNscore>
0.9341776967

> <CNNaffinity>
7.3745040894

> <CNN_VS>
6.8890972137

> <CNNaffinity_variance>
0.0607275553

$$$$
[H]c1nc(N([H])[H])c2c(-c3sc4c(OC([H])([H])[H])c([H])c(C([H])([H])[H])c([H])c4c3[H])c(C([H])([H])OC([H])([H])C([H])([H])[H])c(C(=O)N3C([H])([H])C([H])([H])C3([H])[H])n2n1


 34 38  0  0  0  0  0  0  0  0999 V2000
   -3.3466   22.6244  -25.4894 C   0  0  0  0  0  0  0  0  0  0  0  0
   -2.0669   22.4020  -25.1788 C   0  0  0  0  0  0  0  0  0  0  0  0
   -1.2813   22.6077  -26.3299 C   0  0  0  0  0  0  0  0  0  0  0  0
    0.0430   22.6367  -26.5917 C   0  0  0  0  0  0  0  0  0  0  0  0
    1.0237   22.3575  -25.6315 N   0  0  0  0  0  0  0  0  0  0  0  0
    0.4951   22.9904  -27.8505 N   0  0  0  0  0  0  0  0  0  0  0  0
   -0.3650   23.3222  -28.8105 C   0  0  0  0  0  0  0  0  0  0  0  0
   -1.6775   23.3013  -28.5420 N   0  0  0  0  0  0  0  0  0  0  0  0
   -2.1290   22.9509  -27.3386 N   0  0  0  0  0  0  0  0  0  0  0  0
   -3.4085   22.9664  -26.8516 C   0  0  0  0  0  0  0  0  0  0  0  0
    1.3698   23.0008  -24.8733 H   0  0  0  0  0  0  0  0  0  0  0  0
    1.5033   21.3960  -25.6802 H   0  0  0  0  0  0  0  0  0  0  0  0
   -1.3692   22.2087  -23.9015 C   0  0  0  0  0  0  0  0  0  0  0  0
   -1.6277   22.8187  -22.6907 C   0  0  0  0  0  0  0  0  0  0  0  0
   -0.9220   22.3764  -21.6273 C   0  0  0  0  0  0  0  0  0  0  0  0
   -1.1072   22.7786  -20.2868 C   0  0  0  0  0  0  0  0  0  0  0  0
   -0.4230   22.2134  -19.2329 C   0  0  0  0  0  0  0  0  0  0  0  0
   -0.7148   22.6300  -17.8238 C   0  0  0  0  0  0  0  0  0  0  0  0
    0.4927   21.2058  -19.4812 C   0  0  0  0  0  0  0  0  0  0  0  0
    0.6855   20.8118  -20.7690 C   0  0  0  0  0  0  0  0  0  0  0  0
   -0.0164   21.3862  -21.8496 C   0  0  0  0  0  0  0  0  0  0  0  0
   -0.1550   21.0868  -23.5046 S   0  0  0  0  0  0  0  0  0  0  0  0
    1.5771   19.8068  -21.0942 O   0  0  0  0  0  0  0  0  0  0  0  0
    2.9190   19.9687  -21.4340 C   0  0  0  0  0  0  0  0  0  0  0  0
   -4.4831   23.4719  -27.6904 C   0  0  0  0  0  0  0  0  0  0  0  0
   -4.8749   22.9071  -28.6947 O   0  0  0  0  0  0  0  0  0  0  0  0
   -5.1289   24.7041  -27.3288 N   0  0  0  0  0  0  0  0  0  0  0  0
   -6.2641   25.5605  -27.5383 C   0  0  0  0  0  0  0  0  0  0  0  0
   -5.7492   26.5115  -26.4284 C   0  0  0  0  0  0  0  0  0  0  0  0
   -4.4310   25.9070  -26.7441 C   0  0  0  0  0  0  0  0  0  0  0  0
   -4.5118   22.2955  -24.6616 C   0  0  0  0  0  0  0  0  0  0  0  0
   -5.1374   23.3437  -24.0012 O   0  0  0  0  0  0  0  0  0  0  0  0
   -7.3106   24.4454  -23.7227 C   0  0  0  0  0  0  0  0  0  0  0  0
   -6.4814   23.3662  -24.3176 C   0  0  0  0  0  0  0  0  0  0  0  0
 33 34  1  0  0  0
 34 32  1  0  0  0
 32 31  1  0  0  0
 31  1  1  0  0  0
  1  2  1  0  0  0
  2 13  1  0  0  0
 13 14  2  0  0  0
 14 15  1  0  0  0
 15 16  2  0  0  0
 16 17  1  0  0  0
 17 18  1  0  0  0
 17 19  2  0  0  0
 19 20  1  0  0  0
 20 23  1  0  0  0
 23 24  1  0  0  0
 20 21  2  0  0  0
 21 22  1  0  0  0
  2  3  2  0  0  0
  3  4  1  0  0  0
  4  5  1  0  0  0
  4  6  2  0  0  0
  6  7  1  0  0  0
  7  8  2  0  0  0
  8  9  1  0  0  0
  9 10  1  0  0  0
 10 25  1  0  0  0
 25 26  2  0  0  0
 25 27  1  0  0  0
 27 28  1  0  0  0
 28 29  1  0  0  0
 29 30  1  0  0  0
 10  1  2  0  0  0
 30 27  1  0  0  0
 22 13  1  0  0  0
  9  3  1  0  0  0
 21 15  1  0  0  0
  5 11  1  0  0  0
  5 12  1  0  0  0
M  END
> <minimizedAffinity>
-7.84533

> <CNNscore>
0.9177432060

> <CNNaffinity>
7.3647141457

> <CNN_VS>
6.7589163780

> <CNNaffinity_variance>
0.1730089784

$$$$
[H]c1nc(N([H])[H])c2c(-c3sc4c(OC([H])([H])[H])c([H])c(C([H])([H])[H])c([H])c4c3[H])c(C([H])([H])OC([H])([H])C([H])([H])[H])c(C(=O)N3C([H])([H])C([H])([H])C3([H])[H])n2n1


 34 38  0  0  0  0  0  0  0  0999 V2000
   -3.4449   22.4560  -25.2467 C   0  0  0  0  0  0  0  0  0  0  0  0
   -2.2142   22.1734  -24.8120 C   0  0  0  0  0  0  0  0  0  0  0  0
   -1.3070   22.3617  -25.8731 C   0  0  0  0  0  0  0  0  0  0  0  0
    0.0372   22.3368  -25.9985 C   0  0  0  0  0  0  0  0  0  0  0  0
    0.9019   22.0007  -24.9492 N   0  0  0  0  0  0  0  0  0  0  0  0
    0.6301   22.6892  -27.1978 N   0  0  0  0  0  0  0  0  0  0  0  0
   -0.1125   23.0725  -28.2336 C   0  0  0  0  0  0  0  0  0  0  0  0
   -1.4453   23.1049  -28.1003 N   0  0  0  0  0  0  0  0  0  0  0  0
   -2.0319   22.7565  -26.9560 N   0  0  0  0  0  0  0  0  0  0  0  0
   -3.3527   22.8207  -26.6013 C   0  0  0  0  0  0  0  0  0  0  0  0
    1.1952   22.6170  -24.1474 H   0  0  0  0  0  0  0  0  0  0  0  0
    1.3432   21.0201  -24.9675 H   0  0  0  0  0  0  0  0  0  0  0  0
   -1.6596   21.9308  -23.4745 C   0  0  0  0  0  0  0  0  0  0  0  0
   -1.1983   20.7411  -22.9483 C   0  0  0  0  0  0  0  0  0  0  0  0
   -0.6167   20.8029  -21.7307 C   0  0  0  0  0  0  0  0  0  0  0  0
    0.0200   19.7343  -21.0632 C   0  0  0  0  0  0  0  0  0  0  0  0
    0.6846   19.8872  -19.8662 C   0  0  0  0  0  0  0  0  0  0  0  0
    1.4046   18.7317  -19.2411 C   0  0  0  0  0  0  0  0  0  0  0  0
    0.7391   21.1378  -19.2757 C   0  0  0  0  0  0  0  0  0  0  0  0
    0.1252   22.1760  -19.9051 C   0  0  0  0  0  0  0  0  0  0  0  0
   -0.5529   22.0228  -21.1327 C   0  0  0  0  0  0  0  0  0  0  0  0
   -1.2884   23.0511  -22.2506 S   0  0  0  0  0  0  0  0  0  0  0  0
    0.1433   23.4549  -19.3809 O   0  0  0  0  0  0  0  0  0  0  0  0
    1.1312   24.0003  -18.5629 C   0  0  0  0  0  0  0  0  0  0  0  0
   -4.3137   23.3850  -27.5350 C   0  0  0  0  0  0  0  0  0  0  0  0
   -4.6128   22.8604  -28.5917 O   0  0  0  0  0  0  0  0  0  0  0  0
   -4.9548   24.6294  -27.2086 N   0  0  0  0  0  0  0  0  0  0  0  0
   -6.0327   25.5302  -27.5131 C   0  0  0  0  0  0  0  0  0  0  0  0
   -5.6103   26.4337  -26.3270 C   0  0  0  0  0  0  0  0  0  0  0  0
   -4.2858   25.7915  -26.5174 C   0  0  0  0  0  0  0  0  0  0  0  0
   -4.7015   22.1659  -24.5481 C   0  0  0  0  0  0  0  0  0  0  0  0
   -5.4749   23.2499  -24.1567 O   0  0  0  0  0  0  0  0  0  0  0  0
   -4.4882   25.0486  -22.8131 C   0  0  0  0  0  0  0  0  0  0  0  0
   -5.0766   23.6882  -22.9092 C   0  0  0  0  0  0  0  0  0  0  0  0
 33 34  1  0  0  0
 34 32  1  0  0  0
 32 31  1  0  0  0
 31  1  1  0  0  0
  1  2  1  0  0  0
  2 13  1  0  0  0
 13 14  2  0  0  0
 14 15  1  0  0  0
 15 16  2  0  0  0
 16 17  1  0  0  0
 17 18  1  0  0  0
 17 19  2  0  0  0
 19 20  1  0  0  0
 20 23  1  0  0  0
 23 24  1  0  0  0
 20 21  2  0  0  0
 21 22  1  0  0  0
  2  3  2  0  0  0
  3  4  1  0  0  0
  4  5  1  0  0  0
  4  6  2  0  0  0
  6  7  1  0  0  0
  7  8  2  0  0  0
  8  9  1  0  0  0
  9 10  1  0  0  0
 10 25  1  0  0  0
 25 26  2  0  0  0
 25 27  1  0  0  0
 27 28  1  0  0  0
 28 29  1  0  0  0
 29 30  1  0  0  0
 10  1  2  0  0  0
 30 27  1  0  0  0
 22 13  1  0  0  0
  9  3  1  0  0  0
 21 15  1  0  0  0
  5 11  1  0  0  0
  5 12  1  0  0  0
M  END
> <minimizedAffinity>
-7.99972

> <CNNscore>
0.8625839353

> <CNNaffinity>
7.2769293785

> <CNN_VS>
6.2769622803

> <CNNaffinity_variance>
0.1436214745

$$$$
[H]c1nc(N([H])[H])c2c(-c3sc4c(OC([H])([H])[H])c([H])c(C([H])([H])[H])c([H])c4c3[H])c(C([H])([H])OC([H])([H])C([H])([H])[H])c(C(=O)N3C([H])([H])C([H])([H])C3([H])[H])n2n1


 34 38  0  0  0  0  0  0  0  0999 V2000
   -3.5193   23.4626  -25.4257 C   0  0  0  0  0  0  0  0  0  0  0  0
   -2.4002   22.8365  -25.0526 C   0  0  0  0  0  0  0  0  0  0  0  0
   -1.5220   22.7891  -26.1530 C   0  0  0  0  0  0  0  0  0  0  0  0
   -0.2452   22.3921  -26.3417 C   0  0  0  0  0  0  0  0  0  0  0  0
    0.5337   21.8023  -25.3381 N   0  0  0  0  0  0  0  0  0  0  0  0
    0.3719   22.5934  -27.5634 N   0  0  0  0  0  0  0  0  0  0  0  0
   -0.2761   23.1942  -28.5587 C   0  0  0  0  0  0  0  0  0  0  0  0
   -1.5394   23.5949  -28.3625 N   0  0  0  0  0  0  0  0  0  0  0  0
   -2.1517   23.3970  -27.1959 N   0  0  0  0  0  0  0  0  0  0  0  0
   -3.3853   23.8195  -26.7788 C   0  0  0  0  0  0  0  0  0  0  0  0
    1.0215   22.2923  -24.5440 H   0  0  0  0  0  0  0  0  0  0  0  0
    0.6809   20.7380  -25.3884 H   0  0  0  0  0  0  0  0  0  0  0  0
   -1.8804   22.4161  -23.7455 C   0  0  0  0  0  0  0  0  0  0  0  0
   -1.5074   21.1485  -23.3465 C   0  0  0  0  0  0  0  0  0  0  0  0
   -0.9385   21.0410  -22.1261 C   0  0  0  0  0  0  0  0  0  0  0  0
   -0.3842   19.8665  -21.5728 C   0  0  0  0  0  0  0  0  0  0  0  0
    0.2740   19.8459  -20.3626 C   0  0  0  0  0  0  0  0  0  0  0  0
    0.9061   18.5840  -19.8602 C   0  0  0  0  0  0  0  0  0  0  0  0
    0.4054   21.0201  -19.6420 C   0  0  0  0  0  0  0  0  0  0  0  0
   -0.1287   22.1589  -20.1605 C   0  0  0  0  0  0  0  0  0  0  0  0
   -0.7999   22.1835  -21.4012 C   0  0  0  0  0  0  0  0  0  0  0  0
   -1.4498   23.3724  -22.4072 S   0  0  0  0  0  0  0  0  0  0  0  0
   -0.0307   23.3708  -19.5030 O   0  0  0  0  0  0  0  0  0  0  0  0
    0.9832   23.7588  -18.6291 C   0  0  0  0  0  0  0  0  0  0  0  0
   -4.1876   24.6526  -27.6598 C   0  0  0  0  0  0  0  0  0  0  0  0
   -4.4354   25.8233  -27.4374 O   0  0  0  0  0  0  0  0  0  0  0  0
   -4.7254   24.0789  -28.8630 N   0  0  0  0  0  0  0  0  0  0  0  0
   -5.3310   24.3399  -30.1402 C   0  0  0  0  0  0  0  0  0  0  0  0
   -5.2991   22.8246  -30.4630 C   0  0  0  0  0  0  0  0  0  0  0  0
   -5.2601   22.6737  -28.9870 C   0  0  0  0  0  0  0  0  0  0  0  0
   -4.7763   23.5188  -24.6721 C   0  0  0  0  0  0  0  0  0  0  0  0
   -4.9095   24.5337  -23.7348 O   0  0  0  0  0  0  0  0  0  0  0  0
   -6.9827   25.0107  -24.9550 C   0  0  0  0  0  0  0  0  0  0  0  0
   -5.7998   25.4851  -24.1923 C   0  0  0  0  0  0  0  0  0  0  0  0
 33 34  1  0  0  0
 34 32  1  0  0  0
 32 31  1  0  0  0
 31  1  1  0  0  0
  1  2  1  0  0  0
  2 13  1  0  0  0
 13 14  2  0  0  0
 14 15  1  0  0  0
 15 16  2  0  0  0
 16 17  1  0  0  0
 17 18  1  0  0  0
 17 19  2  0  0  0
 19 20  1  0  0  0
 20 23  1  0  0  0
 23 24  1  0  0  0
 20 21  2  0  0  0
 21 22  1  0  0  0
  2  3  2  0  0  0
  3  4  1  0  0  0
  4  5  1  0  0  0
  4  6  2  0  0  0
  6  7  1  0  0  0
  7  8  2  0  0  0
  8  9  1  0  0  0
  9 10  1  0  0  0
 10 25  1  0  0  0
 25 26  2  0  0  0
 25 27  1  0  0  0
 27 28  1  0  0  0
 28 29  1  0  0  0
 29 30  1  0  0  0
 10  1  2  0  0  0
 30 27  1  0  0  0
 22 13  1  0  0  0
  9  3  1  0  0  0
 21 15  1  0  0  0
  5 11  1  0  0  0
  5 12  1  0  0  0
M  END
> <minimizedAffinity>
-7.68076

> <CNNscore>
0.8263890743

> <CNNaffinity>
7.4545378685

> <CNN_VS>
6.1603484154

> <CNNaffinity_variance>
0.0630884320

$$$$
[H]c1nc(N([H])[H])c2c(-c3sc4c(OC([H])([H])[H])c([H])c(C([H])([H])[H])c([H])c4c3[H])c(C([H])([H])OC([H])([H])C([H])([H])[H])c(C(=O)N3C([H])([H])C([H])([H])C3([H])[H])n2n1


 34 38  0  0  0  0  0  0  0  0999 V2000
   -2.8594   22.0059  -23.8247 C   0  0  0  0  0  0  0  0  0  0  0  0
   -1.5648   21.7414  -23.6309 C   0  0  0  0  0  0  0  0  0  0  0  0
   -0.8633   22.0287  -24.8182 C   0  0  0  0  0  0  0  0  0  0  0  0
    0.4381   22.0605  -25.1768 C   0  0  0  0  0  0  0  0  0  0  0  0
    1.4819   21.6908  -24.3192 N   0  0  0  0  0  0  0  0  0  0  0  0
    0.8020   22.5087  -26.4340 N   0  0  0  0  0  0  0  0  0  0  0  0
   -0.1205   22.9291  -27.2964 C   0  0  0  0  0  0  0  0  0  0  0  0
   -1.4095   22.9047  -26.9315 N   0  0  0  0  0  0  0  0  0  0  0  0
   -1.7769   22.4642  -25.7291 N   0  0  0  0  0  0  0  0  0  0  0  0
   -3.0159   22.4580  -25.1466 C   0  0  0  0  0  0  0  0  0  0  0  0
    1.8964   22.2657  -23.5405 H   0  0  0  0  0  0  0  0  0  0  0  0
    1.9372   20.7299  -24.4807 H   0  0  0  0  0  0  0  0  0  0  0  0
   -0.7778   21.4355  -22.4298 C   0  0  0  0  0  0  0  0  0  0  0  0
   -0.5111   22.2599  -21.3554 C   0  0  0  0  0  0  0  0  0  0  0  0
    0.1360   21.7010  -20.3097 C   0  0  0  0  0  0  0  0  0  0  0  0
    0.4053   22.3273  -19.0735 C   0  0  0  0  0  0  0  0  0  0  0  0
    0.9796   21.6685  -18.0084 C   0  0  0  0  0  0  0  0  0  0  0  0
    1.1742   22.3653  -16.6966 C   0  0  0  0  0  0  0  0  0  0  0  0
    1.3160   20.3324  -18.1390 C   0  0  0  0  0  0  0  0  0  0  0  0
    1.0671   19.7172  -19.3266 C   0  0  0  0  0  0  0  0  0  0  0  0
    0.4758   20.3884  -20.4176 C   0  0  0  0  0  0  0  0  0  0  0  0
   -0.0985   19.9546  -21.9440 S   0  0  0  0  0  0  0  0  0  0  0  0
    1.3682   18.3834  -19.5297 O   0  0  0  0  0  0  0  0  0  0  0  0
    2.6297   17.8494  -19.7860 C   0  0  0  0  0  0  0  0  0  0  0  0
   -4.1398   23.0446  -25.8584 C   0  0  0  0  0  0  0  0  0  0  0  0
   -4.5381   22.6418  -26.9356 O   0  0  0  0  0  0  0  0  0  0  0  0
   -4.8295   24.1614  -25.2727 N   0  0  0  0  0  0  0  0  0  0  0  0
   -6.0095   24.9818  -25.3025 C   0  0  0  0  0  0  0  0  0  0  0  0
   -5.5027   25.7527  -24.0573 C   0  0  0  0  0  0  0  0  0  0  0  0
   -4.1691   25.2798  -24.5054 C   0  0  0  0  0  0  0  0  0  0  0  0
   -3.9660   21.6272  -22.9396 C   0  0  0  0  0  0  0  0  0  0  0  0
   -4.4269   22.5897  -22.0523 O   0  0  0  0  0  0  0  0  0  0  0  0
   -6.5060   21.7374  -23.0346 C   0  0  0  0  0  0  0  0  0  0  0  0
   -5.8040   22.6694  -22.1155 C   0  0  0  0  0  0  0  0  0  0  0  0
 33 34  1  0  0  0
 34 32  1  0  0  0
 32 31  1  0  0  0
 31  1  1  0  0  0
  1  2  1  0  0  0
  2 13  1  0  0  0
 13 14  2  0  0  0
 14 15  1  0  0  0
 15 16  2  0  0  0
 16 17  1  0  0  0
 17 18  1  0  0  0
 17 19  2  0  0  0
 19 20  1  0  0  0
 20 23  1  0  0  0
 23 24  1  0  0  0
 20 21  2  0  0  0
 21 22  1  0  0  0
  2  3  2  0  0  0
  3  4  1  0  0  0
  4  5  1  0  0  0
  4  6  2  0  0  0
  6  7  1  0  0  0
  7  8  2  0  0  0
  8  9  1  0  0  0
  9 10  1  0  0  0
 10 25  1  0  0  0
 25 26  2  0  0  0
 25 27  1  0  0  0
 27 28  1  0  0  0
 28 29  1  0  0  0
 29 30  1  0  0  0
 10  1  2  0  0  0
 30 27  1  0  0  0
 22 13  1  0  0  0
  9  3  1  0  0  0
 21 15  1  0  0  0
  5 11  1  0  0  0
  5 12  1  0  0  0
M  END
> <minimizedAffinity>
-6.70937

> <CNNscore>
0.7688710093

> <CNNaffinity>
6.9826536179

> <CNN_VS>
5.3687601089

> <CNNaffinity_variance>
0.0298585109

$$$$
[H]c1nc(N([H])[H])c2c(-c3sc4c(OC([H])([H])[H])c([H])c(C([H])([H])[H])c([H])c4c3[H])c(C([H])([H])OC([H])([H])C([H])([H])[H])c(C(=O)N3C([H])([H])C([H])([H])C3([H])[H])n2n1


 34 38  0  0  0  0  0  0  0  0999 V2000
   -3.8910   22.5851  -23.7268 C   0  0  0  0  0  0  0  0  0  0  0  0
   -2.6205   22.1805  -23.6515 C   0  0  0  0  0  0  0  0  0  0  0  0
   -2.0318   22.3036  -24.9253 C   0  0  0  0  0  0  0  0  0  0  0  0
   -0.7847   22.1557  -25.4213 C   0  0  0  0  0  0  0  0  0  0  0  0
    0.3025   21.7203  -24.6531 N   0  0  0  0  0  0  0  0  0  0  0  0
   -0.5193   22.4742  -26.7412 N   0  0  0  0  0  0  0  0  0  0  0  0
   -1.4815   22.9450  -27.5310 C   0  0  0  0  0  0  0  0  0  0  0  0
   -2.7148   23.0991  -27.0306 N   0  0  0  0  0  0  0  0  0  0  0  0
   -2.9892   22.7852  -25.7653 N   0  0  0  0  0  0  0  0  0  0  0  0
   -4.1462   22.9655  -25.0559 C   0  0  0  0  0  0  0  0  0  0  0  0
    0.8651   22.2909  -23.9701 H   0  0  0  0  0  0  0  0  0  0  0  0
    0.6259   20.7032  -24.7865 H   0  0  0  0  0  0  0  0  0  0  0  0
   -1.7403   21.8615  -22.5205 C   0  0  0  0  0  0  0  0  0  0  0  0
   -1.1265   20.6589  -22.2336 C   0  0  0  0  0  0  0  0  0  0  0  0
   -0.2595   20.6539  -21.1979 C   0  0  0  0  0  0  0  0  0  0  0  0
    0.5559   19.5697  -20.8074 C   0  0  0  0  0  0  0  0  0  0  0  0
    1.4955   19.6612  -19.8039 C   0  0  0  0  0  0  0  0  0  0  0  0
    2.3833   18.4981  -19.4828 C   0  0  0  0  0  0  0  0  0  0  0  0
    1.6598   20.8623  -19.1362 C   0  0  0  0  0  0  0  0  0  0  0  0
    0.8769   21.9144  -19.4983 C   0  0  0  0  0  0  0  0  0  0  0  0
   -0.0834   21.8244  -20.5279 C   0  0  0  0  0  0  0  0  0  0  0  0
   -1.1064   22.8990  -21.3320 S   0  0  0  0  0  0  0  0  0  0  0  0
    0.9886   23.1471  -18.8830 O   0  0  0  0  0  0  0  0  0  0  0  0
    2.1581   23.7237  -18.3909 C   0  0  0  0  0  0  0  0  0  0  0  0
   -5.2714   23.6349  -25.6880 C   0  0  0  0  0  0  0  0  0  0  0  0
   -6.1325   23.0517  -26.3202 O   0  0  0  0  0  0  0  0  0  0  0  0
   -5.3890   25.0626  -25.5700 N   0  0  0  0  0  0  0  0  0  0  0  0
   -6.2495   26.2039  -25.7224 C   0  0  0  0  0  0  0  0  0  0  0  0
   -5.1369   27.1171  -25.1481 C   0  0  0  0  0  0  0  0  0  0  0  0
   -4.2328   26.0311  -25.6021 C   0  0  0  0  0  0  0  0  0  0  0  0
   -4.9243   22.4002  -22.7025 C   0  0  0  0  0  0  0  0  0  0  0  0
   -5.1769   23.4702  -21.8555 O   0  0  0  0  0  0  0  0  0  0  0  0
   -6.3110   22.2448  -20.0593 C   0  0  0  0  0  0  0  0  0  0  0  0
   -6.3447   23.2502  -21.1521 C   0  0  0  0  0  0  0  0  0  0  0  0
 33 34  1  0  0  0
 34 32  1  0  0  0
 32 31  1  0  0  0
 31  1  1  0  0  0
  1  2  1  0  0  0
  2 13  1  0  0  0
 13 14  2  0  0  0
 14 15  1  0  0  0
 15 16  2  0  0  0
 16 17  1  0  0  0
 17 18  1  0  0  0
 17 19  2  0  0  0
 19 20  1  0  0  0
 20 23  1  0  0  0
 23 24  1  0  0  0
 20 21  2  0  0  0
 21 22  1  0  0  0
  2  3  2  0  0  0
  3  4  1  0  0  0
  4  5  1  0  0  0
  4  6  2  0  0  0
  6  7  1  0  0  0
  7  8  2  0  0  0
  8  9  1  0  0  0
  9 10  1  0  0  0
 10 25  1  0  0  0
 25 26  2  0  0  0
 25 27  1  0  0  0
 27 28  1  0  0  0
 28 29  1  0  0  0
 29 30  1  0  0  0
 10  1  2  0  0  0
 30 27  1  0  0  0
 22 13  1  0  0  0
  9  3  1  0  0  0
 21 15  1  0  0  0
  5 11  1  0  0  0
  5 12  1  0  0  0
M  END
> <minimizedAffinity>
-6.82075

> <CNNscore>
0.5175215602

> <CNNaffinity>
6.9427423477

> <CNN_VS>
3.5930187702

> <CNNaffinity_variance>
0.3343895376

$$$$
[H]c1nc(N([H])[H])c2c(-c3sc4c(OC([H])([H])[H])c([H])c(C([H])([H])[H])c([H])c4c3[H])c(C([H])([H])OC([H])([H])C([H])([H])[H])c(C(=O)N3C([H])([H])C([H])([H])C3([H])[H])n2n1


 34 38  0  0  0  0  0  0  0  0999 V2000
   -4.5927   24.0536  -25.4608 C   0  0  0  0  0  0  0  0  0  0  0  0
   -3.6328   23.2484  -24.9985 C   0  0  0  0  0  0  0  0  0  0  0  0
   -2.7340   22.9702  -26.0469 C   0  0  0  0  0  0  0  0  0  0  0  0
   -1.5513   22.3266  -26.1477 C   0  0  0  0  0  0  0  0  0  0  0  0
   -0.9447   21.6587  -25.0764 N   0  0  0  0  0  0  0  0  0  0  0  0
   -0.8552   22.3348  -27.3433 N   0  0  0  0  0  0  0  0  0  0  0  0
   -1.3316   22.9889  -28.3999 C   0  0  0  0  0  0  0  0  0  0  0  0
   -2.5009   23.6340  -28.2911 N   0  0  0  0  0  0  0  0  0  0  0  0
   -3.1891   23.6251  -27.1505 N   0  0  0  0  0  0  0  0  0  0  0  0
   -4.3345   24.2987  -26.8208 C   0  0  0  0  0  0  0  0  0  0  0  0
   -0.4058   22.0922  -24.2825 H   0  0  0  0  0  0  0  0  0  0  0  0
   -1.0040   20.5848  -25.0664 H   0  0  0  0  0  0  0  0  0  0  0  0
   -3.2604   22.8137  -23.6465 C   0  0  0  0  0  0  0  0  0  0  0  0
   -2.1541   23.1839  -22.9089 C   0  0  0  0  0  0  0  0  0  0  0  0
   -2.1007   22.7408  -21.6340 C   0  0  0  0  0  0  0  0  0  0  0  0
   -1.1241   23.0916  -20.6769 C   0  0  0  0  0  0  0  0  0  0  0  0
   -1.1832   22.6857  -19.3616 C   0  0  0  0  0  0  0  0  0  0  0  0
   -0.1570   23.1500  -18.3739 C   0  0  0  0  0  0  0  0  0  0  0  0
   -2.2397   21.8961  -18.9424 C   0  0  0  0  0  0  0  0  0  0  0  0
   -3.1856   21.5457  -19.8553 C   0  0  0  0  0  0  0  0  0  0  0  0
   -3.1294   21.9631  -21.2018 C   0  0  0  0  0  0  0  0  0  0  0  0
   -4.1408   21.8594  -22.5488 S   0  0  0  0  0  0  0  0  0  0  0  0
   -4.2735   20.7661  -19.5098 O   0  0  0  0  0  0  0  0  0  0  0  0
   -5.3589   21.1593  -18.7290 C   0  0  0  0  0  0  0  0  0  0  0  0
   -4.9222   25.2166  -27.7830 C   0  0  0  0  0  0  0  0  0  0  0  0
   -5.1445   26.3893  -27.5451 O   0  0  0  0  0  0  0  0  0  0  0  0
   -5.2655   24.7297  -29.0911 N   0  0  0  0  0  0  0  0  0  0  0  0
   -5.6189   25.0825  -30.4390 C   0  0  0  0  0  0  0  0  0  0  0  0
   -5.6087   23.5836  -30.8321 C   0  0  0  0  0  0  0  0  0  0  0  0
   -5.8418   23.3663  -29.3825 C   0  0  0  0  0  0  0  0  0  0  0  0
   -5.8462   24.3925  -24.7788 C   0  0  0  0  0  0  0  0  0  0  0  0
   -5.7981   25.4016  -23.8272 O   0  0  0  0  0  0  0  0  0  0  0  0
   -8.2015   24.9146  -23.8586 C   0  0  0  0  0  0  0  0  0  0  0  0
   -7.0769   25.8249  -23.5228 C   0  0  0  0  0  0  0  0  0  0  0  0
 33 34  1  0  0  0
 34 32  1  0  0  0
 32 31  1  0  0  0
 31  1  1  0  0  0
  1  2  1  0  0  0
  2 13  1  0  0  0
 13 14  2  0  0  0
 14 15  1  0  0  0
 15 16  2  0  0  0
 16 17  1  0  0  0
 17 18  1  0  0  0
 17 19  2  0  0  0
 19 20  1  0  0  0
 20 23  1  0  0  0
 23 24  1  0  0  0
 20 21  2  0  0  0
 21 22  1  0  0  0
  2  3  2  0  0  0
  3  4  1  0  0  0
  4  5  1  0  0  0
  4  6  2  0  0  0
  6  7  1  0  0  0
  7  8  2  0  0  0
  8  9  1  0  0  0
  9 10  1  0  0  0
 10 25  1  0  0  0
 25 26  2  0  0  0
 25 27  1  0  0  0
 27 28  1  0  0  0
 28 29  1  0  0  0
 29 30  1  0  0  0
 10  1  2  0  0  0
 30 27  1  0  0  0
 22 13  1  0  0  0
  9  3  1  0  0  0
 21 15  1  0  0  0
  5 11  1  0  0  0
  5 12  1  0  0  0
M  END
> <minimizedAffinity>
-7.69280

> <CNNscore>
0.3604347408

> <CNNaffinity>
7.2139296532

> <CNN_VS>
2.6001508236

> <CNNaffinity_variance>
0.2850267887

$$$$
[H]c1nc(N([H])[H])c2c(-c3sc4c(OC([H])([H])[H])c([H])c(C([H])([H])[H])c([H])c4c3[H])c(C([H])([H])OC([H])([H])C([H])([H])[H])c(C(=O)N3C([H])([H])C([H])([H])C3([H])[H])n2n1


 34 38  0  0  0  0  0  0  0  0999 V2000
   -4.7665   24.3752  -25.3852 C   0  0  0  0  0  0  0  0  0  0  0  0
   -3.8649   23.5916  -24.7879 C   0  0  0  0  0  0  0  0  0  0  0  0
   -2.9495   23.1374  -25.7576 C   0  0  0  0  0  0  0  0  0  0  0  0
   -1.7994   22.4304  -25.7306 C   0  0  0  0  0  0  0  0  0  0  0  0
   -1.2625   21.8785  -24.5606 N   0  0  0  0  0  0  0  0  0  0  0  0
   -1.0667   22.2505  -26.8903 N   0  0  0  0  0  0  0  0  0  0  0  0
   -1.4750   22.7845  -28.0390 C   0  0  0  0  0  0  0  0  0  0  0  0
   -2.6118   23.4934  -28.0577 N   0  0  0  0  0  0  0  0  0  0  0  0
   -3.3350   23.6650  -26.9521 N   0  0  0  0  0  0  0  0  0  0  0  0
   -4.4533   24.4297  -26.7547 C   0  0  0  0  0  0  0  0  0  0  0  0
   -0.7268   22.3848  -23.8088 H   0  0  0  0  0  0  0  0  0  0  0  0
   -1.3781   20.8190  -24.4159 H   0  0  0  0  0  0  0  0  0  0  0  0
   -3.5583   23.3182  -23.3784 C   0  0  0  0  0  0  0  0  0  0  0  0
   -4.1593   22.4011  -22.5400 C   0  0  0  0  0  0  0  0  0  0  0  0
   -3.6105   22.2505  -21.3150 C   0  0  0  0  0  0  0  0  0  0  0  0
   -3.9931   21.2944  -20.3494 C   0  0  0  0  0  0  0  0  0  0  0  0
   -3.3249   21.1244  -19.1565 C   0  0  0  0  0  0  0  0  0  0  0  0
   -3.7320   20.0437  -18.2023 C   0  0  0  0  0  0  0  0  0  0  0  0
   -2.2279   21.9196  -18.8744 C   0  0  0  0  0  0  0  0  0  0  0  0
   -1.8510   22.8491  -19.7935 C   0  0  0  0  0  0  0  0  0  0  0  0
   -2.5311   23.0227  -21.0173 C   0  0  0  0  0  0  0  0  0  0  0  0
   -2.2959   23.9322  -22.4193 S   0  0  0  0  0  0  0  0  0  0  0  0
   -0.7614   23.6741  -19.5861 O   0  0  0  0  0  0  0  0  0  0  0  0
    0.3580   23.3866  -18.8072 C   0  0  0  0  0  0  0  0  0  0  0  0
   -4.9618   25.2424  -27.8477 C   0  0  0  0  0  0  0  0  0  0  0  0
   -5.1758   26.4369  -27.7548 O   0  0  0  0  0  0  0  0  0  0  0  0
   -5.2319   24.6177  -29.1138 N   0  0  0  0  0  0  0  0  0  0  0  0
   -5.4933   24.8233  -30.5122 C   0  0  0  0  0  0  0  0  0  0  0  0
   -5.4875   23.2900  -30.7368 C   0  0  0  0  0  0  0  0  0  0  0  0
   -5.8150   23.2376  -29.2901 C   0  0  0  0  0  0  0  0  0  0  0  0
   -6.0213   24.8590  -24.8000 C   0  0  0  0  0  0  0  0  0  0  0  0
   -6.9299   23.9032  -24.3675 O   0  0  0  0  0  0  0  0  0  0  0  0
   -6.6693   25.1270  -22.2582 C   0  0  0  0  0  0  0  0  0  0  0  0
   -7.4964   24.2973  -23.1713 C   0  0  0  0  0  0  0  0  0  0  0  0
 33 34  1  0  0  0
 34 32  1  0  0  0
 32 31  1  0  0  0
 31  1  1  0  0  0
  1  2  1  0  0  0
  2 13  1  0  0  0
 13 14  2  0  0  0
 14 15  1  0  0  0
 15 16  2  0  0  0
 16 17  1  0  0  0
 17 18  1  0  0  0
 17 19  2  0  0  0
 19 20  1  0  0  0
 20 23  1  0  0  0
 23 24  1  0  0  0
 20 21  2  0  0  0
 21 22  1  0  0  0
  2  3  2  0  0  0
  3  4  1  0  0  0
  4  5  1  0  0  0
  4  6  2  0  0  0
  6  7  1  0  0  0
  7  8  2  0  0  0
  8  9  1  0  0  0
  9 10  1  0  0  0
 10 25  1  0  0  0
 25 26  2  0  0  0
 25 27  1  0  0  0
 27 28  1  0  0  0
 28 29  1  0  0  0
 29 30  1  0  0  0
 10  1  2  0  0  0
 30 27  1  0  0  0
 22 13  1  0  0  0
  9  3  1  0  0  0
 21 15  1  0  0  0
  5 11  1  0  0  0
  5 12  1  0  0  0
M  END
> <minimizedAffinity>
-7.90827

> <CNNscore>
0.2714003026

> <CNNaffinity>
7.0811691284

> <CNN_VS>
1.9218314886

> <CNNaffinity_variance>
0.3672693670

$$$$
[H]c1nc(N([H])[H])c2c(-c3sc4c(OC([H])([H])[H])c([H])c(C([H])([H])[H])c([H])c4c3[H])c(C([H])([H])OC([H])([H])C([H])([H])[H])c(C(=O)N3C([H])([H])C([H])([H])C3([H])[H])n2n1


 34 38  0  0  0  0  0  0  0  0999 V2000
   -4.9017   24.3025  -24.0831 C   0  0  0  0  0  0  0  0  0  0  0  0
   -4.1639   24.0308  -25.1627 C   0  0  0  0  0  0  0  0  0  0  0  0
   -3.0758   23.2250  -24.7739 C   0  0  0  0  0  0  0  0  0  0  0  0
   -2.0899   22.5701  -25.4238 C   0  0  0  0  0  0  0  0  0  0  0  0
   -1.9031   22.6402  -26.8102 N   0  0  0  0  0  0  0  0  0  0  0  0
   -1.2220   21.7501  -24.7251 N   0  0  0  0  0  0  0  0  0  0  0  0
   -1.3577   21.5830  -23.4116 C   0  0  0  0  0  0  0  0  0  0  0  0
   -2.3439   22.2276  -22.7737 N   0  0  0  0  0  0  0  0  0  0  0  0
   -3.1800   23.0304  -23.4303 N   0  0  0  0  0  0  0  0  0  0  0  0
   -4.2936   23.6849  -22.9763 C   0  0  0  0  0  0  0  0  0  0  0  0
   -2.4492   22.1275  -27.5501 H   0  0  0  0  0  0  0  0  0  0  0  0
   -1.1003   23.2591  -27.1698 H   0  0  0  0  0  0  0  0  0  0  0  0
   -4.3887   24.2274  -26.6002 C   0  0  0  0  0  0  0  0  0  0  0  0
   -4.5740   23.2642  -27.5712 C   0  0  0  0  0  0  0  0  0  0  0  0
   -4.8888   23.7050  -28.8086 C   0  0  0  0  0  0  0  0  0  0  0  0
   -5.2296   22.8947  -29.9132 C   0  0  0  0  0  0  0  0  0  0  0  0
   -5.6409   23.4102  -31.1229 C   0  0  0  0  0  0  0  0  0  0  0  0
   -6.0603   22.4998  -32.2362 C   0  0  0  0  0  0  0  0  0  0  0  0
   -5.7277   24.7824  -31.2811 C   0  0  0  0  0  0  0  0  0  0  0  0
   -5.3971   25.5758  -30.2266 C   0  0  0  0  0  0  0  0  0  0  0  0
   -4.9792   25.0505  -28.9857 C   0  0  0  0  0  0  0  0  0  0  0  0
   -4.6325   25.6755  -27.4569 S   0  0  0  0  0  0  0  0  0  0  0  0
   -5.4664   26.9541  -30.3062 O   0  0  0  0  0  0  0  0  0  0  0  0
   -5.9855   27.6970  -31.3649 C   0  0  0  0  0  0  0  0  0  0  0  0
   -4.7229   23.4891  -21.6011 C   0  0  0  0  0  0  0  0  0  0  0  0
   -4.0587   23.8178  -20.6357 O   0  0  0  0  0  0  0  0  0  0  0  0
   -5.9982   22.8755  -21.3496 N   0  0  0  0  0  0  0  0  0  0  0  0
   -7.0246   22.6160  -20.3773 C   0  0  0  0  0  0  0  0  0  0  0  0
   -7.8900   21.9438  -21.4730 C   0  0  0  0  0  0  0  0  0  0  0  0
   -6.5868   21.7434  -22.1544 C   0  0  0  0  0  0  0  0  0  0  0  0
   -5.9784   25.2944  -23.9933 C   0  0  0  0  0  0  0  0  0  0  0  0
   -7.1751   24.9912  -24.6275 O   0  0  0  0  0  0  0  0  0  0  0  0
   -8.1157   25.6420  -22.4582 C   0  0  0  0  0  0  0  0  0  0  0  0
   -8.1746   24.8156  -23.6909 C   0  0  0  0  0  0  0  0  0  0  0  0
 33 34  1  0  0  0
 34 32  1  0  0  0
 32 31  1  0  0  0
 31  1  1  0  0  0
  1  2  1  0  0  0
  2 13  1  0  0  0
 13 14  2  0  0  0
 14 15  1  0  0  0
 15 16  2  0  0  0
 16 17  1  0  0  0
 17 18  1  0  0  0
 17 19  2  0  0  0
 19 20  1  0  0  0
 20 23  1  0  0  0
 23 24  1  0  0  0
 20 21  2  0  0  0
 21 22  1  0  0  0
  2  3  2  0  0  0
  3  4  1  0  0  0
  4  5  1  0  0  0
  4  6  2  0  0  0
  6  7  1  0  0  0
  7  8  2  0  0  0
  8  9  1  0  0  0
  9 10  1  0  0  0
 10 25  1  0  0  0
 25 26  2  0  0  0
 25 27  1  0  0  0
 27 28  1  0  0  0
 28 29  1  0  0  0
 29 30  1  0  0  0
 10  1  2  0  0  0
 30 27  1  0  0  0
 22 13  1  0  0  0
  9  3  1  0  0  0
 21 15  1  0  0  0
  5 11  1  0  0  0
  5 12  1  0  0  0
M  END
> <minimizedAffinity>
-7.91210

> <CNNscore>
0.2277550548

> <CNNaffinity>
6.9639573097

> <CNN_VS>
1.5860764980

> <CNNaffinity_variance>
0.3279564977

$$$$
[H]OC(=O)C1([H])C([H])([H])C([H])([H])N(C(=O)c2c(C([H])([H])OC([H])([H])C([H])([H])[H])c(-c3sc4c(OC([H])([H])[H])c([H])c(C([H])([H])[H])c([H])c4c3[H])c3c(N([H])[H])nc([H])nn23)C([H])([H])C1([H])[H]


 40 44  0  0  0  0  0  0  0  0999 V2000
   -2.8762   21.9608  -24.0586 C   0  0  0  0  0  0  0  0  0  0  0  0
   -1.5234   21.8163  -23.7671 C   0  0  0  0  0  0  0  0  0  0  0  0
   -0.7824   22.1636  -24.8797 C   0  0  0  0  0  0  0  0  0  0  0  0
    0.5339   22.1345  -25.2732 C   0  0  0  0  0  0  0  0  0  0  0  0
    1.5428   21.5508  -24.4719 N   0  0  0  0  0  0  0  0  0  0  0  0
    0.8918   22.4948  -26.5323 N   0  0  0  0  0  0  0  0  0  0  0  0
   -0.0176   22.8739  -27.4191 C   0  0  0  0  0  0  0  0  0  0  0  0
   -1.2727   22.8757  -27.0009 N   0  0  0  0  0  0  0  0  0  0  0  0
   -1.7246   22.5521  -25.8202 N   0  0  0  0  0  0  0  0  0  0  0  0
   -2.9890   22.4416  -25.3226 C   0  0  0  0  0  0  0  0  0  0  0  0
    2.3458   22.1406  -24.1863 H   0  0  0  0  0  0  0  0  0  0  0  0
    1.5269   20.5300  -24.2071 H   0  0  0  0  0  0  0  0  0  0  0  0
   -0.9602   21.5454  -22.4135 C   0  0  0  0  0  0  0  0  0  0  0  0
   -0.6842   22.4010  -21.3969 C   0  0  0  0  0  0  0  0  0  0  0  0
   -0.0444   21.9039  -20.2799 C   0  0  0  0  0  0  0  0  0  0  0  0
    0.4083   22.6304  -19.1541 C   0  0  0  0  0  0  0  0  0  0  0  0
    1.0991   21.9692  -18.1760 C   0  0  0  0  0  0  0  0  0  0  0  0
    1.6378   22.7477  -17.0027 C   0  0  0  0  0  0  0  0  0  0  0  0
    1.3884   20.6164  -18.1980 C   0  0  0  0  0  0  0  0  0  0  0  0
    0.9500   19.8892  -19.2894 C   0  0  0  0  0  0  0  0  0  0  0  0
    0.2421   20.5941  -20.3047 C   0  0  0  0  0  0  0  0  0  0  0  0
   -0.3433   20.0883  -21.7920 S   0  0  0  0  0  0  0  0  0  0  0  0
    1.1741   18.6152  -19.3875 O   0  0  0  0  0  0  0  0  0  0  0  0
    1.4475   17.3956  -19.7266 C   0  0  0  0  0  0  0  0  0  0  0  0
   -4.1820   23.0012  -25.9361 C   0  0  0  0  0  0  0  0  0  0  0  0
   -5.0760   23.4460  -25.0312 O   0  0  0  0  0  0  0  0  0  0  0  0
   -4.6868   23.2340  -27.1849 N   0  0  0  0  0  0  0  0  0  0  0  0
   -4.2231   22.9222  -28.4833 C   0  0  0  0  0  0  0  0  0  0  0  0
   -5.3030   23.1473  -29.5693 C   0  0  0  0  0  0  0  0  0  0  0  0
   -5.7481   24.5668  -29.6425 C   0  0  0  0  0  0  0  0  0  0  0  0
   -5.7682   25.1873  -28.2577 C   0  0  0  0  0  0  0  0  0  0  0  0
   -5.9625   24.0526  -27.2364 C   0  0  0  0  0  0  0  0  0  0  0  0
   -4.9638   25.3836  -30.5772 C   0  0  0  0  0  0  0  0  0  0  0  0
   -3.6731   25.8552  -30.3467 O   0  0  0  0  0  0  0  0  0  0  0  0
   -5.4927   25.7046  -31.7105 O   0  0  0  0  0  0  0  0  0  0  0  0
   -3.5384   26.8314  -30.1634 H   0  0  0  0  0  0  0  0  0  0  0  0
   -3.9429   21.4972  -23.0663 C   0  0  0  0  0  0  0  0  0  0  0  0
   -4.1555   22.4568  -22.2428 O   0  0  0  0  0  0  0  0  0  0  0  0
   -5.1330   24.6423  -21.7888 C   0  0  0  0  0  0  0  0  0  0  0  0
   -4.3247   23.4143  -21.4915 C   0  0  0  0  0  0  0  0  0  0  0  0
 39 40  1  0  0  0
 40 38  1  0  0  0
 38 37  1  0  0  0
 37  1  1  0  0  0
  1  2  1  0  0  0
  2 13  1  0  0  0
 13 14  2  0  0  0
 14 15  1  0  0  0
 15 16  2  0  0  0
 16 17  1  0  0  0
 17 18  1  0  0  0
 17 19  2  0  0  0
 19 20  1  0  0  0
 20 23  1  0  0  0
 23 24  1  0  0  0
 20 21  2  0  0  0
 21 22  1  0  0  0
  2  3  2  0  0  0
  3  4  1  0  0  0
  4  5  1  0  0  0
  4  6  2  0  0  0
  6  7  1  0  0  0
  7  8  2  0  0  0
  8  9  1  0  0  0
  9 10  1  0  0  0
 10 25  1  0  0  0
 25 26  2  0  0  0
 25 27  1  0  0  0
 27 28  1  0  0  0
 28 29  1  0  0  0
 29 30  1  0  0  0
 30 31  1  0  0  0
 31 32  1  0  0  0
 30 33  1  0  0  0
 33 34  1  0  0  0
 33 35  2  0  0  0
 10  1  2  0  0  0
 32 27  1  0  0  0
 22 13  1  0  0  0
  9  3  1  0  0  0
 21 15  1  0  0  0
  5 11  1  0  0  0
  5 12  1  0  0  0
 34 36  1  0  0  0
M  END
> <minimizedAffinity>
-8.83597

> <CNNscore>
0.6952510476

> <CNNaffinity>
7.4229021072

> <CNN_VS>
5.1607804298

> <CNNaffinity_variance>
0.0585628524

$$$$
[H]OC(=O)C1([H])C([H])([H])C([H])([H])N(C(=O)c2c(C([H])([H])OC([H])([H])C([H])([H])[H])c(-c3sc4c(OC([H])([H])[H])c([H])c(C([H])([H])[H])c([H])c4c3[H])c3c(N([H])[H])nc([H])nn23)C([H])([H])C1([H])[H]


 40 44  0  0  0  0  0  0  0  0999 V2000
   -2.7203   21.9202  -23.9425 C   0  0  0  0  0  0  0  0  0  0  0  0
   -1.3509   21.7035  -23.8256 C   0  0  0  0  0  0  0  0  0  0  0  0
   -0.7299   22.0996  -24.9940 C   0  0  0  0  0  0  0  0  0  0  0  0
    0.5284   22.0477  -25.5437 C   0  0  0  0  0  0  0  0  0  0  0  0
    1.5959   21.3706  -24.9091 N   0  0  0  0  0  0  0  0  0  0  0  0
    0.7528   22.4819  -26.8103 N   0  0  0  0  0  0  0  0  0  0  0  0
   -0.2355   22.9573  -27.5548 C   0  0  0  0  0  0  0  0  0  0  0  0
   -1.4316   22.9779  -26.9898 N   0  0  0  0  0  0  0  0  0  0  0  0
   -1.7567   22.5895  -25.7871 N   0  0  0  0  0  0  0  0  0  0  0  0
   -2.9579   22.4929  -25.1497 C   0  0  0  0  0  0  0  0  0  0  0  0
    2.4534   21.9074  -24.6841 H   0  0  0  0  0  0  0  0  0  0  0  0
    1.5636   20.3350  -24.7117 H   0  0  0  0  0  0  0  0  0  0  0  0
   -0.6463   21.3164  -22.5700 C   0  0  0  0  0  0  0  0  0  0  0  0
   -0.6177   20.1266  -21.9179 C   0  0  0  0  0  0  0  0  0  0  0  0
    0.0186   20.0670  -20.6949 C   0  0  0  0  0  0  0  0  0  0  0  0
    0.0917   18.9606  -19.8171 C   0  0  0  0  0  0  0  0  0  0  0  0
    0.7018   19.1202  -18.6032 C   0  0  0  0  0  0  0  0  0  0  0  0
    0.7300   17.9630  -17.6372 C   0  0  0  0  0  0  0  0  0  0  0  0
    1.2720   20.3008  -18.1612 C   0  0  0  0  0  0  0  0  0  0  0  0
    1.2133   21.3923  -19.0080 C   0  0  0  0  0  0  0  0  0  0  0  0
    0.5649   21.2133  -20.2636 C   0  0  0  0  0  0  0  0  0  0  0  0
    0.2128   22.3049  -21.4862 S   0  0  0  0  0  0  0  0  0  0  0  0
    1.7272   22.5358  -18.6743 O   0  0  0  0  0  0  0  0  0  0  0  0
    2.2430   23.5804  -18.1088 C   0  0  0  0  0  0  0  0  0  0  0  0
   -4.1872   23.1398  -25.5777 C   0  0  0  0  0  0  0  0  0  0  0  0
   -4.7266   22.5665  -26.6714 O   0  0  0  0  0  0  0  0  0  0  0  0
   -4.9958   24.1731  -25.1945 N   0  0  0  0  0  0  0  0  0  0  0  0
   -4.8943   25.1469  -24.1748 C   0  0  0  0  0  0  0  0  0  0  0  0
   -5.9337   26.2830  -24.3336 C   0  0  0  0  0  0  0  0  0  0  0  0
   -7.3355   25.7850  -24.2616 C   0  0  0  0  0  0  0  0  0  0  0  0
   -7.4440   24.4145  -24.9043 C   0  0  0  0  0  0  0  0  0  0  0  0
   -6.3120   24.2891  -25.9392 C   0  0  0  0  0  0  0  0  0  0  0  0
   -7.8900   25.7774  -22.9020 C   0  0  0  0  0  0  0  0  0  0  0  0
   -7.5565   26.6770  -21.8916 O   0  0  0  0  0  0  0  0  0  0  0  0
   -8.7577   24.8723  -22.5941 O   0  0  0  0  0  0  0  0  0  0  0  0
   -6.9932   26.3598  -21.1255 H   0  0  0  0  0  0  0  0  0  0  0  0
   -3.6840   21.4292  -22.8619 C   0  0  0  0  0  0  0  0  0  0  0  0
   -3.8967   22.4027  -22.0550 O   0  0  0  0  0  0  0  0  0  0  0  0
   -5.4746   23.7927  -20.8238 C   0  0  0  0  0  0  0  0  0  0  0  0
   -4.1227   23.2935  -21.2394 C   0  0  0  0  0  0  0  0  0  0  0  0
 39 40  1  0  0  0
 40 38  1  0  0  0
 38 37  1  0  0  0
 37  1  1  0  0  0
  1  2  1  0  0  0
  2 13  1  0  0  0
 13 14  2  0  0  0
 14 15  1  0  0  0
 15 16  2  0  0  0
 16 17  1  0  0  0
 17 18  1  0  0  0
 17 19  2  0  0  0
 19 20  1  0  0  0
 20 23  1  0  0  0
 23 24  1  0  0  0
 20 21  2  0  0  0
 21 22  1  0  0  0
  2  3  2  0  0  0
  3  4  1  0  0  0
  4  5  1  0  0  0
  4  6  2  0  0  0
  6  7  1  0  0  0
  7  8  2  0  0  0
  8  9  1  0  0  0
  9 10  1  0  0  0
 10 25  1  0  0  0
 25 26  2  0  0  0
 25 27  1  0  0  0
 27 28  1  0  0  0
 28 29  1  0  0  0
 29 30  1  0  0  0
 30 31  1  0  0  0
 31 32  1  0  0  0
 30 33  1  0  0  0
 33 34  1  0  0  0
 33 35  2  0  0  0
 10  1  2  0  0  0
 32 27  1  0  0  0
 22 13  1  0  0  0
  9  3  1  0  0  0
 21 15  1  0  0  0
  5 11  1  0  0  0
  5 12  1  0  0  0
 34 36  1  0  0  0
M  END
> <minimizedAffinity>
-7.54506

> <CNNscore>
0.6811819673

> <CNNaffinity>
7.3170814514

> <CNN_VS>
4.9842638969

> <CNNaffinity_variance>
0.0941482186

$$$$
[H]OC(=O)C1([H])C([H])([H])C([H])([H])N(C(=O)c2c(C([H])([H])OC([H])([H])C([H])([H])[H])c(-c3sc4c(OC([H])([H])[H])c([H])c(C([H])([H])[H])c([H])c4c3[H])c3c(N([H])[H])nc([H])nn23)C([H])([H])C1([H])[H]


 40 44  0  0  0  0  0  0  0  0999 V2000
   -2.3970   22.4424  -23.0283 C   0  0  0  0  0  0  0  0  0  0  0  0
   -1.1237   21.8830  -23.0673 C   0  0  0  0  0  0  0  0  0  0  0  0
   -0.5673   22.1135  -24.3102 C   0  0  0  0  0  0  0  0  0  0  0  0
    0.5614   21.7451  -25.0021 C   0  0  0  0  0  0  0  0  0  0  0  0
    1.4902   20.8149  -24.4799 N   0  0  0  0  0  0  0  0  0  0  0  0
    0.7350   22.1141  -26.2970 N   0  0  0  0  0  0  0  0  0  0  0  0
   -0.1821   22.8297  -26.9325 C   0  0  0  0  0  0  0  0  0  0  0  0
   -1.2571   23.1518  -26.2319 N   0  0  0  0  0  0  0  0  0  0  0  0
   -1.5235   22.8531  -24.9898 N   0  0  0  0  0  0  0  0  0  0  0  0
   -2.6244   23.0629  -24.2137 C   0  0  0  0  0  0  0  0  0  0  0  0
    2.4764   21.1141  -24.3708 H   0  0  0  0  0  0  0  0  0  0  0  0
    1.2199   19.8208  -24.2535 H   0  0  0  0  0  0  0  0  0  0  0  0
   -0.3951   21.3226  -21.8934 C   0  0  0  0  0  0  0  0  0  0  0  0
   -0.2197   20.0323  -21.5111 C   0  0  0  0  0  0  0  0  0  0  0  0
    0.3982   19.7873  -20.3019 C   0  0  0  0  0  0  0  0  0  0  0  0
    0.6028   18.5339  -19.6795 C   0  0  0  0  0  0  0  0  0  0  0  0
    1.1658   18.4998  -18.4333 C   0  0  0  0  0  0  0  0  0  0  0  0
    1.3312   17.1724  -17.7379 C   0  0  0  0  0  0  0  0  0  0  0  0
    1.5667   19.6173  -17.7229 C   0  0  0  0  0  0  0  0  0  0  0  0
    1.3779   20.8513  -18.3176 C   0  0  0  0  0  0  0  0  0  0  0  0
    0.7801   20.8710  -19.6104 C   0  0  0  0  0  0  0  0  0  0  0  0
    0.3068   22.1503  -20.5849 S   0  0  0  0  0  0  0  0  0  0  0  0
    1.7297   21.9495  -17.7233 O   0  0  0  0  0  0  0  0  0  0  0  0
    2.2349   22.8964  -16.9986 C   0  0  0  0  0  0  0  0  0  0  0  0
   -3.6914   24.0042  -24.5110 C   0  0  0  0  0  0  0  0  0  0  0  0
   -3.7970   24.9829  -23.5907 O   0  0  0  0  0  0  0  0  0  0  0  0
   -4.6409   24.2167  -25.4711 N   0  0  0  0  0  0  0  0  0  0  0  0
   -5.0299   23.4869  -26.6175 C   0  0  0  0  0  0  0  0  0  0  0  0
   -6.3577   24.0001  -27.2255 C   0  0  0  0  0  0  0  0  0  0  0  0
   -6.2665   25.4170  -27.6755 C   0  0  0  0  0  0  0  0  0  0  0  0
   -5.3765   26.2134  -26.7391 C   0  0  0  0  0  0  0  0  0  0  0  0
   -5.4034   25.5233  -25.3639 C   0  0  0  0  0  0  0  0  0  0  0  0
   -5.8347   25.5664  -29.0709 C   0  0  0  0  0  0  0  0  0  0  0  0
   -6.3193   24.8259  -30.1472 O   0  0  0  0  0  0  0  0  0  0  0  0
   -4.9330   26.4481  -29.3472 O   0  0  0  0  0  0  0  0  0  0  0  0
   -5.7290   24.1308  -30.5633 H   0  0  0  0  0  0  0  0  0  0  0  0
   -3.3170   22.2080  -21.8299 C   0  0  0  0  0  0  0  0  0  0  0  0
   -4.4725   21.8829  -22.2807 O   0  0  0  0  0  0  0  0  0  0  0  0
   -5.9980   21.1875  -24.0490 C   0  0  0  0  0  0  0  0  0  0  0  0
   -5.6056   21.5976  -22.6607 C   0  0  0  0  0  0  0  0  0  0  0  0
 39 40  1  0  0  0
 40 38  1  0  0  0
 38 37  1  0  0  0
 37  1  1  0  0  0
  1  2  1  0  0  0
  2 13  1  0  0  0
 13 14  2  0  0  0
 14 15  1  0  0  0
 15 16  2  0  0  0
 16 17  1  0  0  0
 17 18  1  0  0  0
 17 19  2  0  0  0
 19 20  1  0  0  0
 20 23  1  0  0  0
 23 24  1  0  0  0
 20 21  2  0  0  0
 21 22  1  0  0  0
  2  3  2  0  0  0
  3  4  1  0  0  0
  4  5  1  0  0  0
  4  6  2  0  0  0
  6  7  1  0  0  0
  7  8  2  0  0  0
  8  9  1  0  0  0
  9 10  1  0  0  0
 10 25  1  0  0  0
 25 26  2  0  0  0
 25 27  1  0  0  0
 27 28  1  0  0  0
 28 29  1  0  0  0
 29 30  1  0  0  0
 30 31  1  0  0  0
 31 32  1  0  0  0
 30 33  1  0  0  0
 33 34  1  0  0  0
 33 35  2  0  0  0
 10  1  2  0  0  0
 32 27  1  0  0  0
 22 13  1  0  0  0
  9  3  1  0  0  0
 21 15  1  0  0  0
  5 11  1  0  0  0
  5 12  1  0  0  0
 34 36  1  0  0  0
M  END
> <minimizedAffinity>
-7.31780

> <CNNscore>
0.5186158419

> <CNNaffinity>
7.2916908264

> <CNN_VS>
3.7815864086

> <CNNaffinity_variance>
0.2273775041

$$$$
[H]OC(=O)C1([H])C([H])([H])C([H])([H])N(C(=O)c2c(C([H])([H])OC([H])([H])C([H])([H])[H])c(-c3sc4c(OC([H])([H])[H])c([H])c(C([H])([H])[H])c([H])c4c3[H])c3c(N([H])[H])nc([H])nn23)C([H])([H])C1([H])[H]


 40 44  0  0  0  0  0  0  0  0999 V2000
   -1.2882   21.1046  -21.4972 C   0  0  0  0  0  0  0  0  0  0  0  0
   -0.9211   21.6520  -22.7225 C   0  0  0  0  0  0  0  0  0  0  0  0
    0.4226   21.4161  -22.9378 C   0  0  0  0  0  0  0  0  0  0  0  0
    1.3829   21.7738  -23.8533 C   0  0  0  0  0  0  0  0  0  0  0  0
    1.1200   22.6954  -24.8937 N   0  0  0  0  0  0  0  0  0  0  0  0
    2.6779   21.4031  -23.6841 N   0  0  0  0  0  0  0  0  0  0  0  0
    3.0538   20.6960  -22.6278 C   0  0  0  0  0  0  0  0  0  0  0  0
    2.0990   20.3841  -21.7668 N   0  0  0  0  0  0  0  0  0  0  0  0
    0.8310   20.6855  -21.8322 N   0  0  0  0  0  0  0  0  0  0  0  0
   -0.2031   20.4861  -20.9665 C   0  0  0  0  0  0  0  0  0  0  0  0
    1.2679   22.3870  -25.8720 H   0  0  0  0  0  0  0  0  0  0  0  0
    0.8341   23.6920  -24.6999 H   0  0  0  0  0  0  0  0  0  0  0  0
   -1.8662   22.2058  -23.7340 C   0  0  0  0  0  0  0  0  0  0  0  0
   -2.1507   21.7749  -24.9890 C   0  0  0  0  0  0  0  0  0  0  0  0
   -2.9827   22.5483  -25.7725 C   0  0  0  0  0  0  0  0  0  0  0  0
   -3.3375   22.3308  -27.1242 C   0  0  0  0  0  0  0  0  0  0  0  0
   -4.1149   23.2595  -27.7601 C   0  0  0  0  0  0  0  0  0  0  0  0
   -4.4467   23.0656  -29.2180 C   0  0  0  0  0  0  0  0  0  0  0  0
   -4.5981   24.4141  -27.1705 C   0  0  0  0  0  0  0  0  0  0  0  0
   -4.2644   24.6413  -25.8480 C   0  0  0  0  0  0  0  0  0  0  0  0
   -3.4450   23.6709  -25.2030 C   0  0  0  0  0  0  0  0  0  0  0  0
   -2.7621   23.6492  -23.6721 S   0  0  0  0  0  0  0  0  0  0  0  0
   -4.6793   25.6963  -25.2173 O   0  0  0  0  0  0  0  0  0  0  0  0
   -5.2955   26.7287  -24.7363 C   0  0  0  0  0  0  0  0  0  0  0  0
   -0.1931   19.5548  -19.8505 C   0  0  0  0  0  0  0  0  0  0  0  0
   -0.2801   20.1703  -18.6549 O   0  0  0  0  0  0  0  0  0  0  0  0
   -0.1335   18.2066  -19.6333 N   0  0  0  0  0  0  0  0  0  0  0  0
    0.0288   17.0994  -20.4970 C   0  0  0  0  0  0  0  0  0  0  0  0
    0.3220   15.7868  -19.7306 C   0  0  0  0  0  0  0  0  0  0  0  0
   -0.7854   15.4066  -18.8101 C   0  0  0  0  0  0  0  0  0  0  0  0
   -1.4149   16.6452  -18.1995 C   0  0  0  0  0  0  0  0  0  0  0  0
   -0.3551   17.7609  -18.2006 C   0  0  0  0  0  0  0  0  0  0  0  0
   -1.8015   14.5483  -19.4323 C   0  0  0  0  0  0  0  0  0  0  0  0
   -2.8724   14.9971  -20.2024 O   0  0  0  0  0  0  0  0  0  0  0  0
   -1.7171   13.2709  -19.2649 O   0  0  0  0  0  0  0  0  0  0  0  0
   -3.7969   14.9597  -19.8169 H   0  0  0  0  0  0  0  0  0  0  0  0
   -2.6826   21.3477  -20.9193 C   0  0  0  0  0  0  0  0  0  0  0  0
   -2.5473   22.0352  -19.8454 O   0  0  0  0  0  0  0  0  0  0  0  0
   -2.9726   22.4896  -17.4895 C   0  0  0  0  0  0  0  0  0  0  0  0
   -2.3997   22.7434  -18.8522 C   0  0  0  0  0  0  0  0  0  0  0  0
 39 40  1  0  0  0
 40 38  1  0  0  0
 38 37  1  0  0  0
 37  1  1  0  0  0
  1  2  1  0  0  0
  2 13  1  0  0  0
 13 14  2  0  0  0
 14 15  1  0  0  0
 15 16  2  0  0  0
 16 17  1  0  0  0
 17 18  1  0  0  0
 17 19  2  0  0  0
 19 20  1  0  0  0
 20 23  1  0  0  0
 23 24  1  0  0  0
 20 21  2  0  0  0
 21 22  1  0  0  0
  2  3  2  0  0  0
  3  4  1  0  0  0
  4  5  1  0  0  0
  4  6  2  0  0  0
  6  7  1  0  0  0
  7  8  2  0  0  0
  8  9  1  0  0  0
  9 10  1  0  0  0
 10 25  1  0  0  0
 25 26  2  0  0  0
 25 27  1  0  0  0
 27 28  1  0  0  0
 28 29  1  0  0  0
 29 30  1  0  0  0
 30 31  1  0  0  0
 31 32  1  0  0  0
 30 33  1  0  0  0
 33 34  1  0  0  0
 33 35  2  0  0  0
 10  1  2  0  0  0
 32 27  1  0  0  0
 22 13  1  0  0  0
  9  3  1  0  0  0
 21 15  1  0  0  0
  5 11  1  0  0  0
  5 12  1  0  0  0
 34 36  1  0  0  0
M  END
> <minimizedAffinity>
-7.50252

> <CNNscore>
0.2784689963

> <CNNaffinity>
6.5878210068

> <CNN_VS>
1.8345038891

> <CNNaffinity_variance>
0.1708116233

$$$$
[H]OC(=O)C1([H])C([H])([H])C([H])([H])N(C(=O)c2c(C([H])([H])OC([H])([H])C([H])([H])[H])c(-c3sc4c(OC([H])([H])[H])c([H])c(C([H])([H])[H])c([H])c4c3[H])c3c(N([H])[H])nc([H])nn23)C([H])([H])C1([H])[H]


 40 44  0  0  0  0  0  0  0  0999 V2000
   -1.6597   22.3552  -21.4041 C   0  0  0  0  0  0  0  0  0  0  0  0
   -1.3111   22.4390  -22.7485 C   0  0  0  0  0  0  0  0  0  0  0  0
   -0.0686   21.8635  -22.9292 C   0  0  0  0  0  0  0  0  0  0  0  0
    0.8506   21.7279  -23.9416 C   0  0  0  0  0  0  0  0  0  0  0  0
    0.6774   22.3514  -25.1994 N   0  0  0  0  0  0  0  0  0  0  0  0
    2.0558   21.1460  -23.7138 N   0  0  0  0  0  0  0  0  0  0  0  0
    2.3835   20.7026  -22.5084 C   0  0  0  0  0  0  0  0  0  0  0  0
    1.4736   20.8642  -21.5618 N   0  0  0  0  0  0  0  0  0  0  0  0
    0.2909   21.4049  -21.6708 N   0  0  0  0  0  0  0  0  0  0  0  0
   -0.6736   21.6903  -20.7505 C   0  0  0  0  0  0  0  0  0  0  0  0
    0.6655   21.7540  -26.0462 H   0  0  0  0  0  0  0  0  0  0  0  0
    0.6161   23.3994  -25.3011 H   0  0  0  0  0  0  0  0  0  0  0  0
   -2.2200   22.8767  -23.8462 C   0  0  0  0  0  0  0  0  0  0  0  0
   -2.5658   22.2441  -24.9960 C   0  0  0  0  0  0  0  0  0  0  0  0
   -3.3379   22.9291  -25.9119 C   0  0  0  0  0  0  0  0  0  0  0  0
   -3.7360   22.4934  -27.1971 C   0  0  0  0  0  0  0  0  0  0  0  0
   -4.4367   23.3530  -27.9978 C   0  0  0  0  0  0  0  0  0  0  0  0
   -4.8117   22.9181  -29.3918 C   0  0  0  0  0  0  0  0  0  0  0  0
   -4.8014   24.6384  -27.6386 C   0  0  0  0  0  0  0  0  0  0  0  0
   -4.4240   25.0801  -26.3838 C   0  0  0  0  0  0  0  0  0  0  0  0
   -3.6850   24.1775  -25.5664 C   0  0  0  0  0  0  0  0  0  0  0  0
   -2.9789   24.3828  -24.0598 S   0  0  0  0  0  0  0  0  0  0  0  0
   -4.7290   26.2696  -25.9654 O   0  0  0  0  0  0  0  0  0  0  0  0
   -5.2465   27.4210  -25.6765 C   0  0  0  0  0  0  0  0  0  0  0  0
   -0.7416   21.1346  -19.4091 C   0  0  0  0  0  0  0  0  0  0  0  0
    0.4303   21.2168  -18.7489 O   0  0  0  0  0  0  0  0  0  0  0  0
   -1.6577   20.5482  -18.5814 N   0  0  0  0  0  0  0  0  0  0  0  0
   -3.0041   20.1564  -18.7606 C   0  0  0  0  0  0  0  0  0  0  0  0
   -3.5227   19.2679  -17.6039 C   0  0  0  0  0  0  0  0  0  0  0  0
   -3.4902   19.9691  -16.2902 C   0  0  0  0  0  0  0  0  0  0  0  0
   -2.2807   20.8820  -16.2073 C   0  0  0  0  0  0  0  0  0  0  0  0
   -1.2029   20.3221  -17.1523 C   0  0  0  0  0  0  0  0  0  0  0  0
   -4.7263   20.6985  -15.9800 C   0  0  0  0  0  0  0  0  0  0  0  0
   -4.9842   22.0254  -16.3176 O   0  0  0  0  0  0  0  0  0  0  0  0
   -5.6638   20.0813  -15.3420 O   0  0  0  0  0  0  0  0  0  0  0  0
   -4.9852   22.7191  -15.5941 H   0  0  0  0  0  0  0  0  0  0  0  0
   -2.9150   23.0513  -20.8778 C   0  0  0  0  0  0  0  0  0  0  0  0
   -3.9284   22.3456  -21.2232 O   0  0  0  0  0  0  0  0  0  0  0  0
   -5.6564   21.8774  -22.8762 C   0  0  0  0  0  0  0  0  0  0  0  0
   -4.9275   21.7227  -21.5745 C   0  0  0  0  0  0  0  0  0  0  0  0
 39 40  1  0  0  0
 40 38  1  0  0  0
 38 37  1  0  0  0
 37  1  1  0  0  0
  1  2  1  0  0  0
  2 13  1  0  0  0
 13 14  2  0  0  0
 14 15  1  0  0  0
 15 16  2  0  0  0
 16 17  1  0  0  0
 17 18  1  0  0  0
 17 19  2  0  0  0
 19 20  1  0  0  0
 20 23  1  0  0  0
 23 24  1  0  0  0
 20 21  2  0  0  0
 21 22  1  0  0  0
  2  3  2  0  0  0
  3  4  1  0  0  0
  4  5  1  0  0  0
  4  6  2  0  0  0
  6  7  1  0  0  0
  7  8  2  0  0  0
  8  9  1  0  0  0
  9 10  1  0  0  0
 10 25  1  0  0  0
 25 26  2  0  0  0
 25 27  1  0  0  0
 27 28  1  0  0  0
 28 29  1  0  0  0
 29 30  1  0  0  0
 30 31  1  0  0  0
 31 32  1  0  0  0
 30 33  1  0  0  0
 33 34  1  0  0  0
 33 35  2  0  0  0
 10  1  2  0  0  0
 32 27  1  0  0  0
 22 13  1  0  0  0
  9  3  1  0  0  0
 21 15  1  0  0  0
  5 11  1  0  0  0
  5 12  1  0  0  0
 34 36  1  0  0  0
M  END
> <minimizedAffinity>
-6.85712

> <CNNscore>
0.2425311208

> <CNNaffinity>
6.9264020920

> <CNN_VS>
1.6798681021

> <CNNaffinity_variance>
0.3000309467

$$$$
[H]OC(=O)C1([H])C([H])([H])C([H])([H])N(C(=O)c2c(C([H])([H])OC([H])([H])C([H])([H])[H])c(-c3sc4c(OC([H])([H])[H])c([H])c(C([H])([H])[H])c([H])c4c3[H])c3c(N([H])[H])nc([H])nn23)C([H])([H])C1([H])[H]


 40 44  0  0  0  0  0  0  0  0999 V2000
   -3.8944   21.9630  -24.1852 C   0  0  0  0  0  0  0  0  0  0  0  0
   -3.6089   21.7558  -22.8393 C   0  0  0  0  0  0  0  0  0  0  0  0
   -2.2428   21.6264  -22.6825 C   0  0  0  0  0  0  0  0  0  0  0  0
   -1.3612   21.3081  -21.6776 C   0  0  0  0  0  0  0  0  0  0  0  0
   -1.8009   20.8983  -20.3971 N   0  0  0  0  0  0  0  0  0  0  0  0
   -0.0323   21.1903  -21.9292 N   0  0  0  0  0  0  0  0  0  0  0  0
    0.4501   21.3682  -23.1509 C   0  0  0  0  0  0  0  0  0  0  0  0
   -0.4353   21.6613  -24.0892 N   0  0  0  0  0  0  0  0  0  0  0  0
   -1.7263   21.7995  -23.9578 N   0  0  0  0  0  0  0  0  0  0  0  0
   -2.7209   22.0146  -24.8650 C   0  0  0  0  0  0  0  0  0  0  0  0
   -1.4907   21.4452  -19.5731 H   0  0  0  0  0  0  0  0  0  0  0  0
   -2.3831   20.0302  -20.2563 H   0  0  0  0  0  0  0  0  0  0  0  0
   -4.5915   21.8745  -21.7243 C   0  0  0  0  0  0  0  0  0  0  0  0
   -5.8429   21.3627  -21.6070 C   0  0  0  0  0  0  0  0  0  0  0  0
   -6.5985   21.7286  -20.5118 C   0  0  0  0  0  0  0  0  0  0  0  0
   -7.9427   21.3829  -20.2408 C   0  0  0  0  0  0  0  0  0  0  0  0
   -8.5508   21.9131  -19.1361 C   0  0  0  0  0  0  0  0  0  0  0  0
  -10.0016   21.5981  -18.8737 C   0  0  0  0  0  0  0  0  0  0  0  0
   -7.9390   22.7718  -18.2403 C   0  0  0  0  0  0  0  0  0  0  0  0
   -6.6232   23.1177  -18.4873 C   0  0  0  0  0  0  0  0  0  0  0  0
   -6.0076   22.5666  -19.6475 C   0  0  0  0  0  0  0  0  0  0  0  0
   -4.4944   22.8278  -20.3202 S   0  0  0  0  0  0  0  0  0  0  0  0
   -5.9729   23.9134  -17.6954 O   0  0  0  0  0  0  0  0  0  0  0  0
   -5.5515   24.8003  -16.8511 C   0  0  0  0  0  0  0  0  0  0  0  0
   -2.5252   22.4858  -26.2261 C   0  0  0  0  0  0  0  0  0  0  0  0
   -1.5933   21.7791  -26.8953 O   0  0  0  0  0  0  0  0  0  0  0  0
   -3.0182   23.4450  -27.0659 N   0  0  0  0  0  0  0  0  0  0  0  0
   -3.9492   24.4936  -26.8873 C   0  0  0  0  0  0  0  0  0  0  0  0
   -3.9551   25.4903  -28.0717 C   0  0  0  0  0  0  0  0  0  0  0  0
   -4.3364   24.8425  -29.3576 C   0  0  0  0  0  0  0  0  0  0  0  0
   -3.7936   23.4266  -29.4184 C   0  0  0  0  0  0  0  0  0  0  0  0
   -2.5552   23.3579  -28.5075 C   0  0  0  0  0  0  0  0  0  0  0  0
   -5.7798   24.8681  -29.6260 C   0  0  0  0  0  0  0  0  0  0  0  0
   -6.6091   25.9760  -29.4640 O   0  0  0  0  0  0  0  0  0  0  0  0
   -6.3489   23.7880  -30.0458 O   0  0  0  0  0  0  0  0  0  0  0  0
   -7.2579   25.9891  -28.7000 H   0  0  0  0  0  0  0  0  0  0  0  0
   -5.3398   21.9844  -24.6829 C   0  0  0  0  0  0  0  0  0  0  0  0
   -5.8347   23.1329  -24.3999 O   0  0  0  0  0  0  0  0  0  0  0  0
   -7.1509   25.1106  -24.9423 C   0  0  0  0  0  0  0  0  0  0  0  0
   -6.2524   24.2501  -24.1045 C   0  0  0  0  0  0  0  0  0  0  0  0
 39 40  1  0  0  0
 40 38  1  0  0  0
 38 37  1  0  0  0
 37  1  1  0  0  0
  1  2  1  0  0  0
  2 13  1  0  0  0
 13 14  2  0  0  0
 14 15  1  0  0  0
 15 16  2  0  0  0
 16 17  1  0  0  0
 17 18  1  0  0  0
 17 19  2  0  0  0
 19 20  1  0  0  0
 20 23  1  0  0  0
 23 24  1  0  0  0
 20 21  2  0  0  0
 21 22  1  0  0  0
  2  3  2  0  0  0
  3  4  1  0  0  0
  4  5  1  0  0  0
  4  6  2  0  0  0
  6  7  1  0  0  0
  7  8  2  0  0  0
  8  9  1  0  0  0
  9 10  1  0  0  0
 10 25  1  0  0  0
 25 26  2  0  0  0
 25 27  1  0  0  0
 27 28  1  0  0  0
 28 29  1  0  0  0
 29 30  1  0  0  0
 30 31  1  0  0  0
 31 32  1  0  0  0
 30 33  1  0  0  0
 33 34  1  0  0  0
 33 35  2  0  0  0
 10  1  2  0  0  0
 32 27  1  0  0  0
 22 13  1  0  0  0
  9  3  1  0  0  0
 21 15  1  0  0  0
  5 11  1  0  0  0
  5 12  1  0  0  0
 34 36  1  0  0  0
M  END
> <minimizedAffinity>
-7.92831

> <CNNscore>
0.0791220665

> <CNNaffinity>
6.6328301430

> <CNN_VS>
0.5248032212

> <CNNaffinity_variance>
0.1294783503

$$$$
[H]OC(=O)C1([H])C([H])([H])C([H])([H])N(C(=O)c2c(C([H])([H])OC([H])([H])C([H])([H])[H])c(-c3sc4c(OC([H])([H])[H])c([H])c(C([H])([H])[H])c([H])c4c3[H])c3c(N([H])[H])nc([H])nn23)C([H])([H])C1([H])[H]


 40 44  0  0  0  0  0  0  0  0999 V2000
   -3.0655   23.1584  -22.4566 C   0  0  0  0  0  0  0  0  0  0  0  0
   -1.8734   22.5359  -22.0996 C   0  0  0  0  0  0  0  0  0  0  0  0
   -1.0969   22.3665  -23.2292 C   0  0  0  0  0  0  0  0  0  0  0  0
    0.0825   21.7480  -23.5678 C   0  0  0  0  0  0  0  0  0  0  0  0
    0.8030   20.9526  -22.6463 N   0  0  0  0  0  0  0  0  0  0  0  0
    0.5079   21.7190  -24.8567 N   0  0  0  0  0  0  0  0  0  0  0  0
   -0.2062   22.2760  -25.8246 C   0  0  0  0  0  0  0  0  0  0  0  0
   -1.3397   22.8494  -25.4551 N   0  0  0  0  0  0  0  0  0  0  0  0
   -1.8394   22.9361  -24.2527 N   0  0  0  0  0  0  0  0  0  0  0  0
   -3.0233   23.4253  -23.7865 C   0  0  0  0  0  0  0  0  0  0  0  0
    1.7846   21.2108  -22.4371 H   0  0  0  0  0  0  0  0  0  0  0  0
    0.3902   20.0834  -22.2145 H   0  0  0  0  0  0  0  0  0  0  0  0
   -1.4159   22.2930  -20.7016 C   0  0  0  0  0  0  0  0  0  0  0  0
   -0.4163   22.8811  -19.9969 C   0  0  0  0  0  0  0  0  0  0  0  0
   -0.1161   22.3804  -18.7466 C   0  0  0  0  0  0  0  0  0  0  0  0
    0.9321   22.7850  -17.8877 C   0  0  0  0  0  0  0  0  0  0  0  0
    1.1218   22.1088  -16.7138 C   0  0  0  0  0  0  0  0  0  0  0  0
    2.2745   22.4944  -15.8218 C   0  0  0  0  0  0  0  0  0  0  0  0
    0.3477   21.0440  -16.2881 C   0  0  0  0  0  0  0  0  0  0  0  0
   -0.6844   20.6372  -17.1134 C   0  0  0  0  0  0  0  0  0  0  0  0
   -0.8619   21.3438  -18.3374 C   0  0  0  0  0  0  0  0  0  0  0  0
   -1.9148   21.0838  -19.6159 S   0  0  0  0  0  0  0  0  0  0  0  0
   -1.4615   19.6504  -16.7885 O   0  0  0  0  0  0  0  0  0  0  0  0
   -2.0612   18.5229  -16.5737 C   0  0  0  0  0  0  0  0  0  0  0  0
   -3.9150   24.3041  -24.5250 C   0  0  0  0  0  0  0  0  0  0  0  0
   -4.0966   25.4941  -23.9193 O   0  0  0  0  0  0  0  0  0  0  0  0
   -4.6379   24.3009  -25.6851 N   0  0  0  0  0  0  0  0  0  0  0  0
   -4.8715   23.3143  -26.6702 C   0  0  0  0  0  0  0  0  0  0  0  0
   -6.0013   23.7111  -27.6513 C   0  0  0  0  0  0  0  0  0  0  0  0
   -5.6857   24.9540  -28.4087 C   0  0  0  0  0  0  0  0  0  0  0  0
   -4.9161   25.9262  -27.5336 C   0  0  0  0  0  0  0  0  0  0  0  0
   -5.2733   25.6238  -26.0676 C   0  0  0  0  0  0  0  0  0  0  0  0
   -4.9828   24.7111  -29.6749 C   0  0  0  0  0  0  0  0  0  0  0  0
   -5.5131   24.0383  -30.7737 O   0  0  0  0  0  0  0  0  0  0  0  0
   -3.7739   25.1458  -29.8032 O   0  0  0  0  0  0  0  0  0  0  0  0
   -5.1769   23.1187  -30.9886 H   0  0  0  0  0  0  0  0  0  0  0  0
   -4.1912   23.3332  -21.4370 C   0  0  0  0  0  0  0  0  0  0  0  0
   -5.1865   22.6251  -21.8269 O   0  0  0  0  0  0  0  0  0  0  0  0
   -6.3419   21.5402  -23.6778 C   0  0  0  0  0  0  0  0  0  0  0  0
   -6.1364   21.9753  -22.2572 C   0  0  0  0  0  0  0  0  0  0  0  0
 39 40  1  0  0  0
 40 38  1  0  0  0
 38 37  1  0  0  0
 37  1  1  0  0  0
  1  2  1  0  0  0
  2 13  1  0  0  0
 13 14  2  0  0  0
 14 15  1  0  0  0
 15 16  2  0  0  0
 16 17  1  0  0  0
 17 18  1  0  0  0
 17 19  2  0  0  0
 19 20  1  0  0  0
 20 23  1  0  0  0
 23 24  1  0  0  0
 20 21  2  0  0  0
 21 22  1  0  0  0
  2  3  2  0  0  0
  3  4  1  0  0  0
  4  5  1  0  0  0
  4  6  2  0  0  0
  6  7  1  0  0  0
  7  8  2  0  0  0
  8  9  1  0  0  0
  9 10  1  0  0  0
 10 25  1  0  0  0
 25 26  2  0  0  0
 25 27  1  0  0  0
 27 28  1  0  0  0
 28 29  1  0  0  0
 29 30  1  0  0  0
 30 31  1  0  0  0
 31 32  1  0  0  0
 30 33  1  0  0  0
 33 34  1  0  0  0
 33 35  2  0  0  0
 10  1  2  0  0  0
 32 27  1  0  0  0
 22 13  1  0  0  0
  9  3  1  0  0  0
 21 15  1  0  0  0
  5 11  1  0  0  0
  5 12  1  0  0  0
 34 36  1  0  0  0
M  END
> <minimizedAffinity>
-7.73342

> <CNNscore>
0.0558317043

> <CNNaffinity>
6.4578142166

> <CNN_VS>
0.3605507612

> <CNNaffinity_variance>
0.1300166845

$$$$
[H]OC(=O)C1([H])C([H])([H])C([H])([H])N(C(=O)c2c(C([H])([H])OC([H])([H])C([H])([H])[H])c(-c3sc4c(OC([H])([H])[H])c([H])c(C([H])([H])[H])c([H])c4c3[H])c3c(N([H])[H])nc([H])nn23)C([H])([H])C1([H])[H]


 40 44  0  0  0  0  0  0  0  0999 V2000
   -4.3187   21.7282  -20.9368 C   0  0  0  0  0  0  0  0  0  0  0  0
   -3.0570   21.9039  -21.4963 C   0  0  0  0  0  0  0  0  0  0  0  0
   -3.1974   22.2603  -22.8233 C   0  0  0  0  0  0  0  0  0  0  0  0
   -2.3846   22.4576  -23.9136 C   0  0  0  0  0  0  0  0  0  0  0  0
   -0.9950   22.1974  -23.8692 N   0  0  0  0  0  0  0  0  0  0  0  0
   -2.9123   22.7295  -25.1346 N   0  0  0  0  0  0  0  0  0  0  0  0
   -4.2240   22.8016  -25.3114 C   0  0  0  0  0  0  0  0  0  0  0  0
   -4.9681   22.5934  -24.2376 N   0  0  0  0  0  0  0  0  0  0  0  0
   -4.5678   22.3282  -23.0241 N   0  0  0  0  0  0  0  0  0  0  0  0
   -5.2469   22.0187  -21.8833 C   0  0  0  0  0  0  0  0  0  0  0  0
   -0.3430   22.9710  -24.0937 H   0  0  0  0  0  0  0  0  0  0  0  0
   -0.6117   21.2351  -23.6702 H   0  0  0  0  0  0  0  0  0  0  0  0
   -1.7747   21.9214  -20.7359 C   0  0  0  0  0  0  0  0  0  0  0  0
   -1.2215   22.9052  -19.9823 C   0  0  0  0  0  0  0  0  0  0  0  0
    0.0484   22.7077  -19.4799 C   0  0  0  0  0  0  0  0  0  0  0  0
    0.8364   23.6273  -18.7495 C   0  0  0  0  0  0  0  0  0  0  0  0
    2.1126   23.2752  -18.4050 C   0  0  0  0  0  0  0  0  0  0  0  0
    2.9797   24.2729  -17.6799 C   0  0  0  0  0  0  0  0  0  0  0  0
    2.7020   22.0622  -18.7139 C   0  0  0  0  0  0  0  0  0  0  0  0
    1.9449   21.1490  -19.4244 C   0  0  0  0  0  0  0  0  0  0  0  0
    0.6221   21.5347  -19.7855 C   0  0  0  0  0  0  0  0  0  0  0  0
   -0.5362   20.7571  -20.7151 S   0  0  0  0  0  0  0  0  0  0  0  0
    2.4185   19.9862  -19.7511 O   0  0  0  0  0  0  0  0  0  0  0  0
    2.9633   18.8145  -19.8363 C   0  0  0  0  0  0  0  0  0  0  0  0
   -6.6673   22.2401  -21.6682 C   0  0  0  0  0  0  0  0  0  0  0  0
   -7.2741   21.1977  -21.0673 O   0  0  0  0  0  0  0  0  0  0  0  0
   -7.6030   23.2132  -21.8823 N   0  0  0  0  0  0  0  0  0  0  0  0
   -7.5523   24.4721  -22.5232 C   0  0  0  0  0  0  0  0  0  0  0  0
   -8.9583   25.0765  -22.7565 C   0  0  0  0  0  0  0  0  0  0  0  0
   -9.6930   25.3145  -21.4830 C   0  0  0  0  0  0  0  0  0  0  0  0
   -9.3737   24.2248  -20.4761 C   0  0  0  0  0  0  0  0  0  0  0  0
   -8.9637   22.9655  -21.2597 C   0  0  0  0  0  0  0  0  0  0  0  0
   -9.4653   26.6474  -20.9106 C   0  0  0  0  0  0  0  0  0  0  0  0
  -10.0295   27.8319  -21.3795 O   0  0  0  0  0  0  0  0  0  0  0  0
   -8.6815   26.7555  -19.8903 O   0  0  0  0  0  0  0  0  0  0  0  0
   -9.4470   28.4890  -21.8630 H   0  0  0  0  0  0  0  0  0  0  0  0
   -4.4749   21.1768  -19.5195 C   0  0  0  0  0  0  0  0  0  0  0  0
   -4.8559   22.1402  -18.7640 O   0  0  0  0  0  0  0  0  0  0  0  0
   -6.4618   23.9041  -18.2664 C   0  0  0  0  0  0  0  0  0  0  0  0
   -5.2060   23.1039  -18.0868 C   0  0  0  0  0  0  0  0  0  0  0  0
 39 40  1  0  0  0
 40 38  1  0  0  0
 38 37  1  0  0  0
 37  1  1  0  0  0
  1  2  1  0  0  0
  2 13  1  0  0  0
 13 14  2  0  0  0
 14 15  1  0  0  0
 15 16  2  0  0  0
 16 17  1  0  0  0
 17 18  1  0  0  0
 17 19  2  0  0  0
 19 20  1  0  0  0
 20 23  1  0  0  0
 23 24  1  0  0  0
 20 21  2  0  0  0
 21 22  1  0  0  0
  2  3  2  0  0  0
  3  4  1  0  0  0
  4  5  1  0  0  0
  4  6  2  0  0  0
  6  7  1  0  0  0
  7  8  2  0  0  0
  8  9  1  0  0  0
  9 10  1  0  0  0
 10 25  1  0  0  0
 25 26  2  0  0  0
 25 27  1  0  0  0
 27 28  1  0  0  0
 28 29  1  0  0  0
 29 30  1  0  0  0
 30 31  1  0  0  0
 31 32  1  0  0  0
 30 33  1  0  0  0
 33 34  1  0  0  0
 33 35  2  0  0  0
 10  1  2  0  0  0
 32 27  1  0  0  0
 22 13  1  0  0  0
  9  3  1  0  0  0
 21 15  1  0  0  0
  5 11  1  0  0  0
  5 12  1  0  0  0
 34 36  1  0  0  0
M  END
> <minimizedAffinity>
-7.10100

> <CNNscore>
0.0556299351

> <CNNaffinity>
5.7616610527

> <CNN_VS>
0.3205208182

> <CNNaffinity_variance>
0.2682201564

$$$$
[H]OC(=O)C1([H])C([H])([H])C([H])([H])N(C(=O)c2c(C([H])([H])OC([H])([H])C([H])([H])[H])c(-c3sc4c(OC([H])([H])[H])c([H])c(C([H])([H])[H])c([H])c4c3[H])c3c(N([H])[H])nc([H])nn23)C([H])([H])C1([H])[H]


 40 44  0  0  0  0  0  0  0  0999 V2000
   -3.2010   22.6161  -21.1195 C   0  0  0  0  0  0  0  0  0  0  0  0
   -3.9145   22.0122  -20.0889 C   0  0  0  0  0  0  0  0  0  0  0  0
   -5.1991   21.7494  -20.5229 C   0  0  0  0  0  0  0  0  0  0  0  0
   -6.3791   21.2930  -19.9868 C   0  0  0  0  0  0  0  0  0  0  0  0
   -6.5255   21.0418  -18.6025 N   0  0  0  0  0  0  0  0  0  0  0  0
   -7.5109   21.2452  -20.7351 N   0  0  0  0  0  0  0  0  0  0  0  0
   -7.5121   21.6465  -21.9984 C   0  0  0  0  0  0  0  0  0  0  0  0
   -6.3578   22.0890  -22.4694 N   0  0  0  0  0  0  0  0  0  0  0  0
   -5.2166   22.1760  -21.8424 N   0  0  0  0  0  0  0  0  0  0  0  0
   -4.0077   22.6890  -22.2083 C   0  0  0  0  0  0  0  0  0  0  0  0
   -6.8074   20.0905  -18.3031 H   0  0  0  0  0  0  0  0  0  0  0  0
   -6.4105   21.8019  -17.8803 H   0  0  0  0  0  0  0  0  0  0  0  0
   -3.3281   21.5285  -18.8063 C   0  0  0  0  0  0  0  0  0  0  0  0
   -3.3752   22.0754  -17.5652 C   0  0  0  0  0  0  0  0  0  0  0  0
   -2.6360   21.4832  -16.5617 C   0  0  0  0  0  0  0  0  0  0  0  0
   -2.4766   21.9345  -15.2309 C   0  0  0  0  0  0  0  0  0  0  0  0
   -1.6316   21.2522  -14.3993 C   0  0  0  0  0  0  0  0  0  0  0  0
   -1.4093   21.7623  -12.9981 C   0  0  0  0  0  0  0  0  0  0  0  0
   -0.9125   20.1274  -14.7627 C   0  0  0  0  0  0  0  0  0  0  0  0
   -1.0590   19.6694  -16.0591 C   0  0  0  0  0  0  0  0  0  0  0  0
   -1.9336   20.3972  -16.9162 C   0  0  0  0  0  0  0  0  0  0  0  0
   -2.2817   20.2143  -18.5458 S   0  0  0  0  0  0  0  0  0  0  0  0
   -0.4255   18.6189  -16.4811 O   0  0  0  0  0  0  0  0  0  0  0  0
   -0.0108   17.5147  -17.0156 C   0  0  0  0  0  0  0  0  0  0  0  0
   -3.6015   22.9834  -23.5726 C   0  0  0  0  0  0  0  0  0  0  0  0
   -2.7286   22.0823  -24.0644 O   0  0  0  0  0  0  0  0  0  0  0  0
   -3.8485   23.9128  -24.5440 N   0  0  0  0  0  0  0  0  0  0  0  0
   -4.6162   25.0995  -24.5670 C   0  0  0  0  0  0  0  0  0  0  0  0
   -4.3434   25.9585  -25.8255 C   0  0  0  0  0  0  0  0  0  0  0  0
   -4.6877   25.2446  -27.0865 C   0  0  0  0  0  0  0  0  0  0  0  0
   -4.3712   23.7657  -26.9608 C   0  0  0  0  0  0  0  0  0  0  0  0
   -3.2593   23.6103  -25.9084 C   0  0  0  0  0  0  0  0  0  0  0  0
   -6.0738   25.4540  -27.5236 C   0  0  0  0  0  0  0  0  0  0  0  0
   -7.2075   25.2000  -26.7545 O   0  0  0  0  0  0  0  0  0  0  0  0
   -6.2839   25.9086  -28.7137 O   0  0  0  0  0  0  0  0  0  0  0  0
   -7.7825   24.4114  -26.9830 H   0  0  0  0  0  0  0  0  0  0  0  0
   -1.7946   23.1652  -20.8787 C   0  0  0  0  0  0  0  0  0  0  0  0
   -0.9555   22.2847  -21.2847 O   0  0  0  0  0  0  0  0  0  0  0  0
    0.5449   21.3641  -22.9697 C   0  0  0  0  0  0  0  0  0  0  0  0
   -0.1134   21.4572  -21.6252 C   0  0  0  0  0  0  0  0  0  0  0  0
 39 40  1  0  0  0
 40 38  1  0  0  0
 38 37  1  0  0  0
 37  1  1  0  0  0
  1  2  1  0  0  0
  2 13  1  0  0  0
 13 14  2  0  0  0
 14 15  1  0  0  0
 15 16  2  0  0  0
 16 17  1  0  0  0
 17 18  1  0  0  0
 17 19  2  0  0  0
 19 20  1  0  0  0
 20 23  1  0  0  0
 23 24  1  0  0  0
 20 21  2  0  0  0
 21 22  1  0  0  0
  2  3  2  0  0  0
  3  4  1  0  0  0
  4  5  1  0  0  0
  4  6  2  0  0  0
  6  7  1  0  0  0
  7  8  2  0  0  0
  8  9  1  0  0  0
  9 10  1  0  0  0
 10 25  1  0  0  0
 25 26  2  0  0  0
 25 27  1  0  0  0
 27 28  1  0  0  0
 28 29  1  0  0  0
 29 30  1  0  0  0
 30 31  1  0  0  0
 31 32  1  0  0  0
 30 33  1  0  0  0
 33 34  1  0  0  0
 33 35  2  0  0  0
 10  1  2  0  0  0
 32 27  1  0  0  0
 22 13  1  0  0  0
  9  3  1  0  0  0
 21 15  1  0  0  0
  5 11  1  0  0  0
  5 12  1  0  0  0
 34 36  1  0  0  0
M  END
> <minimizedAffinity>
-6.97402

> <CNNscore>
0.0485684611

> <CNNaffinity>
5.9102711678

> <CNN_VS>
0.2870527804

> <CNNaffinity_variance>
0.0650974140

$$$$
